MODEL 1
REMARK VINA RESULT:      -4.5      0.000      0.000
REMARK  10 active torsions:
REMARK  status: ('A' for Active; 'I' for Inactive)
REMARK    1  A    between atoms: C_1  and  N_32 
REMARK    2  A    between atoms: C_2  and  C_3 
REMARK    3  A    between atoms: C_2  and  N_32 
REMARK    4  A    between atoms: C_3  and  C_5 
REMARK    5  A    between atoms: C_3  and  O_16 
REMARK    6  A    between atoms: C_7  and  O_14 
REMARK    7  A    between atoms: C_8  and  O_13 
REMARK    8  A    between atoms: C_9  and  O_11 
REMARK    9  A    between atoms: O_11  and  C_12 
REMARK   10  A    between atoms: O_14  and  C_15 
ROOT
ATOM      1  C   LIG d   1       9.890   8.310  -1.087  0.00  0.00    -0.007 A 
ATOM      2  C   LIG d   1      10.588   7.832   0.006  0.00  0.00    -0.010 A 
ATOM      3  C   LIG d   1      10.994   6.507   0.047  0.00  0.00     0.165 A 
ATOM      4  C   LIG d   1      10.694   5.658  -1.012  0.00  0.00     0.201 A 
ATOM      5  C   LIG d   1       9.997   6.143  -2.112  0.00  0.00     0.165 A 
ATOM      6  C   LIG d   1       9.594   7.470  -2.144  0.00  0.00    -0.010 A 
ATOM      7  H   LIG d   1      10.818   8.491   0.830  0.00  0.00     0.066 H 
ATOM      8  H   LIG d   1       9.049   7.847  -2.996  0.00  0.00     0.066 H 
ENDROOT
BRANCH   1   9
ATOM      9  C   LIG d   1       9.451   9.751  -1.126  0.00  0.00     0.120 C 
ATOM     10  H   LIG d   1       9.840  10.273  -0.250  0.00  0.00     0.070 H 
BRANCH   9  11
ATOM     11  C   LIG d   1       9.990  10.414  -2.395  0.00  0.00    -0.003 C 
ATOM     12  H   LIG d   1      10.614  11.265  -2.125  0.00  0.00     0.084 H 
ATOM     13  H   LIG d   1      10.583   9.693  -2.958  0.00  0.00     0.084 H 
BRANCH  11  14
ATOM     14  N   LIG d   1       8.856  10.874  -3.219  0.00  0.00     0.227 N 
ATOM     15  H   LIG d   1       8.051  10.255  -3.063  0.00  0.00     0.201 HD
ATOM     16  H   LIG d   1       8.607  11.833  -2.948  0.00  0.00     0.201 HD
BRANCH  14  17
ATOM     17  C   LIG d   1       9.217  10.850  -4.649  0.00  0.00    -0.045 C 
ATOM     18  H   LIG d   1       9.406   9.822  -4.962  0.00  0.00     0.078 H 
ATOM     19  H   LIG d   1       8.401  11.264  -5.240  0.00  0.00     0.078 H 
ATOM     20  H   LIG d   1      10.116  11.446  -4.800  0.00  0.00     0.078 H 
ENDBRANCH  14  17
ENDBRANCH  11  14
ENDBRANCH   9  11
BRANCH   9  21
ATOM     21  O   LIG d   1       8.025   9.815  -1.123  0.00  0.00    -0.382 OA
ATOM     22  H   LIG d   1       7.599   9.093  -0.640  0.00  0.00     0.210 HD
ENDBRANCH   9  21
ENDBRANCH   1   9
BRANCH   5  23
ATOM     23  O   LIG d   1       9.706   5.318  -3.153  0.00  0.00    -0.491 OA
BRANCH  23  24
ATOM     24  C   LIG d   1       9.609   5.915  -4.447  0.00  0.00     0.079 C 
ATOM     25  H   LIG d   1      10.600   5.968  -4.898  0.00  0.00     0.066 H 
ATOM     26  H   LIG d   1       8.955   5.312  -5.077  0.00  0.00     0.066 H 
ATOM     27  H   LIG d   1       9.198   6.920  -4.354  0.00  0.00     0.066 H 
ENDBRANCH  23  24
ENDBRANCH   5  23
BRANCH   3  28
ATOM     28  O   LIG d   1      11.680   6.037   1.123  0.00  0.00    -0.491 OA
BRANCH  28  29
ATOM     29  C   LIG d   1      10.911   5.641   2.260  0.00  0.00     0.079 C 
ATOM     30  H   LIG d   1      10.932   4.556   2.352  0.00  0.00     0.066 H 
ATOM     31  H   LIG d   1      11.334   6.090   3.160  0.00  0.00     0.066 H 
ATOM     32  H   LIG d   1       9.882   5.976   2.137  0.00  0.00     0.066 H 
ENDBRANCH  28  29
ENDBRANCH   3  28
BRANCH   4  33
ATOM     33  O   LIG d   1      11.086   4.355  -0.974  0.00  0.00    -0.501 OA
ATOM     34  H   LIG d   1      10.847   3.896  -0.157  0.00  0.00     0.292 HD
ENDBRANCH   4  33
TORSDOF 10
ENDMDL
MODEL 2
REMARK VINA RESULT:      -4.5      0.077      3.181
REMARK  10 active torsions:
REMARK  status: ('A' for Active; 'I' for Inactive)
REMARK    1  A    between atoms: C_1  and  N_32 
REMARK    2  A    between atoms: C_2  and  C_3 
REMARK    3  A    between atoms: C_2  and  N_32 
REMARK    4  A    between atoms: C_3  and  C_5 
REMARK    5  A    between atoms: C_3  and  O_16 
REMARK    6  A    between atoms: C_7  and  O_14 
REMARK    7  A    between atoms: C_8  and  O_13 
REMARK    8  A    between atoms: C_9  and  O_11 
REMARK    9  A    between atoms: O_11  and  C_12 
REMARK   10  A    between atoms: O_14  and  C_15 
ROOT
ATOM      1  C   LIG d   1       9.899   8.279  -1.084  0.00  0.00    -0.007 A 
ATOM      2  C   LIG d   1       9.610   7.436  -2.142  0.00  0.00    -0.010 A 
ATOM      3  C   LIG d   1      10.012   6.110  -2.104  0.00  0.00     0.165 A 
ATOM      4  C   LIG d   1      10.712   5.629  -1.003  0.00  0.00     0.201 A 
ATOM      5  C   LIG d   1      10.997   6.478   0.059  0.00  0.00     0.165 A 
ATOM      6  C   LIG d   1      10.591   7.803   0.014  0.00  0.00    -0.010 A 
ATOM      7  H   LIG d   1       9.068   7.811  -2.998  0.00  0.00     0.066 H 
ATOM      8  H   LIG d   1      10.815   8.464   0.838  0.00  0.00     0.066 H 
ENDROOT
BRANCH   1   9
ATOM      9  C   LIG d   1       9.459   9.719  -1.130  0.00  0.00     0.120 C 
ATOM     10  H   LIG d   1       9.863  10.249  -0.267  0.00  0.00     0.070 H 
BRANCH   9  11
ATOM     11  C   LIG d   1       9.975  10.369  -2.415  0.00  0.00    -0.003 C 
ATOM     12  H   LIG d   1      10.605  11.222  -2.164  0.00  0.00     0.084 H 
ATOM     13  H   LIG d   1      10.557   9.642  -2.981  0.00  0.00     0.084 H 
BRANCH  11  14
ATOM     14  N   LIG d   1       8.826  10.822  -3.223  0.00  0.00     0.227 N 
ATOM     15  H   LIG d   1       8.059  10.146  -3.130  0.00  0.00     0.201 HD
ATOM     16  H   LIG d   1       8.516  11.741  -2.884  0.00  0.00     0.201 HD
BRANCH  14  17
ATOM     17  C   LIG d   1       9.209  10.930  -4.643  0.00  0.00    -0.045 C 
ATOM     18  H   LIG d   1       9.451  11.967  -4.880  0.00  0.00     0.078 H 
ATOM     19  H   LIG d   1      10.078  10.301  -4.837  0.00  0.00     0.078 H 
ATOM     20  H   LIG d   1       8.375  10.602  -5.263  0.00  0.00     0.078 H 
ENDBRANCH  14  17
ENDBRANCH  11  14
ENDBRANCH   9  11
BRANCH   9  21
ATOM     21  O   LIG d   1       8.032   9.782  -1.103  0.00  0.00    -0.382 OA
ATOM     22  H   LIG d   1       7.659  10.481  -1.658  0.00  0.00     0.210 HD
ENDBRANCH   9  21
ENDBRANCH   1   9
BRANCH   5  23
ATOM     23  O   LIG d   1      11.676   6.011   1.141  0.00  0.00    -0.491 OA
BRANCH  23  24
ATOM     24  C   LIG d   1      10.904   5.650   2.287  0.00  0.00     0.079 C 
ATOM     25  H   LIG d   1      10.879   4.564   2.381  0.00  0.00     0.066 H 
ATOM     26  H   LIG d   1      11.356   6.082   3.180  0.00  0.00     0.066 H 
ATOM     27  H   LIG d   1       9.888   6.028   2.175  0.00  0.00     0.066 H 
ENDBRANCH  23  24
ENDBRANCH   5  23
BRANCH   3  28
ATOM     28  O   LIG d   1       9.727   5.282  -3.144  0.00  0.00    -0.491 OA
BRANCH  28  29
ATOM     29  C   LIG d   1       9.854   5.826  -4.460  0.00  0.00     0.079 C 
ATOM     30  H   LIG d   1      10.837   6.282  -4.570  0.00  0.00     0.066 H 
ATOM     31  H   LIG d   1       9.738   5.030  -5.196  0.00  0.00     0.066 H 
ATOM     32  H   LIG d   1       9.083   6.580  -4.617  0.00  0.00     0.066 H 
ENDBRANCH  28  29
ENDBRANCH   3  28
BRANCH   4  33
ATOM     33  O   LIG d   1      11.114   4.330  -0.965  0.00  0.00    -0.501 OA
ATOM     34  H   LIG d   1      11.724   4.085  -1.675  0.00  0.00     0.292 HD
ENDBRANCH   4  33
TORSDOF 10
ENDMDL
MODEL 3
REMARK VINA RESULT:      -4.4      1.439      1.983
REMARK  10 active torsions:
REMARK  status: ('A' for Active; 'I' for Inactive)
REMARK    1  A    between atoms: C_1  and  N_32 
REMARK    2  A    between atoms: C_2  and  C_3 
REMARK    3  A    between atoms: C_2  and  N_32 
REMARK    4  A    between atoms: C_3  and  C_5 
REMARK    5  A    between atoms: C_3  and  O_16 
REMARK    6  A    between atoms: C_7  and  O_14 
REMARK    7  A    between atoms: C_8  and  O_13 
REMARK    8  A    between atoms: C_9  and  O_11 
REMARK    9  A    between atoms: O_11  and  C_12 
REMARK   10  A    between atoms: O_14  and  C_15 
ROOT
ATOM      1  C   LIG d   1      10.046   9.177  -0.841  0.00  0.00    -0.007 A 
ATOM      2  C   LIG d   1      10.694   9.397   0.360  0.00  0.00    -0.010 A 
ATOM      3  C   LIG d   1      11.239   8.332   1.061  0.00  0.00     0.165 A 
ATOM      4  C   LIG d   1      11.126   7.041   0.558  0.00  0.00     0.201 A 
ATOM      5  C   LIG d   1      10.478   6.825  -0.652  0.00  0.00     0.165 A 
ATOM      6  C   LIG d   1       9.936   7.896  -1.347  0.00  0.00    -0.010 A 
ATOM      7  H   LIG d   1      10.779  10.400   0.752  0.00  0.00     0.066 H 
ATOM      8  H   LIG d   1       9.429   7.728  -2.285  0.00  0.00     0.066 H 
ENDROOT
BRANCH   1   9
ATOM      9  C   LIG d   1       9.457  10.338  -1.600  0.00  0.00     0.120 C 
ATOM     10  H   LIG d   1       9.818  11.274  -1.169  0.00  0.00     0.070 H 
BRANCH   9  11
ATOM     11  C   LIG d   1       9.880  10.256  -3.068  0.00  0.00    -0.003 C 
ATOM     12  H   LIG d   1      10.778  10.854  -3.222  0.00  0.00     0.084 H 
ATOM     13  H   LIG d   1      10.086   9.217  -3.328  0.00  0.00     0.084 H 
BRANCH  11  14
ATOM     14  N   LIG d   1       8.789  10.772  -3.916  0.00  0.00     0.227 N 
ATOM     15  H   LIG d   1       8.247   9.983  -4.288  0.00  0.00     0.201 HD
ATOM     16  H   LIG d   1       8.175  11.372  -3.351  0.00  0.00     0.201 HD
BRANCH  14  17
ATOM     17  C   LIG d   1       9.338  11.557  -5.037  0.00  0.00    -0.045 C 
ATOM     18  H   LIG d   1       9.802  12.467  -4.655  0.00  0.00     0.078 H 
ATOM     19  H   LIG d   1      10.084  10.965  -5.567  0.00  0.00     0.078 H 
ATOM     20  H   LIG d   1       8.530  11.820  -5.718  0.00  0.00     0.078 H 
ENDBRANCH  14  17
ENDBRANCH  11  14
ENDBRANCH   9  11
BRANCH   9  21
ATOM     21  O   LIG d   1       8.032  10.292  -1.511  0.00  0.00    -0.382 OA
ATOM     22  H   LIG d   1       7.664  10.834  -0.799  0.00  0.00     0.210 HD
ENDBRANCH   9  21
ENDBRANCH   1   9
BRANCH   5  23
ATOM     23  O   LIG d   1      10.370   5.564  -1.151  0.00  0.00    -0.491 OA
BRANCH  23  24
ATOM     24  C   LIG d   1       9.985   5.440  -2.522  0.00  0.00     0.079 C 
ATOM     25  H   LIG d   1       9.493   4.480  -2.675  0.00  0.00     0.066 H 
ATOM     26  H   LIG d   1       9.298   6.246  -2.779  0.00  0.00     0.066 H 
ATOM     27  H   LIG d   1      10.869   5.500  -3.155  0.00  0.00     0.066 H 
ENDBRANCH  23  24
ENDBRANCH   5  23
BRANCH   3  28
ATOM     28  O   LIG d   1      11.876   8.549   2.242  0.00  0.00    -0.491 OA
BRANCH  28  29
ATOM     29  C   LIG d   1      12.383   9.866   2.474  0.00  0.00     0.079 C 
ATOM     30  H   LIG d   1      11.649  10.443   3.034  0.00  0.00     0.066 H 
ATOM     31  H   LIG d   1      13.309   9.803   3.046  0.00  0.00     0.066 H 
ATOM     32  H   LIG d   1      12.578  10.352   1.519  0.00  0.00     0.066 H 
ENDBRANCH  28  29
ENDBRANCH   3  28
BRANCH   4  33
ATOM     33  O   LIG d   1      11.653   5.993   1.246  0.00  0.00    -0.501 OA
ATOM     34  H   LIG d   1      12.498   6.188   1.674  0.00  0.00     0.292 HD
ENDBRANCH   4  33
TORSDOF 10
ENDMDL
MODEL 4
REMARK VINA RESULT:      -4.4      1.602      3.545
REMARK  10 active torsions:
REMARK  status: ('A' for Active; 'I' for Inactive)
REMARK    1  A    between atoms: C_1  and  N_32 
REMARK    2  A    between atoms: C_2  and  C_3 
REMARK    3  A    between atoms: C_2  and  N_32 
REMARK    4  A    between atoms: C_3  and  C_5 
REMARK    5  A    between atoms: C_3  and  O_16 
REMARK    6  A    between atoms: C_7  and  O_14 
REMARK    7  A    between atoms: C_8  and  O_13 
REMARK    8  A    between atoms: C_9  and  O_11 
REMARK    9  A    between atoms: O_11  and  C_12 
REMARK   10  A    between atoms: O_14  and  C_15 
ROOT
ATOM      1  C   LIG d   1      10.021   9.322  -0.735  0.00  0.00    -0.007 A 
ATOM      2  C   LIG d   1       9.803   8.001  -1.075  0.00  0.00    -0.010 A 
ATOM      3  C   LIG d   1      10.350   6.985  -0.306  0.00  0.00     0.165 A 
ATOM      4  C   LIG d   1      11.125   7.297   0.805  0.00  0.00     0.201 A 
ATOM      5  C   LIG d   1      11.338   8.627   1.147  0.00  0.00     0.165 A 
ATOM      6  C   LIG d   1      10.787   9.637   0.372  0.00  0.00    -0.010 A 
ATOM      7  H   LIG d   1       9.203   7.758  -1.940  0.00  0.00     0.066 H 
ATOM      8  H   LIG d   1      10.956  10.670   0.635  0.00  0.00     0.066 H 
ENDROOT
BRANCH   1   9
ATOM      9  C   LIG d   1       9.424  10.422  -1.573  0.00  0.00     0.120 C 
ATOM     10  H   LIG d   1       9.745  11.390  -1.185  0.00  0.00     0.070 H 
BRANCH   9  11
ATOM     11  C   LIG d   1       9.895  10.272  -3.021  0.00  0.00    -0.003 C 
ATOM     12  H   LIG d   1      10.787  10.877  -3.179  0.00  0.00     0.084 H 
ATOM     13  H   LIG d   1      10.125   9.226  -3.221  0.00  0.00     0.084 H 
BRANCH  11  14
ATOM     14  N   LIG d   1       8.823  10.726  -3.928  0.00  0.00     0.227 N 
ATOM     15  H   LIG d   1       8.577   9.964  -4.571  0.00  0.00     0.201 HD
ATOM     16  H   LIG d   1       7.997  10.986  -3.374  0.00  0.00     0.201 HD
BRANCH  14  17
ATOM     17  C   LIG d   1       9.272  11.894  -4.709  0.00  0.00    -0.045 C 
ATOM     18  H   LIG d   1      10.172  11.636  -5.268  0.00  0.00     0.078 H 
ATOM     19  H   LIG d   1       8.487  12.194  -5.404  0.00  0.00     0.078 H 
ATOM     20  H   LIG d   1       9.490  12.716  -4.028  0.00  0.00     0.078 H 
ENDBRANCH  14  17
ENDBRANCH  11  14
ENDBRANCH   9  11
BRANCH   9  21
ATOM     21  O   LIG d   1       7.999  10.338  -1.524  0.00  0.00    -0.382 OA
ATOM     22  H   LIG d   1       7.556  10.686  -2.311  0.00  0.00     0.210 HD
ENDBRANCH   9  21
ENDBRANCH   1   9
BRANCH   5  23
ATOM     23  O   LIG d   1      12.091   8.939   2.236  0.00  0.00    -0.491 OA
BRANCH  23  24
ATOM     24  C   LIG d   1      12.336  10.325   2.481  0.00  0.00     0.079 C 
ATOM     25  H   LIG d   1      12.902  10.746   1.650  0.00  0.00     0.066 H 
ATOM     26  H   LIG d   1      11.386  10.849   2.577  0.00  0.00     0.066 H 
ATOM     27  H   LIG d   1      12.907  10.436   3.402  0.00  0.00     0.066 H 
ENDBRANCH  23  24
ENDBRANCH   5  23
BRANCH   3  28
ATOM     28  O   LIG d   1      10.134   5.685  -0.641  0.00  0.00    -0.491 OA
BRANCH  28  29
ATOM     29  C   LIG d   1      10.501   5.287  -1.964  0.00  0.00     0.079 C 
ATOM     30  H   LIG d   1       9.641   5.391  -2.625  0.00  0.00     0.066 H 
ATOM     31  H   LIG d   1      11.312   5.921  -2.323  0.00  0.00     0.066 H 
ATOM     32  H   LIG d   1      10.828   4.248  -1.954  0.00  0.00     0.066 H 
ENDBRANCH  28  29
ENDBRANCH   3  28
BRANCH   4  33
ATOM     33  O   LIG d   1      11.668   6.304   1.559  0.00  0.00    -0.501 OA
ATOM     34  H   LIG d   1      11.962   6.589   2.435  0.00  0.00     0.292 HD
ENDBRANCH   4  33
TORSDOF 10
ENDMDL
MODEL 5
REMARK VINA RESULT:      -4.1      9.903     11.359
REMARK  10 active torsions:
REMARK  status: ('A' for Active; 'I' for Inactive)
REMARK    1  A    between atoms: C_1  and  N_32 
REMARK    2  A    between atoms: C_2  and  C_3 
REMARK    3  A    between atoms: C_2  and  N_32 
REMARK    4  A    between atoms: C_3  and  C_5 
REMARK    5  A    between atoms: C_3  and  O_16 
REMARK    6  A    between atoms: C_7  and  O_14 
REMARK    7  A    between atoms: C_8  and  O_13 
REMARK    8  A    between atoms: C_9  and  O_11 
REMARK    9  A    between atoms: O_11  and  C_12 
REMARK   10  A    between atoms: O_14  and  C_15 
ROOT
ATOM      1  C   LIG d   1       4.293  -0.727  -6.283  0.00  0.00    -0.007 A 
ATOM      2  C   LIG d   1       3.660  -0.062  -5.249  0.00  0.00    -0.010 A 
ATOM      3  C   LIG d   1       3.504  -0.680  -4.017  0.00  0.00     0.165 A 
ATOM      4  C   LIG d   1       3.980  -1.972  -3.825  0.00  0.00     0.201 A 
ATOM      5  C   LIG d   1       4.620  -2.635  -4.866  0.00  0.00     0.165 A 
ATOM      6  C   LIG d   1       4.771  -2.010  -6.094  0.00  0.00    -0.010 A 
ATOM      7  H   LIG d   1       3.288   0.940  -5.399  0.00  0.00     0.066 H 
ATOM      8  H   LIG d   1       5.264  -2.526  -6.904  0.00  0.00     0.066 H 
ENDROOT
BRANCH   1   9
ATOM      9  C   LIG d   1       4.460  -0.051  -7.619  0.00  0.00     0.120 C 
ATOM     10  H   LIG d   1       4.626  -0.805  -8.389  0.00  0.00     0.070 H 
BRANCH   9  11
ATOM     11  C   LIG d   1       3.196   0.746  -7.949  0.00  0.00    -0.003 C 
ATOM     12  H   LIG d   1       2.650   0.247  -8.749  0.00  0.00     0.084 H 
ATOM     13  H   LIG d   1       2.565   0.809  -7.062  0.00  0.00     0.084 H 
BRANCH  11  14
ATOM     14  N   LIG d   1       3.579   2.103  -8.383  0.00  0.00     0.227 N 
ATOM     15  H   LIG d   1       2.933   2.786  -7.968  0.00  0.00     0.201 HD
ATOM     16  H   LIG d   1       4.536   2.302  -8.069  0.00  0.00     0.201 HD
BRANCH  14  17
ATOM     17  C   LIG d   1       3.517   2.208  -9.853  0.00  0.00    -0.045 C 
ATOM     18  H   LIG d   1       2.802   1.482 -10.242  0.00  0.00     0.078 H 
ATOM     19  H   LIG d   1       3.203   3.213 -10.135  0.00  0.00     0.078 H 
ATOM     20  H   LIG d   1       4.503   2.004 -10.267  0.00  0.00     0.078 H 
ENDBRANCH  14  17
ENDBRANCH  11  14
ENDBRANCH   9  11
BRANCH   9  21
ATOM     21  O   LIG d   1       5.581   0.833  -7.569  0.00  0.00    -0.382 OA
ATOM     22  H   LIG d   1       5.847   1.181  -8.431  0.00  0.00     0.210 HD
ENDBRANCH   9  21
ENDBRANCH   1   9
BRANCH   5  23
ATOM     23  O   LIG d   1       5.092  -3.897  -4.681  0.00  0.00    -0.491 OA
BRANCH  23  24
ATOM     24  C   LIG d   1       4.712  -4.880  -5.646  0.00  0.00     0.079 C 
ATOM     25  H   LIG d   1       5.100  -4.597  -6.625  0.00  0.00     0.066 H 
ATOM     26  H   LIG d   1       5.121  -5.848  -5.358  0.00  0.00     0.066 H 
ATOM     27  H   LIG d   1       3.625  -4.944  -5.692  0.00  0.00     0.066 H 
ENDBRANCH  23  24
ENDBRANCH   5  23
BRANCH   3  28
ATOM     28  O   LIG d   1       2.882  -0.026  -3.001  0.00  0.00    -0.491 OA
BRANCH  28  29
ATOM     29  C   LIG d   1       3.609   1.030  -2.368  0.00  0.00     0.079 C 
ATOM     30  H   LIG d   1       3.803   1.820  -3.093  0.00  0.00     0.066 H 
ATOM     31  H   LIG d   1       3.020   1.433  -1.543  0.00  0.00     0.066 H 
ATOM     32  H   LIG d   1       4.553   0.645  -1.988  0.00  0.00     0.066 H 
ENDBRANCH  28  29
ENDBRANCH   3  28
BRANCH   4  33
ATOM     33  O   LIG d   1       3.824  -2.584  -2.620  0.00  0.00    -0.501 OA
ATOM     34  H   LIG d   1       4.494  -2.344  -1.967  0.00  0.00     0.292 HD
ENDBRANCH   4  33
TORSDOF 10
ENDMDL
MODEL 6
REMARK VINA RESULT:      -4.1      8.051     10.315
REMARK  10 active torsions:
REMARK  status: ('A' for Active; 'I' for Inactive)
REMARK    1  A    between atoms: C_1  and  N_32 
REMARK    2  A    between atoms: C_2  and  C_3 
REMARK    3  A    between atoms: C_2  and  N_32 
REMARK    4  A    between atoms: C_3  and  C_5 
REMARK    5  A    between atoms: C_3  and  O_16 
REMARK    6  A    between atoms: C_7  and  O_14 
REMARK    7  A    between atoms: C_8  and  O_13 
REMARK    8  A    between atoms: C_9  and  O_11 
REMARK    9  A    between atoms: O_11  and  C_12 
REMARK   10  A    between atoms: O_14  and  C_15 
ROOT
ATOM      1  C   LIG d   1       7.031  -1.610  -3.626  0.00  0.00    -0.007 A 
ATOM      2  C   LIG d   1       7.539  -0.382  -4.008  0.00  0.00    -0.010 A 
ATOM      3  C   LIG d   1       6.804   0.773  -3.788  0.00  0.00     0.165 A 
ATOM      4  C   LIG d   1       5.552   0.694  -3.190  0.00  0.00     0.201 A 
ATOM      5  C   LIG d   1       5.047  -0.541  -2.804  0.00  0.00     0.165 A 
ATOM      6  C   LIG d   1       5.789  -1.692  -3.027  0.00  0.00    -0.010 A 
ATOM      7  H   LIG d   1       8.511  -0.321  -4.475  0.00  0.00     0.066 H 
ATOM      8  H   LIG d   1       5.395  -2.652  -2.731  0.00  0.00     0.066 H 
ENDROOT
BRANCH   1   9
ATOM      9  C   LIG d   1       7.835  -2.861  -3.866  0.00  0.00     0.120 C 
ATOM     10  H   LIG d   1       7.159  -3.709  -3.989  0.00  0.00     0.070 H 
BRANCH   9  11
ATOM     11  C   LIG d   1       8.675  -2.693  -5.134  0.00  0.00    -0.003 C 
ATOM     12  H   LIG d   1       8.373  -3.435  -5.873  0.00  0.00     0.084 H 
ATOM     13  H   LIG d   1       8.523  -1.693  -5.539  0.00  0.00     0.084 H 
BRANCH  11  14
ATOM     14  N   LIG d   1      10.100  -2.881  -4.798  0.00  0.00     0.227 N 
ATOM     15  H   LIG d   1      10.193  -3.025  -3.785  0.00  0.00     0.201 HD
ATOM     16  H   LIG d   1      10.459  -3.705  -5.295  0.00  0.00     0.201 HD
BRANCH  14  17
ATOM     17  C   LIG d   1      10.881  -1.694  -5.193  0.00  0.00    -0.045 C 
ATOM     18  H   LIG d   1      11.573  -1.428  -4.394  0.00  0.00     0.078 H 
ATOM     19  H   LIG d   1      11.443  -1.911  -6.102  0.00  0.00     0.078 H 
ATOM     20  H   LIG d   1      10.200  -0.863  -5.375  0.00  0.00     0.078 H 
ENDBRANCH  14  17
ENDBRANCH  11  14
ENDBRANCH   9  11
BRANCH   9  21
ATOM     21  O   LIG d   1       8.696  -3.096  -2.751  0.00  0.00    -0.382 OA
ATOM     22  H   LIG d   1       9.613  -3.283  -2.994  0.00  0.00     0.210 HD
ENDBRANCH   9  21
ENDBRANCH   1   9
BRANCH   5  23
ATOM     23  O   LIG d   1       3.825  -0.624  -2.213  0.00  0.00    -0.491 OA
BRANCH  23  24
ATOM     24  C   LIG d   1       2.712  -0.916  -3.060  0.00  0.00     0.079 C 
ATOM     25  H   LIG d   1       3.045  -0.950  -4.097  0.00  0.00     0.066 H 
ATOM     26  H   LIG d   1       2.288  -1.880  -2.782  0.00  0.00     0.066 H 
ATOM     27  H   LIG d   1       1.956  -0.140  -2.947  0.00  0.00     0.066 H 
ENDBRANCH  23  24
ENDBRANCH   5  23
BRANCH   3  28
ATOM     28  O   LIG d   1       7.304   1.981  -4.164  0.00  0.00    -0.491 OA
BRANCH  28  29
ATOM     29  C   LIG d   1       8.647   2.276  -3.773  0.00  0.00     0.079 C 
ATOM     30  H   LIG d   1       8.643   3.089  -3.047  0.00  0.00     0.066 H 
ATOM     31  H   LIG d   1       9.098   1.391  -3.324  0.00  0.00     0.066 H 
ATOM     32  H   LIG d   1       9.223   2.573  -4.648  0.00  0.00     0.066 H 
ENDBRANCH  28  29
ENDBRANCH   3  28
BRANCH   4  33
ATOM     33  O   LIG d   1       4.825   1.825  -2.979  0.00  0.00    -0.501 OA
ATOM     34  H   LIG d   1       4.285   2.092  -3.735  0.00  0.00     0.292 HD
ENDBRANCH   4  33
TORSDOF 10
ENDMDL
MODEL 7
REMARK VINA RESULT:      -4.0      8.432     10.723
REMARK  10 active torsions:
REMARK  status: ('A' for Active; 'I' for Inactive)
REMARK    1  A    between atoms: C_1  and  N_32 
REMARK    2  A    between atoms: C_2  and  C_3 
REMARK    3  A    between atoms: C_2  and  N_32 
REMARK    4  A    between atoms: C_3  and  C_5 
REMARK    5  A    between atoms: C_3  and  O_16 
REMARK    6  A    between atoms: C_7  and  O_14 
REMARK    7  A    between atoms: C_8  and  O_13 
REMARK    8  A    between atoms: C_9  and  O_11 
REMARK    9  A    between atoms: O_11  and  C_12 
REMARK   10  A    between atoms: O_14  and  C_15 
ROOT
ATOM      1  C   LIG d   1       6.926  -1.642  -3.610  0.00  0.00    -0.007 A 
ATOM      2  C   LIG d   1       5.672  -1.684  -3.028  0.00  0.00    -0.010 A 
ATOM      3  C   LIG d   1       4.962  -0.511  -2.822  0.00  0.00     0.165 A 
ATOM      4  C   LIG d   1       5.515   0.709  -3.195  0.00  0.00     0.201 A 
ATOM      5  C   LIG d   1       6.773   0.746  -3.783  0.00  0.00     0.165 A 
ATOM      6  C   LIG d   1       7.477  -0.432  -3.986  0.00  0.00    -0.010 A 
ATOM      7  H   LIG d   1       5.244  -2.632  -2.736  0.00  0.00     0.066 H 
ATOM      8  H   LIG d   1       8.456  -0.403  -4.440  0.00  0.00     0.066 H 
ENDROOT
BRANCH   1   9
ATOM      9  C   LIG d   1       7.693  -2.919  -3.833  0.00  0.00     0.120 C 
ATOM     10  H   LIG d   1       7.016  -3.770  -3.741  0.00  0.00     0.070 H 
BRANCH   9  11
ATOM     11  C   LIG d   1       8.309  -2.906  -5.233  0.00  0.00    -0.003 C 
ATOM     12  H   LIG d   1       8.544  -1.881  -5.518  0.00  0.00     0.084 H 
ATOM     13  H   LIG d   1       9.222  -3.502  -5.233  0.00  0.00     0.084 H 
BRANCH  11  14
ATOM     14  N   LIG d   1       7.343  -3.477  -6.192  0.00  0.00     0.227 N 
ATOM     15  H   LIG d   1       6.561  -2.823  -6.315  0.00  0.00     0.201 HD
ATOM     16  H   LIG d   1       7.810  -3.626  -7.095  0.00  0.00     0.201 HD
BRANCH  14  17
ATOM     17  C   LIG d   1       6.825  -4.765  -5.693  0.00  0.00    -0.045 C 
ATOM     18  H   LIG d   1       5.964  -4.588  -5.048  0.00  0.00     0.078 H 
ATOM     19  H   LIG d   1       6.526  -5.390  -6.534  0.00  0.00     0.078 H 
ATOM     20  H   LIG d   1       7.607  -5.268  -5.125  0.00  0.00     0.078 H 
ENDBRANCH  14  17
ENDBRANCH  11  14
ENDBRANCH   9  11
BRANCH   9  21
ATOM     21  O   LIG d   1       8.729  -3.029  -2.857  0.00  0.00    -0.382 OA
ATOM     22  H   LIG d   1       8.533  -2.583  -2.021  0.00  0.00     0.210 HD
ENDBRANCH   9  21
ENDBRANCH   1   9
BRANCH   5  23
ATOM     23  O   LIG d   1       7.316   1.936  -4.155  0.00  0.00    -0.491 OA
BRANCH  23  24
ATOM     24  C   LIG d   1       8.288   1.907  -5.202  0.00  0.00     0.079 C 
ATOM     25  H   LIG d   1       9.082   1.208  -4.941  0.00  0.00     0.066 H 
ATOM     26  H   LIG d   1       7.812   1.589  -6.129  0.00  0.00     0.066 H 
ATOM     27  H   LIG d   1       8.710   2.903  -5.334  0.00  0.00     0.066 H 
ENDBRANCH  23  24
ENDBRANCH   5  23
BRANCH   3  28
ATOM     28  O   LIG d   1       3.729  -0.553  -2.250  0.00  0.00    -0.491 OA
BRANCH  28  29
ATOM     29  C   LIG d   1       2.625  -0.847  -3.109  0.00  0.00     0.079 C 
ATOM     30  H   LIG d   1       2.012   0.045  -3.229  0.00  0.00     0.066 H 
ATOM     31  H   LIG d   1       2.997  -1.165  -4.083  0.00  0.00     0.066 H 
ATOM     32  H   LIG d   1       2.026  -1.644  -2.671  0.00  0.00     0.066 H 
ENDBRANCH  28  29
ENDBRANCH   3  28
BRANCH   4  33
ATOM     33  O   LIG d   1       4.823   1.862  -2.988  0.00  0.00    -0.501 OA
ATOM     34  H   LIG d   1       4.488   1.964  -2.087  0.00  0.00     0.292 HD
ENDBRANCH   4  33
TORSDOF 10
ENDMDL
MODEL 8
REMARK VINA RESULT:      -3.9      9.818     11.550
REMARK  10 active torsions:
REMARK  status: ('A' for Active; 'I' for Inactive)
REMARK    1  A    between atoms: C_1  and  N_32 
REMARK    2  A    between atoms: C_2  and  C_3 
REMARK    3  A    between atoms: C_2  and  N_32 
REMARK    4  A    between atoms: C_3  and  C_5 
REMARK    5  A    between atoms: C_3  and  O_16 
REMARK    6  A    between atoms: C_7  and  O_14 
REMARK    7  A    between atoms: C_8  and  O_13 
REMARK    8  A    between atoms: C_9  and  O_11 
REMARK    9  A    between atoms: O_11  and  C_12 
REMARK   10  A    between atoms: O_14  and  C_15 
ROOT
ATOM      1  C   LIG d   1       4.266  -0.750  -6.106  0.00  0.00    -0.007 A 
ATOM      2  C   LIG d   1       4.605  -2.074  -5.900  0.00  0.00    -0.010 A 
ATOM      3  C   LIG d   1       4.398  -2.660  -4.661  0.00  0.00     0.165 A 
ATOM      4  C   LIG d   1       3.855  -1.912  -3.622  0.00  0.00     0.201 A 
ATOM      5  C   LIG d   1       3.511  -0.583  -3.835  0.00  0.00     0.165 A 
ATOM      6  C   LIG d   1       3.721  -0.004  -5.078  0.00  0.00    -0.010 A 
ATOM      7  H   LIG d   1       5.030  -2.654  -6.706  0.00  0.00     0.066 H 
ATOM      8  H   LIG d   1       3.458   1.030  -5.242  0.00  0.00     0.066 H 
ENDROOT
BRANCH   1   9
ATOM      9  C   LIG d   1       4.492  -0.118  -7.455  0.00  0.00     0.120 C 
ATOM     10  H   LIG d   1       4.633  -0.900  -8.203  0.00  0.00     0.070 H 
BRANCH   9  11
ATOM     11  C   LIG d   1       3.277   0.733  -7.830  0.00  0.00    -0.003 C 
ATOM     12  H   LIG d   1       2.368   0.244  -7.479  0.00  0.00     0.084 H 
ATOM     13  H   LIG d   1       3.365   1.715  -7.365  0.00  0.00     0.084 H 
BRANCH  11  14
ATOM     14  N   LIG d   1       3.224   0.882  -9.297  0.00  0.00     0.227 N 
ATOM     15  H   LIG d   1       3.903   0.241  -9.727  0.00  0.00     0.201 HD
ATOM     16  H   LIG d   1       2.279   0.651  -9.628  0.00  0.00     0.201 HD
BRANCH  14  17
ATOM     17  C   LIG d   1       3.551   2.266  -9.684  0.00  0.00    -0.045 C 
ATOM     18  H   LIG d   1       2.672   2.742 -10.121  0.00  0.00     0.078 H 
ATOM     19  H   LIG d   1       3.867   2.828  -8.805  0.00  0.00     0.078 H 
ATOM     20  H   LIG d   1       4.357   2.252 -10.416  0.00  0.00     0.078 H 
ENDBRANCH  14  17
ENDBRANCH  11  14
ENDBRANCH   9  11
BRANCH   9  21
ATOM     21  O   LIG d   1       5.656   0.708  -7.406  0.00  0.00    -0.382 OA
ATOM     22  H   LIG d   1       6.306   0.433  -6.744  0.00  0.00     0.210 HD
ENDBRANCH   9  21
ENDBRANCH   1   9
BRANCH   5  23
ATOM     23  O   LIG d   1       2.974   0.152  -2.824  0.00  0.00    -0.491 OA
BRANCH  23  24
ATOM     24  C   LIG d   1       3.777   1.208  -2.291  0.00  0.00     0.079 C 
ATOM     25  H   LIG d   1       3.799   1.133  -1.204  0.00  0.00     0.066 H 
ATOM     26  H   LIG d   1       4.791   1.125  -2.683  0.00  0.00     0.066 H 
ATOM     27  H   LIG d   1       3.353   2.168  -2.581  0.00  0.00     0.066 H 
ENDBRANCH  23  24
ENDBRANCH   5  23
BRANCH   3  28
ATOM     28  O   LIG d   1       4.732  -3.963  -4.459  0.00  0.00    -0.491 OA
BRANCH  28  29
ATOM     29  C   LIG d   1       5.127  -4.716  -5.607  0.00  0.00     0.079 C 
ATOM     30  H   LIG d   1       6.143  -4.442  -5.888  0.00  0.00     0.066 H 
ATOM     31  H   LIG d   1       5.090  -5.781  -5.373  0.00  0.00     0.066 H 
ATOM     32  H   LIG d   1       4.451  -4.502  -6.433  0.00  0.00     0.066 H 
ENDBRANCH  28  29
ENDBRANCH   3  28
BRANCH   4  33
ATOM     33  O   LIG d   1       3.656  -2.482  -2.403  0.00  0.00    -0.501 OA
ATOM     34  H   LIG d   1       3.516  -1.845  -1.689  0.00  0.00     0.292 HD
ENDBRANCH   4  33
TORSDOF 10
ENDMDL
MODEL 9
REMARK VINA RESULT:      -3.9      4.723      6.824
REMARK  10 active torsions:
REMARK  status: ('A' for Active; 'I' for Inactive)
REMARK    1  A    between atoms: C_1  and  N_32 
REMARK    2  A    between atoms: C_2  and  C_3 
REMARK    3  A    between atoms: C_2  and  N_32 
REMARK    4  A    between atoms: C_3  and  C_5 
REMARK    5  A    between atoms: C_3  and  O_16 
REMARK    6  A    between atoms: C_7  and  O_14 
REMARK    7  A    between atoms: C_8  and  O_13 
REMARK    8  A    between atoms: C_9  and  O_11 
REMARK    9  A    between atoms: O_11  and  C_12 
REMARK   10  A    between atoms: O_14  and  C_15 
ROOT
ATOM      1  C   LIG d   1       9.288  11.428  -4.823  0.00  0.00    -0.007 A 
ATOM      2  C   LIG d   1       9.534  12.281  -5.883  0.00  0.00    -0.010 A 
ATOM      3  C   LIG d   1       9.875  11.768  -7.125  0.00  0.00     0.165 A 
ATOM      4  C   LIG d   1       9.975  10.392  -7.302  0.00  0.00     0.201 A 
ATOM      5  C   LIG d   1       9.723   9.538  -6.236  0.00  0.00     0.165 A 
ATOM      6  C   LIG d   1       9.382  10.060  -4.997  0.00  0.00    -0.010 A 
ATOM      7  H   LIG d   1       9.459  13.350  -5.744  0.00  0.00     0.066 H 
ATOM      8  H   LIG d   1       9.190   9.397  -4.167  0.00  0.00     0.066 H 
ENDROOT
BRANCH   1   9
ATOM      9  C   LIG d   1       8.917  11.992  -3.476  0.00  0.00     0.120 C 
ATOM     10  H   LIG d   1       9.623  11.633  -2.726  0.00  0.00     0.070 H 
BRANCH   9  11
ATOM     11  C   LIG d   1       8.965  13.520  -3.532  0.00  0.00    -0.003 C 
ATOM     12  H   LIG d   1       9.933  13.840  -3.919  0.00  0.00     0.084 H 
ATOM     13  H   LIG d   1       8.173  13.884  -4.186  0.00  0.00     0.084 H 
BRANCH  11  14
ATOM     14  N   LIG d   1       8.773  14.060  -2.172  0.00  0.00     0.227 N 
ATOM     15  H   LIG d   1       8.506  15.050  -2.236  0.00  0.00     0.201 HD
ATOM     16  H   LIG d   1       8.027  13.534  -1.701  0.00  0.00     0.201 HD
BRANCH  14  17
ATOM     17  C   LIG d   1      10.019  13.942  -1.393  0.00  0.00    -0.045 C 
ATOM     18  H   LIG d   1      10.281  12.890  -1.277  0.00  0.00     0.078 H 
ATOM     19  H   LIG d   1      10.825  14.462  -1.910  0.00  0.00     0.078 H 
ATOM     20  H   LIG d   1       9.869  14.389  -0.410  0.00  0.00     0.078 H 
ENDBRANCH  14  17
ENDBRANCH  11  14
ENDBRANCH   9  11
BRANCH   9  21
ATOM     21  O   LIG d   1       7.598  11.568  -3.129  0.00  0.00    -0.382 OA
ATOM     22  H   LIG d   1       7.210  12.054  -2.388  0.00  0.00     0.210 HD
ENDBRANCH   9  21
ENDBRANCH   1   9
BRANCH   5  23
ATOM     23  O   LIG d   1       9.814   8.192  -6.405  0.00  0.00    -0.491 OA
BRANCH  23  24
ATOM     24  C   LIG d   1       9.357   7.370  -5.329  0.00  0.00     0.079 C 
ATOM     25  H   LIG d   1       9.431   6.321  -5.617  0.00  0.00     0.066 H 
ATOM     26  H   LIG d   1       9.974   7.550  -4.449  0.00  0.00     0.066 H 
ATOM     27  H   LIG d   1       8.320   7.612  -5.102  0.00  0.00     0.066 H 
ENDBRANCH  23  24
ENDBRANCH   5  23
BRANCH   3  28
ATOM     28  O   LIG d   1      10.117  12.608  -8.166  0.00  0.00    -0.491 OA
BRANCH  28  29
ATOM     29  C   LIG d   1       9.862  13.998  -7.951  0.00  0.00     0.079 C 
ATOM     30  H   LIG d   1      10.053  14.244  -6.908  0.00  0.00     0.066 H 
ATOM     31  H   LIG d   1      10.517  14.590  -8.590  0.00  0.00     0.066 H 
ATOM     32  H   LIG d   1       8.823  14.218  -8.192  0.00  0.00     0.066 H 
ENDBRANCH  28  29
ENDBRANCH   3  28
BRANCH   4  33
ATOM     33  O   LIG d   1      10.316   9.885  -8.517  0.00  0.00    -0.501 OA
ATOM     34  H   LIG d   1      11.208   9.513  -8.553  0.00  0.00     0.292 HD
ENDBRANCH   4  33
TORSDOF 10
ENDMDL
MODEL 10
REMARK VINA RESULT:      -3.9      9.384     11.468
REMARK  10 active torsions:
REMARK  status: ('A' for Active; 'I' for Inactive)
REMARK    1  A    between atoms: C_1  and  N_32 
REMARK    2  A    between atoms: C_2  and  C_3 
REMARK    3  A    between atoms: C_2  and  N_32 
REMARK    4  A    between atoms: C_3  and  C_5 
REMARK    5  A    between atoms: C_3  and  O_16 
REMARK    6  A    between atoms: C_7  and  O_14 
REMARK    7  A    between atoms: C_8  and  O_13 
REMARK    8  A    between atoms: C_9  and  O_11 
REMARK    9  A    between atoms: O_11  and  C_12 
REMARK   10  A    between atoms: O_14  and  C_15 
ROOT
ATOM      1  C   LIG d   1       7.384  -2.937  -4.186  0.00  0.00    -0.007 A 
ATOM      2  C   LIG d   1       6.990  -1.877  -3.390  0.00  0.00    -0.010 A 
ATOM      3  C   LIG d   1       5.643  -1.578  -3.248  0.00  0.00     0.165 A 
ATOM      4  C   LIG d   1       4.689  -2.342  -3.911  0.00  0.00     0.201 A 
ATOM      5  C   LIG d   1       5.089  -3.409  -4.705  0.00  0.00     0.165 A 
ATOM      6  C   LIG d   1       6.438  -3.702  -4.842  0.00  0.00    -0.010 A 
ATOM      7  H   LIG d   1       7.731  -1.281  -2.878  0.00  0.00     0.066 H 
ATOM      8  H   LIG d   1       6.750  -4.529  -5.462  0.00  0.00     0.066 H 
ENDROOT
BRANCH   1   9
ATOM      9  C   LIG d   1       8.848  -3.258  -4.336  0.00  0.00     0.120 C 
ATOM     10  H   LIG d   1       8.958  -4.257  -4.760  0.00  0.00     0.070 H 
BRANCH   9  11
ATOM     11  C   LIG d   1       9.501  -2.235  -5.267  0.00  0.00    -0.003 C 
ATOM     12  H   LIG d   1       9.765  -2.715  -6.209  0.00  0.00     0.084 H 
ATOM     13  H   LIG d   1       8.803  -1.420  -5.458  0.00  0.00     0.084 H 
BRANCH  11  14
ATOM     14  N   LIG d   1      10.719  -1.704  -4.624  0.00  0.00     0.227 N 
ATOM     15  H   LIG d   1      10.576  -1.667  -3.607  0.00  0.00     0.201 HD
ATOM     16  H   LIG d   1      11.511  -2.322  -4.836  0.00  0.00     0.201 HD
BRANCH  14  17
ATOM     17  C   LIG d   1      11.012  -0.347  -5.122  0.00  0.00    -0.045 C 
ATOM     18  H   LIG d   1      10.699  -0.264  -6.164  0.00  0.00     0.078 H 
ATOM     19  H   LIG d   1      10.475   0.387  -4.522  0.00  0.00     0.078 H 
ATOM     20  H   LIG d   1      12.084  -0.164  -5.050  0.00  0.00     0.078 H 
ENDBRANCH  14  17
ENDBRANCH  11  14
ENDBRANCH   9  11
BRANCH   9  21
ATOM     21  O   LIG d   1       9.480  -3.211  -3.057  0.00  0.00    -0.382 OA
ATOM     22  H   LIG d   1       9.590  -4.077  -2.639  0.00  0.00     0.210 HD
ENDBRANCH   9  21
ENDBRANCH   1   9
BRANCH   5  23
ATOM     23  O   LIG d   1       4.160  -4.164  -5.351  0.00  0.00    -0.491 OA
BRANCH  23  24
ATOM     24  C   LIG d   1       4.409  -4.463  -6.726  0.00  0.00     0.079 C 
ATOM     25  H   LIG d   1       3.811  -5.323  -7.024  0.00  0.00     0.066 H 
ATOM     26  H   LIG d   1       4.139  -3.602  -7.339  0.00  0.00     0.066 H 
ATOM     27  H   LIG d   1       5.466  -4.689  -6.863  0.00  0.00     0.066 H 
ENDBRANCH  23  24
ENDBRANCH   5  23
BRANCH   3  28
ATOM     28  O   LIG d   1       5.256  -0.535  -2.466  0.00  0.00    -0.491 OA
BRANCH  28  29
ATOM     29  C   LIG d   1       5.642   0.774  -2.893  0.00  0.00     0.079 C 
ATOM     30  H   LIG d   1       5.774   1.415  -2.022  0.00  0.00     0.066 H 
ATOM     31  H   LIG d   1       6.580   0.714  -3.445  0.00  0.00     0.066 H 
ATOM     32  H   LIG d   1       4.867   1.189  -3.535  0.00  0.00     0.066 H 
ENDBRANCH  28  29
ENDBRANCH   3  28
BRANCH   4  33
ATOM     33  O   LIG d   1       3.368  -2.047  -3.778  0.00  0.00    -0.501 OA
ATOM     34  H   LIG d   1       2.989  -2.313  -2.929  0.00  0.00     0.292 HD
ENDBRANCH   4  33
TORSDOF 10
ENDMDL
