MODEL 1
REMARK VINA RESULT:      -5.2      0.000      0.000
REMARK  6 active torsions:
REMARK  status: ('A' for Active; 'I' for Inactive)
REMARK    1  A    between atoms: C_1  and  C_2 
REMARK    2  A    between atoms: C_2  and  C_3 
REMARK    3  A    between atoms: C_2  and  C_4 
REMARK    4  A    between atoms: C_4  and  C_5 
REMARK    5  A    between atoms: N_9  and  C_13 
REMARK    6  A    between atoms: C_13  and  C_14 
ROOT
ATOM      1  C   LIG d   1       3.779  -0.388  -4.778  0.00  0.00     0.099 A 
ATOM      2  H   LIG d   1       4.625   0.121  -4.315  0.00  0.00     0.059 H 
ATOM      3  C   LIG d   1       3.121   0.504  -5.812  0.00  0.00     0.242 A 
ATOM      4  O   LIG d   1       2.598   1.581  -5.625  0.00  0.00    -0.273 OA
ATOM      5  N   LIG d   1       3.239  -0.150  -6.984  0.00  0.00    -0.248 N 
ATOM      6  C   LIG d   1       3.874  -1.318  -6.836  0.00  0.00     0.140 A 
ATOM      7  S   LIG d   1       4.191  -2.399  -8.125  0.00  0.00    -0.018 SA
ATOM      8  N   LIG d   1       4.236  -1.550  -5.558  0.00  0.00    -0.315 N 
ATOM      9  H   LIG d   1       4.707  -2.327  -5.218  0.00  0.00     0.148 HD
ENDROOT
BRANCH   1  10
ATOM     10  C   LIG d   1       2.765  -0.818  -3.716  0.00  0.00    -0.024 C 
ATOM     11  H   LIG d   1       2.560  -1.884  -3.819  0.00  0.00     0.029 H 
ATOM     12  H   LIG d   1       1.840  -0.256  -3.846  0.00  0.00     0.029 H 
BRANCH  10  13
ATOM     13  C   LIG d   1       3.337  -0.542  -2.324  0.00  0.00    -0.045 C 
ATOM     14  H   LIG d   1       2.546  -0.636  -1.581  0.00  0.00     0.030 H 
BRANCH  13  15
ATOM     15  C   LIG d   1       4.446  -1.551  -2.018  0.00  0.00    -0.063 C 
ATOM     16  H   LIG d   1       5.257  -1.049  -1.489  0.00  0.00     0.023 H 
ATOM     17  H   LIG d   1       4.047  -2.352  -1.396  0.00  0.00     0.023 H 
ATOM     18  H   LIG d   1       4.824  -1.968  -2.951  0.00  0.00     0.023 H 
ENDBRANCH  13  15
BRANCH  13  19
ATOM     19  C   LIG d   1       3.912   0.876  -2.280  0.00  0.00    -0.063 C 
ATOM     20  H   LIG d   1       3.486   1.414  -1.433  0.00  0.00     0.023 H 
ATOM     21  H   LIG d   1       4.995   0.825  -2.170  0.00  0.00     0.023 H 
ATOM     22  H   LIG d   1       3.664   1.397  -3.204  0.00  0.00     0.023 H 
ENDBRANCH  13  19
ENDBRANCH  10  13
ENDBRANCH   1  10
BRANCH   5  23
ATOM     23  C   LIG d   1       2.734   0.356  -8.263  0.00  0.00     0.039 C 
ATOM     24  H   LIG d   1       2.517  -0.482  -8.926  0.00  0.00     0.051 H 
ATOM     25  H   LIG d   1       1.823   0.930  -8.093  0.00  0.00     0.051 H 
BRANCH  23  26
ATOM     26  C   LIG d   1       3.774   1.242  -8.899  0.00  0.00    -0.073 C 
ATOM     27  C   LIG d   1       3.533   2.519  -9.066  0.00  0.00    -0.101 C 
ATOM     28  H   LIG d   1       2.590   2.937  -8.747  0.00  0.00     0.053 H 
ATOM     29  H   LIG d   1       4.279   3.155  -9.521  0.00  0.00     0.053 H 
ATOM     30  H   LIG d   1       4.718   0.825  -9.217  0.00  0.00     0.058 H 
ENDBRANCH  23  26
ENDBRANCH   5  23
TORSDOF 6
ENDMDL
MODEL 2
REMARK VINA RESULT:      -4.9      1.349      5.109
REMARK  6 active torsions:
REMARK  status: ('A' for Active; 'I' for Inactive)
REMARK    1  A    between atoms: C_1  and  C_2 
REMARK    2  A    between atoms: C_2  and  C_3 
REMARK    3  A    between atoms: C_2  and  C_4 
REMARK    4  A    between atoms: C_4  and  C_5 
REMARK    5  A    between atoms: N_9  and  C_13 
REMARK    6  A    between atoms: C_13  and  C_14 
ROOT
ATOM      1  C   LIG d   1       2.785  -0.079  -6.996  0.00  0.00     0.099 A 
ATOM      2  H   LIG d   1       1.761  -0.436  -7.109  0.00  0.00     0.059 H 
ATOM      3  C   LIG d   1       3.021   0.422  -5.584  0.00  0.00     0.242 A 
ATOM      4  O   LIG d   1       2.452   1.334  -5.026  0.00  0.00    -0.273 OA
ATOM      5  N   LIG d   1       3.995  -0.361  -5.079  0.00  0.00    -0.248 N 
ATOM      6  C   LIG d   1       4.402  -1.276  -5.966  0.00  0.00     0.140 A 
ATOM      7  S   LIG d   1       5.627  -2.429  -5.648  0.00  0.00    -0.018 SA
ATOM      8  N   LIG d   1       3.740  -1.190  -7.138  0.00  0.00    -0.315 N 
ATOM      9  H   LIG d   1       3.867  -1.749  -7.920  0.00  0.00     0.148 HD
ENDROOT
BRANCH   1  10
ATOM     10  C   LIG d   1       3.085   1.023  -8.014  0.00  0.00    -0.024 C 
ATOM     11  H   LIG d   1       4.006   1.534  -7.736  0.00  0.00     0.029 H 
ATOM     12  H   LIG d   1       2.263   1.738  -8.029  0.00  0.00     0.029 H 
BRANCH  10  13
ATOM     13  C   LIG d   1       3.246   0.403  -9.404  0.00  0.00    -0.045 C 
ATOM     14  H   LIG d   1       3.973  -0.407  -9.358  0.00  0.00     0.030 H 
BRANCH  13  15
ATOM     15  C   LIG d   1       1.899  -0.150  -9.875  0.00  0.00    -0.063 C 
ATOM     16  H   LIG d   1       1.880  -0.180 -10.965  0.00  0.00     0.023 H 
ATOM     17  H   LIG d   1       1.760  -1.156  -9.481  0.00  0.00     0.023 H 
ATOM     18  H   LIG d   1       1.097   0.496  -9.517  0.00  0.00     0.023 H 
ENDBRANCH  13  15
BRANCH  13  19
ATOM     19  C   LIG d   1       3.731   1.470 -10.386  0.00  0.00    -0.063 C 
ATOM     20  H   LIG d   1       3.796   2.431  -9.875  0.00  0.00     0.023 H 
ATOM     21  H   LIG d   1       4.714   1.194 -10.767  0.00  0.00     0.023 H 
ATOM     22  H   LIG d   1       3.028   1.547 -11.216  0.00  0.00     0.023 H 
ENDBRANCH  13  19
ENDBRANCH  10  13
ENDBRANCH   1  10
BRANCH   5  23
ATOM     23  C   LIG d   1       4.541  -0.225  -3.727  0.00  0.00     0.039 C 
ATOM     24  H   LIG d   1       5.515  -0.711  -3.677  0.00  0.00     0.051 H 
ATOM     25  H   LIG d   1       4.650   0.832  -3.483  0.00  0.00     0.051 H 
BRANCH  23  26
ATOM     26  C   LIG d   1       3.605  -0.874  -2.740  0.00  0.00    -0.073 C 
ATOM     27  C   LIG d   1       3.820  -2.105  -2.346  0.00  0.00    -0.101 C 
ATOM     28  H   LIG d   1       4.668  -2.654  -2.727  0.00  0.00     0.053 H 
ATOM     29  H   LIG d   1       3.149  -2.570  -1.638  0.00  0.00     0.053 H 
ATOM     30  H   LIG d   1       2.757  -0.325  -2.358  0.00  0.00     0.058 H 
ENDBRANCH  23  26
ENDBRANCH   5  23
TORSDOF 6
ENDMDL
MODEL 3
REMARK VINA RESULT:      -4.8      1.953      2.155
REMARK  6 active torsions:
REMARK  status: ('A' for Active; 'I' for Inactive)
REMARK    1  A    between atoms: C_1  and  C_2 
REMARK    2  A    between atoms: C_2  and  C_3 
REMARK    3  A    between atoms: C_2  and  C_4 
REMARK    4  A    between atoms: C_4  and  C_5 
REMARK    5  A    between atoms: N_9  and  C_13 
REMARK    6  A    between atoms: C_13  and  C_14 
ROOT
ATOM      1  C   LIG d   1       3.543  -0.404  -4.906  0.00  0.00     0.099 A 
ATOM      2  H   LIG d   1       3.351  -1.337  -4.374  0.00  0.00     0.059 H 
ATOM      3  C   LIG d   1       4.875  -0.467  -5.627  0.00  0.00     0.242 A 
ATOM      4  O   LIG d   1       5.970  -0.615  -5.130  0.00  0.00    -0.273 OA
ATOM      5  N   LIG d   1       4.588  -0.323  -6.936  0.00  0.00    -0.248 N 
ATOM      6  C   LIG d   1       3.273  -0.181  -7.140  0.00  0.00     0.140 A 
ATOM      7  S   LIG d   1       2.567   0.024  -8.686  0.00  0.00    -0.018 SA
ATOM      8  N   LIG d   1       2.566  -0.217  -5.992  0.00  0.00    -0.315 N 
ATOM      9  H   LIG d   1       1.604  -0.136  -5.899  0.00  0.00     0.148 HD
ENDROOT
BRANCH   1  10
ATOM     10  C   LIG d   1       3.509   0.782  -3.941  0.00  0.00    -0.024 C 
ATOM     11  H   LIG d   1       2.640   1.404  -4.158  0.00  0.00     0.029 H 
ATOM     12  H   LIG d   1       4.417   1.374  -4.058  0.00  0.00     0.029 H 
BRANCH  10  13
ATOM     13  C   LIG d   1       3.420   0.266  -2.503  0.00  0.00    -0.045 C 
ATOM     14  H   LIG d   1       2.480   0.592  -2.058  0.00  0.00     0.030 H 
BRANCH  13  15
ATOM     15  C   LIG d   1       3.480  -1.263  -2.504  0.00  0.00    -0.063 C 
ATOM     16  H   LIG d   1       2.559  -1.663  -2.079  0.00  0.00     0.023 H 
ATOM     17  H   LIG d   1       3.594  -1.621  -3.527  0.00  0.00     0.023 H 
ATOM     18  H   LIG d   1       4.329  -1.593  -1.906  0.00  0.00     0.023 H 
ENDBRANCH  13  15
BRANCH  13  19
ATOM     19  C   LIG d   1       4.590   0.821  -1.688  0.00  0.00    -0.063 C 
ATOM     20  H   LIG d   1       5.527   0.591  -2.195  0.00  0.00     0.023 H 
ATOM     21  H   LIG d   1       4.485   1.902  -1.593  0.00  0.00     0.023 H 
ATOM     22  H   LIG d   1       4.590   0.368  -0.697  0.00  0.00     0.023 H 
ENDBRANCH  13  19
ENDBRANCH  10  13
ENDBRANCH   1  10
BRANCH   5  23
ATOM     23  C   LIG d   1       5.591  -0.323  -8.003  0.00  0.00     0.039 C 
ATOM     24  H   LIG d   1       6.350  -1.075  -7.789  0.00  0.00     0.051 H 
ATOM     25  H   LIG d   1       5.111  -0.552  -8.954  0.00  0.00     0.051 H 
BRANCH  23  26
ATOM     26  C   LIG d   1       6.239   1.036  -8.082  0.00  0.00    -0.073 C 
ATOM     27  C   LIG d   1       5.870   1.884  -9.009  0.00  0.00    -0.101 C 
ATOM     28  H   LIG d   1       5.100   1.611  -9.716  0.00  0.00     0.053 H 
ATOM     29  H   LIG d   1       6.334   2.858  -9.066  0.00  0.00     0.053 H 
ATOM     30  H   LIG d   1       7.008   1.310  -7.375  0.00  0.00     0.058 H 
ENDBRANCH  23  26
ENDBRANCH   5  23
TORSDOF 6
ENDMDL
MODEL 4
REMARK VINA RESULT:      -4.7      1.367      1.505
REMARK  6 active torsions:
REMARK  status: ('A' for Active; 'I' for Inactive)
REMARK    1  A    between atoms: C_1  and  C_2 
REMARK    2  A    between atoms: C_2  and  C_3 
REMARK    3  A    between atoms: C_2  and  C_4 
REMARK    4  A    between atoms: C_4  and  C_5 
REMARK    5  A    between atoms: N_9  and  C_13 
REMARK    6  A    between atoms: C_13  and  C_14 
ROOT
ATOM      1  C   LIG d   1       4.108  -0.523  -4.907  0.00  0.00     0.099 A 
ATOM      2  H   LIG d   1       4.828   0.151  -4.441  0.00  0.00     0.059 H 
ATOM      3  C   LIG d   1       3.663   0.022  -6.251  0.00  0.00     0.242 A 
ATOM      4  O   LIG d   1       3.090   1.068  -6.464  0.00  0.00    -0.273 OA
ATOM      5  N   LIG d   1       4.037  -0.901  -7.159  0.00  0.00    -0.248 N 
ATOM      6  C   LIG d   1       4.651  -1.941  -6.582  0.00  0.00     0.140 A 
ATOM      7  S   LIG d   1       5.253  -3.289  -7.447  0.00  0.00    -0.018 SA
ATOM      8  N   LIG d   1       4.743  -1.808  -5.243  0.00  0.00    -0.315 N 
ATOM      9  H   LIG d   1       5.148  -2.434  -4.623  0.00  0.00     0.148 HD
ENDROOT
BRANCH   1  10
ATOM     10  C   LIG d   1       2.904  -0.740  -3.990  0.00  0.00    -0.024 C 
ATOM     11  H   LIG d   1       2.701  -1.807  -3.902  0.00  0.00     0.029 H 
ATOM     12  H   LIG d   1       2.032  -0.237  -4.408  0.00  0.00     0.029 H 
BRANCH  10  13
ATOM     13  C   LIG d   1       3.208  -0.164  -2.605  0.00  0.00    -0.045 C 
ATOM     14  H   LIG d   1       2.301  -0.173  -2.001  0.00  0.00     0.030 H 
BRANCH  13  15
ATOM     15  C   LIG d   1       4.283  -1.013  -1.923  0.00  0.00    -0.063 C 
ATOM     16  H   LIG d   1       5.228  -0.470  -1.922  0.00  0.00     0.023 H 
ATOM     17  H   LIG d   1       3.983  -1.224  -0.897  0.00  0.00     0.023 H 
ATOM     18  H   LIG d   1       4.403  -1.950  -2.466  0.00  0.00     0.023 H 
ENDBRANCH  13  15
BRANCH  13  19
ATOM     19  C   LIG d   1       3.711   1.274  -2.749  0.00  0.00    -0.063 C 
ATOM     20  H   LIG d   1       4.739   1.337  -2.392  0.00  0.00     0.023 H 
ATOM     21  H   LIG d   1       3.672   1.569  -3.798  0.00  0.00     0.023 H 
ATOM     22  H   LIG d   1       3.080   1.941  -2.161  0.00  0.00     0.023 H 
ENDBRANCH  13  19
ENDBRANCH  10  13
ENDBRANCH   1  10
BRANCH   5  23
ATOM     23  C   LIG d   1       3.801  -0.781  -8.599  0.00  0.00     0.039 C 
ATOM     24  H   LIG d   1       3.947   0.255  -8.907  0.00  0.00     0.051 H 
ATOM     25  H   LIG d   1       4.500  -1.421  -9.138  0.00  0.00     0.051 H 
BRANCH  23  26
ATOM     26  C   LIG d   1       2.389  -1.203  -8.914  0.00  0.00    -0.073 C 
ATOM     27  C   LIG d   1       1.662  -0.495  -9.742  0.00  0.00    -0.101 C 
ATOM     28  H   LIG d   1       2.075   0.391 -10.201  0.00  0.00     0.053 H 
ATOM     29  H   LIG d   1       0.650  -0.797  -9.968  0.00  0.00     0.053 H 
ATOM     30  H   LIG d   1       1.975  -2.089  -8.455  0.00  0.00     0.058 H 
ENDBRANCH  23  26
ENDBRANCH   5  23
TORSDOF 6
ENDMDL
MODEL 5
REMARK VINA RESULT:      -4.5      3.290      3.734
REMARK  6 active torsions:
REMARK  status: ('A' for Active; 'I' for Inactive)
REMARK    1  A    between atoms: C_1  and  C_2 
REMARK    2  A    between atoms: C_2  and  C_3 
REMARK    3  A    between atoms: C_2  and  C_4 
REMARK    4  A    between atoms: C_4  and  C_5 
REMARK    5  A    between atoms: N_9  and  C_13 
REMARK    6  A    between atoms: C_13  and  C_14 
ROOT
ATOM      1  C   LIG d   1       6.212  -0.373  -3.517  0.00  0.00     0.099 A 
ATOM      2  H   LIG d   1       6.016   0.552  -2.974  0.00  0.00     0.059 H 
ATOM      3  C   LIG d   1       5.859  -0.215  -4.983  0.00  0.00     0.242 A 
ATOM      4  O   LIG d   1       4.770   0.038  -5.451  0.00  0.00    -0.273 OA
ATOM      5  N   LIG d   1       7.009  -0.414  -5.657  0.00  0.00    -0.248 N 
ATOM      6  C   LIG d   1       8.028  -0.673  -4.830  0.00  0.00     0.140 A 
ATOM      7  S   LIG d   1       9.628  -0.974  -5.357  0.00  0.00    -0.018 SA
ATOM      8  N   LIG d   1       7.654  -0.669  -3.534  0.00  0.00    -0.315 N 
ATOM      9  H   LIG d   1       8.222  -0.829  -2.764  0.00  0.00     0.148 HD
ENDROOT
BRANCH   1  10
ATOM     10  C   LIG d   1       5.431  -1.534  -2.898  0.00  0.00    -0.024 C 
ATOM     11  H   LIG d   1       6.103  -2.142  -2.292  0.00  0.00     0.029 H 
ATOM     12  H   LIG d   1       5.001  -2.147  -3.690  0.00  0.00     0.029 H 
BRANCH  10  13
ATOM     13  C   LIG d   1       4.309  -0.981  -2.017  0.00  0.00    -0.045 C 
ATOM     14  H   LIG d   1       4.283  -1.529  -1.076  0.00  0.00     0.030 H 
BRANCH  13  15
ATOM     15  C   LIG d   1       4.563   0.502  -1.737  0.00  0.00    -0.063 C 
ATOM     16  H   LIG d   1       5.574   0.630  -1.349  0.00  0.00     0.023 H 
ATOM     17  H   LIG d   1       4.453   1.070  -2.660  0.00  0.00     0.023 H 
ATOM     18  H   LIG d   1       3.844   0.860  -1.000  0.00  0.00     0.023 H 
ENDBRANCH  13  15
BRANCH  13  19
ATOM     19  C   LIG d   1       2.968  -1.140  -2.737  0.00  0.00    -0.063 C 
ATOM     20  H   LIG d   1       3.142  -1.497  -3.753  0.00  0.00     0.023 H 
ATOM     21  H   LIG d   1       2.351  -1.861  -2.201  0.00  0.00     0.023 H 
ATOM     22  H   LIG d   1       2.457  -0.179  -2.771  0.00  0.00     0.023 H 
ENDBRANCH  13  19
ENDBRANCH  10  13
ENDBRANCH   1  10
BRANCH   5  23
ATOM     23  C   LIG d   1       7.128  -0.356  -7.116  0.00  0.00     0.039 C 
ATOM     24  H   LIG d   1       8.053  -0.841  -7.425  0.00  0.00     0.051 H 
ATOM     25  H   LIG d   1       6.280  -0.868  -7.571  0.00  0.00     0.051 H 
BRANCH  23  26
ATOM     26  C   LIG d   1       7.143   1.084  -7.561  0.00  0.00    -0.073 C 
ATOM     27  C   LIG d   1       8.283   1.711  -7.710  0.00  0.00    -0.101 C 
ATOM     28  H   LIG d   1       9.213   1.197  -7.515  0.00  0.00     0.053 H 
ATOM     29  H   LIG d   1       8.295   2.743  -8.029  0.00  0.00     0.053 H 
ATOM     30  H   LIG d   1       6.214   1.599  -7.757  0.00  0.00     0.058 H 
ENDBRANCH  23  26
ENDBRANCH   5  23
TORSDOF 6
ENDMDL
MODEL 6
REMARK VINA RESULT:      -4.5      2.278      3.081
REMARK  6 active torsions:
REMARK  status: ('A' for Active; 'I' for Inactive)
REMARK    1  A    between atoms: C_1  and  C_2 
REMARK    2  A    between atoms: C_2  and  C_3 
REMARK    3  A    between atoms: C_2  and  C_4 
REMARK    4  A    between atoms: C_4  and  C_5 
REMARK    5  A    between atoms: N_9  and  C_13 
REMARK    6  A    between atoms: C_13  and  C_14 
ROOT
ATOM      1  C   LIG d   1       4.208  -0.732  -4.613  0.00  0.00     0.099 A 
ATOM      2  H   LIG d   1       3.499  -1.218  -3.942  0.00  0.00     0.059 H 
ATOM      3  C   LIG d   1       4.758  -1.726  -5.617  0.00  0.00     0.242 A 
ATOM      4  O   LIG d   1       5.397  -2.729  -5.381  0.00  0.00    -0.273 OA
ATOM      5  N   LIG d   1       4.388  -1.263  -6.827  0.00  0.00    -0.248 N 
ATOM      6  C   LIG d   1       3.688  -0.127  -6.729  0.00  0.00     0.140 A 
ATOM      7  S   LIG d   1       3.067   0.727  -8.075  0.00  0.00    -0.018 SA
ATOM      8  N   LIG d   1       3.527   0.269  -5.450  0.00  0.00    -0.315 N 
ATOM      9  H   LIG d   1       3.054   1.059  -5.141  0.00  0.00     0.148 HD
ENDROOT
BRANCH   1  10
ATOM     10  C   LIG d   1       5.344  -0.086  -3.818  0.00  0.00    -0.024 C 
ATOM     11  H   LIG d   1       5.463   0.951  -4.130  0.00  0.00     0.029 H 
ATOM     12  H   LIG d   1       6.271  -0.629  -4.001  0.00  0.00     0.029 H 
BRANCH  10  13
ATOM     13  C   LIG d   1       5.012  -0.134  -2.325  0.00  0.00    -0.045 C 
ATOM     14  H   LIG d   1       5.933  -0.079  -1.746  0.00  0.00     0.030 H 
BRANCH  13  15
ATOM     15  C   LIG d   1       4.112   1.049  -1.964  0.00  0.00    -0.063 C 
ATOM     16  H   LIG d   1       4.217   1.829  -2.718  0.00  0.00     0.023 H 
ATOM     17  H   LIG d   1       3.074   0.718  -1.925  0.00  0.00     0.023 H 
ATOM     18  H   LIG d   1       4.404   1.443  -0.990  0.00  0.00     0.023 H 
ENDBRANCH  13  15
BRANCH  13  19
ATOM     19  C   LIG d   1       4.286  -1.443  -2.004  0.00  0.00    -0.063 C 
ATOM     20  H   LIG d   1       5.011  -2.188  -1.674  0.00  0.00     0.023 H 
ATOM     21  H   LIG d   1       3.557  -1.269  -1.213  0.00  0.00     0.023 H 
ATOM     22  H   LIG d   1       3.776  -1.803  -2.897  0.00  0.00     0.023 H 
ENDBRANCH  13  19
ENDBRANCH  10  13
ENDBRANCH   1  10
BRANCH   5  23
ATOM     23  C   LIG d   1       4.714  -1.922  -8.095  0.00  0.00     0.039 C 
ATOM     24  H   LIG d   1       4.712  -1.186  -8.898  0.00  0.00     0.051 H 
ATOM     25  H   LIG d   1       5.701  -2.379  -8.024  0.00  0.00     0.051 H 
BRANCH  23  26
ATOM     26  C   LIG d   1       3.687  -2.986  -8.386  0.00  0.00    -0.073 C 
ATOM     27  C   LIG d   1       2.908  -2.874  -9.434  0.00  0.00    -0.101 C 
ATOM     28  H   LIG d   1       3.003  -2.021 -10.089  0.00  0.00     0.053 H 
ATOM     29  H   LIG d   1       2.172  -3.637  -9.643  0.00  0.00     0.053 H 
ATOM     30  H   LIG d   1       3.592  -3.839  -7.731  0.00  0.00     0.058 H 
ENDBRANCH  23  26
ENDBRANCH   5  23
TORSDOF 6
ENDMDL
MODEL 7
REMARK VINA RESULT:      -4.4      3.980      4.882
REMARK  6 active torsions:
REMARK  status: ('A' for Active; 'I' for Inactive)
REMARK    1  A    between atoms: C_1  and  C_2 
REMARK    2  A    between atoms: C_2  and  C_3 
REMARK    3  A    between atoms: C_2  and  C_4 
REMARK    4  A    between atoms: C_4  and  C_5 
REMARK    5  A    between atoms: N_9  and  C_13 
REMARK    6  A    between atoms: C_13  and  C_14 
ROOT
ATOM      1  C   LIG d   1       6.154  -0.703  -3.529  0.00  0.00     0.099 A 
ATOM      2  H   LIG d   1       6.148  -1.066  -2.501  0.00  0.00     0.059 H 
ATOM      3  C   LIG d   1       6.488   0.776  -3.569  0.00  0.00     0.242 A 
ATOM      4  O   LIG d   1       5.861   1.682  -3.065  0.00  0.00    -0.273 OA
ATOM      5  N   LIG d   1       7.628   0.873  -4.281  0.00  0.00    -0.248 N 
ATOM      6  C   LIG d   1       8.056  -0.326  -4.692  0.00  0.00     0.140 A 
ATOM      7  S   LIG d   1       9.475  -0.563  -5.621  0.00  0.00    -0.018 SA
ATOM      8  N   LIG d   1       7.247  -1.328  -4.293  0.00  0.00    -0.315 N 
ATOM      9  H   LIG d   1       7.360  -2.275  -4.473  0.00  0.00     0.148 HD
ENDROOT
BRANCH   1  10
ATOM     10  C   LIG d   1       4.806  -0.968  -4.201  0.00  0.00    -0.024 C 
ATOM     11  H   LIG d   1       4.939  -1.682  -5.014  0.00  0.00     0.029 H 
ATOM     12  H   LIG d   1       4.408  -0.035  -4.600  0.00  0.00     0.029 H 
BRANCH  10  13
ATOM     13  C   LIG d   1       3.828  -1.541  -3.173  0.00  0.00    -0.045 C 
ATOM     14  H   LIG d   1       3.584  -2.569  -3.439  0.00  0.00     0.030 H 
BRANCH  13  15
ATOM     15  C   LIG d   1       4.471  -1.512  -1.785  0.00  0.00    -0.063 C 
ATOM     16  H   LIG d   1       4.599  -0.477  -1.466  0.00  0.00     0.023 H 
ATOM     17  H   LIG d   1       3.830  -2.034  -1.076  0.00  0.00     0.023 H 
ATOM     18  H   LIG d   1       5.444  -2.002  -1.826  0.00  0.00     0.023 H 
ENDBRANCH  13  15
BRANCH  13  19
ATOM     19  C   LIG d   1       2.550  -0.700  -3.160  0.00  0.00    -0.063 C 
ATOM     20  H   LIG d   1       2.787   0.315  -2.841  0.00  0.00     0.023 H 
ATOM     21  H   LIG d   1       2.122  -0.674  -4.163  0.00  0.00     0.023 H 
ATOM     22  H   LIG d   1       1.832  -1.141  -2.470  0.00  0.00     0.023 H 
ENDBRANCH  13  19
ENDBRANCH  10  13
ENDBRANCH   1  10
BRANCH   5  23
ATOM     23  C   LIG d   1       8.313   2.135  -4.570  0.00  0.00     0.039 C 
ATOM     24  H   LIG d   1       8.847   2.050  -5.516  0.00  0.00     0.051 H 
ATOM     25  H   LIG d   1       7.580   2.939  -4.639  0.00  0.00     0.051 H 
BRANCH  23  26
ATOM     26  C   LIG d   1       9.292   2.440  -3.466  0.00  0.00    -0.073 C 
ATOM     27  C   LIG d   1       9.670   3.674  -3.249  0.00  0.00    -0.101 C 
ATOM     28  H   LIG d   1       9.281   4.475  -3.861  0.00  0.00     0.053 H 
ATOM     29  H   LIG d   1      10.372   3.894  -2.457  0.00  0.00     0.053 H 
ATOM     30  H   LIG d   1       9.681   1.640  -2.853  0.00  0.00     0.058 H 
ENDBRANCH  23  26
ENDBRANCH   5  23
TORSDOF 6
ENDMDL
MODEL 8
REMARK VINA RESULT:      -4.4      2.485      5.075
REMARK  6 active torsions:
REMARK  status: ('A' for Active; 'I' for Inactive)
REMARK    1  A    between atoms: C_1  and  C_2 
REMARK    2  A    between atoms: C_2  and  C_3 
REMARK    3  A    between atoms: C_2  and  C_4 
REMARK    4  A    between atoms: C_4  and  C_5 
REMARK    5  A    between atoms: N_9  and  C_13 
REMARK    6  A    between atoms: C_13  and  C_14 
ROOT
ATOM      1  C   LIG d   1       3.394   0.201  -6.821  0.00  0.00     0.099 A 
ATOM      2  H   LIG d   1       3.235   1.225  -7.162  0.00  0.00     0.059 H 
ATOM      3  C   LIG d   1       4.807   0.028  -6.300  0.00  0.00     0.242 A 
ATOM      4  O   LIG d   1       5.839   0.171  -6.919  0.00  0.00    -0.273 OA
ATOM      5  N   LIG d   1       4.677  -0.317  -5.004  0.00  0.00    -0.248 N 
ATOM      6  C   LIG d   1       3.392  -0.385  -4.638  0.00  0.00     0.140 A 
ATOM      7  S   LIG d   1       2.872  -0.798  -3.060  0.00  0.00    -0.018 SA
ATOM      8  N   LIG d   1       2.551  -0.092  -5.651  0.00  0.00    -0.315 N 
ATOM      9  H   LIG d   1       1.581  -0.076  -5.616  0.00  0.00     0.148 HD
ENDROOT
BRANCH   1  10
ATOM     10  C   LIG d   1       3.112  -0.791  -7.950  0.00  0.00    -0.024 C 
ATOM     11  H   LIG d   1       2.245  -1.400  -7.692  0.00  0.00     0.029 H 
ATOM     12  H   LIG d   1       3.979  -1.437  -8.093  0.00  0.00     0.029 H 
BRANCH  10  13
ATOM     13  C   LIG d   1       2.830  -0.025  -9.245  0.00  0.00    -0.045 C 
ATOM     14  H   LIG d   1       3.661  -0.163  -9.936  0.00  0.00     0.030 H 
BRANCH  13  15
ATOM     15  C   LIG d   1       1.543  -0.554  -9.881  0.00  0.00    -0.063 C 
ATOM     16  H   LIG d   1       1.794  -1.247 -10.685  0.00  0.00     0.023 H 
ATOM     17  H   LIG d   1       0.950  -1.070  -9.127  0.00  0.00     0.023 H 
ATOM     18  H   LIG d   1       0.970   0.280 -10.287  0.00  0.00     0.023 H 
ENDBRANCH  13  15
BRANCH  13  19
ATOM     19  C   LIG d   1       2.670   1.464  -8.931  0.00  0.00    -0.063 C 
ATOM     20  H   LIG d   1       3.386   2.038  -9.519  0.00  0.00     0.023 H 
ATOM     21  H   LIG d   1       1.657   1.781  -9.183  0.00  0.00     0.023 H 
ATOM     22  H   LIG d   1       2.850   1.634  -7.870  0.00  0.00     0.023 H 
ENDBRANCH  13  19
ENDBRANCH  10  13
ENDBRANCH   1  10
BRANCH   5  23
ATOM     23  C   LIG d   1       5.803  -0.586  -4.107  0.00  0.00     0.039 C 
ATOM     24  H   LIG d   1       5.510  -1.333  -3.368  0.00  0.00     0.051 H 
ATOM     25  H   LIG d   1       6.648  -0.960  -4.685  0.00  0.00     0.051 H 
BRANCH  23  26
ATOM     26  C   LIG d   1       6.200   0.686  -3.403  0.00  0.00    -0.073 C 
ATOM     27  C   LIG d   1       7.290   1.318  -3.760  0.00  0.00    -0.101 C 
ATOM     28  H   LIG d   1       7.905   0.929  -4.558  0.00  0.00     0.053 H 
ATOM     29  H   LIG d   1       7.575   2.231  -3.256  0.00  0.00     0.053 H 
ATOM     30  H   LIG d   1       5.586   1.077  -2.605  0.00  0.00     0.058 H 
ENDBRANCH  23  26
ENDBRANCH   5  23
TORSDOF 6
ENDMDL
MODEL 9
REMARK VINA RESULT:      -4.3      3.901      5.471
REMARK  6 active torsions:
REMARK  status: ('A' for Active; 'I' for Inactive)
REMARK    1  A    between atoms: C_1  and  C_2 
REMARK    2  A    between atoms: C_2  and  C_3 
REMARK    3  A    between atoms: C_2  and  C_4 
REMARK    4  A    between atoms: C_4  and  C_5 
REMARK    5  A    between atoms: N_9  and  C_13 
REMARK    6  A    between atoms: C_13  and  C_14 
ROOT
ATOM      1  C   LIG d   1       6.960   0.845  -4.301  0.00  0.00     0.099 A 
ATOM      2  H   LIG d   1       6.516   1.531  -5.023  0.00  0.00     0.059 H 
ATOM      3  C   LIG d   1       5.999   0.577  -3.159  0.00  0.00     0.242 A 
ATOM      4  O   LIG d   1       5.545   1.386  -2.378  0.00  0.00    -0.273 OA
ATOM      5  N   LIG d   1       5.753  -0.747  -3.193  0.00  0.00    -0.248 N 
ATOM      6  C   LIG d   1       6.418  -1.347  -4.187  0.00  0.00     0.140 A 
ATOM      7  S   LIG d   1       6.331  -3.025  -4.513  0.00  0.00    -0.018 SA
ATOM      8  N   LIG d   1       7.164  -0.482  -4.905  0.00  0.00    -0.315 N 
ATOM      9  H   LIG d   1       7.724  -0.692  -5.669  0.00  0.00     0.148 HD
ENDROOT
BRANCH   1  10
ATOM     10  C   LIG d   1       8.282   1.404  -3.771  0.00  0.00    -0.024 C 
ATOM     11  H   LIG d   1       9.099   0.742  -4.059  0.00  0.00     0.029 H 
ATOM     12  H   LIG d   1       8.238   1.475  -2.684  0.00  0.00     0.029 H 
BRANCH  10  13
ATOM     13  C   LIG d   1       8.520   2.795  -4.363  0.00  0.00    -0.045 C 
ATOM     14  H   LIG d   1       7.585   3.353  -4.366  0.00  0.00     0.030 H 
BRANCH  13  15
ATOM     15  C   LIG d   1       9.554   3.540  -3.516  0.00  0.00    -0.063 C 
ATOM     16  H   LIG d   1       9.289   4.596  -3.465  0.00  0.00     0.023 H 
ATOM     17  H   LIG d   1       9.571   3.120  -2.510  0.00  0.00     0.023 H 
ATOM     18  H   LIG d   1      10.539   3.434  -3.970  0.00  0.00     0.023 H 
ENDBRANCH  13  15
BRANCH  13  19
ATOM     19  C   LIG d   1       9.039   2.658  -5.796  0.00  0.00    -0.063 C 
ATOM     20  H   LIG d   1       9.397   3.627  -6.146  0.00  0.00     0.023 H 
ATOM     21  H   LIG d   1       9.857   1.939  -5.819  0.00  0.00     0.023 H 
ATOM     22  H   LIG d   1       8.233   2.312  -6.442  0.00  0.00     0.023 H 
ENDBRANCH  13  19
ENDBRANCH  10  13
ENDBRANCH   1  10
BRANCH   5  23
ATOM     23  C   LIG d   1       4.868  -1.444  -2.257  0.00  0.00     0.039 C 
ATOM     24  H   LIG d   1       5.302  -2.409  -1.996  0.00  0.00     0.051 H 
ATOM     25  H   LIG d   1       4.748  -0.845  -1.354  0.00  0.00     0.051 H 
BRANCH  23  26
ATOM     26  C   LIG d   1       3.522  -1.657  -2.902  0.00  0.00    -0.073 C 
ATOM     27  C   LIG d   1       2.670  -0.665  -2.979  0.00  0.00    -0.101 C 
ATOM     28  H   LIG d   1       2.931   0.304  -2.582  0.00  0.00     0.053 H 
ATOM     29  H   LIG d   1       1.705  -0.817  -3.441  0.00  0.00     0.053 H 
ATOM     30  H   LIG d   1       3.261  -2.626  -3.299  0.00  0.00     0.058 H 
ENDBRANCH  23  26
ENDBRANCH   5  23
TORSDOF 6
ENDMDL
MODEL 10
REMARK VINA RESULT:      -4.3      3.497      4.895
REMARK  6 active torsions:
REMARK  status: ('A' for Active; 'I' for Inactive)
REMARK    1  A    between atoms: C_1  and  C_2 
REMARK    2  A    between atoms: C_2  and  C_3 
REMARK    3  A    between atoms: C_2  and  C_4 
REMARK    4  A    between atoms: C_4  and  C_5 
REMARK    5  A    between atoms: N_9  and  C_13 
REMARK    6  A    between atoms: C_13  and  C_14 
ROOT
ATOM      1  C   LIG d   1       4.729  -1.689  -3.400  0.00  0.00     0.099 A 
ATOM      2  H   LIG d   1       4.627  -1.766  -2.316  0.00  0.00     0.059 H 
ATOM      3  C   LIG d   1       6.182  -1.824  -3.809  0.00  0.00     0.242 A 
ATOM      4  O   LIG d   1       7.103  -1.102  -3.493  0.00  0.00    -0.273 OA
ATOM      5  N   LIG d   1       6.238  -2.917  -4.596  0.00  0.00    -0.248 N 
ATOM      6  C   LIG d   1       5.035  -3.484  -4.740  0.00  0.00     0.140 A 
ATOM      7  S   LIG d   1       4.751  -4.888  -5.676  0.00  0.00    -0.018 SA
ATOM      8  N   LIG d   1       4.071  -2.827  -4.064  0.00  0.00    -0.315 N 
ATOM      9  H   LIG d   1       3.129  -3.058  -4.021  0.00  0.00     0.148 HD
ENDROOT
BRANCH   1  10
ATOM     10  C   LIG d   1       4.150  -0.365  -3.901  0.00  0.00    -0.024 C 
ATOM     11  H   LIG d   1       3.360  -0.564  -4.626  0.00  0.00     0.029 H 
ATOM     12  H   LIG d   1       4.938   0.221  -4.374  0.00  0.00     0.029 H 
BRANCH  10  13
ATOM     13  C   LIG d   1       3.572   0.418  -2.720  0.00  0.00    -0.045 C 
ATOM     14  H   LIG d   1       2.656  -0.063  -2.379  0.00  0.00     0.030 H 
BRANCH  13  15
ATOM     15  C   LIG d   1       4.590   0.444  -1.577  0.00  0.00    -0.063 C 
ATOM     16  H   LIG d   1       5.598   0.374  -1.988  0.00  0.00     0.023 H 
ATOM     17  H   LIG d   1       4.488   1.376  -1.021  0.00  0.00     0.023 H 
ATOM     18  H   LIG d   1       4.409  -0.399  -0.911  0.00  0.00     0.023 H 
ENDBRANCH  13  15
BRANCH  13  19
ATOM     19  C   LIG d   1       3.263   1.851  -3.159  0.00  0.00    -0.063 C 
ATOM     20  H   LIG d   1       3.492   1.962  -4.219  0.00  0.00     0.023 H 
ATOM     21  H   LIG d   1       2.206   2.062  -2.992  0.00  0.00     0.023 H 
ATOM     22  H   LIG d   1       3.869   2.547  -2.580  0.00  0.00     0.023 H 
ENDBRANCH  13  19
ENDBRANCH  10  13
ENDBRANCH   1  10
BRANCH   5  23
ATOM     23  C   LIG d   1       7.465  -3.419  -5.220  0.00  0.00     0.039 C 
ATOM     24  H   LIG d   1       7.212  -3.985  -6.116  0.00  0.00     0.051 H 
ATOM     25  H   LIG d   1       8.106  -2.580  -5.490  0.00  0.00     0.051 H 
BRANCH  23  26
ATOM     26  C   LIG d   1       8.191  -4.315  -4.249  0.00  0.00    -0.073 C 
ATOM     27  C   LIG d   1       9.294  -3.901  -3.677  0.00  0.00    -0.101 C 
ATOM     28  H   LIG d   1       9.684  -2.919  -3.900  0.00  0.00     0.053 H 
ATOM     29  H   LIG d   1       9.815  -4.543  -2.980  0.00  0.00     0.053 H 
ATOM     30  H   LIG d   1       7.802  -5.297  -4.025  0.00  0.00     0.058 H 
ENDBRANCH  23  26
ENDBRANCH   5  23
TORSDOF 6
ENDMDL
