MODEL 1
REMARK VINA RESULT:      -6.5      0.000      0.000
REMARK  6 active torsions:
REMARK  status: ('A' for Active; 'I' for Inactive)
REMARK    1  A    between atoms: C_4  and  C_7 
REMARK    2  A    between atoms: C_7  and  C_8 
REMARK    3  A    between atoms: C_7  and  S_14 
REMARK    4  A    between atoms: S_14  and  C_16 
REMARK    5  A    between atoms: C_16  and  C_17 
REMARK       I    between atoms: C_17  and  N_19 
REMARK    6  A    between atoms: N_19  and  O_20 
ROOT
ATOM      1  C   LIG d   1       4.369  -0.993  -6.012  0.00  0.00     0.085 C 
ATOM      2  H   LIG d   1       3.513  -1.663  -6.081  0.00  0.00     0.053 H 
ENDROOT
BRANCH   1   3
ATOM      3  C   LIG d   1       4.382  -0.331  -4.659  0.00  0.00    -0.028 A 
ATOM      4  C   LIG d   1       3.235  -0.313  -3.887  0.00  0.00    -0.057 A 
ATOM      5  C   LIG d   1       3.249   0.294  -2.645  0.00  0.00    -0.061 A 
ATOM      6  H   LIG d   1       2.330  -0.773  -4.254  0.00  0.00     0.062 H 
ATOM      7  C   LIG d   1       4.407   0.881  -2.174  0.00  0.00    -0.062 A 
ATOM      8  H   LIG d   1       2.352   0.307  -2.041  0.00  0.00     0.062 H 
ATOM      9  C   LIG d   1       5.554   0.863  -2.946  0.00  0.00    -0.061 A 
ATOM     10  H   LIG d   1       4.415   1.359  -1.205  0.00  0.00     0.062 H 
ATOM     11  C   LIG d   1       5.541   0.258  -4.189  0.00  0.00    -0.057 A 
ATOM     12  H   LIG d   1       6.459   1.323  -2.579  0.00  0.00     0.062 H 
ATOM     13  H   LIG d   1       6.438   0.244  -4.792  0.00  0.00     0.062 H 
ENDBRANCH   1   3
BRANCH   1  14
ATOM     14  C   LIG d   1       4.268   0.061  -7.086  0.00  0.00    -0.028 A 
ATOM     15  C   LIG d   1       3.042   0.622  -7.391  0.00  0.00    -0.057 A 
ATOM     16  C   LIG d   1       2.951   1.591  -8.372  0.00  0.00    -0.061 A 
ATOM     17  H   LIG d   1       2.157   0.306  -6.860  0.00  0.00     0.062 H 
ATOM     18  C   LIG d   1       4.084   1.993  -9.054  0.00  0.00    -0.062 A 
ATOM     19  H   LIG d   1       1.994   2.033  -8.608  0.00  0.00     0.062 H 
ATOM     20  C   LIG d   1       5.308   1.427  -8.754  0.00  0.00    -0.061 A 
ATOM     21  H   LIG d   1       4.012   2.748  -9.824  0.00  0.00     0.062 H 
ATOM     22  C   LIG d   1       5.401   0.462  -7.769  0.00  0.00    -0.057 A 
ATOM     23  H   LIG d   1       6.194   1.741  -9.287  0.00  0.00     0.062 H 
ATOM     24  H   LIG d   1       6.358   0.020  -7.534  0.00  0.00     0.062 H 
ENDBRANCH   1  14
BRANCH   1  25
ATOM     25  S   LIG d   1       5.899  -1.940  -6.238  0.00  0.00     0.043 S 
ATOM     26  O   LIG d   1       5.887  -2.561  -7.517  0.00  0.00    -0.256 OA
BRANCH  25  27
ATOM     27  C   LIG d   1       5.823  -3.213  -4.947  0.00  0.00     0.102 C 
ATOM     28  H   LIG d   1       6.833  -3.531  -4.692  0.00  0.00     0.050 H 
ATOM     29  H   LIG d   1       5.337  -2.803  -4.062  0.00  0.00     0.050 H 
BRANCH  27  30
ATOM     30  C   LIG d   1       5.036  -4.394  -5.452  0.00  0.00     0.248 C 
ATOM     31  O   LIG d   1       5.513  -5.508  -5.399  0.00  0.00    -0.273 OA
ATOM     32  N   LIG d   1       3.801  -4.213  -5.963  0.00  0.00    -0.197 N 
ATOM     33  H   LIG d   1       3.420  -3.322  -6.005  0.00  0.00     0.182 HD
BRANCH  32  34
ATOM     34  O   LIG d   1       3.062  -5.323  -6.438  0.00  0.00    -0.295 OA
ATOM     35  H   LIG d   1       2.630  -5.173  -7.289  0.00  0.00     0.241 HD
ENDBRANCH  32  34
ENDBRANCH  27  30
ENDBRANCH  25  27
ENDBRANCH   1  25
TORSDOF 6
ENDMDL
MODEL 2
REMARK VINA RESULT:      -6.2      1.491      4.349
REMARK  6 active torsions:
REMARK  status: ('A' for Active; 'I' for Inactive)
REMARK    1  A    between atoms: C_4  and  C_7 
REMARK    2  A    between atoms: C_7  and  C_8 
REMARK    3  A    between atoms: C_7  and  S_14 
REMARK    4  A    between atoms: S_14  and  C_16 
REMARK    5  A    between atoms: C_16  and  C_17 
REMARK       I    between atoms: C_17  and  N_19 
REMARK    6  A    between atoms: N_19  and  O_20 
ROOT
ATOM      1  C   LIG d   1       5.507  -1.321  -5.373  0.00  0.00     0.085 C 
ATOM      2  H   LIG d   1       6.585  -1.323  -5.536  0.00  0.00     0.053 H 
ENDROOT
BRANCH   1   3
ATOM      3  C   LIG d   1       4.832  -0.566  -6.489  0.00  0.00    -0.028 A 
ATOM      4  C   LIG d   1       5.583  -0.055  -7.531  0.00  0.00    -0.057 A 
ATOM      5  C   LIG d   1       4.963   0.637  -8.555  0.00  0.00    -0.061 A 
ATOM      6  H   LIG d   1       6.653  -0.197  -7.546  0.00  0.00     0.062 H 
ATOM      7  C   LIG d   1       3.593   0.817  -8.537  0.00  0.00    -0.062 A 
ATOM      8  H   LIG d   1       5.550   1.036  -9.369  0.00  0.00     0.062 H 
ATOM      9  C   LIG d   1       2.842   0.306  -7.495  0.00  0.00    -0.061 A 
ATOM     10  H   LIG d   1       3.110   1.362  -9.335  0.00  0.00     0.062 H 
ATOM     11  C   LIG d   1       3.462  -0.384  -6.470  0.00  0.00    -0.057 A 
ATOM     12  H   LIG d   1       1.772   0.448  -7.481  0.00  0.00     0.062 H 
ATOM     13  H   LIG d   1       2.874  -0.784  -5.656  0.00  0.00     0.062 H 
ENDBRANCH   1   3
BRANCH   1  14
ATOM     14  C   LIG d   1       5.200  -0.654  -4.057  0.00  0.00    -0.028 A 
ATOM     15  C   LIG d   1       4.417  -1.301  -3.120  0.00  0.00    -0.057 A 
ATOM     16  C   LIG d   1       4.139  -0.692  -1.911  0.00  0.00    -0.061 A 
ATOM     17  H   LIG d   1       4.026  -2.286  -3.330  0.00  0.00     0.062 H 
ATOM     18  C   LIG d   1       4.637   0.570  -1.643  0.00  0.00    -0.062 A 
ATOM     19  H   LIG d   1       3.532  -1.199  -1.176  0.00  0.00     0.062 H 
ATOM     20  C   LIG d   1       5.414   1.220  -2.583  0.00  0.00    -0.061 A 
ATOM     21  H   LIG d   1       4.416   1.048  -0.700  0.00  0.00     0.062 H 
ATOM     22  C   LIG d   1       5.696   0.608  -3.790  0.00  0.00    -0.057 A 
ATOM     23  H   LIG d   1       5.802   2.206  -2.373  0.00  0.00     0.062 H 
ATOM     24  H   LIG d   1       6.303   1.116  -4.523  0.00  0.00     0.062 H 
ENDBRANCH   1  14
BRANCH   1  25
ATOM     25  S   LIG d   1       4.896  -3.029  -5.342  0.00  0.00     0.043 S 
ATOM     26  O   LIG d   1       5.805  -3.843  -4.612  0.00  0.00    -0.256 OA
BRANCH  25  27
ATOM     27  C   LIG d   1       4.901  -3.530  -7.085  0.00  0.00     0.102 C 
ATOM     28  H   LIG d   1       4.745  -2.654  -7.715  0.00  0.00     0.050 H 
ATOM     29  H   LIG d   1       5.861  -3.986  -7.329  0.00  0.00     0.050 H 
BRANCH  27  30
ATOM     30  C   LIG d   1       3.796  -4.525  -7.325  0.00  0.00     0.248 C 
ATOM     31  O   LIG d   1       3.426  -5.249  -6.425  0.00  0.00    -0.273 OA
ATOM     32  N   LIG d   1       3.219  -4.612  -8.540  0.00  0.00    -0.197 N 
ATOM     33  H   LIG d   1       3.515  -4.033  -9.260  0.00  0.00     0.182 HD
BRANCH  32  34
ATOM     34  O   LIG d   1       2.181  -5.548  -8.765  0.00  0.00    -0.295 OA
ATOM     35  H   LIG d   1       2.457  -6.329  -9.264  0.00  0.00     0.241 HD
ENDBRANCH  32  34
ENDBRANCH  27  30
ENDBRANCH  25  27
ENDBRANCH   1  25
TORSDOF 6
ENDMDL
MODEL 3
REMARK VINA RESULT:      -6.1      3.379      6.048
REMARK  6 active torsions:
REMARK  status: ('A' for Active; 'I' for Inactive)
REMARK    1  A    between atoms: C_4  and  C_7 
REMARK    2  A    between atoms: C_7  and  C_8 
REMARK    3  A    between atoms: C_7  and  S_14 
REMARK    4  A    between atoms: S_14  and  C_16 
REMARK    5  A    between atoms: C_16  and  C_17 
REMARK       I    between atoms: C_17  and  N_19 
REMARK    6  A    between atoms: N_19  and  O_20 
ROOT
ATOM      1  C   LIG d   1       4.304   0.026  -6.716  0.00  0.00     0.085 C 
ATOM      2  H   LIG d   1       4.043   1.083  -6.726  0.00  0.00     0.053 H 
ENDROOT
BRANCH   1   3
ATOM      3  C   LIG d   1       3.514  -0.697  -7.777  0.00  0.00    -0.028 A 
ATOM      4  C   LIG d   1       3.806  -2.015  -8.079  0.00  0.00    -0.057 A 
ATOM      5  C   LIG d   1       3.081  -2.677  -9.051  0.00  0.00    -0.061 A 
ATOM      6  H   LIG d   1       4.600  -2.525  -7.555  0.00  0.00     0.062 H 
ATOM      7  C   LIG d   1       2.064  -2.024  -9.721  0.00  0.00    -0.062 A 
ATOM      8  H   LIG d   1       3.309  -3.707  -9.286  0.00  0.00     0.062 H 
ATOM      9  C   LIG d   1       1.772  -0.707  -9.420  0.00  0.00    -0.061 A 
ATOM     10  H   LIG d   1       1.501  -2.541 -10.484  0.00  0.00     0.062 H 
ATOM     11  C   LIG d   1       2.499  -0.043  -8.448  0.00  0.00    -0.057 A 
ATOM     12  H   LIG d   1       0.978  -0.196  -9.943  0.00  0.00     0.062 H 
ATOM     13  H   LIG d   1       2.270   0.986  -8.212  0.00  0.00     0.062 H 
ENDBRANCH   1   3
BRANCH   1  14
ATOM     14  C   LIG d   1       3.981  -0.558  -5.364  0.00  0.00    -0.028 A 
ATOM     15  C   LIG d   1       2.929  -0.052  -4.626  0.00  0.00    -0.057 A 
ATOM     16  C   LIG d   1       2.630  -0.590  -3.389  0.00  0.00    -0.061 A 
ATOM     17  H   LIG d   1       2.337   0.762  -5.017  0.00  0.00     0.062 H 
ATOM     18  C   LIG d   1       3.390  -1.629  -2.885  0.00  0.00    -0.062 A 
ATOM     19  H   LIG d   1       1.805  -0.197  -2.813  0.00  0.00     0.062 H 
ATOM     20  C   LIG d   1       4.447  -2.132  -3.621  0.00  0.00    -0.061 A 
ATOM     21  H   LIG d   1       3.159  -2.047  -1.916  0.00  0.00     0.062 H 
ATOM     22  C   LIG d   1       4.742  -1.597  -4.861  0.00  0.00    -0.057 A 
ATOM     23  H   LIG d   1       5.041  -2.944  -3.228  0.00  0.00     0.062 H 
ATOM     24  H   LIG d   1       5.567  -1.990  -5.436  0.00  0.00     0.062 H 
ENDBRANCH   1  14
BRANCH   1  25
ATOM     25  S   LIG d   1       6.077  -0.162  -7.048  0.00  0.00     0.043 S 
ATOM     26  O   LIG d   1       6.800   0.834  -6.337  0.00  0.00    -0.256 OA
BRANCH  25  27
ATOM     27  C   LIG d   1       6.226   0.139  -8.831  0.00  0.00     0.102 C 
ATOM     28  H   LIG d   1       7.064  -0.434  -9.226  0.00  0.00     0.050 H 
ATOM     29  H   LIG d   1       5.307  -0.171  -9.329  0.00  0.00     0.050 H 
BRANCH  27  30
ATOM     30  C   LIG d   1       6.460   1.607  -9.074  0.00  0.00     0.248 C 
ATOM     31  O   LIG d   1       5.523   2.337  -9.326  0.00  0.00    -0.273 OA
ATOM     32  N   LIG d   1       7.709   2.110  -9.014  0.00  0.00    -0.197 N 
ATOM     33  H   LIG d   1       8.457   1.526  -8.813  0.00  0.00     0.182 HD
BRANCH  32  34
ATOM     34  O   LIG d   1       7.928   3.490  -9.244  0.00  0.00    -0.295 OA
ATOM     35  H   LIG d   1       7.118   4.016  -9.279  0.00  0.00     0.241 HD
ENDBRANCH  32  34
ENDBRANCH  27  30
ENDBRANCH  25  27
ENDBRANCH   1  25
TORSDOF 6
ENDMDL
MODEL 4
REMARK VINA RESULT:      -6.1      2.716      4.634
REMARK  6 active torsions:
REMARK  status: ('A' for Active; 'I' for Inactive)
REMARK    1  A    between atoms: C_4  and  C_7 
REMARK    2  A    between atoms: C_7  and  C_8 
REMARK    3  A    between atoms: C_7  and  S_14 
REMARK    4  A    between atoms: S_14  and  C_16 
REMARK    5  A    between atoms: C_16  and  C_17 
REMARK       I    between atoms: C_17  and  N_19 
REMARK    6  A    between atoms: N_19  and  O_20 
ROOT
ATOM      1  C   LIG d   1       5.908  -2.123  -4.780  0.00  0.00     0.085 C 
ATOM      2  H   LIG d   1       5.389  -3.069  -4.626  0.00  0.00     0.053 H 
ENDROOT
BRANCH   1   3
ATOM      3  C   LIG d   1       7.396  -2.348  -4.707  0.00  0.00    -0.028 A 
ATOM      4  C   LIG d   1       7.908  -3.325  -3.874  0.00  0.00    -0.057 A 
ATOM      5  C   LIG d   1       9.273  -3.531  -3.809  0.00  0.00    -0.061 A 
ATOM      6  H   LIG d   1       7.242  -3.927  -3.275  0.00  0.00     0.062 H 
ATOM      7  C   LIG d   1      10.127  -2.762  -4.576  0.00  0.00    -0.062 A 
ATOM      8  H   LIG d   1       9.673  -4.295  -3.157  0.00  0.00     0.062 H 
ATOM      9  C   LIG d   1       9.615  -1.785  -5.410  0.00  0.00    -0.061 A 
ATOM     10  H   LIG d   1      11.193  -2.920  -4.521  0.00  0.00     0.062 H 
ATOM     11  C   LIG d   1       8.249  -1.577  -5.474  0.00  0.00    -0.057 A 
ATOM     12  H   LIG d   1      10.281  -1.183  -6.009  0.00  0.00     0.062 H 
ATOM     13  H   LIG d   1       7.850  -0.813  -6.126  0.00  0.00     0.062 H 
ENDBRANCH   1   3
BRANCH   1  14
ATOM     14  C   LIG d   1       5.495  -1.145  -3.710  0.00  0.00    -0.028 A 
ATOM     15  C   LIG d   1       5.911   0.171  -3.778  0.00  0.00    -0.057 A 
ATOM     16  C   LIG d   1       5.528   1.069  -2.800  0.00  0.00    -0.061 A 
ATOM     17  H   LIG d   1       6.531   0.499  -4.599  0.00  0.00     0.062 H 
ATOM     18  C   LIG d   1       4.737   0.648  -1.747  0.00  0.00    -0.062 A 
ATOM     19  H   LIG d   1       5.849   2.099  -2.855  0.00  0.00     0.062 H 
ATOM     20  C   LIG d   1       4.326  -0.669  -1.675  0.00  0.00    -0.061 A 
ATOM     21  H   LIG d   1       4.441   1.349  -0.981  0.00  0.00     0.062 H 
ATOM     22  C   LIG d   1       4.704  -1.566  -2.657  0.00  0.00    -0.057 A 
ATOM     23  H   LIG d   1       3.708  -0.998  -0.853  0.00  0.00     0.062 H 
ATOM     24  H   LIG d   1       4.383  -2.595  -2.600  0.00  0.00     0.062 H 
ENDBRANCH   1  14
BRANCH   1  25
ATOM     25  S   LIG d   1       5.475  -1.455  -6.409  0.00  0.00     0.043 S 
ATOM     26  O   LIG d   1       4.117  -1.034  -6.403  0.00  0.00    -0.256 OA
BRANCH  25  27
ATOM     27  C   LIG d   1       5.667  -2.868  -7.530  0.00  0.00     0.102 C 
ATOM     28  H   LIG d   1       5.201  -2.637  -8.488  0.00  0.00     0.050 H 
ATOM     29  H   LIG d   1       6.727  -3.070  -7.682  0.00  0.00     0.050 H 
BRANCH  27  30
ATOM     30  C   LIG d   1       5.004  -4.080  -6.928  0.00  0.00     0.248 C 
ATOM     31  O   LIG d   1       5.673  -5.039  -6.605  0.00  0.00    -0.273 OA
ATOM     32  N   LIG d   1       3.668  -4.099  -6.750  0.00  0.00    -0.197 N 
ATOM     33  H   LIG d   1       3.133  -3.333  -7.009  0.00  0.00     0.182 HD
BRANCH  32  34
ATOM     34  O   LIG d   1       3.046  -5.239  -6.185  0.00  0.00    -0.295 OA
ATOM     35  H   LIG d   1       2.258  -5.037  -5.662  0.00  0.00     0.241 HD
ENDBRANCH  32  34
ENDBRANCH  27  30
ENDBRANCH  25  27
ENDBRANCH   1  25
TORSDOF 6
ENDMDL
MODEL 5
REMARK VINA RESULT:      -5.8      2.310      4.051
REMARK  6 active torsions:
REMARK  status: ('A' for Active; 'I' for Inactive)
REMARK    1  A    between atoms: C_4  and  C_7 
REMARK    2  A    between atoms: C_7  and  C_8 
REMARK    3  A    between atoms: C_7  and  S_14 
REMARK    4  A    between atoms: S_14  and  C_16 
REMARK    5  A    between atoms: C_16  and  C_17 
REMARK       I    between atoms: C_17  and  N_19 
REMARK    6  A    between atoms: N_19  and  O_20 
ROOT
ATOM      1  C   LIG d   1       6.872  -1.057  -4.390  0.00  0.00     0.085 C 
ATOM      2  H   LIG d   1       7.490  -1.546  -3.638  0.00  0.00     0.053 H 
ENDROOT
BRANCH   1   3
ATOM      3  C   LIG d   1       7.519   0.238  -4.808  0.00  0.00    -0.028 A 
ATOM      4  C   LIG d   1       7.877   0.437  -6.129  0.00  0.00    -0.057 A 
ATOM      5  C   LIG d   1       8.470   1.626  -6.511  0.00  0.00    -0.061 A 
ATOM      6  H   LIG d   1       7.694  -0.335  -6.860  0.00  0.00     0.062 H 
ATOM      7  C   LIG d   1       8.703   2.615  -5.576  0.00  0.00    -0.062 A 
ATOM      8  H   LIG d   1       8.749   1.781  -7.544  0.00  0.00     0.062 H 
ATOM      9  C   LIG d   1       8.345   2.416  -4.255  0.00  0.00    -0.061 A 
ATOM     10  H   LIG d   1       9.171   3.542  -5.875  0.00  0.00     0.062 H 
ATOM     11  C   LIG d   1       7.754   1.227  -3.871  0.00  0.00    -0.057 A 
ATOM     12  H   LIG d   1       8.528   3.189  -3.524  0.00  0.00     0.062 H 
ATOM     13  H   LIG d   1       7.474   1.072  -2.839  0.00  0.00     0.062 H 
ENDBRANCH   1   3
BRANCH   1  14
ATOM     14  C   LIG d   1       5.508  -0.774  -3.812  0.00  0.00    -0.028 A 
ATOM     15  C   LIG d   1       5.198  -1.199  -2.534  0.00  0.00    -0.057 A 
ATOM     16  C   LIG d   1       3.950  -0.936  -2.003  0.00  0.00    -0.061 A 
ATOM     17  H   LIG d   1       5.931  -1.733  -1.949  0.00  0.00     0.062 H 
ATOM     18  C   LIG d   1       3.008  -0.255  -2.753  0.00  0.00    -0.062 A 
ATOM     19  H   LIG d   1       3.707  -1.264  -1.002  0.00  0.00     0.062 H 
ATOM     20  C   LIG d   1       3.317   0.164  -4.033  0.00  0.00    -0.061 A 
ATOM     21  H   LIG d   1       2.031  -0.053  -2.339  0.00  0.00     0.062 H 
ATOM     22  C   LIG d   1       4.567  -0.095  -4.563  0.00  0.00    -0.057 A 
ATOM     23  H   LIG d   1       2.582   0.696  -4.619  0.00  0.00     0.062 H 
ATOM     24  H   LIG d   1       4.808   0.233  -5.563  0.00  0.00     0.062 H 
ENDBRANCH   1  14
BRANCH   1  25
ATOM     25  S   LIG d   1       6.703  -2.143  -5.833  0.00  0.00     0.043 S 
ATOM     26  O   LIG d   1       5.538  -1.782  -6.563  0.00  0.00    -0.256 OA
BRANCH  25  27
ATOM     27  C   LIG d   1       6.481  -3.795  -5.117  0.00  0.00     0.102 C 
ATOM     28  H   LIG d   1       7.074  -4.516  -5.679  0.00  0.00     0.050 H 
ATOM     29  H   LIG d   1       6.809  -3.787  -4.078  0.00  0.00     0.050 H 
BRANCH  27  30
ATOM     30  C   LIG d   1       5.026  -4.180  -5.183  0.00  0.00     0.248 C 
ATOM     31  O   LIG d   1       4.304  -3.990  -4.226  0.00  0.00    -0.273 OA
ATOM     32  N   LIG d   1       4.526  -4.736  -6.305  0.00  0.00    -0.197 N 
ATOM     33  H   LIG d   1       5.103  -4.888  -7.070  0.00  0.00     0.182 HD
BRANCH  32  34
ATOM     34  O   LIG d   1       3.159  -5.099  -6.366  0.00  0.00    -0.295 OA
ATOM     35  H   LIG d   1       2.934  -5.874  -5.834  0.00  0.00     0.241 HD
ENDBRANCH  32  34
ENDBRANCH  27  30
ENDBRANCH  25  27
ENDBRANCH   1  25
TORSDOF 6
ENDMDL
MODEL 6
REMARK VINA RESULT:      -5.8      4.098      6.291
REMARK  6 active torsions:
REMARK  status: ('A' for Active; 'I' for Inactive)
REMARK    1  A    between atoms: C_4  and  C_7 
REMARK    2  A    between atoms: C_7  and  C_8 
REMARK    3  A    between atoms: C_7  and  S_14 
REMARK    4  A    between atoms: S_14  and  C_16 
REMARK    5  A    between atoms: C_16  and  C_17 
REMARK       I    between atoms: C_17  and  N_19 
REMARK    6  A    between atoms: N_19  and  O_20 
ROOT
ATOM      1  C   LIG d   1       6.949  -1.129  -3.588  0.00  0.00     0.085 C 
ATOM      2  H   LIG d   1       7.410  -0.949  -2.617  0.00  0.00     0.053 H 
ENDROOT
BRANCH   1   3
ATOM      3  C   LIG d   1       5.450  -1.052  -3.457  0.00  0.00    -0.028 A 
ATOM      4  C   LIG d   1       4.806  -1.766  -2.464  0.00  0.00    -0.057 A 
ATOM      5  C   LIG d   1       3.431  -1.694  -2.343  0.00  0.00    -0.061 A 
ATOM      6  H   LIG d   1       5.377  -2.379  -1.783  0.00  0.00     0.062 H 
ATOM      7  C   LIG d   1       2.700  -0.908  -3.214  0.00  0.00    -0.062 A 
ATOM      8  H   LIG d   1       2.928  -2.251  -1.566  0.00  0.00     0.062 H 
ATOM      9  C   LIG d   1       3.344  -0.194  -4.207  0.00  0.00    -0.061 A 
ATOM     10  H   LIG d   1       1.625  -0.856  -3.122  0.00  0.00     0.062 H 
ATOM     11  C   LIG d   1       4.720  -0.267  -4.329  0.00  0.00    -0.057 A 
ATOM     12  H   LIG d   1       2.774   0.419  -4.888  0.00  0.00     0.062 H 
ATOM     13  H   LIG d   1       5.223   0.291  -5.105  0.00  0.00     0.062 H 
ENDBRANCH   1   3
BRANCH   1  14
ATOM     14  C   LIG d   1       7.341  -2.499  -4.083  0.00  0.00    -0.028 A 
ATOM     15  C   LIG d   1       8.371  -3.186  -3.470  0.00  0.00    -0.057 A 
ATOM     16  C   LIG d   1       8.727  -4.443  -3.920  0.00  0.00    -0.061 A 
ATOM     17  H   LIG d   1       8.896  -2.743  -2.637  0.00  0.00     0.062 H 
ATOM     18  C   LIG d   1       8.058  -5.010  -4.989  0.00  0.00    -0.062 A 
ATOM     19  H   LIG d   1       9.529  -4.983  -3.439  0.00  0.00     0.062 H 
ATOM     20  C   LIG d   1       7.031  -4.319  -5.606  0.00  0.00    -0.061 A 
ATOM     21  H   LIG d   1       8.338  -5.991  -5.344  0.00  0.00     0.062 H 
ATOM     22  C   LIG d   1       6.672  -3.064  -5.152  0.00  0.00    -0.057 A 
ATOM     23  H   LIG d   1       6.509  -4.762  -6.441  0.00  0.00     0.062 H 
ATOM     24  H   LIG d   1       5.870  -2.525  -5.634  0.00  0.00     0.062 H 
ENDBRANCH   1  14
BRANCH   1  25
ATOM     25  S   LIG d   1       7.519   0.125  -4.769  0.00  0.00     0.043 S 
ATOM     26  O   LIG d   1       8.832  -0.199  -5.206  0.00  0.00    -0.256 OA
BRANCH  25  27
ATOM     27  C   LIG d   1       7.565   1.656  -3.797  0.00  0.00     0.102 C 
ATOM     28  H   LIG d   1       6.750   2.308  -4.110  0.00  0.00     0.050 H 
ATOM     29  H   LIG d   1       7.453   1.418  -2.739  0.00  0.00     0.050 H 
BRANCH  27  30
ATOM     30  C   LIG d   1       8.881   2.353  -4.020  0.00  0.00     0.248 C 
ATOM     31  O   LIG d   1       8.942   3.313  -4.759  0.00  0.00    -0.273 OA
ATOM     32  N   LIG d   1       9.992   1.910  -3.397  0.00  0.00    -0.197 N 
ATOM     33  H   LIG d   1       9.944   1.143  -2.806  0.00  0.00     0.182 HD
BRANCH  32  34
ATOM     34  O   LIG d   1      11.230   2.566  -3.607  0.00  0.00    -0.295 OA
ATOM     35  H   LIG d   1      11.520   2.570  -4.530  0.00  0.00     0.241 HD
ENDBRANCH  32  34
ENDBRANCH  27  30
ENDBRANCH  25  27
ENDBRANCH   1  25
TORSDOF 6
ENDMDL
MODEL 7
REMARK VINA RESULT:      -5.8      4.270      6.252
REMARK  6 active torsions:
REMARK  status: ('A' for Active; 'I' for Inactive)
REMARK    1  A    between atoms: C_4  and  C_7 
REMARK    2  A    between atoms: C_7  and  C_8 
REMARK    3  A    between atoms: C_7  and  S_14 
REMARK    4  A    between atoms: S_14  and  C_16 
REMARK    5  A    between atoms: C_16  and  C_17 
REMARK       I    between atoms: C_17  and  N_19 
REMARK    6  A    between atoms: N_19  and  O_20 
ROOT
ATOM      1  C   LIG d   1       6.317  -0.656  -4.792  0.00  0.00     0.085 C 
ATOM      2  H   LIG d   1       6.213  -0.307  -5.820  0.00  0.00     0.053 H 
ENDROOT
BRANCH   1   3
ATOM      3  C   LIG d   1       6.937  -2.029  -4.787  0.00  0.00    -0.028 A 
ATOM      4  C   LIG d   1       7.930  -2.336  -3.876  0.00  0.00    -0.057 A 
ATOM      5  C   LIG d   1       8.497  -3.597  -3.871  0.00  0.00    -0.061 A 
ATOM      6  H   LIG d   1       8.262  -1.592  -3.168  0.00  0.00     0.062 H 
ATOM      7  C   LIG d   1       8.071  -4.550  -4.776  0.00  0.00    -0.062 A 
ATOM      8  H   LIG d   1       9.273  -3.837  -3.158  0.00  0.00     0.062 H 
ATOM      9  C   LIG d   1       7.078  -4.244  -5.688  0.00  0.00    -0.061 A 
ATOM     10  H   LIG d   1       8.518  -5.533  -4.775  0.00  0.00     0.062 H 
ATOM     11  C   LIG d   1       6.512  -2.982  -5.694  0.00  0.00    -0.057 A 
ATOM     12  H   LIG d   1       6.746  -4.988  -6.395  0.00  0.00     0.062 H 
ATOM     13  H   LIG d   1       5.735  -2.743  -6.406  0.00  0.00     0.062 H 
ENDBRANCH   1   3
BRANCH   1  14
ATOM     14  C   LIG d   1       4.958  -0.715  -4.142  0.00  0.00    -0.028 A 
ATOM     15  C   LIG d   1       3.877  -0.097  -4.742  0.00  0.00    -0.057 A 
ATOM     16  C   LIG d   1       2.631  -0.155  -4.149  0.00  0.00    -0.061 A 
ATOM     17  H   LIG d   1       4.006   0.428  -5.678  0.00  0.00     0.062 H 
ATOM     18  C   LIG d   1       2.466  -0.823  -2.950  0.00  0.00    -0.062 A 
ATOM     19  H   LIG d   1       1.785   0.324  -4.620  0.00  0.00     0.062 H 
ATOM     20  C   LIG d   1       3.548  -1.435  -2.346  0.00  0.00    -0.061 A 
ATOM     21  H   LIG d   1       1.493  -0.865  -2.484  0.00  0.00     0.062 H 
ATOM     22  C   LIG d   1       4.794  -1.382  -2.943  0.00  0.00    -0.057 A 
ATOM     23  H   LIG d   1       3.420  -1.957  -1.410  0.00  0.00     0.062 H 
ATOM     24  H   LIG d   1       5.640  -1.860  -2.471  0.00  0.00     0.062 H 
ENDBRANCH   1  14
BRANCH   1  25
ATOM     25  S   LIG d   1       7.378   0.490  -3.871  0.00  0.00     0.043 S 
ATOM     26  O   LIG d   1       6.602   1.588  -3.409  0.00  0.00    -0.256 OA
BRANCH  25  27
ATOM     27  C   LIG d   1       8.575   1.071  -5.104  0.00  0.00     0.102 C 
ATOM     28  H   LIG d   1       8.784   0.269  -5.812  0.00  0.00     0.050 H 
ATOM     29  H   LIG d   1       8.160   1.927  -5.637  0.00  0.00     0.050 H 
BRANCH  27  30
ATOM     30  C   LIG d   1       9.850   1.478  -4.414  0.00  0.00     0.248 C 
ATOM     31  O   LIG d   1      10.923   1.177  -4.895  0.00  0.00    -0.273 OA
ATOM     32  N   LIG d   1       9.801   2.177  -3.262  0.00  0.00    -0.197 N 
ATOM     33  H   LIG d   1       8.943   2.418  -2.878  0.00  0.00     0.182 HD
BRANCH  32  34
ATOM     34  O   LIG d   1      11.000   2.559  -2.613  0.00  0.00    -0.295 OA
ATOM     35  H   LIG d   1      11.783   2.087  -2.927  0.00  0.00     0.241 HD
ENDBRANCH  32  34
ENDBRANCH  27  30
ENDBRANCH  25  27
ENDBRANCH   1  25
TORSDOF 6
ENDMDL
MODEL 8
REMARK VINA RESULT:      -5.8      3.173      5.699
REMARK  6 active torsions:
REMARK  status: ('A' for Active; 'I' for Inactive)
REMARK    1  A    between atoms: C_4  and  C_7 
REMARK    2  A    between atoms: C_7  and  C_8 
REMARK    3  A    between atoms: C_7  and  S_14 
REMARK    4  A    between atoms: S_14  and  C_16 
REMARK    5  A    between atoms: C_16  and  C_17 
REMARK       I    between atoms: C_17  and  N_19 
REMARK    6  A    between atoms: N_19  and  O_20 
ROOT
ATOM      1  C   LIG d   1       5.629  -0.359  -5.755  0.00  0.00     0.085 C 
ATOM      2  H   LIG d   1       5.840   0.710  -5.770  0.00  0.00     0.053 H 
ENDROOT
BRANCH   1   3
ATOM      3  C   LIG d   1       4.599  -0.684  -6.805  0.00  0.00    -0.028 A 
ATOM      4  C   LIG d   1       3.459   0.091  -6.918  0.00  0.00    -0.057 A 
ATOM      5  C   LIG d   1       2.515  -0.207  -7.883  0.00  0.00    -0.061 A 
ATOM      6  H   LIG d   1       3.307   0.927  -6.254  0.00  0.00     0.062 H 
ATOM      7  C   LIG d   1       2.710  -1.278  -8.735  0.00  0.00    -0.062 A 
ATOM      8  H   LIG d   1       1.625   0.399  -7.971  0.00  0.00     0.062 H 
ATOM      9  C   LIG d   1       3.850  -2.052  -8.622  0.00  0.00    -0.061 A 
ATOM     10  H   LIG d   1       1.970  -1.512  -9.485  0.00  0.00     0.062 H 
ATOM     11  C   LIG d   1       4.794  -1.756  -7.656  0.00  0.00    -0.057 A 
ATOM     12  H   LIG d   1       4.002  -2.889  -9.286  0.00  0.00     0.062 H 
ATOM     13  H   LIG d   1       5.684  -2.361  -7.568  0.00  0.00     0.062 H 
ENDBRANCH   1   3
BRANCH   1  14
ATOM     14  C   LIG d   1       5.101  -0.747  -4.396  0.00  0.00    -0.028 A 
ATOM     15  C   LIG d   1       4.550  -1.999  -4.201  0.00  0.00    -0.057 A 
ATOM     16  C   LIG d   1       4.070  -2.356  -2.955  0.00  0.00    -0.061 A 
ATOM     17  H   LIG d   1       4.498  -2.700  -5.020  0.00  0.00     0.062 H 
ATOM     18  C   LIG d   1       4.133  -1.456  -1.906  0.00  0.00    -0.062 A 
ATOM     19  H   LIG d   1       3.643  -3.336  -2.800  0.00  0.00     0.062 H 
ATOM     20  C   LIG d   1       4.679  -0.202  -2.104  0.00  0.00    -0.061 A 
ATOM     21  H   LIG d   1       3.755  -1.734  -0.933  0.00  0.00     0.062 H 
ATOM     22  C   LIG d   1       5.163   0.153  -3.349  0.00  0.00    -0.057 A 
ATOM     23  H   LIG d   1       4.728   0.500  -1.285  0.00  0.00     0.062 H 
ATOM     24  H   LIG d   1       5.590   1.133  -3.503  0.00  0.00     0.062 H 
ENDBRANCH   1  14
BRANCH   1  25
ATOM     25  S   LIG d   1       7.153  -1.281  -6.096  0.00  0.00     0.043 S 
ATOM     26  O   LIG d   1       7.633  -1.865  -4.892  0.00  0.00    -0.256 OA
BRANCH  25  27
ATOM     27  C   LIG d   1       8.319  -0.011  -6.659  0.00  0.00     0.102 C 
ATOM     28  H   LIG d   1       9.288  -0.470  -6.856  0.00  0.00     0.050 H 
ATOM     29  H   LIG d   1       7.943   0.448  -7.573  0.00  0.00     0.050 H 
BRANCH  27  30
ATOM     30  C   LIG d   1       8.470   1.041  -5.592  0.00  0.00     0.248 C 
ATOM     31  O   LIG d   1       8.037   2.160  -5.778  0.00  0.00    -0.273 OA
ATOM     32  N   LIG d   1       9.087   0.742  -4.431  0.00  0.00    -0.197 N 
ATOM     33  H   LIG d   1       9.433  -0.152  -4.283  0.00  0.00     0.182 HD
BRANCH  32  34
ATOM     34  O   LIG d   1       9.229   1.732  -3.429  0.00  0.00    -0.295 OA
ATOM     35  H   LIG d   1       9.179   2.638  -3.762  0.00  0.00     0.241 HD
ENDBRANCH  32  34
ENDBRANCH  27  30
ENDBRANCH  25  27
ENDBRANCH   1  25
TORSDOF 6
ENDMDL
MODEL 9
REMARK VINA RESULT:      -5.8      2.372      4.964
REMARK  6 active torsions:
REMARK  status: ('A' for Active; 'I' for Inactive)
REMARK    1  A    between atoms: C_4  and  C_7 
REMARK    2  A    between atoms: C_7  and  C_8 
REMARK    3  A    between atoms: C_7  and  S_14 
REMARK    4  A    between atoms: S_14  and  C_16 
REMARK    5  A    between atoms: C_16  and  C_17 
REMARK       I    between atoms: C_17  and  N_19 
REMARK    6  A    between atoms: N_19  and  O_20 
ROOT
ATOM      1  C   LIG d   1       6.415  -1.500  -5.164  0.00  0.00     0.085 C 
ATOM      2  H   LIG d   1       7.109  -0.733  -5.508  0.00  0.00     0.053 H 
ENDROOT
BRANCH   1   3
ATOM      3  C   LIG d   1       5.706  -1.018  -3.925  0.00  0.00    -0.028 A 
ATOM      4  C   LIG d   1       5.886   0.281  -3.487  0.00  0.00    -0.057 A 
ATOM      5  C   LIG d   1       5.235   0.723  -2.350  0.00  0.00    -0.061 A 
ATOM      6  H   LIG d   1       6.535   0.950  -4.032  0.00  0.00     0.062 H 
ATOM      7  C   LIG d   1       4.404  -0.133  -1.652  0.00  0.00    -0.062 A 
ATOM      8  H   LIG d   1       5.376   1.738  -2.008  0.00  0.00     0.062 H 
ATOM      9  C   LIG d   1       4.224  -1.432  -2.090  0.00  0.00    -0.061 A 
ATOM     10  H   LIG d   1       3.900   0.212  -0.762  0.00  0.00     0.062 H 
ATOM     11  C   LIG d   1       4.877  -1.875  -3.226  0.00  0.00    -0.057 A 
ATOM     12  H   LIG d   1       3.576  -2.100  -1.545  0.00  0.00     0.062 H 
ATOM     13  H   LIG d   1       4.735  -2.890  -3.568  0.00  0.00     0.062 H 
ENDBRANCH   1   3
BRANCH   1  14
ATOM     14  C   LIG d   1       7.178  -2.761  -4.848  0.00  0.00    -0.028 A 
ATOM     15  C   LIG d   1       6.836  -3.949  -5.466  0.00  0.00    -0.057 A 
ATOM     16  C   LIG d   1       7.538  -5.104  -5.180  0.00  0.00    -0.061 A 
ATOM     17  H   LIG d   1       6.022  -3.975  -6.175  0.00  0.00     0.062 H 
ATOM     18  C   LIG d   1       8.578  -5.073  -4.269  0.00  0.00    -0.062 A 
ATOM     19  H   LIG d   1       7.275  -6.032  -5.665  0.00  0.00     0.062 H 
ATOM     20  C   LIG d   1       8.917  -3.887  -3.647  0.00  0.00    -0.061 A 
ATOM     21  H   LIG d   1       9.125  -5.977  -4.043  0.00  0.00     0.062 H 
ATOM     22  C   LIG d   1       8.217  -2.730  -3.937  0.00  0.00    -0.057 A 
ATOM     23  H   LIG d   1       9.729  -3.862  -2.936  0.00  0.00     0.062 H 
ATOM     24  H   LIG d   1       8.482  -1.803  -3.451  0.00  0.00     0.062 H 
ENDBRANCH   1  14
BRANCH   1  25
ATOM     25  S   LIG d   1       5.197  -1.841  -6.464  0.00  0.00     0.043 S 
ATOM     26  O   LIG d   1       5.841  -1.830  -7.731  0.00  0.00    -0.256 OA
BRANCH  25  27
ATOM     27  C   LIG d   1       4.041  -0.446  -6.361  0.00  0.00     0.102 C 
ATOM     28  H   LIG d   1       3.395  -0.574  -5.492  0.00  0.00     0.050 H 
ATOM     29  H   LIG d   1       4.602   0.483  -6.262  0.00  0.00     0.050 H 
BRANCH  27  30
ATOM     30  C   LIG d   1       3.201  -0.397  -7.609  0.00  0.00     0.248 C 
ATOM     31  O   LIG d   1       2.756   0.663  -8.000  0.00  0.00    -0.273 OA
ATOM     32  N   LIG d   1       2.941  -1.530  -8.293  0.00  0.00    -0.197 N 
ATOM     33  H   LIG d   1       3.297  -2.376  -7.981  0.00  0.00     0.182 HD
BRANCH  32  34
ATOM     34  O   LIG d   1       2.151  -1.483  -9.467  0.00  0.00    -0.295 OA
ATOM     35  H   LIG d   1       1.212  -1.318  -9.302  0.00  0.00     0.241 HD
ENDBRANCH  32  34
ENDBRANCH  27  30
ENDBRANCH  25  27
ENDBRANCH   1  25
TORSDOF 6
ENDMDL
MODEL 10
REMARK VINA RESULT:      -5.7      1.999      4.553
REMARK  6 active torsions:
REMARK  status: ('A' for Active; 'I' for Inactive)
REMARK    1  A    between atoms: C_4  and  C_7 
REMARK    2  A    between atoms: C_7  and  C_8 
REMARK    3  A    between atoms: C_7  and  S_14 
REMARK    4  A    between atoms: S_14  and  C_16 
REMARK    5  A    between atoms: C_16  and  C_17 
REMARK       I    between atoms: C_17  and  N_19 
REMARK    6  A    between atoms: N_19  and  O_20 
ROOT
ATOM      1  C   LIG d   1       5.013  -1.248  -5.813  0.00  0.00     0.085 C 
ATOM      2  H   LIG d   1       6.037  -0.963  -6.054  0.00  0.00     0.053 H 
ENDROOT
BRANCH   1   3
ATOM      3  C   LIG d   1       4.095  -0.819  -6.928  0.00  0.00    -0.028 A 
ATOM      4  C   LIG d   1       3.632  -1.750  -7.839  0.00  0.00    -0.057 A 
ATOM      5  C   LIG d   1       2.789  -1.355  -8.861  0.00  0.00    -0.061 A 
ATOM      6  H   LIG d   1       3.927  -2.784  -7.752  0.00  0.00     0.062 H 
ATOM      7  C   LIG d   1       2.409  -0.031  -8.973  0.00  0.00    -0.062 A 
ATOM      8  H   LIG d   1       2.427  -2.083  -9.573  0.00  0.00     0.062 H 
ATOM      9  C   LIG d   1       2.873   0.900  -8.062  0.00  0.00    -0.061 A 
ATOM     10  H   LIG d   1       1.755   0.277  -9.775  0.00  0.00     0.062 H 
ATOM     11  C   LIG d   1       3.717   0.506  -7.040  0.00  0.00    -0.057 A 
ATOM     12  H   LIG d   1       2.577   1.934  -8.150  0.00  0.00     0.062 H 
ATOM     13  H   LIG d   1       4.079   1.234  -6.329  0.00  0.00     0.062 H 
ENDBRANCH   1   3
BRANCH   1  14
ATOM     14  C   LIG d   1       4.595  -0.575  -4.530  0.00  0.00    -0.028 A 
ATOM     15  C   LIG d   1       3.291  -0.685  -4.086  0.00  0.00    -0.057 A 
ATOM     16  C   LIG d   1       2.908  -0.073  -2.908  0.00  0.00    -0.061 A 
ATOM     17  H   LIG d   1       2.571  -1.253  -4.657  0.00  0.00     0.062 H 
ATOM     18  C   LIG d   1       3.827   0.658  -2.178  0.00  0.00    -0.062 A 
ATOM     19  H   LIG d   1       1.890  -0.162  -2.558  0.00  0.00     0.062 H 
ATOM     20  C   LIG d   1       5.130   0.773  -2.626  0.00  0.00    -0.061 A 
ATOM     21  H   LIG d   1       3.527   1.140  -1.259  0.00  0.00     0.062 H 
ATOM     22  C   LIG d   1       5.514   0.156  -3.802  0.00  0.00    -0.057 A 
ATOM     23  H   LIG d   1       5.848   1.344  -2.056  0.00  0.00     0.062 H 
ATOM     24  H   LIG d   1       6.531   0.246  -4.151  0.00  0.00     0.062 H 
ENDBRANCH   1  14
BRANCH   1  25
ATOM     25  S   LIG d   1       4.919  -3.048  -5.610  0.00  0.00     0.043 S 
ATOM     26  O   LIG d   1       4.722  -3.360  -4.237  0.00  0.00    -0.256 OA
BRANCH  25  27
ATOM     27  C   LIG d   1       6.552  -3.636  -6.137  0.00  0.00     0.102 C 
ATOM     28  H   LIG d   1       6.441  -4.577  -6.676  0.00  0.00     0.050 H 
ATOM     29  H   LIG d   1       7.012  -2.895  -6.790  0.00  0.00     0.050 H 
BRANCH  27  30
ATOM     30  C   LIG d   1       7.423  -3.850  -4.927  0.00  0.00     0.248 C 
ATOM     31  O   LIG d   1       7.880  -4.950  -4.695  0.00  0.00    -0.273 OA
ATOM     32  N   LIG d   1       7.695  -2.819  -4.101  0.00  0.00    -0.197 N 
ATOM     33  H   LIG d   1       7.330  -1.940  -4.287  0.00  0.00     0.182 HD
BRANCH  32  34
ATOM     34  O   LIG d   1       8.514  -3.020  -2.964  0.00  0.00    -0.295 OA
ATOM     35  H   LIG d   1       8.684  -2.216  -2.455  0.00  0.00     0.241 HD
ENDBRANCH  32  34
ENDBRANCH  27  30
ENDBRANCH  25  27
ENDBRANCH   1  25
TORSDOF 6
ENDMDL
