MODEL 1
REMARK VINA RESULT:      -5.2      0.000      0.000
REMARK  7 active torsions:
REMARK  status: ('A' for Active; 'I' for Inactive)
REMARK    1  A    between atoms: C_1  and  C_2 
REMARK    2  A    between atoms: C_2  and  C_3 
REMARK    3  A    between atoms: C_3  and  S_4 
REMARK    4  A    between atoms: S_4  and  C_6 
REMARK    5  A    between atoms: C_13  and  N_16 
REMARK       I    between atoms: N_16  and  C_17 
REMARK    6  A    between atoms: C_17  and  O_19 
REMARK    7  A    between atoms: O_19  and  C_20 
ROOT
ATOM      1  C   LIG d   1       5.271  -1.489  -3.100  0.00  0.00     0.041 A 
ATOM      2  C   LIG d   1       6.630  -1.685  -3.280  0.00  0.00    -0.044 A 
ATOM      3  C   LIG d   1       7.085  -2.689  -4.112  0.00  0.00    -0.035 A 
ATOM      4  C   LIG d   1       6.177  -3.504  -4.772  0.00  0.00     0.065 A 
ATOM      5  C   LIG d   1       4.806  -3.307  -4.590  0.00  0.00     0.066 A 
ATOM      6  C   LIG d   1       4.360  -2.299  -3.748  0.00  0.00    -0.021 A 
ATOM      7  N   LIG d   1       4.148  -4.259  -5.364  0.00  0.00    -0.326 N 
ATOM      8  C   LIG d   1       5.085  -5.013  -5.998  0.00  0.00     0.201 A 
ATOM      9  N   LIG d   1       6.324  -4.571  -5.653  0.00  0.00    -0.326 N 
ATOM     10  H   LIG d   1       7.166  -4.937  -5.966  0.00  0.00     0.169 HD
ATOM     11  H   LIG d   1       7.337  -1.051  -2.767  0.00  0.00     0.063 H 
ATOM     12  H   LIG d   1       8.146  -2.838  -4.251  0.00  0.00     0.064 H 
ATOM     13  H   LIG d   1       3.300  -2.146  -3.601  0.00  0.00     0.065 H 
ATOM     14  H   LIG d   1       3.187  -4.365  -5.437  0.00  0.00     0.169 HD
ENDROOT
BRANCH   1  15
ATOM     15  S   LIG d   1       4.704  -0.206  -2.036  0.00  0.00     0.054 S 
ATOM     16  O   LIG d   1       5.572   0.884  -2.316  0.00  0.00    -0.252 OA
BRANCH  15  17
ATOM     17  C   LIG d   1       3.040   0.173  -2.652  0.00  0.00     0.028 C 
ATOM     18  H   LIG d   1       2.449   0.620  -1.852  0.00  0.00     0.040 H 
ATOM     19  H   LIG d   1       2.559  -0.746  -2.989  0.00  0.00     0.040 H 
BRANCH  17  20
ATOM     20  C   LIG d   1       3.140   1.154  -3.821  0.00  0.00    -0.044 C 
ATOM     21  H   LIG d   1       4.188   1.336  -4.054  0.00  0.00     0.027 H 
ATOM     22  H   LIG d   1       2.659   2.094  -3.549  0.00  0.00     0.027 H 
BRANCH  20  23
ATOM     23  C   LIG d   1       2.441   0.561  -5.047  0.00  0.00    -0.064 C 
ATOM     24  H   LIG d   1       1.696   1.265  -5.417  0.00  0.00     0.023 H 
ATOM     25  H   LIG d   1       3.178   0.368  -5.827  0.00  0.00     0.023 H 
ATOM     26  H   LIG d   1       1.952  -0.373  -4.770  0.00  0.00     0.023 H 
ENDBRANCH  20  23
ENDBRANCH  17  20
ENDBRANCH  15  17
ENDBRANCH   1  15
BRANCH   8  27
ATOM     27  N   LIG d   1       4.831  -6.022  -6.824  0.00  0.00    -0.109 NA
ATOM     28  C   LIG d   1       4.649  -7.254  -6.340  0.00  0.00     0.427 C 
ATOM     29  O   LIG d   1       4.622  -7.436  -5.137  0.00  0.00    -0.224 OA
BRANCH  28  30
ATOM     30  O   LIG d   1       4.497  -8.295  -7.184  0.00  0.00    -0.452 OA
BRANCH  30  31
ATOM     31  C   LIG d   1       3.924  -8.015  -8.463  0.00  0.00     0.083 C 
ATOM     32  H   LIG d   1       4.632  -8.285  -9.246  0.00  0.00     0.066 H 
ATOM     33  H   LIG d   1       3.009  -8.596  -8.586  0.00  0.00     0.066 H 
ATOM     34  H   LIG d   1       3.692  -6.953  -8.531  0.00  0.00     0.066 H 
ENDBRANCH  30  31
ENDBRANCH  28  30
ENDBRANCH   8  27
TORSDOF 7
ENDMDL
MODEL 2
REMARK VINA RESULT:      -5.2      4.790      5.879
REMARK  7 active torsions:
REMARK  status: ('A' for Active; 'I' for Inactive)
REMARK    1  A    between atoms: C_1  and  C_2 
REMARK    2  A    between atoms: C_2  and  C_3 
REMARK    3  A    between atoms: C_3  and  S_4 
REMARK    4  A    between atoms: S_4  and  C_6 
REMARK    5  A    between atoms: C_13  and  N_16 
REMARK       I    between atoms: N_16  and  C_17 
REMARK    6  A    between atoms: C_17  and  O_19 
REMARK    7  A    between atoms: O_19  and  C_20 
ROOT
ATOM      1  C   LIG d   1       3.377  -0.916  -4.175  0.00  0.00     0.041 A 
ATOM      2  C   LIG d   1       2.375   0.031  -4.296  0.00  0.00    -0.044 A 
ATOM      3  C   LIG d   1       2.221   0.737  -5.473  0.00  0.00    -0.035 A 
ATOM      4  C   LIG d   1       3.075   0.497  -6.540  0.00  0.00     0.065 A 
ATOM      5  C   LIG d   1       4.087  -0.457  -6.418  0.00  0.00     0.066 A 
ATOM      6  C   LIG d   1       4.237  -1.158  -5.230  0.00  0.00    -0.021 A 
ATOM      7  N   LIG d   1       4.776  -0.481  -7.627  0.00  0.00    -0.326 N 
ATOM      8  C   LIG d   1       4.205   0.428  -8.461  0.00  0.00     0.201 A 
ATOM      9  N   LIG d   1       3.169   1.033  -7.820  0.00  0.00    -0.326 N 
ATOM     10  H   LIG d   1       2.595   1.721  -8.192  0.00  0.00     0.169 HD
ATOM     11  H   LIG d   1       1.709   0.218  -3.467  0.00  0.00     0.063 H 
ATOM     12  H   LIG d   1       1.436   1.474  -5.564  0.00  0.00     0.064 H 
ATOM     13  H   LIG d   1       5.021  -1.894  -5.129  0.00  0.00     0.065 H 
ATOM     14  H   LIG d   1       5.534  -1.049  -7.837  0.00  0.00     0.169 HD
ENDROOT
BRANCH   1  15
ATOM     15  S   LIG d   1       3.564  -1.809  -2.669  0.00  0.00     0.054 S 
ATOM     16  O   LIG d   1       4.046  -3.081  -3.081  0.00  0.00    -0.252 OA
BRANCH  15  17
ATOM     17  C   LIG d   1       4.878  -0.920  -1.790  0.00  0.00     0.028 C 
ATOM     18  H   LIG d   1       5.823  -1.055  -2.316  0.00  0.00     0.040 H 
ATOM     19  H   LIG d   1       4.967  -1.311  -0.777  0.00  0.00     0.040 H 
BRANCH  17  20
ATOM     20  C   LIG d   1       4.536   0.570  -1.733  0.00  0.00    -0.044 C 
ATOM     21  H   LIG d   1       4.661   0.933  -0.714  0.00  0.00     0.027 H 
ATOM     22  H   LIG d   1       3.502   0.718  -2.048  0.00  0.00     0.027 H 
BRANCH  20  23
ATOM     23  C   LIG d   1       5.468   1.344  -2.668  0.00  0.00    -0.064 C 
ATOM     24  H   LIG d   1       6.472   1.365  -2.245  0.00  0.00     0.023 H 
ATOM     25  H   LIG d   1       5.494   0.856  -3.642  0.00  0.00     0.023 H 
ATOM     26  H   LIG d   1       5.101   2.365  -2.784  0.00  0.00     0.023 H 
ENDBRANCH  20  23
ENDBRANCH  17  20
ENDBRANCH  15  17
ENDBRANCH   1  15
BRANCH   8  27
ATOM     27  N   LIG d   1       4.596   0.685  -9.704  0.00  0.00    -0.109 NA
ATOM     28  C   LIG d   1       3.793   0.390 -10.732  0.00  0.00     0.427 C 
ATOM     29  O   LIG d   1       2.668  -0.023 -10.525  0.00  0.00    -0.224 OA
BRANCH  28  30
ATOM     30  O   LIG d   1       4.231   0.552 -11.998  0.00  0.00    -0.452 OA
BRANCH  30  31
ATOM     31  C   LIG d   1       4.208  -0.599 -12.845  0.00  0.00     0.083 C 
ATOM     32  H   LIG d   1       3.877  -1.465 -12.272  0.00  0.00     0.066 H 
ATOM     33  H   LIG d   1       3.521  -0.426 -13.672  0.00  0.00     0.066 H 
ATOM     34  H   LIG d   1       5.209  -0.781 -13.235  0.00  0.00     0.066 H 
ENDBRANCH  30  31
ENDBRANCH  28  30
ENDBRANCH   8  27
TORSDOF 7
ENDMDL
MODEL 3
REMARK VINA RESULT:      -5.0      1.576      1.910
REMARK  7 active torsions:
REMARK  status: ('A' for Active; 'I' for Inactive)
REMARK    1  A    between atoms: C_1  and  C_2 
REMARK    2  A    between atoms: C_2  and  C_3 
REMARK    3  A    between atoms: C_3  and  S_4 
REMARK    4  A    between atoms: S_4  and  C_6 
REMARK    5  A    between atoms: C_13  and  N_16 
REMARK       I    between atoms: N_16  and  C_17 
REMARK    6  A    between atoms: C_17  and  O_19 
REMARK    7  A    between atoms: O_19  and  C_20 
ROOT
ATOM      1  C   LIG d   1       5.892  -1.920  -4.382  0.00  0.00     0.041 A 
ATOM      2  C   LIG d   1       7.172  -2.425  -4.536  0.00  0.00    -0.044 A 
ATOM      3  C   LIG d   1       7.361  -3.717  -4.987  0.00  0.00    -0.035 A 
ATOM      4  C   LIG d   1       6.264  -4.512  -5.288  0.00  0.00     0.065 A 
ATOM      5  C   LIG d   1       4.973  -4.002  -5.132  0.00  0.00     0.066 A 
ATOM      6  C   LIG d   1       4.794  -2.705  -4.673  0.00  0.00    -0.021 A 
ATOM      7  N   LIG d   1       4.087  -5.009  -5.503  0.00  0.00    -0.326 N 
ATOM      8  C   LIG d   1       4.811  -6.099  -5.873  0.00  0.00     0.201 A 
ATOM      9  N   LIG d   1       6.136  -5.817  -5.751  0.00  0.00    -0.326 N 
ATOM     10  H   LIG d   1       6.867  -6.424  -5.951  0.00  0.00     0.169 HD
ATOM     11  H   LIG d   1       8.026  -1.808  -4.302  0.00  0.00     0.063 H 
ATOM     12  H   LIG d   1       8.361  -4.107  -5.108  0.00  0.00     0.064 H 
ATOM     13  H   LIG d   1       3.797  -2.308  -4.547  0.00  0.00     0.065 H 
ATOM     14  H   LIG d   1       3.119  -4.944  -5.496  0.00  0.00     0.169 HD
ENDROOT
BRANCH   1  15
ATOM     15  S   LIG d   1       5.664  -0.272  -3.805  0.00  0.00     0.054 S 
ATOM     16  O   LIG d   1       6.299   0.530  -4.792  0.00  0.00    -0.252 OA
BRANCH  15  17
ATOM     17  C   LIG d   1       3.869  -0.022  -3.887  0.00  0.00     0.028 C 
ATOM     18  H   LIG d   1       3.384  -0.959  -4.161  0.00  0.00     0.040 H 
ATOM     19  H   LIG d   1       3.641   0.737  -4.636  0.00  0.00     0.040 H 
BRANCH  17  20
ATOM     20  C   LIG d   1       3.355   0.438  -2.522  0.00  0.00    -0.044 C 
ATOM     21  H   LIG d   1       2.848  -0.390  -2.027  0.00  0.00     0.027 H 
ATOM     22  H   LIG d   1       2.656   1.264  -2.656  0.00  0.00     0.027 H 
BRANCH  20  23
ATOM     23  C   LIG d   1       4.532   0.901  -1.662  0.00  0.00    -0.064 C 
ATOM     24  H   LIG d   1       4.157   1.357  -0.746  0.00  0.00     0.023 H 
ATOM     25  H   LIG d   1       5.159   0.045  -1.412  0.00  0.00     0.023 H 
ATOM     26  H   LIG d   1       5.122   1.633  -2.217  0.00  0.00     0.023 H 
ENDBRANCH  20  23
ENDBRANCH  17  20
ENDBRANCH  15  17
ENDBRANCH   1  15
BRANCH   8  27
ATOM     27  N   LIG d   1       4.305  -7.254  -6.289  0.00  0.00    -0.109 NA
ATOM     28  C   LIG d   1       4.729  -8.402  -5.752  0.00  0.00     0.427 C 
ATOM     29  O   LIG d   1       5.507  -8.384  -4.816  0.00  0.00    -0.224 OA
BRANCH  28  30
ATOM     30  O   LIG d   1       4.294  -9.580  -6.247  0.00  0.00    -0.452 OA
BRANCH  30  31
ATOM     31  C   LIG d   1       4.681 -10.762  -5.543  0.00  0.00     0.083 C 
ATOM     32  H   LIG d   1       3.944 -10.983  -4.771  0.00  0.00     0.066 H 
ATOM     33  H   LIG d   1       4.737 -11.598  -6.240  0.00  0.00     0.066 H 
ATOM     34  H   LIG d   1       5.656 -10.607  -5.082  0.00  0.00     0.066 H 
ENDBRANCH  30  31
ENDBRANCH  28  30
ENDBRANCH   8  27
TORSDOF 7
ENDMDL
MODEL 4
REMARK VINA RESULT:      -5.0      5.201      7.580
REMARK  7 active torsions:
REMARK  status: ('A' for Active; 'I' for Inactive)
REMARK    1  A    between atoms: C_1  and  C_2 
REMARK    2  A    between atoms: C_2  and  C_3 
REMARK    3  A    between atoms: C_3  and  S_4 
REMARK    4  A    between atoms: S_4  and  C_6 
REMARK    5  A    between atoms: C_13  and  N_16 
REMARK       I    between atoms: N_16  and  C_17 
REMARK    6  A    between atoms: C_17  and  O_19 
REMARK    7  A    between atoms: O_19  and  C_20 
ROOT
ATOM      1  C   LIG d   1       5.238  -0.057  -3.053  0.00  0.00     0.041 A 
ATOM      2  C   LIG d   1       5.777  -1.242  -3.523  0.00  0.00    -0.044 A 
ATOM      3  C   LIG d   1       7.050  -1.265  -4.059  0.00  0.00    -0.035 A 
ATOM      4  C   LIG d   1       7.792  -0.095  -4.126  0.00  0.00     0.065 A 
ATOM      5  C   LIG d   1       7.249   1.101  -3.653  0.00  0.00     0.066 A 
ATOM      6  C   LIG d   1       5.967   1.114  -3.121  0.00  0.00    -0.021 A 
ATOM      7  N   LIG d   1       8.206   2.092  -3.848  0.00  0.00    -0.326 N 
ATOM      8  C   LIG d   1       9.299   1.522  -4.422  0.00  0.00     0.201 A 
ATOM      9  N   LIG d   1       9.068   0.193  -4.599  0.00  0.00    -0.326 N 
ATOM     10  H   LIG d   1       9.688  -0.444  -4.989  0.00  0.00     0.169 HD
ATOM     11  H   LIG d   1       5.200  -2.153  -3.471  0.00  0.00     0.063 H 
ATOM     12  H   LIG d   1       7.467  -2.192  -4.423  0.00  0.00     0.064 H 
ATOM     13  H   LIG d   1       5.541   2.038  -2.757  0.00  0.00     0.065 H 
ATOM     14  H   LIG d   1       8.109   3.029  -3.615  0.00  0.00     0.169 HD
ENDROOT
BRANCH   1  15
ATOM     15  S   LIG d   1       3.614  -0.040  -2.372  0.00  0.00     0.054 S 
ATOM     16  O   LIG d   1       3.393   1.324  -2.042  0.00  0.00    -0.252 OA
BRANCH  15  17
ATOM     17  C   LIG d   1       2.549  -0.506  -3.764  0.00  0.00     0.028 C 
ATOM     18  H   LIG d   1       1.544  -0.717  -3.398  0.00  0.00     0.040 H 
ATOM     19  H   LIG d   1       2.953  -1.395  -4.249  0.00  0.00     0.040 H 
BRANCH  17  20
ATOM     20  C   LIG d   1       2.493   0.644  -4.771  0.00  0.00    -0.044 C 
ATOM     21  H   LIG d   1       3.121   1.463  -4.422  0.00  0.00     0.027 H 
ATOM     22  H   LIG d   1       1.464   0.990  -4.871  0.00  0.00     0.027 H 
BRANCH  20  23
ATOM     23  C   LIG d   1       3.001   0.157  -6.130  0.00  0.00    -0.064 C 
ATOM     24  H   LIG d   1       4.090   0.183  -6.142  0.00  0.00     0.023 H 
ATOM     25  H   LIG d   1       2.659  -0.863  -6.302  0.00  0.00     0.023 H 
ATOM     26  H   LIG d   1       2.614   0.807  -6.916  0.00  0.00     0.023 H 
ENDBRANCH  20  23
ENDBRANCH  17  20
ENDBRANCH  15  17
ENDBRANCH   1  15
BRANCH   8  27
ATOM     27  N   LIG d   1      10.414   2.160  -4.756  0.00  0.00    -0.109 NA
ATOM     28  C   LIG d   1      11.119   2.808  -3.823  0.00  0.00     0.427 C 
ATOM     29  O   LIG d   1      10.793   2.733  -2.653  0.00  0.00    -0.224 OA
BRANCH  28  30
ATOM     30  O   LIG d   1      12.193   3.544  -4.179  0.00  0.00    -0.452 OA
BRANCH  30  31
ATOM     31  C   LIG d   1      12.915   4.189  -3.127  0.00  0.00     0.083 C 
ATOM     32  H   LIG d   1      12.995   3.515  -2.275  0.00  0.00     0.066 H 
ATOM     33  H   LIG d   1      13.913   4.449  -3.479  0.00  0.00     0.066 H 
ATOM     34  H   LIG d   1      12.388   5.094  -2.828  0.00  0.00     0.066 H 
ENDBRANCH  30  31
ENDBRANCH  28  30
ENDBRANCH   8  27
TORSDOF 7
ENDMDL
MODEL 5
REMARK VINA RESULT:      -4.8      4.375      4.899
REMARK  7 active torsions:
REMARK  status: ('A' for Active; 'I' for Inactive)
REMARK    1  A    between atoms: C_1  and  C_2 
REMARK    2  A    between atoms: C_2  and  C_3 
REMARK    3  A    between atoms: C_3  and  S_4 
REMARK    4  A    between atoms: S_4  and  C_6 
REMARK    5  A    between atoms: C_13  and  N_16 
REMARK       I    between atoms: N_16  and  C_17 
REMARK    6  A    between atoms: C_17  and  O_19 
REMARK    7  A    between atoms: O_19  and  C_20 
ROOT
ATOM      1  C   LIG d   1       5.410  -1.522  -4.781  0.00  0.00     0.041 A 
ATOM      2  C   LIG d   1       6.056  -2.401  -5.634  0.00  0.00    -0.044 A 
ATOM      3  C   LIG d   1       5.640  -2.532  -6.945  0.00  0.00    -0.035 A 
ATOM      4  C   LIG d   1       4.570  -1.781  -7.409  0.00  0.00     0.065 A 
ATOM      5  C   LIG d   1       3.918  -0.895  -6.549  0.00  0.00     0.066 A 
ATOM      6  C   LIG d   1       4.340  -0.774  -5.233  0.00  0.00    -0.021 A 
ATOM      7  N   LIG d   1       2.900  -0.289  -7.279  0.00  0.00    -0.326 N 
ATOM      8  C   LIG d   1       2.928  -0.787  -8.544  0.00  0.00     0.201 A 
ATOM      9  N   LIG d   1       3.936  -1.695  -8.644  0.00  0.00    -0.326 N 
ATOM     10  H   LIG d   1       4.172  -2.197  -9.441  0.00  0.00     0.169 HD
ATOM     11  H   LIG d   1       6.889  -2.986  -5.274  0.00  0.00     0.063 H 
ATOM     12  H   LIG d   1       6.148  -3.218  -7.607  0.00  0.00     0.064 H 
ATOM     13  H   LIG d   1       3.836  -0.093  -4.562  0.00  0.00     0.065 H 
ATOM     14  H   LIG d   1       2.277   0.374  -6.942  0.00  0.00     0.169 HD
ENDROOT
BRANCH   1  15
ATOM     15  S   LIG d   1       5.949  -1.364  -3.112  0.00  0.00     0.054 S 
ATOM     16  O   LIG d   1       6.832  -0.251  -3.140  0.00  0.00    -0.252 OA
BRANCH  15  17
ATOM     17  C   LIG d   1       4.443  -0.917  -2.205  0.00  0.00     0.028 C 
ATOM     18  H   LIG d   1       4.307  -1.602  -1.367  0.00  0.00     0.040 H 
ATOM     19  H   LIG d   1       3.583  -0.984  -2.871  0.00  0.00     0.040 H 
BRANCH  17  20
ATOM     20  C   LIG d   1       4.570   0.513  -1.677  0.00  0.00    -0.044 C 
ATOM     21  H   LIG d   1       5.599   0.851  -1.789  0.00  0.00     0.027 H 
ATOM     22  H   LIG d   1       4.292   0.537  -0.622  0.00  0.00     0.027 H 
BRANCH  20  23
ATOM     23  C   LIG d   1       3.641   1.434  -2.469  0.00  0.00    -0.064 C 
ATOM     24  H   LIG d   1       3.049   2.034  -1.779  0.00  0.00     0.023 H 
ATOM     25  H   LIG d   1       4.236   2.091  -3.104  0.00  0.00     0.023 H 
ATOM     26  H   LIG d   1       2.977   0.833  -3.091  0.00  0.00     0.023 H 
ENDBRANCH  20  23
ENDBRANCH  17  20
ENDBRANCH  15  17
ENDBRANCH   1  15
BRANCH   8  27
ATOM     27  N   LIG d   1       2.103  -0.442  -9.525  0.00  0.00    -0.109 NA
ATOM     28  C   LIG d   1       1.487  -1.385 -10.244  0.00  0.00     0.427 C 
ATOM     29  O   LIG d   1       1.606  -2.557  -9.939  0.00  0.00    -0.224 OA
BRANCH  28  30
ATOM     30  O   LIG d   1       0.732  -1.038 -11.308  0.00  0.00    -0.452 OA
BRANCH  30  31
ATOM     31  C   LIG d   1       0.911  -1.797 -12.506  0.00  0.00     0.083 C 
ATOM     32  H   LIG d   1       1.344  -1.161 -13.278  0.00  0.00     0.066 H 
ATOM     33  H   LIG d   1       1.580  -2.634 -12.308  0.00  0.00     0.066 H 
ATOM     34  H   LIG d   1      -0.053  -2.174 -12.843  0.00  0.00     0.066 H 
ENDBRANCH  30  31
ENDBRANCH  28  30
ENDBRANCH   8  27
TORSDOF 7
ENDMDL
MODEL 6
REMARK VINA RESULT:      -4.7      5.256      7.987
REMARK  7 active torsions:
REMARK  status: ('A' for Active; 'I' for Inactive)
REMARK    1  A    between atoms: C_1  and  C_2 
REMARK    2  A    between atoms: C_2  and  C_3 
REMARK    3  A    between atoms: C_3  and  S_4 
REMARK    4  A    between atoms: S_4  and  C_6 
REMARK    5  A    between atoms: C_13  and  N_16 
REMARK       I    between atoms: N_16  and  C_17 
REMARK    6  A    between atoms: C_17  and  O_19 
REMARK    7  A    between atoms: O_19  and  C_20 
ROOT
ATOM      1  C   LIG d   1       2.810  -1.617  -9.956  0.00  0.00     0.041 A 
ATOM      2  C   LIG d   1       2.325  -0.330 -10.121  0.00  0.00    -0.044 A 
ATOM      3  C   LIG d   1       2.378   0.573  -9.077  0.00  0.00    -0.035 A 
ATOM      4  C   LIG d   1       2.919   0.190  -7.858  0.00  0.00     0.065 A 
ATOM      5  C   LIG d   1       3.407  -1.108  -7.692  0.00  0.00     0.066 A 
ATOM      6  C   LIG d   1       3.345  -2.009  -8.745  0.00  0.00    -0.021 A 
ATOM      7  N   LIG d   1       3.881  -1.204  -6.387  0.00  0.00    -0.326 N 
ATOM      8  C   LIG d   1       3.689  -0.006  -5.774  0.00  0.00     0.201 A 
ATOM      9  N   LIG d   1       3.106   0.856  -6.651  0.00  0.00    -0.326 N 
ATOM     10  H   LIG d   1       2.862   1.777  -6.466  0.00  0.00     0.169 HD
ATOM     11  H   LIG d   1       1.904  -0.031 -11.069  0.00  0.00     0.063 H 
ATOM     12  H   LIG d   1       2.000   1.576  -9.209  0.00  0.00     0.064 H 
ATOM     13  H   LIG d   1       3.717  -3.016  -8.620  0.00  0.00     0.065 H 
ATOM     14  H   LIG d   1       4.279  -1.992  -5.984  0.00  0.00     0.169 HD
ENDROOT
BRANCH   1  15
ATOM     15  S   LIG d   1       2.736  -2.759 -11.295  0.00  0.00     0.054 S 
ATOM     16  O   LIG d   1       1.760  -3.707 -10.885  0.00  0.00    -0.252 OA
BRANCH  15  17
ATOM     17  C   LIG d   1       2.086  -1.778 -12.675  0.00  0.00     0.028 C 
ATOM     18  H   LIG d   1       1.639  -0.861 -12.290  0.00  0.00     0.040 H 
ATOM     19  H   LIG d   1       1.329  -2.356 -13.207  0.00  0.00     0.040 H 
BRANCH  17  20
ATOM     20  C   LIG d   1       3.225  -1.426 -13.633  0.00  0.00    -0.044 C 
ATOM     21  H   LIG d   1       3.424  -0.357 -13.584  0.00  0.00     0.027 H 
ATOM     22  H   LIG d   1       2.942  -1.698 -14.650  0.00  0.00     0.027 H 
BRANCH  20  23
ATOM     23  C   LIG d   1       4.485  -2.197 -13.232  0.00  0.00    -0.064 C 
ATOM     24  H   LIG d   1       5.286  -1.493 -13.009  0.00  0.00     0.023 H 
ATOM     25  H   LIG d   1       4.276  -2.802 -12.351  0.00  0.00     0.023 H 
ATOM     26  H   LIG d   1       4.791  -2.846 -14.054  0.00  0.00     0.023 H 
ENDBRANCH  20  23
ENDBRANCH  17  20
ENDBRANCH  15  17
ENDBRANCH   1  15
BRANCH   8  27
ATOM     27  N   LIG d   1       4.019   0.279  -4.520  0.00  0.00    -0.109 NA
ATOM     28  C   LIG d   1       3.156   0.034  -3.529  0.00  0.00     0.427 C 
ATOM     29  O   LIG d   1       2.108  -0.538  -3.764  0.00  0.00    -0.224 OA
BRANCH  28  30
ATOM     30  O   LIG d   1       3.448   0.421  -2.270  0.00  0.00    -0.452 OA
BRANCH  30  31
ATOM     31  C   LIG d   1       4.768   0.912  -2.031  0.00  0.00     0.083 C 
ATOM     32  H   LIG d   1       5.497   0.186  -2.392  0.00  0.00     0.066 H 
ATOM     33  H   LIG d   1       4.905   1.856  -2.557  0.00  0.00     0.066 H 
ATOM     34  H   LIG d   1       4.909   1.068  -0.962  0.00  0.00     0.066 H 
ENDBRANCH  30  31
ENDBRANCH  28  30
ENDBRANCH   8  27
TORSDOF 7
ENDMDL
MODEL 7
REMARK VINA RESULT:      -4.7      4.794      5.567
REMARK  7 active torsions:
REMARK  status: ('A' for Active; 'I' for Inactive)
REMARK    1  A    between atoms: C_1  and  C_2 
REMARK    2  A    between atoms: C_2  and  C_3 
REMARK    3  A    between atoms: C_3  and  S_4 
REMARK    4  A    between atoms: S_4  and  C_6 
REMARK    5  A    between atoms: C_13  and  N_16 
REMARK       I    between atoms: N_16  and  C_17 
REMARK    6  A    between atoms: C_17  and  O_19 
REMARK    7  A    between atoms: O_19  and  C_20 
ROOT
ATOM      1  C   LIG d   1       4.186  -1.147  -5.413  0.00  0.00     0.041 A 
ATOM      2  C   LIG d   1       3.307  -0.083  -5.312  0.00  0.00    -0.044 A 
ATOM      3  C   LIG d   1       2.698   0.428  -6.441  0.00  0.00    -0.035 A 
ATOM      4  C   LIG d   1       2.967  -0.128  -7.683  0.00  0.00     0.065 A 
ATOM      5  C   LIG d   1       3.855  -1.202  -7.786  0.00  0.00     0.066 A 
ATOM      6  C   LIG d   1       4.466  -1.704  -6.646  0.00  0.00    -0.021 A 
ATOM      7  N   LIG d   1       3.929  -1.545  -9.133  0.00  0.00    -0.326 N 
ATOM      8  C   LIG d   1       3.115  -0.709  -9.831  0.00  0.00     0.201 A 
ATOM      9  N   LIG d   1       2.520   0.159  -8.969  0.00  0.00    -0.326 N 
ATOM     10  H   LIG d   1       1.893   0.859  -9.210  0.00  0.00     0.169 HD
ATOM     11  H   LIG d   1       3.097   0.350  -4.345  0.00  0.00     0.063 H 
ATOM     12  H   LIG d   1       2.011   1.257  -6.357  0.00  0.00     0.064 H 
ATOM     13  H   LIG d   1       5.156  -2.532  -6.722  0.00  0.00     0.065 H 
ATOM     14  H   LIG d   1       4.470  -2.257  -9.508  0.00  0.00     0.169 HD
ENDROOT
BRANCH   1  15
ATOM     15  S   LIG d   1       4.958  -1.790  -3.966  0.00  0.00     0.054 S 
ATOM     16  O   LIG d   1       6.162  -1.044  -3.858  0.00  0.00    -0.252 OA
BRANCH  15  17
ATOM     17  C   LIG d   1       3.833  -1.320  -2.623  0.00  0.00     0.028 C 
ATOM     18  H   LIG d   1       3.580  -2.202  -2.035  0.00  0.00     0.040 H 
ATOM     19  H   LIG d   1       2.923  -0.891  -3.044  0.00  0.00     0.040 H 
BRANCH  17  20
ATOM     20  C   LIG d   1       4.515  -0.287  -1.724  0.00  0.00    -0.044 C 
ATOM     21  H   LIG d   1       5.591  -0.314  -1.892  0.00  0.00     0.027 H 
ATOM     22  H   LIG d   1       4.303  -0.517  -0.679  0.00  0.00     0.027 H 
BRANCH  20  23
ATOM     23  C   LIG d   1       3.982   1.109  -2.055  0.00  0.00    -0.064 C 
ATOM     24  H   LIG d   1       2.898   1.120  -1.946  0.00  0.00     0.023 H 
ATOM     25  H   LIG d   1       4.424   1.837  -1.375  0.00  0.00     0.023 H 
ATOM     26  H   LIG d   1       4.247   1.365  -3.082  0.00  0.00     0.023 H 
ENDBRANCH  20  23
ENDBRANCH  17  20
ENDBRANCH  15  17
ENDBRANCH   1  15
BRANCH   8  27
ATOM     27  N   LIG d   1       2.929  -0.736 -11.146  0.00  0.00    -0.109 NA
ATOM     28  C   LIG d   1       1.978  -1.516 -11.671  0.00  0.00     0.427 C 
ATOM     29  O   LIG d   1       1.221  -2.127 -10.940  0.00  0.00    -0.224 OA
BRANCH  28  30
ATOM     30  O   LIG d   1       1.859  -1.624 -13.011  0.00  0.00    -0.452 OA
BRANCH  30  31
ATOM     31  C   LIG d   1       1.901  -2.942 -13.561  0.00  0.00     0.083 C 
ATOM     32  H   LIG d   1       0.885  -3.298 -13.732  0.00  0.00     0.066 H 
ATOM     33  H   LIG d   1       2.442  -2.923 -14.507  0.00  0.00     0.066 H 
ATOM     34  H   LIG d   1       2.408  -3.610 -12.865  0.00  0.00     0.066 H 
ENDBRANCH  30  31
ENDBRANCH  28  30
ENDBRANCH   8  27
TORSDOF 7
ENDMDL
MODEL 8
REMARK VINA RESULT:      -4.5      5.727      7.342
REMARK  7 active torsions:
REMARK  status: ('A' for Active; 'I' for Inactive)
REMARK    1  A    between atoms: C_1  and  C_2 
REMARK    2  A    between atoms: C_2  and  C_3 
REMARK    3  A    between atoms: C_3  and  S_4 
REMARK    4  A    between atoms: S_4  and  C_6 
REMARK    5  A    between atoms: C_13  and  N_16 
REMARK       I    between atoms: N_16  and  C_17 
REMARK    6  A    between atoms: C_17  and  O_19 
REMARK    7  A    between atoms: O_19  and  C_20 
ROOT
ATOM      1  C   LIG d   1      10.154   3.348  -4.223  0.00  0.00     0.041 A 
ATOM      2  C   LIG d   1       9.866   3.461  -5.572  0.00  0.00    -0.044 A 
ATOM      3  C   LIG d   1       8.886   2.674  -6.145  0.00  0.00    -0.035 A 
ATOM      4  C   LIG d   1       8.187   1.765  -5.364  0.00  0.00     0.065 A 
ATOM      5  C   LIG d   1       8.477   1.649  -4.003  0.00  0.00     0.066 A 
ATOM      6  C   LIG d   1       9.467   2.442  -3.439  0.00  0.00    -0.021 A 
ATOM      7  N   LIG d   1       7.631   0.674  -3.484  0.00  0.00    -0.326 N 
ATOM      8  C   LIG d   1       6.849   0.207  -4.494  0.00  0.00     0.201 A 
ATOM      9  N   LIG d   1       7.170   0.857  -5.645  0.00  0.00    -0.326 N 
ATOM     10  H   LIG d   1       6.761   0.712  -6.513  0.00  0.00     0.169 HD
ATOM     11  H   LIG d   1      10.410   4.168  -6.181  0.00  0.00     0.063 H 
ATOM     12  H   LIG d   1       8.664   2.766  -7.198  0.00  0.00     0.064 H 
ATOM     13  H   LIG d   1       9.698   2.353  -2.387  0.00  0.00     0.065 H 
ATOM     14  H   LIG d   1       7.606   0.377  -2.561  0.00  0.00     0.169 HD
ENDROOT
BRANCH   1  15
ATOM     15  S   LIG d   1      11.406   4.357  -3.505  0.00  0.00     0.054 S 
ATOM     16  O   LIG d   1      11.680   5.329  -4.505  0.00  0.00    -0.252 OA
BRANCH  15  17
ATOM     17  C   LIG d   1      10.577   5.152  -2.101  0.00  0.00     0.028 C 
ATOM     18  H   LIG d   1      11.325   5.580  -1.432  0.00  0.00     0.040 H 
ATOM     19  H   LIG d   1       9.987   4.412  -1.560  0.00  0.00     0.040 H 
BRANCH  17  20
ATOM     20  C   LIG d   1       9.657   6.262  -2.613  0.00  0.00    -0.044 C 
ATOM     21  H   LIG d   1       8.698   5.835  -2.901  0.00  0.00     0.027 H 
ATOM     22  H   LIG d   1      10.115   6.745  -3.477  0.00  0.00     0.027 H 
BRANCH  20  23
ATOM     23  C   LIG d   1       9.442   7.297  -1.507  0.00  0.00    -0.064 C 
ATOM     24  H   LIG d   1       9.819   8.265  -1.836  0.00  0.00     0.023 H 
ATOM     25  H   LIG d   1       8.377   7.377  -1.287  0.00  0.00     0.023 H 
ATOM     26  H   LIG d   1       9.976   6.986  -0.608  0.00  0.00     0.023 H 
ENDBRANCH  20  23
ENDBRANCH  17  20
ENDBRANCH  15  17
ENDBRANCH   1  15
BRANCH   8  27
ATOM     27  N   LIG d   1       5.919  -0.734  -4.376  0.00  0.00    -0.109 NA
ATOM     28  C   LIG d   1       4.665  -0.398  -4.059  0.00  0.00     0.427 C 
ATOM     29  O   LIG d   1       4.353   0.775  -3.973  0.00  0.00    -0.224 OA
BRANCH  28  30
ATOM     30  O   LIG d   1       3.745  -1.360  -3.835  0.00  0.00    -0.452 OA
BRANCH  30  31
ATOM     31  C   LIG d   1       3.793  -2.022  -2.569  0.00  0.00     0.083 C 
ATOM     32  H   LIG d   1       4.120  -3.052  -2.710  0.00  0.00     0.066 H 
ATOM     33  H   LIG d   1       4.496  -1.504  -1.916  0.00  0.00     0.066 H 
ATOM     34  H   LIG d   1       2.802  -2.013  -2.118  0.00  0.00     0.066 H 
ENDBRANCH  30  31
ENDBRANCH  28  30
ENDBRANCH   8  27
TORSDOF 7
ENDMDL
MODEL 9
REMARK VINA RESULT:      -4.5      5.228      6.220
REMARK  7 active torsions:
REMARK  status: ('A' for Active; 'I' for Inactive)
REMARK    1  A    between atoms: C_1  and  C_2 
REMARK    2  A    between atoms: C_2  and  C_3 
REMARK    3  A    between atoms: C_3  and  S_4 
REMARK    4  A    between atoms: S_4  and  C_6 
REMARK    5  A    between atoms: C_13  and  N_16 
REMARK       I    between atoms: N_16  and  C_17 
REMARK    6  A    between atoms: C_17  and  O_19 
REMARK    7  A    between atoms: O_19  and  C_20 
ROOT
ATOM      1  C   LIG d   1       3.268  -0.849  -8.788  0.00  0.00     0.041 A 
ATOM      2  C   LIG d   1       2.335  -0.098  -9.482  0.00  0.00    -0.044 A 
ATOM      3  C   LIG d   1       1.367  -0.722 -10.245  0.00  0.00    -0.035 A 
ATOM      4  C   LIG d   1       1.329  -2.107 -10.316  0.00  0.00     0.065 A 
ATOM      5  C   LIG d   1       2.270  -2.865  -9.617  0.00  0.00     0.066 A 
ATOM      6  C   LIG d   1       3.242  -2.228  -8.857  0.00  0.00    -0.021 A 
ATOM      7  N   LIG d   1       1.991  -4.204  -9.872  0.00  0.00    -0.326 N 
ATOM      8  C   LIG d   1       0.915  -4.264 -10.701  0.00  0.00     0.201 A 
ATOM      9  N   LIG d   1       0.496  -3.001 -10.982  0.00  0.00    -0.326 N 
ATOM     10  H   LIG d   1      -0.253  -2.764 -11.551  0.00  0.00     0.169 HD
ATOM     11  H   LIG d   1       2.364   0.979  -9.428  0.00  0.00     0.063 H 
ATOM     12  H   LIG d   1       0.640  -0.132 -10.784  0.00  0.00     0.064 H 
ATOM     13  H   LIG d   1       3.975  -2.810  -8.318  0.00  0.00     0.065 H 
ATOM     14  H   LIG d   1       2.482  -4.963  -9.520  0.00  0.00     0.169 HD
ENDROOT
BRANCH   1  15
ATOM     15  S   LIG d   1       4.498  -0.043  -7.819  0.00  0.00     0.054 S 
ATOM     16  O   LIG d   1       4.257   1.341  -8.039  0.00  0.00    -0.252 OA
BRANCH  15  17
ATOM     17  C   LIG d   1       4.061  -0.469  -6.111  0.00  0.00     0.028 C 
ATOM     18  H   LIG d   1       4.870  -0.172  -5.444  0.00  0.00     0.040 H 
ATOM     19  H   LIG d   1       3.901  -1.544  -6.034  0.00  0.00     0.040 H 
BRANCH  17  20
ATOM     20  C   LIG d   1       2.779   0.267  -5.714  0.00  0.00    -0.044 C 
ATOM     21  H   LIG d   1       1.943  -0.124  -6.292  0.00  0.00     0.027 H 
ATOM     22  H   LIG d   1       2.894   1.332  -5.914  0.00  0.00     0.027 H 
BRANCH  20  23
ATOM     23  C   LIG d   1       2.511   0.055  -4.222  0.00  0.00    -0.064 C 
ATOM     24  H   LIG d   1       1.536  -0.416  -4.091  0.00  0.00     0.023 H 
ATOM     25  H   LIG d   1       3.284  -0.586  -3.801  0.00  0.00     0.023 H 
ATOM     26  H   LIG d   1       2.520   1.019  -3.711  0.00  0.00     0.023 H 
ENDBRANCH  20  23
ENDBRANCH  17  20
ENDBRANCH  15  17
ENDBRANCH   1  15
BRANCH   8  27
ATOM     27  N   LIG d   1       0.360  -5.379 -11.162  0.00  0.00    -0.109 NA
ATOM     28  C   LIG d   1      -0.702  -5.903 -10.542  0.00  0.00     0.427 C 
ATOM     29  O   LIG d   1      -1.219  -5.309  -9.614  0.00  0.00    -0.224 OA
BRANCH  28  30
ATOM     30  O   LIG d   1      -1.201  -7.090 -10.946  0.00  0.00    -0.452 OA
BRANCH  30  31
ATOM     31  C   LIG d   1      -2.045  -7.786 -10.026  0.00  0.00     0.083 C 
ATOM     32  H   LIG d   1      -2.459  -7.080  -9.307  0.00  0.00     0.066 H 
ATOM     33  H   LIG d   1      -2.857  -8.267 -10.571  0.00  0.00     0.066 H 
ATOM     34  H   LIG d   1      -1.463  -8.542  -9.500  0.00  0.00     0.066 H 
ENDBRANCH  30  31
ENDBRANCH  28  30
ENDBRANCH   8  27
TORSDOF 7
ENDMDL
MODEL 10
REMARK VINA RESULT:      -4.4      3.161      7.198
REMARK  7 active torsions:
REMARK  status: ('A' for Active; 'I' for Inactive)
REMARK    1  A    between atoms: C_1  and  C_2 
REMARK    2  A    between atoms: C_2  and  C_3 
REMARK    3  A    between atoms: C_3  and  S_4 
REMARK    4  A    between atoms: S_4  and  C_6 
REMARK    5  A    between atoms: C_13  and  N_16 
REMARK       I    between atoms: N_16  and  C_17 
REMARK    6  A    between atoms: C_17  and  O_19 
REMARK    7  A    between atoms: O_19  and  C_20 
ROOT
ATOM      1  C   LIG d   1       5.826  -6.740  -5.830  0.00  0.00     0.041 A 
ATOM      2  C   LIG d   1       7.102  -6.264  -5.584  0.00  0.00    -0.044 A 
ATOM      3  C   LIG d   1       7.297  -4.942  -5.232  0.00  0.00    -0.035 A 
ATOM      4  C   LIG d   1       6.209  -4.088  -5.125  0.00  0.00     0.065 A 
ATOM      5  C   LIG d   1       4.922  -4.568  -5.374  0.00  0.00     0.066 A 
ATOM      6  C   LIG d   1       4.737  -5.896  -5.732  0.00  0.00    -0.021 A 
ATOM      7  N   LIG d   1       4.044  -3.503  -5.194  0.00  0.00    -0.326 N 
ATOM      8  C   LIG d   1       4.770  -2.408  -4.846  0.00  0.00     0.201 A 
ATOM      9  N   LIG d   1       6.088  -2.742  -4.798  0.00  0.00    -0.326 N 
ATOM     10  H   LIG d   1       6.819  -2.143  -4.574  0.00  0.00     0.169 HD
ATOM     11  H   LIG d   1       7.949  -6.928  -5.667  0.00  0.00     0.063 H 
ATOM     12  H   LIG d   1       8.294  -4.575  -5.039  0.00  0.00     0.064 H 
ATOM     13  H   LIG d   1       3.743  -6.271  -5.930  0.00  0.00     0.065 H 
ATOM     14  H   LIG d   1       3.081  -3.537  -5.299  0.00  0.00     0.169 HD
ENDROOT
BRANCH   1  15
ATOM     15  S   LIG d   1       5.591  -8.427  -6.279  0.00  0.00     0.054 S 
ATOM     16  O   LIG d   1       6.905  -8.966  -6.296  0.00  0.00    -0.252 OA
BRANCH  15  17
ATOM     17  C   LIG d   1       4.668  -9.128  -4.883  0.00  0.00     0.028 C 
ATOM     18  H   LIG d   1       3.959  -9.869  -5.251  0.00  0.00     0.040 H 
ATOM     19  H   LIG d   1       4.129  -8.333  -4.368  0.00  0.00     0.040 H 
BRANCH  17  20
ATOM     20  C   LIG d   1       5.643  -9.796  -3.911  0.00  0.00    -0.044 C 
ATOM     21  H   LIG d   1       6.129  -9.034  -3.304  0.00  0.00     0.027 H 
ATOM     22  H   LIG d   1       6.396 -10.349  -4.474  0.00  0.00     0.027 H 
BRANCH  20  23
ATOM     23  C   LIG d   1       4.878 -10.760  -3.003  0.00  0.00    -0.064 C 
ATOM     24  H   LIG d   1       4.291 -10.192  -2.281  0.00  0.00     0.023 H 
ATOM     25  H   LIG d   1       4.213 -11.378  -3.606  0.00  0.00     0.023 H 
ATOM     26  H   LIG d   1       5.585 -11.399  -2.473  0.00  0.00     0.023 H 
ENDBRANCH  20  23
ENDBRANCH  17  20
ENDBRANCH  15  17
ENDBRANCH   1  15
BRANCH   8  27
ATOM     27  N   LIG d   1       4.273  -1.203  -4.592  0.00  0.00    -0.109 NA
ATOM     28  C   LIG d   1       3.502  -1.010  -3.517  0.00  0.00     0.427 C 
ATOM     29  O   LIG d   1       3.335  -1.913  -2.719  0.00  0.00    -0.224 OA
BRANCH  28  30
ATOM     30  O   LIG d   1       2.911   0.186  -3.317  0.00  0.00    -0.452 OA
BRANCH  30  31
ATOM     31  C   LIG d   1       3.547   1.080  -2.401  0.00  0.00     0.083 C 
ATOM     32  H   LIG d   1       4.553   1.308  -2.755  0.00  0.00     0.066 H 
ATOM     33  H   LIG d   1       2.969   2.002  -2.333  0.00  0.00     0.066 H 
ATOM     34  H   LIG d   1       3.605   0.613  -1.419  0.00  0.00     0.066 H 
ENDBRANCH  30  31
ENDBRANCH  28  30
ENDBRANCH   8  27
TORSDOF 7
ENDMDL
