MODEL 1
REMARK VINA RESULT:      -5.9      0.000      0.000
REMARK  6 active torsions:
REMARK  status: ('A' for Active; 'I' for Inactive)
REMARK    1  A    between atoms: C_1  and  O_2 
REMARK    2  A    between atoms: O_2  and  C_3 
REMARK    3  A    between atoms: C_5  and  O_18 
REMARK    4  A    between atoms: C_6  and  C_10 
REMARK    5  A    between atoms: C_7  and  O_9 
REMARK    6  A    between atoms: C_10  and  C_12 
ROOT
ATOM      1  C   LIG d   1       2.029  -0.868  -9.766  0.00  0.00     0.127 A 
ATOM      2  C   LIG d   1       2.132   0.378  -9.160  0.00  0.00     0.022 A 
ATOM      3  C   LIG d   1       2.962   0.553  -8.068  0.00  0.00     0.135 A 
ATOM      4  C   LIG d   1       3.703  -0.533  -7.572  0.00  0.00     0.105 A 
ATOM      5  C   LIG d   1       3.597  -1.789  -8.195  0.00  0.00     0.135 A 
ATOM      6  C   LIG d   1       2.758  -1.948  -9.282  0.00  0.00     0.022 A 
ATOM      7  H   LIG d   1       1.562   1.212  -9.542  0.00  0.00     0.069 H 
ATOM      8  H   LIG d   1       2.671  -2.913  -9.760  0.00  0.00     0.069 H 
ENDROOT
BRANCH   4   9
ATOM      9  C   LIG d   1       4.588  -0.357  -6.413  0.00  0.00     0.200 C 
ATOM     10  O   LIG d   1       5.676   0.169  -6.554  0.00  0.00    -0.286 OA
BRANCH   9  11
ATOM     11  C   LIG d   1       4.156  -0.817  -5.076  0.00  0.00     0.022 A 
ATOM     12  C   LIG d   1       4.789  -1.905  -4.470  0.00  0.00    -0.051 A 
ATOM     13  C   LIG d   1       4.385  -2.326  -3.221  0.00  0.00    -0.061 A 
ATOM     14  H   LIG d   1       5.597  -2.412  -4.977  0.00  0.00     0.062 H 
ATOM     15  C   LIG d   1       3.348  -1.680  -2.571  0.00  0.00    -0.062 A 
ATOM     16  H   LIG d   1       4.878  -3.163  -2.749  0.00  0.00     0.062 H 
ATOM     17  C   LIG d   1       2.716  -0.602  -3.166  0.00  0.00    -0.061 A 
ATOM     18  H   LIG d   1       3.032  -2.016  -1.595  0.00  0.00     0.062 H 
ATOM     19  C   LIG d   1       3.114  -0.167  -4.413  0.00  0.00    -0.051 A 
ATOM     20  H   LIG d   1       1.910  -0.100  -2.653  0.00  0.00     0.062 H 
ATOM     21  H   LIG d   1       2.621   0.675  -4.876  0.00  0.00     0.062 H 
ENDBRANCH   9  11
ENDBRANCH   4   9
BRANCH   3  22
ATOM     22  O   LIG d   1       3.062   1.770  -7.477  0.00  0.00    -0.506 OA
ATOM     23  H   LIG d   1       3.898   1.917  -7.017  0.00  0.00     0.292 HD
ENDBRANCH   3  22
BRANCH   5  24
ATOM     24  O   LIG d   1       4.311  -2.842  -7.727  0.00  0.00    -0.506 OA
ATOM     25  H   LIG d   1       5.123  -2.593  -7.265  0.00  0.00     0.292 HD
ENDBRANCH   5  24
BRANCH   1  26
ATOM     26  O   LIG d   1       1.210  -1.032 -10.836  0.00  0.00    -0.495 OA
BRANCH  26  27
ATOM     27  C   LIG d   1       1.830  -1.345 -12.085  0.00  0.00     0.079 C 
ATOM     28  H   LIG d   1       1.366  -2.236 -12.507  0.00  0.00     0.066 H 
ATOM     29  H   LIG d   1       1.704  -0.508 -12.773  0.00  0.00     0.066 H 
ATOM     30  H   LIG d   1       2.892  -1.529 -11.927  0.00  0.00     0.066 H 
ENDBRANCH  26  27
ENDBRANCH   1  26
TORSDOF 6
ENDMDL
MODEL 2
REMARK VINA RESULT:      -5.8      0.384      2.289
REMARK  6 active torsions:
REMARK  status: ('A' for Active; 'I' for Inactive)
REMARK    1  A    between atoms: C_1  and  O_2 
REMARK    2  A    between atoms: O_2  and  C_3 
REMARK    3  A    between atoms: C_5  and  O_18 
REMARK    4  A    between atoms: C_6  and  C_10 
REMARK    5  A    between atoms: C_7  and  O_9 
REMARK    6  A    between atoms: C_10  and  C_12 
ROOT
ATOM      1  C   LIG d   1       2.212  -1.294  -9.569  0.00  0.00     0.127 A 
ATOM      2  C   LIG d   1       3.042  -2.278  -9.047  0.00  0.00     0.022 A 
ATOM      3  C   LIG d   1       3.856  -1.998  -7.964  0.00  0.00     0.135 A 
ATOM      4  C   LIG d   1       3.842  -0.715  -7.392  0.00  0.00     0.105 A 
ATOM      5  C   LIG d   1       2.995   0.273  -7.923  0.00  0.00     0.135 A 
ATOM      6  C   LIG d   1       2.191  -0.021  -9.009  0.00  0.00     0.022 A 
ATOM      7  H   LIG d   1       3.052  -3.263  -9.487  0.00  0.00     0.069 H 
ATOM      8  H   LIG d   1       1.543   0.738  -9.421  0.00  0.00     0.069 H 
ENDROOT
BRANCH   4   9
ATOM      9  C   LIG d   1       4.703  -0.408  -6.242  0.00  0.00     0.200 C 
ATOM     10  O   LIG d   1       5.724   0.232  -6.401  0.00  0.00    -0.286 OA
BRANCH   9  11
ATOM     11  C   LIG d   1       4.326  -0.877  -4.891  0.00  0.00     0.022 A 
ATOM     12  C   LIG d   1       3.166  -0.397  -4.280  0.00  0.00    -0.051 A 
ATOM     13  C   LIG d   1       2.818  -0.842  -3.022  0.00  0.00    -0.061 A 
ATOM     14  H   LIG d   1       2.540   0.318  -4.794  0.00  0.00     0.062 H 
ATOM     15  C   LIG d   1       3.621  -1.754  -2.360  0.00  0.00    -0.062 A 
ATOM     16  H   LIG d   1       1.918  -0.476  -2.551  0.00  0.00     0.062 H 
ATOM     17  C   LIG d   1       4.772  -2.234  -2.960  0.00  0.00    -0.061 A 
ATOM     18  H   LIG d   1       3.346  -2.097  -1.374  0.00  0.00     0.062 H 
ATOM     19  C   LIG d   1       5.129  -1.801  -4.220  0.00  0.00    -0.051 A 
ATOM     20  H   LIG d   1       5.393  -2.949  -2.440  0.00  0.00     0.062 H 
ATOM     21  H   LIG d   1       6.027  -2.176  -4.688  0.00  0.00     0.062 H 
ENDBRANCH   9  11
ENDBRANCH   4   9
BRANCH   3  22
ATOM     22  O   LIG d   1       4.666  -2.960  -7.456  0.00  0.00    -0.506 OA
ATOM     23  H   LIG d   1       5.081  -3.520  -8.125  0.00  0.00     0.292 HD
ENDBRANCH   3  22
BRANCH   5  24
ATOM     24  O   LIG d   1       2.970   1.514  -7.375  0.00  0.00    -0.506 OA
ATOM     25  H   LIG d   1       3.300   2.209  -7.961  0.00  0.00     0.292 HD
ENDBRANCH   5  24
BRANCH   1  26
ATOM     26  O   LIG d   1       1.417  -1.576 -10.632  0.00  0.00    -0.495 OA
BRANCH  26  27
ATOM     27  C   LIG d   1       1.846  -1.096 -11.908  0.00  0.00     0.079 C 
ATOM     28  H   LIG d   1       2.394  -1.883 -12.427  0.00  0.00     0.066 H 
ATOM     29  H   LIG d   1       0.976  -0.808 -12.499  0.00  0.00     0.066 H 
ATOM     30  H   LIG d   1       2.495  -0.231 -11.771  0.00  0.00     0.066 H 
ENDBRANCH  26  27
ENDBRANCH   1  26
TORSDOF 6
ENDMDL
MODEL 3
REMARK VINA RESULT:      -5.6      4.008      5.166
REMARK  6 active torsions:
REMARK  status: ('A' for Active; 'I' for Inactive)
REMARK    1  A    between atoms: C_1  and  O_2 
REMARK    2  A    between atoms: O_2  and  C_3 
REMARK    3  A    between atoms: C_5  and  O_18 
REMARK    4  A    between atoms: C_6  and  C_10 
REMARK    5  A    between atoms: C_7  and  O_9 
REMARK    6  A    between atoms: C_10  and  C_12 
ROOT
ATOM      1  C   LIG d   1       7.476  -3.562  -6.167  0.00  0.00     0.127 A 
ATOM      2  C   LIG d   1       7.842  -2.952  -4.974  0.00  0.00     0.022 A 
ATOM      3  C   LIG d   1       6.875  -2.578  -4.059  0.00  0.00     0.135 A 
ATOM      4  C   LIG d   1       5.519  -2.817  -4.338  0.00  0.00     0.105 A 
ATOM      5  C   LIG d   1       5.158  -3.440  -5.545  0.00  0.00     0.135 A 
ATOM      6  C   LIG d   1       6.137  -3.802  -6.452  0.00  0.00     0.022 A 
ATOM      7  H   LIG d   1       8.884  -2.769  -4.761  0.00  0.00     0.069 H 
ATOM      8  H   LIG d   1       5.861  -4.277  -7.382  0.00  0.00     0.069 H 
ENDROOT
BRANCH   4   9
ATOM      9  C   LIG d   1       4.484  -2.424  -3.372  0.00  0.00     0.200 C 
ATOM     10  O   LIG d   1       3.882  -3.277  -2.747  0.00  0.00    -0.286 OA
BRANCH   9  11
ATOM     11  C   LIG d   1       4.177  -0.994  -3.158  0.00  0.00     0.022 A 
ATOM     12  C   LIG d   1       4.595  -0.354  -1.989  0.00  0.00    -0.051 A 
ATOM     13  C   LIG d   1       4.310   0.982  -1.798  0.00  0.00    -0.061 A 
ATOM     14  H   LIG d   1       5.145  -0.903  -1.238  0.00  0.00     0.062 H 
ATOM     15  C   LIG d   1       3.602   1.686  -2.756  0.00  0.00    -0.062 A 
ATOM     16  H   LIG d   1       4.637   1.479  -0.897  0.00  0.00     0.062 H 
ATOM     17  C   LIG d   1       3.185   1.058  -3.916  0.00  0.00    -0.061 A 
ATOM     18  H   LIG d   1       3.378   2.730  -2.600  0.00  0.00     0.062 H 
ATOM     19  C   LIG d   1       3.469  -0.277  -4.123  0.00  0.00    -0.051 A 
ATOM     20  H   LIG d   1       2.637   1.613  -4.663  0.00  0.00     0.062 H 
ATOM     21  H   LIG d   1       3.143  -0.766  -5.029  0.00  0.00     0.062 H 
ENDBRANCH   9  11
ENDBRANCH   4   9
BRANCH   3  22
ATOM     22  O   LIG d   1       7.235  -1.983  -2.894  0.00  0.00    -0.506 OA
ATOM     23  H   LIG d   1       6.932  -1.069  -2.809  0.00  0.00     0.292 HD
ENDBRANCH   3  22
BRANCH   5  24
ATOM     24  O   LIG d   1       3.852  -3.680  -5.823  0.00  0.00    -0.506 OA
ATOM     25  H   LIG d   1       3.351  -2.890  -6.069  0.00  0.00     0.292 HD
ENDBRANCH   5  24
BRANCH   1  26
ATOM     26  O   LIG d   1       8.431  -3.924  -7.061  0.00  0.00    -0.495 OA
BRANCH  26  27
ATOM     27  C   LIG d   1       8.072  -3.891  -8.443  0.00  0.00     0.079 C 
ATOM     28  H   LIG d   1       8.164  -4.891  -8.867  0.00  0.00     0.066 H 
ATOM     29  H   LIG d   1       7.040  -3.547  -8.542  0.00  0.00     0.066 H 
ATOM     30  H   LIG d   1       8.734  -3.208  -8.974  0.00  0.00     0.066 H 
ENDBRANCH  26  27
ENDBRANCH   1  26
TORSDOF 6
ENDMDL
MODEL 4
REMARK VINA RESULT:      -5.6      3.994      5.511
REMARK  6 active torsions:
REMARK  status: ('A' for Active; 'I' for Inactive)
REMARK    1  A    between atoms: C_1  and  O_2 
REMARK    2  A    between atoms: O_2  and  C_3 
REMARK    3  A    between atoms: C_5  and  O_18 
REMARK    4  A    between atoms: C_6  and  C_10 
REMARK    5  A    between atoms: C_7  and  O_9 
REMARK    6  A    between atoms: C_10  and  C_12 
ROOT
ATOM      1  C   LIG d   1       7.546  -3.479  -6.138  0.00  0.00     0.127 A 
ATOM      2  C   LIG d   1       6.216  -3.735  -6.443  0.00  0.00     0.022 A 
ATOM      3  C   LIG d   1       5.218  -3.386  -5.552  0.00  0.00     0.135 A 
ATOM      4  C   LIG d   1       5.553  -2.769  -4.335  0.00  0.00     0.105 A 
ATOM      5  C   LIG d   1       6.901  -2.509  -4.036  0.00  0.00     0.135 A 
ATOM      6  C   LIG d   1       7.887  -2.870  -4.936  0.00  0.00     0.022 A 
ATOM      7  H   LIG d   1       5.960  -4.208  -7.379  0.00  0.00     0.069 H 
ATOM      8  H   LIG d   1       8.924  -2.674  -4.706  0.00  0.00     0.069 H 
ENDROOT
BRANCH   4   9
ATOM      9  C   LIG d   1       4.500  -2.394  -3.382  0.00  0.00     0.200 C 
ATOM     10  O   LIG d   1       3.906  -3.256  -2.762  0.00  0.00    -0.286 OA
BRANCH   9  11
ATOM     11  C   LIG d   1       4.163  -0.969  -3.175  0.00  0.00     0.022 A 
ATOM     12  C   LIG d   1       3.443  -0.270  -4.147  0.00  0.00    -0.051 A 
ATOM     13  C   LIG d   1       3.127   1.057  -3.945  0.00  0.00    -0.061 A 
ATOM     14  H   LIG d   1       3.128  -0.770  -5.051  0.00  0.00     0.062 H 
ATOM     15  C   LIG d   1       3.533   1.700  -2.789  0.00  0.00    -0.062 A 
ATOM     16  H   LIG d   1       2.566   1.597  -4.693  0.00  0.00     0.062 H 
ATOM     17  C   LIG d   1       4.248   1.015  -1.823  0.00  0.00    -0.061 A 
ATOM     18  H   LIG d   1       3.287   2.741  -2.638  0.00  0.00     0.062 H 
ATOM     19  C   LIG d   1       4.564  -0.315  -2.009  0.00  0.00    -0.051 A 
ATOM     20  H   LIG d   1       4.557   1.521  -0.921  0.00  0.00     0.062 H 
ATOM     21  H   LIG d   1       5.121  -0.850  -1.254  0.00  0.00     0.062 H 
ENDBRANCH   9  11
ENDBRANCH   4   9
BRANCH   3  22
ATOM     22  O   LIG d   1       3.919  -3.636  -5.853  0.00  0.00    -0.506 OA
ATOM     23  H   LIG d   1       3.320  -2.905  -5.652  0.00  0.00     0.292 HD
ENDBRANCH   3  22
BRANCH   5  24
ATOM     24  O   LIG d   1       7.235  -1.910  -2.866  0.00  0.00    -0.506 OA
ATOM     25  H   LIG d   1       7.542  -2.523  -2.183  0.00  0.00     0.292 HD
ENDBRANCH   5  24
BRANCH   1  26
ATOM     26  O   LIG d   1       8.520  -3.827  -7.017  0.00  0.00    -0.495 OA
BRANCH  26  27
ATOM     27  C   LIG d   1       9.667  -4.491  -6.485  0.00  0.00     0.079 C 
ATOM     28  H   LIG d   1      10.561  -4.145  -7.004  0.00  0.00     0.066 H 
ATOM     29  H   LIG d   1       9.755  -4.267  -5.421  0.00  0.00     0.066 H 
ATOM     30  H   LIG d   1       9.561  -5.567  -6.623  0.00  0.00     0.066 H 
ENDBRANCH  26  27
ENDBRANCH   1  26
TORSDOF 6
ENDMDL
MODEL 5
REMARK VINA RESULT:      -5.4      3.812      5.896
REMARK  6 active torsions:
REMARK  status: ('A' for Active; 'I' for Inactive)
REMARK    1  A    between atoms: C_1  and  O_2 
REMARK    2  A    between atoms: O_2  and  C_3 
REMARK    3  A    between atoms: C_5  and  O_18 
REMARK    4  A    between atoms: C_6  and  C_10 
REMARK    5  A    between atoms: C_7  and  O_9 
REMARK    6  A    between atoms: C_10  and  C_12 
ROOT
ATOM      1  C   LIG d   1       6.131  -7.071  -5.618  0.00  0.00     0.127 A 
ATOM      2  C   LIG d   1       4.816  -6.709  -5.884  0.00  0.00     0.022 A 
ATOM      3  C   LIG d   1       4.454  -5.374  -5.907  0.00  0.00     0.135 A 
ATOM      4  C   LIG d   1       5.420  -4.384  -5.662  0.00  0.00     0.105 A 
ATOM      5  C   LIG d   1       6.749  -4.760  -5.400  0.00  0.00     0.135 A 
ATOM      6  C   LIG d   1       7.093  -6.099  -5.375  0.00  0.00     0.022 A 
ATOM      7  H   LIG d   1       4.075  -7.471  -6.072  0.00  0.00     0.069 H 
ATOM      8  H   LIG d   1       8.113  -6.389  -5.169  0.00  0.00     0.069 H 
ENDROOT
BRANCH   4   9
ATOM      9  C   LIG d   1       5.046  -2.964  -5.685  0.00  0.00     0.200 C 
ATOM     10  O   LIG d   1       4.853  -2.404  -6.747  0.00  0.00    -0.286 OA
BRANCH   9  11
ATOM     11  C   LIG d   1       4.902  -2.216  -4.417  0.00  0.00     0.022 A 
ATOM     12  C   LIG d   1       5.585  -1.012  -4.231  0.00  0.00    -0.051 A 
ATOM     13  C   LIG d   1       5.442  -0.317  -3.049  0.00  0.00    -0.061 A 
ATOM     14  H   LIG d   1       6.219  -0.623  -5.014  0.00  0.00     0.062 H 
ATOM     15  C   LIG d   1       4.633  -0.815  -2.043  0.00  0.00    -0.062 A 
ATOM     16  H   LIG d   1       5.965   0.617  -2.906  0.00  0.00     0.062 H 
ATOM     17  C   LIG d   1       3.954  -2.008  -2.220  0.00  0.00    -0.061 A 
ATOM     18  H   LIG d   1       4.528  -0.270  -1.117  0.00  0.00     0.062 H 
ATOM     19  C   LIG d   1       4.083  -2.710  -3.400  0.00  0.00    -0.051 A 
ATOM     20  H   LIG d   1       3.321  -2.390  -1.433  0.00  0.00     0.062 H 
ATOM     21  H   LIG d   1       3.553  -3.641  -3.538  0.00  0.00     0.062 H 
ENDBRANCH   9  11
ENDBRANCH   4   9
BRANCH   3  22
ATOM     22  O   LIG d   1       3.170  -5.022  -6.166  0.00  0.00    -0.506 OA
ATOM     23  H   LIG d   1       2.582  -5.771  -6.328  0.00  0.00     0.292 HD
ENDBRANCH   3  22
BRANCH   5  24
ATOM     24  O   LIG d   1       7.691  -3.811  -5.166  0.00  0.00    -0.506 OA
ATOM     25  H   LIG d   1       7.338  -2.990  -4.797  0.00  0.00     0.292 HD
ENDBRANCH   5  24
BRANCH   1  26
ATOM     26  O   LIG d   1       6.477  -8.383  -5.596  0.00  0.00    -0.495 OA
BRANCH  26  27
ATOM     27  C   LIG d   1       5.563  -9.285  -4.970  0.00  0.00     0.079 C 
ATOM     28  H   LIG d   1       5.840  -9.415  -3.924  0.00  0.00     0.066 H 
ATOM     29  H   LIG d   1       4.553  -8.878  -5.031  0.00  0.00     0.066 H 
ATOM     30  H   LIG d   1       5.598 -10.249  -5.478  0.00  0.00     0.066 H 
ENDBRANCH  26  27
ENDBRANCH   1  26
TORSDOF 6
ENDMDL
MODEL 6
REMARK VINA RESULT:      -5.4      3.455      5.646
REMARK  6 active torsions:
REMARK  status: ('A' for Active; 'I' for Inactive)
REMARK    1  A    between atoms: C_1  and  O_2 
REMARK    2  A    between atoms: O_2  and  C_3 
REMARK    3  A    between atoms: C_5  and  O_18 
REMARK    4  A    between atoms: C_6  and  C_10 
REMARK    5  A    between atoms: C_7  and  O_9 
REMARK    6  A    between atoms: C_10  and  C_12 
ROOT
ATOM      1  C   LIG d   1       6.488  -6.417  -5.662  0.00  0.00     0.127 A 
ATOM      2  C   LIG d   1       7.252  -5.281  -5.422  0.00  0.00     0.022 A 
ATOM      3  C   LIG d   1       6.663  -4.030  -5.443  0.00  0.00     0.135 A 
ATOM      4  C   LIG d   1       5.289  -3.909  -5.707  0.00  0.00     0.105 A 
ATOM      5  C   LIG d   1       4.522  -5.064  -5.943  0.00  0.00     0.135 A 
ATOM      6  C   LIG d   1       5.127  -6.306  -5.924  0.00  0.00     0.022 A 
ATOM      7  H   LIG d   1       8.308  -5.376  -5.219  0.00  0.00     0.069 H 
ATOM      8  H   LIG d   1       4.541  -7.194  -6.109  0.00  0.00     0.069 H 
ENDROOT
BRANCH   4   9
ATOM      9  C   LIG d   1       4.654  -2.585  -5.731  0.00  0.00     0.200 C 
ATOM     10  O   LIG d   1       4.280  -2.109  -6.786  0.00  0.00    -0.286 OA
BRANCH   9  11
ATOM     11  C   LIG d   1       4.469  -1.831  -4.473  0.00  0.00     0.022 A 
ATOM     12  C   LIG d   1       4.298  -2.512  -3.265  0.00  0.00    -0.051 A 
ATOM     13  C   LIG d   1       4.132  -1.802  -2.095  0.00  0.00    -0.061 A 
ATOM     14  H   LIG d   1       4.303  -3.592  -3.248  0.00  0.00     0.062 H 
ATOM     15  C   LIG d   1       4.122  -0.419  -2.115  0.00  0.00    -0.062 A 
ATOM     16  H   LIG d   1       4.006  -2.328  -1.160  0.00  0.00     0.062 H 
ATOM     17  C   LIG d   1       4.289   0.263  -3.308  0.00  0.00    -0.061 A 
ATOM     18  H   LIG d   1       3.987   0.132  -1.196  0.00  0.00     0.062 H 
ATOM     19  C   LIG d   1       4.463  -0.435  -4.486  0.00  0.00    -0.051 A 
ATOM     20  H   LIG d   1       4.285   1.342  -3.317  0.00  0.00     0.062 H 
ATOM     21  H   LIG d   1       4.595   0.098  -5.416  0.00  0.00     0.062 H 
ENDBRANCH   9  11
ENDBRANCH   4   9
BRANCH   3  22
ATOM     22  O   LIG d   1       7.411  -2.923  -5.208  0.00  0.00    -0.506 OA
ATOM     23  H   LIG d   1       6.933  -2.213  -4.760  0.00  0.00     0.292 HD
ENDBRANCH   3  22
BRANCH   5  24
ATOM     24  O   LIG d   1       3.193  -4.958  -6.194  0.00  0.00    -0.506 OA
ATOM     25  H   LIG d   1       2.985  -4.673  -7.095  0.00  0.00     0.292 HD
ENDBRANCH   5  24
BRANCH   1  26
ATOM     26  O   LIG d   1       7.073  -7.641  -5.641  0.00  0.00    -0.495 OA
BRANCH  26  27
ATOM     27  C   LIG d   1       7.764  -8.009  -4.446  0.00  0.00     0.079 C 
ATOM     28  H   LIG d   1       7.488  -9.026  -4.165  0.00  0.00     0.066 H 
ATOM     29  H   LIG d   1       8.840  -7.960  -4.618  0.00  0.00     0.066 H 
ATOM     30  H   LIG d   1       7.493  -7.324  -3.644  0.00  0.00     0.066 H 
ENDBRANCH  26  27
ENDBRANCH   1  26
TORSDOF 6
ENDMDL
MODEL 7
REMARK VINA RESULT:      -5.3      1.987      2.460
REMARK  6 active torsions:
REMARK  status: ('A' for Active; 'I' for Inactive)
REMARK    1  A    between atoms: C_1  and  O_2 
REMARK    2  A    between atoms: O_2  and  C_3 
REMARK    3  A    between atoms: C_5  and  O_18 
REMARK    4  A    between atoms: C_6  and  C_10 
REMARK    5  A    between atoms: C_7  and  O_9 
REMARK    6  A    between atoms: C_10  and  C_12 
ROOT
ATOM      1  C   LIG d   1       4.043   0.811  -9.183  0.00  0.00     0.127 A 
ATOM      2  C   LIG d   1       2.956   0.704  -8.325  0.00  0.00     0.022 A 
ATOM      3  C   LIG d   1       3.085   0.040  -7.119  0.00  0.00     0.135 A 
ATOM      4  C   LIG d   1       4.320  -0.527  -6.761  0.00  0.00     0.105 A 
ATOM      5  C   LIG d   1       5.416  -0.409  -7.633  0.00  0.00     0.135 A 
ATOM      6  C   LIG d   1       5.269   0.253  -8.838  0.00  0.00     0.022 A 
ATOM      7  H   LIG d   1       2.008   1.140  -8.600  0.00  0.00     0.069 H 
ATOM      8  H   LIG d   1       6.109   0.341  -9.511  0.00  0.00     0.069 H 
ENDROOT
BRANCH   4   9
ATOM      9  C   LIG d   1       4.467  -1.234  -5.482  0.00  0.00     0.200 C 
ATOM     10  O   LIG d   1       4.539  -2.448  -5.464  0.00  0.00    -0.286 OA
BRANCH   9  11
ATOM     11  C   LIG d   1       4.529  -0.469  -4.218  0.00  0.00     0.022 A 
ATOM     12  C   LIG d   1       5.693   0.219  -3.871  0.00  0.00    -0.051 A 
ATOM     13  C   LIG d   1       5.743   0.935  -2.693  0.00  0.00    -0.061 A 
ATOM     14  H   LIG d   1       6.551   0.197  -4.527  0.00  0.00     0.062 H 
ATOM     15  C   LIG d   1       4.646   0.963  -1.850  0.00  0.00    -0.062 A 
ATOM     16  H   LIG d   1       6.641   1.473  -2.427  0.00  0.00     0.062 H 
ATOM     17  C   LIG d   1       3.489   0.282  -2.187  0.00  0.00    -0.061 A 
ATOM     18  H   LIG d   1       4.691   1.521  -0.927  0.00  0.00     0.062 H 
ATOM     19  C   LIG d   1       3.424  -0.433  -3.365  0.00  0.00    -0.051 A 
ATOM     20  H   LIG d   1       2.635   0.310  -1.527  0.00  0.00     0.062 H 
ATOM     21  H   LIG d   1       2.521  -0.963  -3.628  0.00  0.00     0.062 H 
ENDBRANCH   9  11
ENDBRANCH   4   9
BRANCH   3  22
ATOM     22  O   LIG d   1       2.022  -0.063  -6.282  0.00  0.00    -0.506 OA
ATOM     23  H   LIG d   1       1.221   0.366  -6.609  0.00  0.00     0.292 HD
ENDBRANCH   3  22
BRANCH   5  24
ATOM     24  O   LIG d   1       6.614  -0.948  -7.296  0.00  0.00    -0.506 OA
ATOM     25  H   LIG d   1       6.709  -1.880  -7.538  0.00  0.00     0.292 HD
ENDBRANCH   5  24
BRANCH   1  26
ATOM     26  O   LIG d   1       3.908   1.462 -10.366  0.00  0.00    -0.495 OA
BRANCH  26  27
ATOM     27  C   LIG d   1       4.032   0.681 -11.555  0.00  0.00     0.079 C 
ATOM     28  H   LIG d   1       3.734   1.279 -12.416  0.00  0.00     0.066 H 
ATOM     29  H   LIG d   1       5.069   0.363 -11.674  0.00  0.00     0.066 H 
ATOM     30  H   LIG d   1       3.390  -0.197 -11.481  0.00  0.00     0.066 H 
ENDBRANCH  26  27
ENDBRANCH   1  26
TORSDOF 6
ENDMDL
MODEL 8
REMARK VINA RESULT:      -5.3      2.102      2.658
REMARK  6 active torsions:
REMARK  status: ('A' for Active; 'I' for Inactive)
REMARK    1  A    between atoms: C_1  and  O_2 
REMARK    2  A    between atoms: O_2  and  C_3 
REMARK    3  A    between atoms: C_5  and  O_18 
REMARK    4  A    between atoms: C_6  and  C_10 
REMARK    5  A    between atoms: C_7  and  O_9 
REMARK    6  A    between atoms: C_10  and  C_12 
ROOT
ATOM      1  C   LIG d   1       4.459  -0.251  -8.936  0.00  0.00     0.127 A 
ATOM      2  C   LIG d   1       5.502   0.526  -8.446  0.00  0.00     0.022 A 
ATOM      3  C   LIG d   1       6.082   0.223  -7.228  0.00  0.00     0.135 A 
ATOM      4  C   LIG d   1       5.616  -0.875  -6.486  0.00  0.00     0.105 A 
ATOM      5  C   LIG d   1       4.564  -1.659  -6.992  0.00  0.00     0.135 A 
ATOM      6  C   LIG d   1       3.991  -1.339  -8.208  0.00  0.00     0.022 A 
ATOM      7  H   LIG d   1       5.859   1.369  -9.017  0.00  0.00     0.069 H 
ATOM      8  H   LIG d   1       3.181  -1.937  -8.597  0.00  0.00     0.069 H 
ENDROOT
BRANCH   4   9
ATOM      9  C   LIG d   1       6.226  -1.206  -5.191  0.00  0.00     0.200 C 
ATOM     10  O   LIG d   1       7.247  -1.867  -5.153  0.00  0.00    -0.286 OA
BRANCH   9  11
ATOM     11  C   LIG d   1       5.601  -0.735  -3.937  0.00  0.00     0.022 A 
ATOM     12  C   LIG d   1       4.895  -1.627  -3.127  0.00  0.00    -0.051 A 
ATOM     13  C   LIG d   1       4.319  -1.182  -1.955  0.00  0.00    -0.061 A 
ATOM     14  H   LIG d   1       4.804  -2.664  -3.415  0.00  0.00     0.062 H 
ATOM     15  C   LIG d   1       4.430   0.147  -1.587  0.00  0.00    -0.062 A 
ATOM     16  H   LIG d   1       3.777  -1.872  -1.326  0.00  0.00     0.062 H 
ATOM     17  C   LIG d   1       5.128   1.037  -2.385  0.00  0.00    -0.061 A 
ATOM     18  H   LIG d   1       3.974   0.492  -0.671  0.00  0.00     0.062 H 
ATOM     19  C   LIG d   1       5.714   0.604  -3.557  0.00  0.00    -0.051 A 
ATOM     20  H   LIG d   1       5.215   2.072  -2.091  0.00  0.00     0.062 H 
ATOM     21  H   LIG d   1       6.259   1.298  -4.179  0.00  0.00     0.062 H 
ENDBRANCH   9  11
ENDBRANCH   4   9
BRANCH   3  22
ATOM     22  O   LIG d   1       7.100   0.982  -6.752  0.00  0.00    -0.506 OA
ATOM     23  H   LIG d   1       6.885   1.921  -6.668  0.00  0.00     0.292 HD
ENDBRANCH   3  22
BRANCH   5  24
ATOM     24  O   LIG d   1       4.109  -2.724  -6.286  0.00  0.00    -0.506 OA
ATOM     25  H   LIG d   1       4.799  -3.198  -5.800  0.00  0.00     0.292 HD
ENDBRANCH   5  24
BRANCH   1  26
ATOM     26  O   LIG d   1       3.894   0.055 -10.131  0.00  0.00    -0.495 OA
BRANCH  26  27
ATOM     27  C   LIG d   1       3.935   1.424 -10.537  0.00  0.00     0.079 C 
ATOM     28  H   LIG d   1       4.480   1.508 -11.477  0.00  0.00     0.066 H 
ATOM     29  H   LIG d   1       2.917   1.793 -10.672  0.00  0.00     0.066 H 
ATOM     30  H   LIG d   1       4.437   2.015  -9.771  0.00  0.00     0.066 H 
ENDBRANCH  26  27
ENDBRANCH   1  26
TORSDOF 6
ENDMDL
MODEL 9
REMARK VINA RESULT:      -5.2      3.646      5.109
REMARK  6 active torsions:
REMARK  status: ('A' for Active; 'I' for Inactive)
REMARK    1  A    between atoms: C_1  and  O_2 
REMARK    2  A    between atoms: O_2  and  C_3 
REMARK    3  A    between atoms: C_5  and  O_18 
REMARK    4  A    between atoms: C_6  and  C_10 
REMARK    5  A    between atoms: C_7  and  O_9 
REMARK    6  A    between atoms: C_10  and  C_12 
ROOT
ATOM      1  C   LIG d   1       5.084  -5.606  -6.132  0.00  0.00     0.127 A 
ATOM      2  C   LIG d   1       6.271  -5.445  -5.428  0.00  0.00     0.022 A 
ATOM      3  C   LIG d   1       6.691  -4.182  -5.053  0.00  0.00     0.135 A 
ATOM      4  C   LIG d   1       5.914  -3.059  -5.386  0.00  0.00     0.105 A 
ATOM      5  C   LIG d   1       4.712  -3.232  -6.094  0.00  0.00     0.135 A 
ATOM      6  C   LIG d   1       4.309  -4.501  -6.466  0.00  0.00     0.022 A 
ATOM      7  H   LIG d   1       6.867  -6.308  -5.172  0.00  0.00     0.069 H 
ATOM      8  H   LIG d   1       3.388  -4.636  -7.014  0.00  0.00     0.069 H 
ENDROOT
BRANCH   4   9
ATOM      9  C   LIG d   1       6.351  -1.714  -4.991  0.00  0.00     0.200 C 
ATOM     10  O   LIG d   1       7.235  -1.156  -5.613  0.00  0.00    -0.286 OA
BRANCH   9  11
ATOM     11  C   LIG d   1       5.716  -1.038  -3.840  0.00  0.00     0.022 A 
ATOM     12  C   LIG d   1       4.943  -1.769  -2.936  0.00  0.00    -0.051 A 
ATOM     13  C   LIG d   1       4.358  -1.133  -1.861  0.00  0.00    -0.061 A 
ATOM     14  H   LIG d   1       4.809  -2.832  -3.074  0.00  0.00     0.062 H 
ATOM     15  C   LIG d   1       4.525   0.229  -1.683  0.00  0.00    -0.062 A 
ATOM     16  H   LIG d   1       3.765  -1.699  -1.158  0.00  0.00     0.062 H 
ATOM     17  C   LIG d   1       5.289   0.960  -2.576  0.00  0.00    -0.061 A 
ATOM     18  H   LIG d   1       4.062   0.723  -0.843  0.00  0.00     0.062 H 
ATOM     19  C   LIG d   1       5.885   0.335  -3.652  0.00  0.00    -0.051 A 
ATOM     20  H   LIG d   1       5.419   2.022  -2.430  0.00  0.00     0.062 H 
ATOM     21  H   LIG d   1       6.481   0.907  -4.348  0.00  0.00     0.062 H 
ENDBRANCH   9  11
ENDBRANCH   4   9
BRANCH   3  22
ATOM     22  O   LIG d   1       7.849  -4.026  -4.365  0.00  0.00    -0.506 OA
ATOM     23  H   LIG d   1       7.754  -3.532  -3.540  0.00  0.00     0.292 HD
ENDBRANCH   3  22
BRANCH   5  24
ATOM     24  O   LIG d   1       3.952  -2.156  -6.416  0.00  0.00    -0.506 OA
ATOM     25  H   LIG d   1       3.927  -1.473  -5.732  0.00  0.00     0.292 HD
ENDBRANCH   5  24
BRANCH   1  26
ATOM     26  O   LIG d   1       4.680  -6.849  -6.498  0.00  0.00    -0.495 OA
BRANCH  26  27
ATOM     27  C   LIG d   1       4.940  -7.912  -5.580  0.00  0.00     0.079 C 
ATOM     28  H   LIG d   1       5.294  -8.786  -6.126  0.00  0.00     0.066 H 
ATOM     29  H   LIG d   1       5.702  -7.596  -4.865  0.00  0.00     0.066 H 
ATOM     30  H   LIG d   1       4.023  -8.162  -5.046  0.00  0.00     0.066 H 
ENDBRANCH  26  27
ENDBRANCH   1  26
TORSDOF 6
ENDMDL
MODEL 10
REMARK VINA RESULT:      -5.2      1.725      5.577
REMARK  6 active torsions:
REMARK  status: ('A' for Active; 'I' for Inactive)
REMARK    1  A    between atoms: C_1  and  O_2 
REMARK    2  A    between atoms: O_2  and  C_3 
REMARK    3  A    between atoms: C_5  and  O_18 
REMARK    4  A    between atoms: C_6  and  C_10 
REMARK    5  A    between atoms: C_7  and  O_9 
REMARK    6  A    between atoms: C_10  and  C_12 
ROOT
ATOM      1  C   LIG d   1       4.202  -1.971  -4.547  0.00  0.00     0.127 A 
ATOM      2  C   LIG d   1       3.517  -0.763  -4.570  0.00  0.00     0.022 A 
ATOM      3  C   LIG d   1       3.504   0.008  -5.718  0.00  0.00     0.135 A 
ATOM      4  C   LIG d   1       4.186  -0.434  -6.864  0.00  0.00     0.105 A 
ATOM      5  C   LIG d   1       4.872  -1.661  -6.834  0.00  0.00     0.135 A 
ATOM      6  C   LIG d   1       4.880  -2.416  -5.677  0.00  0.00     0.022 A 
ATOM      7  H   LIG d   1       2.994  -0.424  -3.689  0.00  0.00     0.069 H 
ATOM      8  H   LIG d   1       5.410  -3.357  -5.650  0.00  0.00     0.069 H 
ENDROOT
BRANCH   4   9
ATOM      9  C   LIG d   1       4.178   0.377  -8.089  0.00  0.00     0.200 C 
ATOM     10  O   LIG d   1       4.834   1.400  -8.144  0.00  0.00    -0.286 OA
BRANCH   9  11
ATOM     11  C   LIG d   1       3.373  -0.050  -9.253  0.00  0.00     0.022 A 
ATOM     12  C   LIG d   1       3.924  -0.019 -10.536  0.00  0.00    -0.051 A 
ATOM     13  C   LIG d   1       3.169  -0.424 -11.617  0.00  0.00    -0.061 A 
ATOM     14  H   LIG d   1       4.940   0.316 -10.680  0.00  0.00     0.062 H 
ATOM     15  C   LIG d   1       1.865  -0.849 -11.435  0.00  0.00    -0.062 A 
ATOM     16  H   LIG d   1       3.596  -0.405 -12.609  0.00  0.00     0.062 H 
ATOM     17  C   LIG d   1       1.312  -0.881 -10.167  0.00  0.00    -0.061 A 
ATOM     18  H   LIG d   1       1.277  -1.161 -12.285  0.00  0.00     0.062 H 
ATOM     19  C   LIG d   1       2.058  -0.485  -9.075  0.00  0.00    -0.051 A 
ATOM     20  H   LIG d   1       0.296  -1.218 -10.030  0.00  0.00     0.062 H 
ATOM     21  H   LIG d   1       1.627  -0.511  -8.086  0.00  0.00     0.062 H 
ENDBRANCH   9  11
ENDBRANCH   4   9
BRANCH   3  22
ATOM     22  O   LIG d   1       2.835   1.188  -5.738  0.00  0.00    -0.506 OA
ATOM     23  H   LIG d   1       3.359   1.933  -6.060  0.00  0.00     0.292 HD
ENDBRANCH   3  22
BRANCH   5  24
ATOM     24  O   LIG d   1       5.529  -2.099  -7.937  0.00  0.00    -0.506 OA
ATOM     25  H   LIG d   1       5.984  -1.400  -8.427  0.00  0.00     0.292 HD
ENDBRANCH   5  24
BRANCH   1  26
ATOM     26  O   LIG d   1       4.212  -2.721  -3.416  0.00  0.00    -0.495 OA
BRANCH  26  27
ATOM     27  C   LIG d   1       3.929  -2.046  -2.189  0.00  0.00     0.079 C 
ATOM     28  H   LIG d   1       2.958  -1.557  -2.258  0.00  0.00     0.066 H 
ATOM     29  H   LIG d   1       3.914  -2.770  -1.372  0.00  0.00     0.066 H 
ATOM     30  H   LIG d   1       4.700  -1.300  -1.999  0.00  0.00     0.066 H 
ENDBRANCH  26  27
ENDBRANCH   1  26
TORSDOF 6
ENDMDL
