MODEL 1
REMARK VINA RESULT:      -6.6      0.000      0.000
REMARK  4 active torsions:
REMARK  status: ('A' for Active; 'I' for Inactive)
REMARK    1  A    between atoms: C_4  and  C_7 
REMARK    2  A    between atoms: C_7  and  C_9 
REMARK    3  A    between atoms: C_7  and  O_17 
REMARK    4  A    between atoms: C_9  and  C_11 
ROOT
ATOM      1  C   LIG d   1       2.824   0.491  -5.045  0.00  0.00     0.142 C 
ATOM      2  H   LIG d   1       2.693   1.570  -4.966  0.00  0.00     0.073 H 
ENDROOT
BRANCH   1   3
ATOM      3  C   LIG d   1       3.434  -0.037  -3.773  0.00  0.00    -0.012 A 
ATOM      4  C   LIG d   1       3.394  -1.391  -3.496  0.00  0.00    -0.056 A 
ATOM      5  C   LIG d   1       3.955  -1.876  -2.331  0.00  0.00    -0.061 A 
ATOM      6  H   LIG d   1       2.926  -2.071  -4.193  0.00  0.00     0.062 H 
ATOM      7  C   LIG d   1       4.556  -1.006  -1.439  0.00  0.00    -0.062 A 
ATOM      8  H   LIG d   1       3.925  -2.934  -2.115  0.00  0.00     0.062 H 
ATOM      9  C   LIG d   1       4.596   0.348  -1.715  0.00  0.00    -0.061 A 
ATOM     10  H   LIG d   1       4.990  -1.384  -0.524  0.00  0.00     0.062 H 
ATOM     11  C   LIG d   1       4.034   0.832  -2.881  0.00  0.00    -0.056 A 
ATOM     12  H   LIG d   1       5.065   1.027  -1.018  0.00  0.00     0.062 H 
ATOM     13  H   LIG d   1       4.065   1.891  -3.097  0.00  0.00     0.062 H 
ENDBRANCH   1   3
BRANCH   1  14
ATOM     14  C   LIG d   1       3.732   0.179  -6.206  0.00  0.00     0.196 C 
ATOM     15  O   LIG d   1       4.912  -0.028  -6.014  0.00  0.00    -0.289 OA
BRANCH  14  16
ATOM     16  C   LIG d   1       3.189   0.126  -7.572  0.00  0.00     0.020 A 
ATOM     17  C   LIG d   1       2.869   1.308  -8.248  0.00  0.00    -0.051 A 
ATOM     18  C   LIG d   1       2.365   1.250  -9.530  0.00  0.00    -0.061 A 
ATOM     19  H   LIG d   1       3.019   2.264  -7.768  0.00  0.00     0.062 H 
ATOM     20  C   LIG d   1       2.165   0.026 -10.144  0.00  0.00    -0.062 A 
ATOM     21  H   LIG d   1       2.120   2.162 -10.055  0.00  0.00     0.062 H 
ATOM     22  C   LIG d   1       2.476  -1.148  -9.481  0.00  0.00    -0.061 A 
ATOM     23  H   LIG d   1       1.767  -0.013 -11.148  0.00  0.00     0.062 H 
ATOM     24  C   LIG d   1       2.985  -1.107  -8.200  0.00  0.00    -0.051 A 
ATOM     25  H   LIG d   1       2.319  -2.100  -9.968  0.00  0.00     0.062 H 
ATOM     26  H   LIG d   1       3.228  -2.024  -7.684  0.00  0.00     0.062 H 
ENDBRANCH  14  16
ENDBRANCH   1  14
BRANCH   1  27
ATOM     27  O   LIG d   1       1.553  -0.129  -5.256  0.00  0.00    -0.379 OA
ATOM     28  H   LIG d   1       0.910   0.044  -4.555  0.00  0.00     0.211 HD
ENDBRANCH   1  27
TORSDOF 4
ENDMDL
MODEL 2
REMARK VINA RESULT:      -6.4      0.899      5.975
REMARK  4 active torsions:
REMARK  status: ('A' for Active; 'I' for Inactive)
REMARK    1  A    between atoms: C_4  and  C_7 
REMARK    2  A    between atoms: C_7  and  C_9 
REMARK    3  A    between atoms: C_7  and  O_17 
REMARK    4  A    between atoms: C_9  and  C_11 
ROOT
ATOM      1  C   LIG d   1       2.816   0.361  -6.238  0.00  0.00     0.142 C 
ATOM      2  H   LIG d   1       2.051  -0.378  -5.997  0.00  0.00     0.073 H 
ENDROOT
BRANCH   1   3
ATOM      3  C   LIG d   1       2.939   0.487  -7.734  0.00  0.00    -0.012 A 
ATOM      4  C   LIG d   1       2.780  -0.626  -8.538  0.00  0.00    -0.056 A 
ATOM      5  C   LIG d   1       2.893  -0.511  -9.910  0.00  0.00    -0.061 A 
ATOM      6  H   LIG d   1       2.566  -1.588  -8.093  0.00  0.00     0.062 H 
ATOM      7  C   LIG d   1       3.165   0.719 -10.480  0.00  0.00    -0.062 A 
ATOM      8  H   LIG d   1       2.768  -1.381 -10.538  0.00  0.00     0.062 H 
ATOM      9  C   LIG d   1       3.324   1.833  -9.677  0.00  0.00    -0.061 A 
ATOM     10  H   LIG d   1       3.258   0.809 -11.553  0.00  0.00     0.062 H 
ATOM     11  C   LIG d   1       3.213   1.716  -8.305  0.00  0.00    -0.056 A 
ATOM     12  H   LIG d   1       3.538   2.793 -10.123  0.00  0.00     0.062 H 
ATOM     13  H   LIG d   1       3.338   2.587  -7.676  0.00  0.00     0.062 H 
ENDBRANCH   1   3
BRANCH   1  14
ATOM     14  C   LIG d   1       4.136  -0.077  -5.659  0.00  0.00     0.196 C 
ATOM     15  O   LIG d   1       5.130  -0.083  -6.354  0.00  0.00    -0.289 OA
BRANCH  14  16
ATOM     16  C   LIG d   1       4.220  -0.495  -4.252  0.00  0.00     0.020 A 
ATOM     17  C   LIG d   1       3.936  -1.817  -3.893  0.00  0.00    -0.051 A 
ATOM     18  C   LIG d   1       4.022  -2.202  -2.572  0.00  0.00    -0.061 A 
ATOM     19  H   LIG d   1       3.655  -2.534  -4.649  0.00  0.00     0.062 H 
ATOM     20  C   LIG d   1       4.377  -1.283  -1.601  0.00  0.00    -0.062 A 
ATOM     21  H   LIG d   1       3.807  -3.224  -2.293  0.00  0.00     0.062 H 
ATOM     22  C   LIG d   1       4.655   0.028  -1.947  0.00  0.00    -0.061 A 
ATOM     23  H   LIG d   1       4.439  -1.590  -0.566  0.00  0.00     0.062 H 
ATOM     24  C   LIG d   1       4.578   0.428  -3.264  0.00  0.00    -0.051 A 
ATOM     25  H   LIG d   1       4.932   0.740  -1.183  0.00  0.00     0.062 H 
ATOM     26  H   LIG d   1       4.796   1.451  -3.533  0.00  0.00     0.062 H 
ENDBRANCH  14  16
ENDBRANCH   1  14
BRANCH   1  27
ATOM     27  O   LIG d   1       2.448   1.625  -5.682  0.00  0.00    -0.379 OA
ATOM     28  H   LIG d   1       2.756   2.385  -6.195  0.00  0.00     0.211 HD
ENDBRANCH   1  27
TORSDOF 4
ENDMDL
MODEL 3
REMARK VINA RESULT:      -6.4      1.589      2.235
REMARK  4 active torsions:
REMARK  status: ('A' for Active; 'I' for Inactive)
REMARK    1  A    between atoms: C_4  and  C_7 
REMARK    2  A    between atoms: C_7  and  C_9 
REMARK    3  A    between atoms: C_7  and  O_17 
REMARK    4  A    between atoms: C_9  and  C_11 
ROOT
ATOM      1  C   LIG d   1       3.762  -1.109  -5.495  0.00  0.00     0.142 C 
ATOM      2  H   LIG d   1       2.767  -0.878  -5.875  0.00  0.00     0.073 H 
ENDROOT
BRANCH   1   3
ATOM      3  C   LIG d   1       3.952  -0.457  -4.151  0.00  0.00    -0.012 A 
ATOM      4  C   LIG d   1       3.533   0.845  -3.948  0.00  0.00    -0.056 A 
ATOM      5  C   LIG d   1       3.705   1.444  -2.715  0.00  0.00    -0.061 A 
ATOM      6  H   LIG d   1       3.068   1.394  -4.755  0.00  0.00     0.062 H 
ATOM      7  C   LIG d   1       4.298   0.741  -1.683  0.00  0.00    -0.062 A 
ATOM      8  H   LIG d   1       3.377   2.461  -2.557  0.00  0.00     0.062 H 
ATOM      9  C   LIG d   1       4.717  -0.561  -1.884  0.00  0.00    -0.061 A 
ATOM     10  H   LIG d   1       4.438   1.210  -0.720  0.00  0.00     0.062 H 
ATOM     11  C   LIG d   1       4.545  -1.159  -3.118  0.00  0.00    -0.056 A 
ATOM     12  H   LIG d   1       5.180  -1.110  -1.077  0.00  0.00     0.062 H 
ATOM     13  H   LIG d   1       4.873  -2.176  -3.276  0.00  0.00     0.062 H 
ENDBRANCH   1   3
BRANCH   1  14
ATOM     14  C   LIG d   1       4.800  -0.590  -6.457  0.00  0.00     0.196 C 
ATOM     15  O   LIG d   1       5.949  -0.969  -6.371  0.00  0.00    -0.289 OA
BRANCH  14  16
ATOM     16  C   LIG d   1       4.420   0.375  -7.499  0.00  0.00     0.020 A 
ATOM     17  C   LIG d   1       5.391   0.902  -8.357  0.00  0.00    -0.051 A 
ATOM     18  C   LIG d   1       5.025   1.803  -9.336  0.00  0.00    -0.061 A 
ATOM     19  H   LIG d   1       6.422   0.602  -8.257  0.00  0.00     0.062 H 
ATOM     20  C   LIG d   1       3.703   2.194  -9.462  0.00  0.00    -0.062 A 
ATOM     21  H   LIG d   1       5.773   2.208 -10.002  0.00  0.00     0.062 H 
ATOM     22  C   LIG d   1       2.737   1.680  -8.614  0.00  0.00    -0.061 A 
ATOM     23  H   LIG d   1       3.423   2.903 -10.228  0.00  0.00     0.062 H 
ATOM     24  C   LIG d   1       3.086   0.775  -7.635  0.00  0.00    -0.051 A 
ATOM     25  H   LIG d   1       1.708   1.989  -8.720  0.00  0.00     0.062 H 
ATOM     26  H   LIG d   1       2.332   0.374  -6.974  0.00  0.00     0.062 H 
ENDBRANCH  14  16
ENDBRANCH   1  14
BRANCH   1  27
ATOM     27  O   LIG d   1       3.903  -2.526  -5.361  0.00  0.00    -0.379 OA
ATOM     28  H   LIG d   1       3.447  -2.895  -4.593  0.00  0.00     0.211 HD
ENDBRANCH   1  27
TORSDOF 4
ENDMDL
MODEL 4
REMARK VINA RESULT:      -6.4      1.758      5.875
REMARK  4 active torsions:
REMARK  status: ('A' for Active; 'I' for Inactive)
REMARK    1  A    between atoms: C_4  and  C_7 
REMARK    2  A    between atoms: C_7  and  C_9 
REMARK    3  A    between atoms: C_7  and  O_17 
REMARK    4  A    between atoms: C_9  and  C_11 
ROOT
ATOM      1  C   LIG d   1       4.689  -0.981  -7.431  0.00  0.00     0.142 C 
ATOM      2  H   LIG d   1       5.493  -1.519  -7.934  0.00  0.00     0.073 H 
ENDROOT
BRANCH   1   3
ATOM      3  C   LIG d   1       4.241   0.172  -8.291  0.00  0.00    -0.012 A 
ATOM      4  C   LIG d   1       3.186   0.968  -7.886  0.00  0.00    -0.056 A 
ATOM      5  C   LIG d   1       2.775   2.026  -8.673  0.00  0.00    -0.061 A 
ATOM      6  H   LIG d   1       2.684   0.764  -6.951  0.00  0.00     0.062 H 
ATOM      7  C   LIG d   1       3.418   2.288  -9.869  0.00  0.00    -0.062 A 
ATOM      8  H   LIG d   1       1.951   2.649  -8.356  0.00  0.00     0.062 H 
ATOM      9  C   LIG d   1       4.473   1.492 -10.275  0.00  0.00    -0.061 A 
ATOM     10  H   LIG d   1       3.094   3.112 -10.488  0.00  0.00     0.062 H 
ATOM     11  C   LIG d   1       4.883   0.433  -9.487  0.00  0.00    -0.056 A 
ATOM     12  H   LIG d   1       4.975   1.697 -11.209  0.00  0.00     0.062 H 
ATOM     13  H   LIG d   1       5.707  -0.190  -9.805  0.00  0.00     0.062 H 
ENDBRANCH   1   3
BRANCH   1  14
ATOM     14  C   LIG d   1       5.186  -0.457  -6.109  0.00  0.00     0.196 C 
ATOM     15  O   LIG d   1       6.127   0.307  -6.074  0.00  0.00    -0.289 OA
BRANCH  14  16
ATOM     16  C   LIG d   1       4.531  -0.873  -4.859  0.00  0.00     0.020 A 
ATOM     17  C   LIG d   1       4.974  -2.011  -4.177  0.00  0.00    -0.051 A 
ATOM     18  C   LIG d   1       4.357  -2.390  -3.004  0.00  0.00    -0.061 A 
ATOM     19  H   LIG d   1       5.799  -2.587  -4.566  0.00  0.00     0.062 H 
ATOM     20  C   LIG d   1       3.294  -1.656  -2.507  0.00  0.00    -0.062 A 
ATOM     21  H   LIG d   1       4.700  -3.267  -2.473  0.00  0.00     0.062 H 
ATOM     22  C   LIG d   1       2.847  -0.531  -3.179  0.00  0.00    -0.061 A 
ATOM     23  H   LIG d   1       2.812  -1.960  -1.589  0.00  0.00     0.062 H 
ATOM     24  C   LIG d   1       3.456  -0.136  -4.350  0.00  0.00    -0.051 A 
ATOM     25  H   LIG d   1       2.017   0.038  -2.784  0.00  0.00     0.062 H 
ATOM     26  H   LIG d   1       3.107   0.742  -4.873  0.00  0.00     0.062 H 
ENDBRANCH  14  16
ENDBRANCH   1  14
BRANCH   1  27
ATOM     27  O   LIG d   1       3.589  -1.866  -7.209  0.00  0.00    -0.379 OA
ATOM     28  H   LIG d   1       3.850  -2.763  -6.959  0.00  0.00     0.211 HD
ENDBRANCH   1  27
TORSDOF 4
ENDMDL
MODEL 5
REMARK VINA RESULT:      -6.2      1.819      2.558
REMARK  4 active torsions:
REMARK  status: ('A' for Active; 'I' for Inactive)
REMARK    1  A    between atoms: C_4  and  C_7 
REMARK    2  A    between atoms: C_7  and  C_9 
REMARK    3  A    between atoms: C_7  and  O_17 
REMARK    4  A    between atoms: C_9  and  C_11 
ROOT
ATOM      1  C   LIG d   1       5.323  -0.929  -6.220  0.00  0.00     0.142 C 
ATOM      2  H   LIG d   1       6.095  -1.696  -6.292  0.00  0.00     0.073 H 
ENDROOT
BRANCH   1   3
ATOM      3  C   LIG d   1       4.556  -1.106  -4.935  0.00  0.00    -0.012 A 
ATOM      4  C   LIG d   1       3.543  -0.224  -4.608  0.00  0.00    -0.056 A 
ATOM      5  C   LIG d   1       2.838  -0.385  -3.431  0.00  0.00    -0.061 A 
ATOM      6  H   LIG d   1       3.300   0.591  -5.275  0.00  0.00     0.062 H 
ATOM      7  C   LIG d   1       3.148  -1.429  -2.578  0.00  0.00    -0.062 A 
ATOM      8  H   LIG d   1       2.046   0.303  -3.176  0.00  0.00     0.062 H 
ATOM      9  C   LIG d   1       4.161  -2.311  -2.905  0.00  0.00    -0.061 A 
ATOM     10  H   LIG d   1       2.600  -1.553  -1.655  0.00  0.00     0.062 H 
ATOM     11  C   LIG d   1       4.866  -2.148  -4.082  0.00  0.00    -0.056 A 
ATOM     12  H   LIG d   1       4.402  -3.126  -2.238  0.00  0.00     0.062 H 
ATOM     13  H   LIG d   1       5.658  -2.837  -4.337  0.00  0.00     0.062 H 
ENDBRANCH   1   3
BRANCH   1  14
ATOM     14  C   LIG d   1       4.381  -1.055  -7.389  0.00  0.00     0.196 C 
ATOM     15  O   LIG d   1       3.861  -2.123  -7.636  0.00  0.00    -0.289 OA
BRANCH  14  16
ATOM     16  C   LIG d   1       4.092   0.116  -8.231  0.00  0.00     0.020 A 
ATOM     17  C   LIG d   1       3.064   0.998  -7.881  0.00  0.00    -0.051 A 
ATOM     18  C   LIG d   1       2.804   2.096  -8.673  0.00  0.00    -0.061 A 
ATOM     19  H   LIG d   1       2.480   0.821  -6.991  0.00  0.00     0.062 H 
ATOM     20  C   LIG d   1       3.548   2.320  -9.818  0.00  0.00    -0.062 A 
ATOM     21  H   LIG d   1       2.013   2.780  -8.402  0.00  0.00     0.062 H 
ATOM     22  C   LIG d   1       4.563   1.450 -10.174  0.00  0.00    -0.061 A 
ATOM     23  H   LIG d   1       3.336   3.181 -10.436  0.00  0.00     0.062 H 
ATOM     24  C   LIG d   1       4.840   0.350  -9.390  0.00  0.00    -0.051 A 
ATOM     25  H   LIG d   1       5.141   1.633 -11.069  0.00  0.00     0.062 H 
ATOM     26  H   LIG d   1       5.633  -0.328  -9.668  0.00  0.00     0.062 H 
ENDBRANCH  14  16
ENDBRANCH   1  14
BRANCH   1  27
ATOM     27  O   LIG d   1       5.933   0.363  -6.237  0.00  0.00    -0.379 OA
ATOM     28  H   LIG d   1       6.596   0.475  -6.932  0.00  0.00     0.211 HD
ENDBRANCH   1  27
TORSDOF 4
ENDMDL
MODEL 6
REMARK VINA RESULT:      -6.1      0.946      2.326
REMARK  4 active torsions:
REMARK  status: ('A' for Active; 'I' for Inactive)
REMARK    1  A    between atoms: C_4  and  C_7 
REMARK    2  A    between atoms: C_7  and  C_9 
REMARK    3  A    between atoms: C_7  and  O_17 
REMARK    4  A    between atoms: C_9  and  C_11 
ROOT
ATOM      1  C   LIG d   1       4.618  -0.672  -5.860  0.00  0.00     0.142 C 
ATOM      2  H   LIG d   1       4.675  -1.676  -6.280  0.00  0.00     0.073 H 
ENDROOT
BRANCH   1   3
ATOM      3  C   LIG d   1       4.540  -0.758  -4.358  0.00  0.00    -0.012 A 
ATOM      4  C   LIG d   1       4.951   0.310  -3.582  0.00  0.00    -0.056 A 
ATOM      5  C   LIG d   1       4.879   0.233  -2.205  0.00  0.00    -0.061 A 
ATOM      6  H   LIG d   1       5.327   1.207  -4.053  0.00  0.00     0.062 H 
ATOM      7  C   LIG d   1       4.396  -0.914  -1.601  0.00  0.00    -0.062 A 
ATOM      8  H   LIG d   1       5.199   1.067  -1.598  0.00  0.00     0.062 H 
ATOM      9  C   LIG d   1       3.985  -1.982  -2.377  0.00  0.00    -0.061 A 
ATOM     10  H   LIG d   1       4.345  -0.978  -0.524  0.00  0.00     0.062 H 
ATOM     11  C   LIG d   1       4.059  -1.904  -3.755  0.00  0.00    -0.056 A 
ATOM     12  H   LIG d   1       3.609  -2.878  -1.905  0.00  0.00     0.062 H 
ATOM     13  H   LIG d   1       3.738  -2.740  -4.361  0.00  0.00     0.062 H 
ENDBRANCH   1   3
BRANCH   1  14
ATOM     14  C   LIG d   1       3.390   0.023  -6.388  0.00  0.00     0.196 C 
ATOM     15  O   LIG d   1       2.471   0.282  -5.640  0.00  0.00    -0.289 OA
BRANCH  14  16
ATOM     16  C   LIG d   1       3.305   0.389  -7.810  0.00  0.00     0.020 A 
ATOM     17  C   LIG d   1       3.262  -0.607  -8.792  0.00  0.00    -0.051 A 
ATOM     18  C   LIG d   1       3.178  -0.255 -10.122  0.00  0.00    -0.061 A 
ATOM     19  H   LIG d   1       3.290  -1.648  -8.507  0.00  0.00     0.062 H 
ATOM     20  C   LIG d   1       3.149   1.079 -10.488  0.00  0.00    -0.062 A 
ATOM     21  H   LIG d   1       3.140  -1.023 -10.881  0.00  0.00     0.062 H 
ATOM     22  C   LIG d   1       3.196   2.071  -9.524  0.00  0.00    -0.061 A 
ATOM     23  H   LIG d   1       3.086   1.348 -11.533  0.00  0.00     0.062 H 
ATOM     24  C   LIG d   1       3.275   1.736  -8.190  0.00  0.00    -0.051 A 
ATOM     25  H   LIG d   1       3.171   3.110  -9.819  0.00  0.00     0.062 H 
ATOM     26  H   LIG d   1       3.311   2.510  -7.437  0.00  0.00     0.062 H 
ENDBRANCH  14  16
ENDBRANCH   1  14
BRANCH   1  27
ATOM     27  O   LIG d   1       5.782   0.068  -6.235  0.00  0.00    -0.379 OA
ATOM     28  H   LIG d   1       5.639   1.022  -6.296  0.00  0.00     0.211 HD
ENDBRANCH   1  27
TORSDOF 4
ENDMDL
MODEL 7
REMARK VINA RESULT:      -6.1      4.164      5.303
REMARK  4 active torsions:
REMARK  status: ('A' for Active; 'I' for Inactive)
REMARK    1  A    between atoms: C_4  and  C_7 
REMARK    2  A    between atoms: C_7  and  C_9 
REMARK    3  A    between atoms: C_7  and  O_17 
REMARK    4  A    between atoms: C_9  and  C_11 
ROOT
ATOM      1  C   LIG d   1       6.530  -2.016  -3.411  0.00  0.00     0.142 C 
ATOM      2  H   LIG d   1       6.501  -2.879  -2.747  0.00  0.00     0.073 H 
ENDROOT
BRANCH   1   3
ATOM      3  C   LIG d   1       5.422  -1.062  -3.047  0.00  0.00    -0.012 A 
ATOM      4  C   LIG d   1       5.712   0.260  -2.767  0.00  0.00    -0.056 A 
ATOM      5  C   LIG d   1       4.697   1.136  -2.434  0.00  0.00    -0.061 A 
ATOM      6  H   LIG d   1       6.734   0.610  -2.811  0.00  0.00     0.062 H 
ATOM      7  C   LIG d   1       3.390   0.689  -2.379  0.00  0.00    -0.062 A 
ATOM      8  H   LIG d   1       4.923   2.169  -2.215  0.00  0.00     0.062 H 
ATOM      9  C   LIG d   1       3.099  -0.633  -2.659  0.00  0.00    -0.061 A 
ATOM     10  H   LIG d   1       2.595   1.372  -2.113  0.00  0.00     0.062 H 
ATOM     11  C   LIG d   1       4.115  -1.508  -2.991  0.00  0.00    -0.056 A 
ATOM     12  H   LIG d   1       2.077  -0.982  -2.616  0.00  0.00     0.062 H 
ATOM     13  H   LIG d   1       3.888  -2.542  -3.209  0.00  0.00     0.062 H 
ENDBRANCH   1   3
BRANCH   1  14
ATOM     14  C   LIG d   1       6.352  -2.473  -4.836  0.00  0.00     0.196 C 
ATOM     15  O   LIG d   1       6.378  -1.664  -5.739  0.00  0.00    -0.289 OA
BRANCH  14  16
ATOM     16  C   LIG d   1       6.145  -3.899  -5.131  0.00  0.00     0.020 A 
ATOM     17  C   LIG d   1       4.850  -4.410  -5.259  0.00  0.00    -0.051 A 
ATOM     18  C   LIG d   1       4.665  -5.748  -5.541  0.00  0.00    -0.061 A 
ATOM     19  H   LIG d   1       3.997  -3.759  -5.142  0.00  0.00     0.062 H 
ATOM     20  C   LIG d   1       5.758  -6.585  -5.685  0.00  0.00    -0.062 A 
ATOM     21  H   LIG d   1       3.665  -6.144  -5.644  0.00  0.00     0.062 H 
ATOM     22  C   LIG d   1       7.043  -6.088  -5.555  0.00  0.00    -0.061 A 
ATOM     23  H   LIG d   1       5.607  -7.633  -5.902  0.00  0.00     0.062 H 
ATOM     24  C   LIG d   1       7.244  -4.753  -5.279  0.00  0.00    -0.051 A 
ATOM     25  H   LIG d   1       7.890  -6.748  -5.670  0.00  0.00     0.062 H 
ATOM     26  H   LIG d   1       8.247  -4.365  -5.178  0.00  0.00     0.062 H 
ENDBRANCH  14  16
ENDBRANCH   1  14
BRANCH   1  27
ATOM     27  O   LIG d   1       7.791  -1.355  -3.278  0.00  0.00    -0.379 OA
ATOM     28  H   LIG d   1       7.857  -0.530  -3.777  0.00  0.00     0.211 HD
ENDBRANCH   1  27
TORSDOF 4
ENDMDL
MODEL 8
REMARK VINA RESULT:      -5.7      3.574      5.485
REMARK  4 active torsions:
REMARK  status: ('A' for Active; 'I' for Inactive)
REMARK    1  A    between atoms: C_4  and  C_7 
REMARK    2  A    between atoms: C_7  and  C_9 
REMARK    3  A    between atoms: C_7  and  O_17 
REMARK    4  A    between atoms: C_9  and  C_11 
ROOT
ATOM      1  C   LIG d   1       5.011  -1.598  -5.233  0.00  0.00     0.142 C 
ATOM      2  H   LIG d   1       5.912  -1.277  -5.757  0.00  0.00     0.073 H 
ENDROOT
BRANCH   1   3
ATOM      3  C   LIG d   1       4.698  -0.624  -4.128  0.00  0.00    -0.012 A 
ATOM      4  C   LIG d   1       3.403  -0.500  -3.661  0.00  0.00    -0.056 A 
ATOM      5  C   LIG d   1       3.115   0.393  -2.647  0.00  0.00    -0.061 A 
ATOM      6  H   LIG d   1       2.615  -1.103  -4.089  0.00  0.00     0.062 H 
ATOM      7  C   LIG d   1       4.123   1.163  -2.098  0.00  0.00    -0.062 A 
ATOM      8  H   LIG d   1       2.103   0.489  -2.282  0.00  0.00     0.062 H 
ATOM      9  C   LIG d   1       5.419   1.040  -2.564  0.00  0.00    -0.061 A 
ATOM     10  H   LIG d   1       3.898   1.865  -1.308  0.00  0.00     0.062 H 
ATOM     11  C   LIG d   1       5.706   0.148  -3.579  0.00  0.00    -0.056 A 
ATOM     12  H   LIG d   1       6.206   1.642  -2.135  0.00  0.00     0.062 H 
ATOM     13  H   LIG d   1       6.719   0.051  -3.944  0.00  0.00     0.062 H 
ENDBRANCH   1   3
BRANCH   1  14
ATOM     14  C   LIG d   1       5.233  -2.969  -4.648  0.00  0.00     0.196 C 
ATOM     15  O   LIG d   1       4.293  -3.605  -4.222  0.00  0.00    -0.289 OA
BRANCH  14  16
ATOM     16  C   LIG d   1       6.590  -3.535  -4.593  0.00  0.00     0.020 A 
ATOM     17  C   LIG d   1       6.897  -4.695  -5.312  0.00  0.00    -0.051 A 
ATOM     18  C   LIG d   1       8.173  -5.216  -5.260  0.00  0.00    -0.061 A 
ATOM     19  H   LIG d   1       6.139  -5.177  -5.910  0.00  0.00     0.062 H 
ATOM     20  C   LIG d   1       9.144  -4.602  -4.488  0.00  0.00    -0.062 A 
ATOM     21  H   LIG d   1       8.413  -6.110  -5.818  0.00  0.00     0.062 H 
ATOM     22  C   LIG d   1       8.846  -3.457  -3.770  0.00  0.00    -0.061 A 
ATOM     23  H   LIG d   1      10.141  -5.018  -4.448  0.00  0.00     0.062 H 
ATOM     24  C   LIG d   1       7.578  -2.921  -3.816  0.00  0.00    -0.051 A 
ATOM     25  H   LIG d   1       9.611  -2.983  -3.171  0.00  0.00     0.062 H 
ATOM     26  H   LIG d   1       7.346  -2.027  -3.256  0.00  0.00     0.062 H 
ENDBRANCH  14  16
ENDBRANCH   1  14
BRANCH   1  27
ATOM     27  O   LIG d   1       3.917  -1.644  -6.152  0.00  0.00    -0.379 OA
ATOM     28  H   LIG d   1       4.072  -2.211  -6.920  0.00  0.00     0.211 HD
ENDBRANCH   1  27
TORSDOF 4
ENDMDL
MODEL 9
REMARK VINA RESULT:      -5.6      2.487      5.733
REMARK  4 active torsions:
REMARK  status: ('A' for Active; 'I' for Inactive)
REMARK    1  A    between atoms: C_4  and  C_7 
REMARK    2  A    between atoms: C_7  and  C_9 
REMARK    3  A    between atoms: C_7  and  O_17 
REMARK    4  A    between atoms: C_9  and  C_11 
ROOT
ATOM      1  C   LIG d   1       5.940  -2.587  -4.726  0.00  0.00     0.142 C 
ATOM      2  H   LIG d   1       6.814  -2.149  -4.244  0.00  0.00     0.073 H 
ENDROOT
BRANCH   1   3
ATOM      3  C   LIG d   1       5.685  -1.888  -6.036  0.00  0.00    -0.012 A 
ATOM      4  C   LIG d   1       6.410  -0.758  -6.370  0.00  0.00    -0.056 A 
ATOM      5  C   LIG d   1       6.178  -0.117  -7.571  0.00  0.00    -0.061 A 
ATOM      6  H   LIG d   1       7.160  -0.378  -5.691  0.00  0.00     0.062 H 
ATOM      7  C   LIG d   1       5.219  -0.604  -8.440  0.00  0.00    -0.062 A 
ATOM      8  H   LIG d   1       6.744   0.765  -7.832  0.00  0.00     0.062 H 
ATOM      9  C   LIG d   1       4.494  -1.733  -8.107  0.00  0.00    -0.061 A 
ATOM     10  H   LIG d   1       5.033  -0.100  -9.378  0.00  0.00     0.062 H 
ATOM     11  C   LIG d   1       4.726  -2.374  -6.905  0.00  0.00    -0.056 A 
ATOM     12  H   LIG d   1       3.745  -2.114  -8.786  0.00  0.00     0.062 H 
ATOM     13  H   LIG d   1       4.160  -3.256  -6.644  0.00  0.00     0.062 H 
ENDBRANCH   1   3
BRANCH   1  14
ATOM     14  C   LIG d   1       4.740  -2.428  -3.829  0.00  0.00     0.196 C 
ATOM     15  O   LIG d   1       4.087  -3.400  -3.513  0.00  0.00    -0.289 OA
BRANCH  14  16
ATOM     16  C   LIG d   1       4.361  -1.095  -3.336  0.00  0.00     0.020 A 
ATOM     17  C   LIG d   1       3.456  -0.310  -4.059  0.00  0.00    -0.051 A 
ATOM     18  C   LIG d   1       3.102   0.937  -3.587  0.00  0.00    -0.061 A 
ATOM     19  H   LIG d   1       3.034  -0.680  -4.981  0.00  0.00     0.062 H 
ATOM     20  C   LIG d   1       3.648   1.415  -2.409  0.00  0.00    -0.062 A 
ATOM     21  H   LIG d   1       2.401   1.544  -4.142  0.00  0.00     0.062 H 
ATOM     22  C   LIG d   1       4.546   0.646  -1.691  0.00  0.00    -0.061 A 
ATOM     23  H   LIG d   1       3.369   2.395  -2.046  0.00  0.00     0.062 H 
ATOM     24  C   LIG d   1       4.907  -0.604  -2.146  0.00  0.00    -0.051 A 
ATOM     25  H   LIG d   1       4.966   1.027  -0.771  0.00  0.00     0.062 H 
ATOM     26  H   LIG d   1       5.608  -1.204  -1.585  0.00  0.00     0.062 H 
ENDBRANCH  14  16
ENDBRANCH   1  14
BRANCH   1  27
ATOM     27  O   LIG d   1       6.175  -3.976  -4.966  0.00  0.00    -0.379 OA
ATOM     28  H   LIG d   1       7.033  -4.166  -5.369  0.00  0.00     0.211 HD
ENDBRANCH   1  27
TORSDOF 4
ENDMDL
MODEL 10
REMARK VINA RESULT:      -5.6      2.671      3.651
REMARK  4 active torsions:
REMARK  status: ('A' for Active; 'I' for Inactive)
REMARK    1  A    between atoms: C_4  and  C_7 
REMARK    2  A    between atoms: C_7  and  C_9 
REMARK    3  A    between atoms: C_7  and  O_17 
REMARK    4  A    between atoms: C_9  and  C_11 
ROOT
ATOM      1  C   LIG d   1       6.409  -2.087  -3.324  0.00  0.00     0.142 C 
ATOM      2  H   LIG d   1       6.294  -2.908  -2.616  0.00  0.00     0.073 H 
ENDROOT
BRANCH   1   3
ATOM      3  C   LIG d   1       5.423  -0.997  -2.993  0.00  0.00    -0.012 A 
ATOM      4  C   LIG d   1       4.099  -1.313  -2.747  0.00  0.00    -0.056 A 
ATOM      5  C   LIG d   1       3.194  -0.314  -2.443  0.00  0.00    -0.061 A 
ATOM      6  H   LIG d   1       3.772  -2.342  -2.791  0.00  0.00     0.062 H 
ATOM      7  C   LIG d   1       3.613   1.002  -2.385  0.00  0.00    -0.062 A 
ATOM      8  H   LIG d   1       2.161  -0.561  -2.250  0.00  0.00     0.062 H 
ATOM      9  C   LIG d   1       4.936   1.319  -2.631  0.00  0.00    -0.061 A 
ATOM     10  H   LIG d   1       2.905   1.785  -2.153  0.00  0.00     0.062 H 
ATOM     11  C   LIG d   1       5.840   0.319  -2.936  0.00  0.00    -0.056 A 
ATOM     12  H   LIG d   1       5.262   2.348  -2.586  0.00  0.00     0.062 H 
ATOM     13  H   LIG d   1       6.874   0.566  -3.129  0.00  0.00     0.062 H 
ENDBRANCH   1   3
BRANCH   1  14
ATOM     14  C   LIG d   1       6.153  -2.590  -4.721  0.00  0.00     0.196 C 
ATOM     15  O   LIG d   1       6.167  -3.781  -4.949  0.00  0.00    -0.289 OA
BRANCH  14  16
ATOM     16  C   LIG d   1       5.886  -1.636  -5.809  0.00  0.00     0.020 A 
ATOM     17  C   LIG d   1       6.918  -0.837  -6.313  0.00  0.00    -0.051 A 
ATOM     18  C   LIG d   1       6.660   0.050  -7.336  0.00  0.00    -0.061 A 
ATOM     19  H   LIG d   1       7.913  -0.919  -5.905  0.00  0.00     0.062 H 
ATOM     20  C   LIG d   1       5.382   0.160  -7.856  0.00  0.00    -0.062 A 
ATOM     21  H   LIG d   1       7.456   0.666  -7.729  0.00  0.00     0.062 H 
ATOM     22  C   LIG d   1       4.355  -0.623  -7.360  0.00  0.00    -0.061 A 
ATOM     23  H   LIG d   1       5.185   0.860  -8.655  0.00  0.00     0.062 H 
ATOM     24  C   LIG d   1       4.597  -1.519  -6.341  0.00  0.00    -0.051 A 
ATOM     25  H   LIG d   1       3.360  -0.532  -7.772  0.00  0.00     0.062 H 
ATOM     26  H   LIG d   1       3.795  -2.131  -5.954  0.00  0.00     0.062 H 
ENDBRANCH  14  16
ENDBRANCH   1  14
BRANCH   1  27
ATOM     27  O   LIG d   1       7.738  -1.568  -3.240  0.00  0.00    -0.379 OA
ATOM     28  H   LIG d   1       7.814  -0.640  -3.498  0.00  0.00     0.211 HD
ENDBRANCH   1  27
TORSDOF 4
ENDMDL
