MODEL 1
REMARK VINA RESULT:      -6.2      0.000      0.000
REMARK  18 active torsions:
REMARK  status: ('A' for Active; 'I' for Inactive)
REMARK    1  A    between atoms: C1_1  and  C2_2 
REMARK    2  A    between atoms: C4_5  and  O12_69 
REMARK    3  A    between atoms: C6_9  and  O11_67 
REMARK    4  A    between atoms: C8_12  and  C42_66 
REMARK    5  A    between atoms: C9_14  and  O10_65 
REMARK    6  A    between atoms: C18_30  and  C32_50 
REMARK    7  A    between atoms: C19_32  and  C31_49 
REMARK    8  A    between atoms: C20_34  and  O7_48 
REMARK    9  A    between atoms: C23_39  and  C28_45 
REMARK   10  A    between atoms: C25_42  and  C27_44 
REMARK   11  A    between atoms: C28_45  and  C29_46 
REMARK   12  A    between atoms: C32_50  and  C41_64 
REMARK   13  A    between atoms: C33_51  and  C34_52 
REMARK   14  A    between atoms: C37_56  and  O9_63 
REMARK   15  A    between atoms: C38_58  and  O8_61 
REMARK   16  A    between atoms: O8_61  and  C40_62 
REMARK   17  A    between atoms: O11_67  and  C43_68 
REMARK   18  A    between atoms: O12_69  and  C44_70 
ROOT
ATOM      1  C2  <0> d          13.387  -0.122  -7.604  0.00  0.00    -0.092 C 
ATOM      2  H1  <0> d          13.437   0.008  -8.685  0.00  0.00     0.081 H 
ATOM      3  C3  <0> d          12.017   0.337  -7.097  0.00  0.00    -0.114 C 
ATOM      4  C4  <0> d          12.119   0.715  -5.615  0.00  0.00     0.095 C 
ATOM      5  H2  <0> d          13.084   1.186  -5.424  0.00  0.00     0.086 H 
ATOM      6  C5  <0> d          10.994   1.697  -5.277  0.00  0.00     0.069 C 
ATOM      7  H3  <0> d          10.680   2.214  -6.186  0.00  0.00     0.092 H 
ATOM      8  C6  <0> d          11.489   2.726  -4.261  0.00  0.00     0.060 C 
ATOM      9  H4  <0> d          12.447   2.402  -3.853  0.00  0.00     0.067 H 
ATOM     10  C7  <0> d          10.472   2.857  -3.129  0.00  0.00    -0.133 C 
ATOM     11  C8  <0> d           9.066   3.022  -3.705  0.00  0.00    -0.101 C 
ATOM     12  H5  <0> d           8.348   3.115  -2.891  0.00  0.00     0.098 H 
ATOM     13  C9  <0> d           8.710   1.800  -4.561  0.00  0.00     0.265 C 
ATOM     14  O1  <0> d           9.877   0.988  -4.728  0.00  0.00    -0.330 OA
ATOM     15  C10 <0> d           7.597   1.036  -3.916  0.00  0.00     0.360 C 
ATOM     16  O2  <0> d           6.877   1.616  -3.139  0.00  0.00    -0.378 OA
ATOM     17  C11 <0> d           7.333  -0.402  -4.185  0.00  0.00     0.471 C 
ATOM     18  O3  <0> d           8.182  -1.090  -4.713  0.00  0.00    -0.453 OA
ATOM     19  N1  <0> d           6.146  -0.936  -3.838  0.00  0.00    -0.577 N 
ATOM     20  C12 <0> d           5.069  -0.045  -3.378  0.00  0.00     0.051 C 
ATOM     21  C13 <0> d           4.451  -0.636  -2.116  0.00  0.00    -0.131 C 
ATOM     22  C14 <0> d           4.029  -2.083  -2.294  0.00  0.00    -0.119 C 
ATOM     23  C15 <0> d           4.409  -2.645  -3.657  0.00  0.00    -0.118 C 
ATOM     24  C16 <0> d           5.893  -2.379  -3.927  0.00  0.00     0.157 C 
ATOM     25  H6  <0> d           6.492  -2.899  -3.183  0.00  0.00     0.106 H 
ATOM     26  C17 <0> d           6.247  -2.876  -5.301  0.00  0.00     0.474 C 
ATOM     27  O4  <0> d           5.649  -2.456  -6.263  0.00  0.00    -0.493 OA
ATOM     28  O5  <0> d           7.221  -3.780  -5.467  0.00  0.00    -0.336 OA
ATOM     29  C18 <0> d           7.099  -4.690  -6.561  0.00  0.00     0.138 C 
ATOM     30  H7  <0> d           6.156  -4.512  -7.078  0.00  0.00     0.087 H 
ATOM     31  C19 <0> d           8.262  -4.477  -7.533  0.00  0.00    -0.089 C 
ATOM     32  H8  <0> d           8.853  -3.620  -7.210  0.00  0.00     0.098 H 
ATOM     33  C20 <0> d           9.146  -5.727  -7.557  0.00  0.00     0.114 C 
ATOM     34  H9  <0> d           9.856  -5.685  -6.730  0.00  0.00     0.067 H 
ATOM     35  C21 <0> d           9.909  -5.782  -8.882  0.00  0.00    -0.219 C 
ATOM     36  C22 <0> d          11.388  -5.694  -8.616  0.00  0.00     0.369 C 
ATOM     37  O6  <0> d          11.921  -6.514  -7.908  0.00  0.00    -0.451 OA
ATOM     38  C23 <0> d          12.203  -4.589  -9.230  0.00  0.00    -0.098 C 
ATOM     39  H10 <0> d          11.563  -3.977  -9.867  0.00  0.00     0.099 H 
ATOM     40  C24 <0> d          12.795  -3.731  -8.142  0.00  0.00    -0.163 C 
ATOM     41  C25 <0> d          12.989  -2.452  -8.346  0.00  0.00    -0.094 C 
ATOM     42  C26 <0> d          13.586  -1.601  -7.258  0.00  0.00    -0.086 C 
ATOM     43  H17 <0> d          11.688   1.202  -7.672  0.00  0.00     0.074 H 
ATOM     44  H18 <0> d          11.296  -0.473  -7.216  0.00  0.00     0.084 H 
ATOM     45  H19 <0> d          10.505   1.962  -2.507  0.00  0.00     0.077 H 
ATOM     46  H20 <0> d          10.718   3.727  -2.520  0.00  0.00     0.080 H 
ATOM     47  H21 <0> d           5.478   0.940  -3.159  0.00  0.00     0.148 H 
ATOM     48  H22 <0> d           4.306   0.037  -4.153  0.00  0.00     0.070 H 
ATOM     49  H23 <0> d           5.181  -0.580  -1.307  0.00  0.00     0.069 H 
ATOM     50  H24 <0> d           3.578  -0.045  -1.840  0.00  0.00     0.081 H 
ATOM     51  H25 <0> d           4.502  -2.686  -1.521  0.00  0.00     0.069 H 
ATOM     52  H26 <0> d           2.947  -2.150  -2.175  0.00  0.00     0.076 H 
ATOM     53  H27 <0> d           4.225  -3.719  -3.670  0.00  0.00     0.090 H 
ATOM     54  H28 <0> d           3.807  -2.164  -4.429  0.00  0.00     0.085 H 
ATOM     55  H29 <0> d           9.685  -6.720  -9.391  0.00  0.00     0.106 H 
ATOM     56  H30 <0> d           9.603  -4.946  -9.512  0.00  0.00     0.107 H 
ATOM     57  H31 <0> d          13.058  -4.170  -7.191  0.00  0.00     0.111 H 
ATOM     58  H32 <0> d          14.651  -1.814  -7.170  0.00  0.00     0.069 H 
ATOM     59  H33 <0> d          13.092  -1.823  -6.312  0.00  0.00     0.090 H 
ENDROOT
BRANCH  29  60
ATOM     60  C32 <0> d           7.128  -6.105  -6.042  0.00  0.00    -0.039 C 
ATOM     61  C33 <0> d           6.289  -6.993  -6.514  0.00  0.00    -0.164 C 
ATOM     62  H46 <0> d           5.634  -6.736  -7.334  0.00  0.00     0.101 H 
BRANCH  61  63
ATOM     63  C34 <0> d           6.234  -8.373  -5.911  0.00  0.00    -0.045 C 
ATOM     64  H11 <0> d           6.907  -8.422  -5.055  0.00  0.00     0.079 H 
ATOM     65  C39 <0> d           4.805  -8.674  -5.453  0.00  0.00    -0.105 C 
ATOM     66  C38 <0> d           4.749 -10.074  -4.841  0.00  0.00     0.101 C 
ATOM     67  H51 <0> d           4.500  -7.938  -4.708  0.00  0.00     0.074 H 
ATOM     68  H52 <0> d           4.131  -8.623  -6.308  0.00  0.00     0.072 H 
ATOM     69  C37 <0> d           5.177 -11.105  -5.886  0.00  0.00     0.084 C 
ATOM     70  H13 <0> d           5.424 -10.124  -3.984  0.00  0.00     0.064 H 
ATOM     71  C36 <0> d           6.606 -10.805  -6.344  0.00  0.00    -0.152 C 
ATOM     72  H12 <0> d           4.504 -11.056  -6.742  0.00  0.00     0.061 H 
ATOM     73  C35 <0> d           6.661  -9.405  -6.957  0.00  0.00    -0.105 C 
ATOM     74  H49 <0> d           6.911 -11.540  -7.089  0.00  0.00     0.067 H 
ATOM     75  H50 <0> d           7.280 -10.855  -5.488  0.00  0.00     0.070 H 
ATOM     76  H47 <0> d           5.988  -9.354  -7.813  0.00  0.00     0.063 H 
ATOM     77  H48 <0> d           7.679  -9.190  -7.282  0.00  0.00     0.071 H 
BRANCH  66  78
ATOM     78  O8  <0> d           3.415 -10.355  -4.413  0.00  0.00    -0.383 OA
BRANCH  78  79
ATOM     79  C40 <0> d           3.191 -10.130  -3.020  0.00  0.00     0.031 C 
ATOM     80  H53 <0> d           2.322  -9.486  -2.892  0.00  0.00     0.059 H 
ATOM     81  H54 <0> d           3.013 -11.083  -2.522  0.00  0.00     0.035 H 
ATOM     82  H55 <0> d           4.067  -9.650  -2.583  0.00  0.00     0.080 H 
ENDBRANCH  78  79
ENDBRANCH  66  78
BRANCH  69  83
ATOM     83  O9  <0> d           5.125 -12.414  -5.314  0.00  0.00    -0.566 OA
ATOM     84  H56 <0> d           5.887 -12.969  -5.533  0.00  0.00     0.377 HD
ENDBRANCH  69  83
ENDBRANCH  61  63
BRANCH  60  85
ATOM     85  C41 <0> d           8.125  -6.498  -4.983  0.00  0.00    -0.108 C 
ATOM     86  H57 <0> d           8.911  -7.104  -5.431  0.00  0.00     0.059 H 
ATOM     87  H58 <0> d           8.564  -5.600  -4.546  0.00  0.00     0.053 H 
ATOM     88  H59 <0> d           7.621  -7.071  -4.204  0.00  0.00     0.070 H 
ENDBRANCH  60  85
ENDBRANCH  29  60
BRANCH  31  89
ATOM     89  C31 <0> d           7.712  -4.217  -8.936  0.00  0.00    -0.151 C 
ATOM     90  H43 <0> d           8.347  -3.492  -9.447  0.00  0.00     0.062 H 
ATOM     91  H44 <0> d           7.700  -5.149  -9.501  0.00  0.00     0.065 H 
ATOM     92  H45 <0> d           6.698  -3.824  -8.863  0.00  0.00     0.066 H 
ENDBRANCH  31  89
BRANCH  33  93
ATOM     93  O7  <0> d           8.329  -6.892  -7.426  0.00  0.00    -0.511 OA
ATOM     94  H42 <0> d           7.420  -6.770  -7.730  0.00  0.00     0.352 HD
ENDBRANCH  33  93
BRANCH  38  95
ATOM     95  C28 <0> d          13.329  -5.192 -10.071  0.00  0.00    -0.077 C 
ATOM     96  H37 <0> d          14.150  -4.479 -10.146  0.00  0.00     0.076 H 
ATOM     97  H38 <0> d          13.685  -6.108  -9.599  0.00  0.00     0.073 H 
BRANCH  95  98
ATOM     98  C29 <0> d          12.811  -5.508 -11.451  0.00  0.00    -0.151 C 
ATOM     99  C30 <0> d          12.121  -4.612 -12.112  0.00  0.00    -0.186 C 
ATOM    100  H40 <0> d          11.922  -3.648 -11.668  0.00  0.00     0.094 H 
ATOM    101  H41 <0> d          11.750  -4.838 -13.101  0.00  0.00     0.097 H 
ATOM    102  H39 <0> d          13.010  -6.472 -11.896  0.00  0.00     0.112 H 
ENDBRANCH  95  98
ENDBRANCH  38  95
BRANCH  13 103
ATOM    103  O10 <0> d           8.283   2.255  -5.852  0.00  0.00    -0.538 OA
ATOM    104  H60 <0> d           7.526   2.857  -5.826  0.00  0.00     0.384 HD
ENDBRANCH  13 103
BRANCH  41 105
ATOM    105  C27 <0> d          12.628  -1.832  -9.671  0.00  0.00    -0.132 C 
ATOM    106  H34 <0> d          11.958  -2.498 -10.214  0.00  0.00     0.070 H 
ATOM    107  H35 <0> d          12.130  -0.876  -9.501  0.00  0.00     0.067 H 
ATOM    108  H36 <0> d          13.533  -1.671 -10.256  0.00  0.00     0.068 H 
ENDBRANCH  41 105
BRANCH  11 109
ATOM    109  C42 <0> d           9.017   4.281  -4.573  0.00  0.00    -0.130 C 
ATOM    110  H61 <0> d           8.701   5.129  -3.967  0.00  0.00     0.084 H 
ATOM    111  H62 <0> d          10.008   4.478  -4.984  0.00  0.00     0.057 H 
ATOM    112  H63 <0> d           8.309   4.133  -5.390  0.00  0.00     0.051 H 
ENDBRANCH  11 109
BRANCH   1 113
ATOM    113  C1  <0> d          14.484   0.711  -6.938  0.00  0.00    -0.155 C 
ATOM    114  H14 <0> d          14.962   0.123  -6.156  0.00  0.00     0.057 H 
ATOM    115  H15 <0> d          15.226   0.997  -7.683  0.00  0.00     0.057 H 
ATOM    116  H16 <0> d          14.044   1.608  -6.501  0.00  0.00     0.054 H 
ENDBRANCH   1 113
BRANCH   8 117
ATOM    117  O11 <0> d          11.650   3.991  -4.905  0.00  0.00    -0.371 OA
BRANCH 117 118
ATOM    118  C43 <0> d          12.739   4.766  -4.399  0.00  0.00     0.026 C 
ATOM    119  H64 <0> d          13.008   4.410  -3.404  0.00  0.00     0.041 H 
ATOM    120  H65 <0> d          13.597   4.665  -5.065  0.00  0.00     0.089 H 
ATOM    121  H66 <0> d          12.444   5.813  -4.343  0.00  0.00     0.042 H 
ENDBRANCH 117 118
ENDBRANCH   8 117
BRANCH   4 122
ATOM    122  O12 <0> d          11.991  -0.458  -4.810  0.00  0.00    -0.348 OA
BRANCH 122 123
ATOM    123  C44 <0> d          13.042  -0.628  -3.857  0.00  0.00     0.028 C 
ATOM    124  H67 <0> d          12.636  -1.057  -2.940  0.00  0.00     0.037 H 
ATOM    125  H68 <0> d          13.799  -1.297  -4.266  0.00  0.00     0.037 H 
ATOM    126  H69 <0> d          13.493   0.338  -3.636  0.00  0.00     0.085 H 
ENDBRANCH 122 123
ENDBRANCH   4 122
TORSDOF 18
ENDMDL
MODEL 2
REMARK VINA RESULT:      -5.9      3.743      6.485
REMARK  18 active torsions:
REMARK  status: ('A' for Active; 'I' for Inactive)
REMARK    1  A    between atoms: C1_1  and  C2_2 
REMARK    2  A    between atoms: C4_5  and  O12_69 
REMARK    3  A    between atoms: C6_9  and  O11_67 
REMARK    4  A    between atoms: C8_12  and  C42_66 
REMARK    5  A    between atoms: C9_14  and  O10_65 
REMARK    6  A    between atoms: C18_30  and  C32_50 
REMARK    7  A    between atoms: C19_32  and  C31_49 
REMARK    8  A    between atoms: C20_34  and  O7_48 
REMARK    9  A    between atoms: C23_39  and  C28_45 
REMARK   10  A    between atoms: C25_42  and  C27_44 
REMARK   11  A    between atoms: C28_45  and  C29_46 
REMARK   12  A    between atoms: C32_50  and  C41_64 
REMARK   13  A    between atoms: C33_51  and  C34_52 
REMARK   14  A    between atoms: C37_56  and  O9_63 
REMARK   15  A    between atoms: C38_58  and  O8_61 
REMARK   16  A    between atoms: O8_61  and  C40_62 
REMARK   17  A    between atoms: O11_67  and  C43_68 
REMARK   18  A    between atoms: O12_69  and  C44_70 
ROOT
ATOM      1  C2  <0> d           7.973  -0.133  -5.682  0.00  0.00    -0.092 C 
ATOM      2  H1  <0> d           8.963   0.117  -6.062  0.00  0.00     0.081 H 
ATOM      3  C3  <0> d           7.113  -0.690  -6.820  0.00  0.00    -0.114 C 
ATOM      4  C4  <0> d           5.630  -0.497  -6.485  0.00  0.00     0.095 C 
ATOM      5  H2  <0> d           5.495   0.449  -5.959  0.00  0.00     0.086 H 
ATOM      6  C5  <0> d           4.828  -0.478  -7.788  0.00  0.00     0.069 C 
ATOM      7  H3  <0> d           5.479  -0.174  -8.610  0.00  0.00     0.092 H 
ATOM      8  C6  <0> d           3.671   0.515  -7.673  0.00  0.00     0.060 C 
ATOM      9  H4  <0> d           3.555   0.819  -6.632  0.00  0.00     0.067 H 
ATOM     10  C7  <0> d           2.381  -0.143  -8.158  0.00  0.00    -0.133 C 
ATOM     11  C8  <0> d           2.619  -0.831  -9.503  0.00  0.00    -0.101 C 
ATOM     12  H5  <0> d           1.694  -1.296  -9.841  0.00  0.00     0.098 H 
ATOM     13  C9  <0> d           3.704  -1.904  -9.352  0.00  0.00     0.265 C 
ATOM     14  O1  <0> d           4.306  -1.784  -8.058  0.00  0.00    -0.330 OA
ATOM     15  C10 <0> d           3.108  -3.261  -9.557  0.00  0.00     0.360 C 
ATOM     16  O2  <0> d           2.079  -3.347 -10.185  0.00  0.00    -0.378 OA
ATOM     17  C11 <0> d           3.718  -4.507  -9.026  0.00  0.00     0.471 C 
ATOM     18  O3  <0> d           4.566  -4.452  -8.160  0.00  0.00    -0.453 OA
ATOM     19  N1  <0> d           3.325  -5.700  -9.514  0.00  0.00    -0.577 N 
ATOM     20  C12 <0> d           2.441  -5.734 -10.691  0.00  0.00     0.051 C 
ATOM     21  C13 <0> d           1.306  -6.716 -10.421  0.00  0.00    -0.131 C 
ATOM     22  C14 <0> d           1.805  -8.079  -9.977  0.00  0.00    -0.119 C 
ATOM     23  C15 <0> d           3.317  -8.126  -9.804  0.00  0.00    -0.118 C 
ATOM     24  C16 <0> d           3.769  -6.964  -8.915  0.00  0.00     0.157 C 
ATOM     25  H6  <0> d           3.326  -7.074  -7.928  0.00  0.00     0.106 H 
ATOM     26  C17 <0> d           5.268  -6.976  -8.801  0.00  0.00     0.474 C 
ATOM     27  O4  <0> d           5.945  -6.919  -9.801  0.00  0.00    -0.493 OA
ATOM     28  O5  <0> d           5.859  -7.049  -7.603  0.00  0.00    -0.336 OA
ATOM     29  C18 <0> d           7.124  -7.708  -7.527  0.00  0.00     0.138 C 
ATOM     30  H7  <0> d           7.387  -8.103  -8.509  0.00  0.00     0.087 H 
ATOM     31  C19 <0> d           8.193  -6.710  -7.075  0.00  0.00    -0.089 C 
ATOM     32  H8  <0> d           7.755  -5.714  -7.011  0.00  0.00     0.098 H 
ATOM     33  C20 <0> d           8.731  -7.121  -5.703  0.00  0.00     0.114 C 
ATOM     34  H9  <0> d           8.072  -6.737  -4.924  0.00  0.00     0.067 H 
ATOM     35  C21 <0> d          10.135  -6.542  -5.515  0.00  0.00    -0.219 C 
ATOM     36  C22 <0> d          10.132  -5.579  -4.357  0.00  0.00     0.369 C 
ATOM     37  O6  <0> d           9.796  -5.958  -3.262  0.00  0.00    -0.451 OA
ATOM     38  C23 <0> d          10.548  -4.148  -4.563  0.00  0.00    -0.098 C 
ATOM     39  H10 <0> d          10.856  -4.005  -5.599  0.00  0.00     0.099 H 
ATOM     40  C24 <0> d           9.391  -3.235  -4.254  0.00  0.00    -0.163 C 
ATOM     41  C25 <0> d           9.256  -2.102  -4.898  0.00  0.00    -0.094 C 
ATOM     42  C26 <0> d           8.101  -1.191  -4.580  0.00  0.00    -0.086 C 
ATOM     43  H17 <0> d           7.349  -0.164  -7.745  0.00  0.00     0.074 H 
ATOM     44  H18 <0> d           7.321  -1.754  -6.945  0.00  0.00     0.084 H 
ATOM     45  H19 <0> d           2.055  -0.882  -7.427  0.00  0.00     0.077 H 
ATOM     46  H20 <0> d           1.608   0.616  -8.271  0.00  0.00     0.080 H 
ATOM     47  H21 <0> d           2.032  -4.741 -10.869  0.00  0.00     0.148 H 
ATOM     48  H22 <0> d           3.007  -6.062 -11.563  0.00  0.00     0.070 H 
ATOM     49  H23 <0> d           0.664  -6.305  -9.641  0.00  0.00     0.069 H 
ATOM     50  H24 <0> d           0.718  -6.834 -11.331  0.00  0.00     0.081 H 
ATOM     51  H25 <0> d           1.335  -8.335  -9.028  0.00  0.00     0.069 H 
ATOM     52  H26 <0> d           1.513  -8.820 -10.722  0.00  0.00     0.076 H 
ATOM     53  H27 <0> d           3.599  -9.070  -9.338  0.00  0.00     0.090 H 
ATOM     54  H28 <0> d           3.797  -8.045 -10.779  0.00  0.00     0.085 H 
ATOM     55  H29 <0> d          10.838  -7.351  -5.314  0.00  0.00     0.106 H 
ATOM     56  H30 <0> d          10.436  -6.017  -6.423  0.00  0.00     0.107 H 
ATOM     57  H31 <0> d           8.667  -3.514  -3.501  0.00  0.00     0.111 H 
ATOM     58  H32 <0> d           8.275  -0.700  -3.623  0.00  0.00     0.069 H 
ATOM     59  H33 <0> d           7.182  -1.775  -4.528  0.00  0.00     0.090 H 
ENDROOT
BRANCH  29  60
ATOM     60  C32 <0> d           7.041  -8.840  -6.536  0.00  0.00    -0.039 C 
ATOM     61  C33 <0> d           6.318  -8.710  -5.451  0.00  0.00    -0.164 C 
ATOM     62  H46 <0> d           5.714  -7.826  -5.308  0.00  0.00     0.101 H 
BRANCH  61  63
ATOM     63  C34 <0> d           6.332  -9.791  -4.402  0.00  0.00    -0.045 C 
ATOM     64  H11 <0> d           6.909 -10.642  -4.765  0.00  0.00     0.079 H 
ATOM     65  C39 <0> d           6.973  -9.252  -3.121  0.00  0.00    -0.105 C 
ATOM     66  C38 <0> d           6.987 -10.349  -2.056  0.00  0.00     0.101 C 
ATOM     67  H51 <0> d           7.995  -8.935  -3.332  0.00  0.00     0.074 H 
ATOM     68  H52 <0> d           6.397  -8.400  -2.758  0.00  0.00     0.072 H 
ATOM     69  C37 <0> d           5.553 -10.792  -1.761  0.00  0.00     0.084 C 
ATOM     70  H13 <0> d           7.563 -11.201  -2.420  0.00  0.00     0.064 H 
ATOM     71  C36 <0> d           4.912 -11.332  -3.042  0.00  0.00    -0.152 C 
ATOM     72  H12 <0> d           4.976  -9.941  -1.398  0.00  0.00     0.061 H 
ATOM     73  C35 <0> d           4.898 -10.234  -4.106  0.00  0.00    -0.105 C 
ATOM     74  H49 <0> d           3.890 -11.648  -2.832  0.00  0.00     0.067 H 
ATOM     75  H50 <0> d           5.487 -12.184  -3.405  0.00  0.00     0.070 H 
ATOM     76  H47 <0> d           4.322  -9.382  -3.744  0.00  0.00     0.063 H 
ATOM     77  H48 <0> d           4.442 -10.618  -5.019  0.00  0.00     0.071 H 
BRANCH  66  78
ATOM     78  O8  <0> d           7.585  -9.846  -0.860  0.00  0.00    -0.383 OA
BRANCH  78  79
ATOM     79  C40 <0> d           8.980 -10.127  -0.744  0.00  0.00     0.031 C 
ATOM     80  H53 <0> d           9.382  -9.621   0.134  0.00  0.00     0.059 H 
ATOM     81  H54 <0> d           9.128 -11.202  -0.642  0.00  0.00     0.035 H 
ATOM     82  H55 <0> d           9.499  -9.774  -1.636  0.00  0.00     0.080 H 
ENDBRANCH  78  79
ENDBRANCH  66  78
BRANCH  69  83
ATOM     83  O9  <0> d           5.566 -11.818  -0.766  0.00  0.00    -0.566 OA
ATOM     84  H56 <0> d           6.112 -12.583  -0.996  0.00  0.00     0.377 HD
ENDBRANCH  69  83
ENDBRANCH  61  63
BRANCH  60  85
ATOM     85  C41 <0> d           7.787 -10.124  -6.795  0.00  0.00    -0.108 C 
ATOM     86  H57 <0> d           8.848  -9.973  -6.597  0.00  0.00     0.059 H 
ATOM     87  H58 <0> d           7.403 -10.905  -6.139  0.00  0.00     0.053 H 
ATOM     88  H59 <0> d           7.648 -10.422  -7.834  0.00  0.00     0.070 H 
ENDBRANCH  60  85
ENDBRANCH  29  60
BRANCH  31  89
ATOM     89  C31 <0> d           9.339  -6.698  -8.088  0.00  0.00    -0.151 C 
ATOM     90  H43 <0> d           9.561  -5.669  -8.375  0.00  0.00     0.062 H 
ATOM     91  H44 <0> d          10.225  -7.148  -7.640  0.00  0.00     0.065 H 
ATOM     92  H45 <0> d           9.050  -7.267  -8.972  0.00  0.00     0.066 H 
ENDBRANCH  31  89
BRANCH  33  93
ATOM     93  O7  <0> d           8.788  -8.547  -5.619  0.00  0.00    -0.511 OA
ATOM     94  H42 <0> d           8.934  -8.883  -4.725  0.00  0.00     0.352 HD
ENDBRANCH  33  93
BRANCH  38  95
ATOM     95  C28 <0> d          11.718  -3.819  -3.633  0.00  0.00    -0.077 C 
ATOM     96  H37 <0> d          11.741  -2.745  -3.445  0.00  0.00     0.076 H 
ATOM     97  H38 <0> d          11.594  -4.351  -2.691  0.00  0.00     0.073 H 
BRANCH  95  98
ATOM     98  C29 <0> d          13.010  -4.243  -4.283  0.00  0.00    -0.151 C 
ATOM     99  C30 <0> d          13.259  -3.909  -5.526  0.00  0.00    -0.186 C 
ATOM    100  H40 <0> d          12.537  -3.331  -6.084  0.00  0.00     0.094 H 
ATOM    101  H41 <0> d          14.184  -4.213  -5.991  0.00  0.00     0.097 H 
ATOM    102  H39 <0> d          13.731  -4.821  -3.725  0.00  0.00     0.112 H 
ENDBRANCH  95  98
ENDBRANCH  38  95
BRANCH  13 103
ATOM    103  O10 <0> d           4.712  -1.677 -10.346  0.00  0.00    -0.538 OA
ATOM    104  H60 <0> d           5.516  -2.199 -10.217  0.00  0.00     0.384 HD
ENDBRANCH  13 103
BRANCH  41 105
ATOM    105  C27 <0> d          10.262  -1.703  -5.946  0.00  0.00    -0.132 C 
ATOM    106  H34 <0> d          11.270  -1.866  -5.565  0.00  0.00     0.070 H 
ATOM    107  H35 <0> d          10.111  -2.306  -6.842  0.00  0.00     0.067 H 
ATOM    108  H36 <0> d          10.133  -0.649  -6.191  0.00  0.00     0.068 H 
ENDBRANCH  41 105
BRANCH  11 109
ATOM    109  C42 <0> d           3.071   0.208 -10.532  0.00  0.00    -0.130 C 
ATOM    110  H61 <0> d           3.152   1.183 -10.053  0.00  0.00     0.084 H 
ATOM    111  H62 <0> d           4.042  -0.080 -10.935  0.00  0.00     0.057 H 
ATOM    112  H63 <0> d           2.342   0.259 -11.341  0.00  0.00     0.051 H 
ENDBRANCH  11 109
BRANCH   1 113
ATOM    113  C1  <0> d           7.312   1.123  -5.110  0.00  0.00    -0.155 C 
ATOM    114  H14 <0> d           8.068   1.742  -4.627  0.00  0.00     0.057 H 
ATOM    115  H15 <0> d           6.842   1.685  -5.917  0.00  0.00     0.057 H 
ATOM    116  H16 <0> d           6.556   0.835  -4.379  0.00  0.00     0.054 H 
ENDBRANCH   1 113
BRANCH   8 117
ATOM    117  O11 <0> d           3.950   1.665  -8.475  0.00  0.00    -0.371 OA
BRANCH 117 118
ATOM    118  C43 <0> d           5.317   1.775  -8.877  0.00  0.00     0.026 C 
ATOM    119  H64 <0> d           5.459   2.703  -9.431  0.00  0.00     0.041 H 
ATOM    120  H65 <0> d           5.956   1.778  -7.993  0.00  0.00     0.089 H 
ATOM    121  H66 <0> d           5.578   0.929  -9.511  0.00  0.00     0.042 H 
ENDBRANCH 117 118
ENDBRANCH   8 117
BRANCH   4 122
ATOM    122  O12 <0> d           5.180  -1.573  -5.659  0.00  0.00    -0.348 OA
BRANCH 122 123
ATOM    123  C44 <0> d           4.381  -1.160  -4.549  0.00  0.00     0.028 C 
ATOM    124  H67 <0> d           3.766  -1.995  -4.213  0.00  0.00     0.037 H 
ATOM    125  H68 <0> d           5.030  -0.836  -3.735  0.00  0.00     0.037 H 
ATOM    126  H69 <0> d           3.737  -0.334  -4.851  0.00  0.00     0.085 H 
ENDBRANCH 122 123
ENDBRANCH   4 122
TORSDOF 18
ENDMDL
MODEL 3
REMARK VINA RESULT:      -5.8      3.645      9.976
REMARK  18 active torsions:
REMARK  status: ('A' for Active; 'I' for Inactive)
REMARK    1  A    between atoms: C1_1  and  C2_2 
REMARK    2  A    between atoms: C4_5  and  O12_69 
REMARK    3  A    between atoms: C6_9  and  O11_67 
REMARK    4  A    between atoms: C8_12  and  C42_66 
REMARK    5  A    between atoms: C9_14  and  O10_65 
REMARK    6  A    between atoms: C18_30  and  C32_50 
REMARK    7  A    between atoms: C19_32  and  C31_49 
REMARK    8  A    between atoms: C20_34  and  O7_48 
REMARK    9  A    between atoms: C23_39  and  C28_45 
REMARK   10  A    between atoms: C25_42  and  C27_44 
REMARK   11  A    between atoms: C28_45  and  C29_46 
REMARK   12  A    between atoms: C32_50  and  C41_64 
REMARK   13  A    between atoms: C33_51  and  C34_52 
REMARK   14  A    between atoms: C37_56  and  O9_63 
REMARK   15  A    between atoms: C38_58  and  O8_61 
REMARK   16  A    between atoms: O8_61  and  C40_62 
REMARK   17  A    between atoms: O11_67  and  C43_68 
REMARK   18  A    between atoms: O12_69  and  C44_70 
ROOT
ATOM      1  C2  <0> d           7.174  -8.057  -7.630  0.00  0.00    -0.092 C 
ATOM      2  H1  <0> d           6.953  -8.683  -6.767  0.00  0.00     0.081 H 
ATOM      3  C3  <0> d           5.951  -7.198  -7.966  0.00  0.00    -0.114 C 
ATOM      4  C4  <0> d           6.007  -6.778  -9.439  0.00  0.00     0.095 C 
ATOM      5  H2  <0> d           6.425  -7.591 -10.034  0.00  0.00     0.086 H 
ATOM      6  C5  <0> d           4.587  -6.469  -9.920  0.00  0.00     0.069 C 
ATOM      7  H3  <0> d           3.869  -7.007  -9.297  0.00  0.00     0.092 H 
ATOM      8  C6  <0> d           4.421  -6.913 -11.373  0.00  0.00     0.060 C 
ATOM      9  H4  <0> d           5.399  -7.147 -11.796  0.00  0.00     0.067 H 
ATOM     10  C7  <0> d           3.773  -5.790 -12.180  0.00  0.00    -0.133 C 
ATOM     11  C8  <0> d           2.548  -5.252 -11.438  0.00  0.00    -0.101 C 
ATOM     12  H5  <0> d           2.093  -4.453 -12.022  0.00  0.00     0.098 H 
ATOM     13  C9  <0> d           2.970  -4.707 -10.068  0.00  0.00     0.265 C 
ATOM     14  O1  <0> d           4.335  -5.063  -9.821  0.00  0.00    -0.330 OA
ATOM     15  C10 <0> d           2.772  -3.225 -10.029  0.00  0.00     0.360 C 
ATOM     16  O2  <0> d           1.984  -2.730 -10.800  0.00  0.00    -0.378 OA
ATOM     17  C11 <0> d           3.498  -2.331  -9.090  0.00  0.00     0.471 C 
ATOM     18  O3  <0> d           4.492  -2.726  -8.515  0.00  0.00    -0.453 OA
ATOM     19  N1  <0> d           3.046  -1.079  -8.880  0.00  0.00    -0.577 N 
ATOM     20  C12 <0> d           1.740  -0.689  -9.436  0.00  0.00     0.051 C 
ATOM     21  C13 <0> d           1.886   0.666 -10.120  0.00  0.00    -0.131 C 
ATOM     22  C14 <0> d           2.516   1.711  -9.218  0.00  0.00    -0.119 C 
ATOM     23  C15 <0> d           2.953   1.145  -7.874  0.00  0.00    -0.118 C 
ATOM     24  C16 <0> d           3.811  -0.103  -8.096  0.00  0.00     0.157 C 
ATOM     25  H6  <0> d           4.712   0.174  -8.639  0.00  0.00     0.106 H 
ATOM     26  C17 <0> d           4.184  -0.695  -6.765  0.00  0.00     0.474 C 
ATOM     27  O4  <0> d           3.316  -1.018  -5.989  0.00  0.00    -0.493 OA
ATOM     28  O5  <0> d           5.469  -0.870  -6.434  0.00  0.00    -0.336 OA
ATOM     29  C18 <0> d           5.815  -0.776  -5.052  0.00  0.00     0.138 C 
ATOM     30  H7  <0> d           4.928  -0.518  -4.473  0.00  0.00     0.087 H 
ATOM     31  C19 <0> d           6.365  -2.121  -4.571  0.00  0.00    -0.089 C 
ATOM     32  H8  <0> d           6.274  -2.857  -5.370  0.00  0.00     0.098 H 
ATOM     33  C20 <0> d           7.839  -1.965  -4.187  0.00  0.00     0.114 C 
ATOM     34  H9  <0> d           8.458  -2.054  -5.080  0.00  0.00     0.067 H 
ATOM     35  C21 <0> d           8.220  -3.061  -3.190  0.00  0.00    -0.219 C 
ATOM     36  C22 <0> d           9.280  -3.944  -3.793  0.00  0.00     0.369 C 
ATOM     37  O6  <0> d          10.327  -3.465  -4.156  0.00  0.00    -0.451 OA
ATOM     38  C23 <0> d           9.038  -5.421  -3.945  0.00  0.00    -0.098 C 
ATOM     39  H10 <0> d           8.063  -5.673  -3.527  0.00  0.00     0.099 H 
ATOM     40  C24 <0> d           9.067  -5.792  -5.405  0.00  0.00    -0.163 C 
ATOM     41  C25 <0> d           8.322  -6.773  -5.850  0.00  0.00    -0.094 C 
ATOM     42  C26 <0> d           8.361  -7.143  -7.308  0.00  0.00    -0.086 C 
ATOM     43  H17 <0> d           5.043  -7.772  -7.785  0.00  0.00     0.074 H 
ATOM     44  H18 <0> d           5.948  -6.307  -7.335  0.00  0.00     0.084 H 
ATOM     45  H19 <0> d           4.492  -4.984 -12.321  0.00  0.00     0.077 H 
ATOM     46  H20 <0> d           3.467  -6.173 -13.153  0.00  0.00     0.080 H 
ATOM     47  H21 <0> d           1.415  -1.433 -10.162  0.00  0.00     0.148 H 
ATOM     48  H22 <0> d           1.009  -0.614  -8.631  0.00  0.00     0.070 H 
ATOM     49  H23 <0> d           2.507   0.546 -11.009  0.00  0.00     0.069 H 
ATOM     50  H24 <0> d           0.899   1.013 -10.428  0.00  0.00     0.081 H 
ATOM     51  H25 <0> d           3.386   2.132  -9.721  0.00  0.00     0.069 H 
ATOM     52  H26 <0> d           1.793   2.509  -9.046  0.00  0.00     0.076 H 
ATOM     53  H27 <0> d           3.534   1.895  -7.337  0.00  0.00     0.090 H 
ATOM     54  H28 <0> d           2.072   0.881  -7.288  0.00  0.00     0.085 H 
ATOM     55  H29 <0> d           8.604  -2.604  -2.277  0.00  0.00     0.106 H 
ATOM     56  H30 <0> d           7.340  -3.660  -2.953  0.00  0.00     0.107 H 
ATOM     57  H31 <0> d           9.703  -5.247  -6.089  0.00  0.00     0.111 H 
ATOM     58  H32 <0> d           9.292  -7.665  -7.528  0.00  0.00     0.069 H 
ATOM     59  H33 <0> d           8.299  -6.238  -7.913  0.00  0.00     0.090 H 
ENDROOT
BRANCH  29  60
ATOM     60  C32 <0> d           6.863   0.291  -4.869  0.00  0.00    -0.039 C 
ATOM     61  C33 <0> d           7.737   0.521  -5.818  0.00  0.00    -0.164 C 
ATOM     62  H46 <0> d           7.654   0.008  -6.764  0.00  0.00     0.101 H 
BRANCH  61  63
ATOM     63  C34 <0> d           8.859   1.501  -5.588  0.00  0.00    -0.045 C 
ATOM     64  H11 <0> d           8.714   2.000  -4.630  0.00  0.00     0.079 H 
ATOM     65  C39 <0> d          10.194   0.753  -5.575  0.00  0.00    -0.105 C 
ATOM     66  C38 <0> d          11.333   1.747  -5.343  0.00  0.00     0.101 C 
ATOM     67  H51 <0> d          10.188   0.012  -4.776  0.00  0.00     0.074 H 
ATOM     68  H52 <0> d          10.339   0.253  -6.533  0.00  0.00     0.072 H 
ATOM     69  C37 <0> d          11.340   2.787  -6.465  0.00  0.00     0.084 C 
ATOM     70  H13 <0> d          11.188   2.248  -4.384  0.00  0.00     0.064 H 
ATOM     71  C36 <0> d          10.005   3.534  -6.476  0.00  0.00    -0.152 C 
ATOM     72  H12 <0> d          11.485   2.287  -7.423  0.00  0.00     0.061 H 
ATOM     73  C35 <0> d           8.867   2.540  -6.711  0.00  0.00    -0.105 C 
ATOM     74  H49 <0> d          10.011   4.275  -7.277  0.00  0.00     0.067 H 
ATOM     75  H50 <0> d           9.860   4.035  -5.519  0.00  0.00     0.070 H 
ATOM     76  H47 <0> d           9.011   2.039  -7.668  0.00  0.00     0.063 H 
ATOM     77  H48 <0> d           7.916   3.072  -6.719  0.00  0.00     0.071 H 
BRANCH  66  78
ATOM     78  O8  <0> d          12.580   1.050  -5.331  0.00  0.00    -0.383 OA
BRANCH  78  79
ATOM     79  C40 <0> d          12.917   0.482  -4.065  0.00  0.00     0.031 C 
ATOM     80  H53 <0> d          12.557   1.132  -3.267  0.00  0.00     0.059 H 
ATOM     81  H54 <0> d          12.452  -0.499  -3.971  0.00  0.00     0.035 H 
ATOM     82  H55 <0> d          14.000   0.379  -3.988  0.00  0.00     0.080 H 
ENDBRANCH  78  79
ENDBRANCH  66  78
BRANCH  69  83
ATOM     83  O9  <0> d          12.404   3.716  -6.247  0.00  0.00    -0.566 OA
ATOM     84  H56 <0> d          13.061   3.418  -5.602  0.00  0.00     0.377 HD
ENDBRANCH  69  83
ENDBRANCH  61  63
BRANCH  60  85
ATOM     85  C41 <0> d           6.904   1.095  -3.595  0.00  0.00    -0.108 C 
ATOM     86  H57 <0> d           7.165   2.128  -3.826  0.00  0.00     0.059 H 
ATOM     87  H58 <0> d           5.925   1.067  -3.116  0.00  0.00     0.053 H 
ATOM     88  H59 <0> d           7.650   0.672  -2.922  0.00  0.00     0.070 H 
ENDBRANCH  60  85
ENDBRANCH  29  60
BRANCH  31  89
ATOM     89  C31 <0> d           5.569  -2.591  -3.352  0.00  0.00    -0.151 C 
ATOM     90  H43 <0> d           6.253  -3.000  -2.607  0.00  0.00     0.062 H 
ATOM     91  H44 <0> d           5.029  -1.747  -2.923  0.00  0.00     0.065 H 
ATOM     92  H45 <0> d           4.859  -3.361  -3.656  0.00  0.00     0.066 H 
ENDBRANCH  31  89
BRANCH  33  93
ATOM     93  O7  <0> d           8.043  -0.683  -3.590  0.00  0.00    -0.511 OA
ATOM     94  H42 <0> d           8.185  -0.713  -2.634  0.00  0.00     0.352 HD
ENDBRANCH  33  93
BRANCH  38  95
ATOM     95  C28 <0> d          10.127  -6.196  -3.201  0.00  0.00    -0.077 C 
ATOM     96  H37 <0> d          10.517  -6.983  -3.846  0.00  0.00     0.076 H 
ATOM     97  H38 <0> d          10.933  -5.516  -2.927  0.00  0.00     0.073 H 
BRANCH  95  98
ATOM     98  C29 <0> d           9.543  -6.811  -1.955  0.00  0.00    -0.151 C 
ATOM     99  C30 <0> d           9.439  -8.113  -1.854  0.00  0.00    -0.186 C 
ATOM    100  H40 <0> d           9.771  -8.745  -2.664  0.00  0.00     0.094 H 
ATOM    101  H41 <0> d           9.021  -8.553  -0.961  0.00  0.00     0.097 H 
ATOM    102  H39 <0> d           9.212  -6.179  -1.144  0.00  0.00     0.112 H 
ENDBRANCH  95  98
ENDBRANCH  38  95
BRANCH  13 103
ATOM    103  O10 <0> d           2.151  -5.318  -9.062  0.00  0.00    -0.538 OA
ATOM    104  H60 <0> d           2.204  -6.283  -9.044  0.00  0.00     0.384 HD
ENDBRANCH  13 103
BRANCH  41 105
ATOM    105  C27 <0> d           7.436  -7.541  -4.903  0.00  0.00    -0.132 C 
ATOM    106  H34 <0> d           7.963  -8.427  -4.549  0.00  0.00     0.070 H 
ATOM    107  H35 <0> d           7.179  -6.908  -4.053  0.00  0.00     0.067 H 
ATOM    108  H36 <0> d           6.525  -7.841  -5.421  0.00  0.00     0.068 H 
ENDBRANCH  41 105
BRANCH  11 109
ATOM    109  C42 <0> d           1.535  -6.382 -11.245  0.00  0.00    -0.130 C 
ATOM    110  H61 <0> d           0.956  -6.202 -10.340  0.00  0.00     0.084 H 
ATOM    111  H62 <0> d           0.863  -6.418 -12.103  0.00  0.00     0.057 H 
ATOM    112  H63 <0> d           2.062  -7.333 -11.157  0.00  0.00     0.051 H 
ENDBRANCH  11 109
BRANCH   1 113
ATOM    113  C1  <0> d           7.521  -8.942  -8.829  0.00  0.00    -0.155 C 
ATOM    114  H14 <0> d           7.300  -8.406  -9.752  0.00  0.00     0.057 H 
ATOM    115  H15 <0> d           8.581  -9.194  -8.799  0.00  0.00     0.057 H 
ATOM    116  H16 <0> d           6.928  -9.857  -8.789  0.00  0.00     0.054 H 
ENDBRANCH   1 113
BRANCH   8 117
ATOM    117  O11 <0> d           3.591  -8.076 -11.423  0.00  0.00    -0.371 OA
BRANCH 117 118
ATOM    118  C43 <0> d           4.308  -9.292 -11.647  0.00  0.00     0.026 C 
ATOM    119  H64 <0> d           3.687  -9.977 -12.226  0.00  0.00     0.041 H 
ATOM    120  H65 <0> d           5.224  -9.077 -12.199  0.00  0.00     0.089 H 
ATOM    121  H66 <0> d           4.558  -9.747 -10.690  0.00  0.00     0.042 H 
ENDBRANCH 117 118
ENDBRANCH   8 117
BRANCH   4 122
ATOM    122  O12 <0> d           6.825  -5.615  -9.577  0.00  0.00    -0.348 OA
BRANCH 122 123
ATOM    123  C44 <0> d           7.755  -5.681 -10.660  0.00  0.00     0.028 C 
ATOM    124  H67 <0> d           7.222  -5.917 -11.582  0.00  0.00     0.037 H 
ATOM    125  H68 <0> d           8.256  -4.719 -10.767  0.00  0.00     0.037 H 
ATOM    126  H69 <0> d           8.494  -6.455 -10.459  0.00  0.00     0.085 H 
ENDBRANCH 122 123
ENDBRANCH   4 122
TORSDOF 18
ENDMDL
MODEL 4
REMARK VINA RESULT:      -5.7      1.414      1.882
REMARK  18 active torsions:
REMARK  status: ('A' for Active; 'I' for Inactive)
REMARK    1  A    between atoms: C1_1  and  C2_2 
REMARK    2  A    between atoms: C4_5  and  O12_69 
REMARK    3  A    between atoms: C6_9  and  O11_67 
REMARK    4  A    between atoms: C8_12  and  C42_66 
REMARK    5  A    between atoms: C9_14  and  O10_65 
REMARK    6  A    between atoms: C18_30  and  C32_50 
REMARK    7  A    between atoms: C19_32  and  C31_49 
REMARK    8  A    between atoms: C20_34  and  O7_48 
REMARK    9  A    between atoms: C23_39  and  C28_45 
REMARK   10  A    between atoms: C25_42  and  C27_44 
REMARK   11  A    between atoms: C28_45  and  C29_46 
REMARK   12  A    between atoms: C32_50  and  C41_64 
REMARK   13  A    between atoms: C33_51  and  C34_52 
REMARK   14  A    between atoms: C37_56  and  O9_63 
REMARK   15  A    between atoms: C38_58  and  O8_61 
REMARK   16  A    between atoms: O8_61  and  C40_62 
REMARK   17  A    between atoms: O11_67  and  C43_68 
REMARK   18  A    between atoms: O12_69  and  C44_70 
ROOT
ATOM      1  C2  <0> d          12.588  -0.375  -8.443  0.00  0.00    -0.092 C 
ATOM      2  H1  <0> d          12.544  -0.120  -9.501  0.00  0.00     0.081 H 
ATOM      3  C3  <0> d          11.361   0.197  -7.727  0.00  0.00    -0.114 C 
ATOM      4  C4  <0> d          11.672   0.371  -6.236  0.00  0.00     0.095 C 
ATOM      5  H2  <0> d          12.710   0.681  -6.113  0.00  0.00     0.086 H 
ATOM      6  C5  <0> d          10.745   1.445  -5.660  0.00  0.00     0.069 C 
ATOM      7  H3  <0> d          10.418   2.109  -6.463  0.00  0.00     0.092 H 
ATOM      8  C6  <0> d          11.490   2.263  -4.606  0.00  0.00     0.060 C 
ATOM      9  H4  <0> d          12.427   1.766  -4.354  0.00  0.00     0.067 H 
ATOM     10  C7  <0> d          10.626   2.388  -3.352  0.00  0.00    -0.133 C 
ATOM     11  C8  <0> d           9.207   2.811  -3.733  0.00  0.00    -0.101 C 
ATOM     12  H5  <0> d           8.600   2.898  -2.833  0.00  0.00     0.098 H 
ATOM     13  C9  <0> d           8.588   1.764  -4.667  0.00  0.00     0.265 C 
ATOM     14  O1  <0> d           9.599   0.829  -5.061  0.00  0.00    -0.330 OA
ATOM     15  C10 <0> d           7.448   1.082  -3.979  0.00  0.00     0.360 C 
ATOM     16  O2  <0> d           6.906   1.652  -3.062  0.00  0.00    -0.378 OA
ATOM     17  C11 <0> d           6.949  -0.263  -4.368  0.00  0.00     0.471 C 
ATOM     18  O3  <0> d           7.627  -0.988  -5.066  0.00  0.00    -0.453 OA
ATOM     19  N1  <0> d           5.738  -0.672  -3.941  0.00  0.00    -0.577 N 
ATOM     20  C12 <0> d           4.858   0.292  -3.260  0.00  0.00     0.051 C 
ATOM     21  C13 <0> d           4.295  -0.363  -2.004  0.00  0.00    -0.131 C 
ATOM     22  C14 <0> d           3.647  -1.707  -2.286  0.00  0.00    -0.119 C 
ATOM     23  C15 <0> d           3.796  -2.141  -3.738  0.00  0.00    -0.118 C 
ATOM     24  C16 <0> d           5.267  -2.045  -4.154  0.00  0.00     0.157 C 
ATOM     25  H6  <0> d           5.857  -2.730  -3.549  0.00  0.00     0.106 H 
ATOM     26  C17 <0> d           5.399  -2.411  -5.606  0.00  0.00     0.474 C 
ATOM     27  O4  <0> d           4.773  -1.797  -6.438  0.00  0.00    -0.493 OA
ATOM     28  O5  <0> d           6.206  -3.409  -5.986  0.00  0.00    -0.336 OA
ATOM     29  C18 <0> d           5.838  -4.152  -7.150  0.00  0.00     0.138 C 
ATOM     30  H7  <0> d           4.883  -3.786  -7.526  0.00  0.00     0.087 H 
ATOM     31  C19 <0> d           6.912  -3.977  -8.226  0.00  0.00    -0.089 C 
ATOM     32  H8  <0> d           7.653  -3.254  -7.885  0.00  0.00     0.098 H 
ATOM     33  C20 <0> d           7.595  -5.322  -8.491  0.00  0.00     0.114 C 
ATOM     34  H9  <0> d           8.385  -5.479  -7.757  0.00  0.00     0.067 H 
ATOM     35  C21 <0> d           8.199  -5.313  -9.897  0.00  0.00    -0.219 C 
ATOM     36  C22 <0> d           9.695  -5.459  -9.804  0.00  0.00     0.369 C 
ATOM     37  O6  <0> d          10.172  -6.424  -9.259  0.00  0.00    -0.451 OA
ATOM     38  C23 <0> d          10.596  -4.405 -10.389  0.00  0.00    -0.098 C 
ATOM     39  H10 <0> d           9.990  -3.638 -10.873  0.00  0.00     0.099 H 
ATOM     40  C24 <0> d          11.417  -3.776  -9.293  0.00  0.00    -0.163 C 
ATOM     41  C25 <0> d          11.775  -2.519  -9.379  0.00  0.00    -0.094 C 
ATOM     42  C26 <0> d          12.602  -1.899  -8.285  0.00  0.00    -0.086 C 
ATOM     43  H17 <0> d          11.105   1.164  -8.161  0.00  0.00     0.074 H 
ATOM     44  H18 <0> d          10.520  -0.488  -7.845  0.00  0.00     0.084 H 
ATOM     45  H19 <0> d          10.592   1.427  -2.839  0.00  0.00     0.077 H 
ATOM     46  H20 <0> d          11.060   3.135  -2.687  0.00  0.00     0.080 H 
ATOM     47  H21 <0> d           5.429   1.178  -2.986  0.00  0.00     0.148 H 
ATOM     48  H22 <0> d           4.039   0.571  -3.924  0.00  0.00     0.070 H 
ATOM     49  H23 <0> d           5.105  -0.507  -1.288  0.00  0.00     0.069 H 
ATOM     50  H24 <0> d           3.552   0.301  -1.562  0.00  0.00     0.081 H 
ATOM     51  H25 <0> d           4.104  -2.460  -1.645  0.00  0.00     0.069 H 
ATOM     52  H26 <0> d           2.585  -1.642  -2.045  0.00  0.00     0.076 H 
ATOM     53  H27 <0> d           3.455  -3.171  -3.845  0.00  0.00     0.090 H 
ATOM     54  H28 <0> d           3.195  -1.492  -4.374  0.00  0.00     0.085 H 
ATOM     55  H29 <0> d           7.788  -6.142 -10.474  0.00  0.00     0.106 H 
ATOM     56  H30 <0> d           7.956  -4.372 -10.392  0.00  0.00     0.107 H 
ATOM     57  H31 <0> d          11.711  -4.361  -8.434  0.00  0.00     0.111 H 
ATOM     58  H32 <0> d          13.627  -2.262  -8.350  0.00  0.00     0.069 H 
ATOM     59  H33 <0> d          12.181  -2.168  -7.316  0.00  0.00     0.090 H 
ENDROOT
BRANCH  29  60
ATOM     60  C32 <0> d           5.713  -5.610  -6.795  0.00  0.00    -0.039 C 
ATOM     61  C33 <0> d           6.432  -6.112  -5.821  0.00  0.00    -0.164 C 
ATOM     62  H46 <0> d           7.050  -5.465  -5.217  0.00  0.00     0.101 H 
BRANCH  61  63
ATOM     63  C34 <0> d           6.399  -7.593  -5.546  0.00  0.00    -0.045 C 
ATOM     64  H11 <0> d           6.543  -8.140  -6.478  0.00  0.00     0.079 H 
ATOM     65  C39 <0> d           7.517  -7.956  -4.566  0.00  0.00    -0.105 C 
ATOM     66  C38 <0> d           7.483  -9.459  -4.287  0.00  0.00     0.101 C 
ATOM     67  H51 <0> d           8.481  -7.688  -5.000  0.00  0.00     0.074 H 
ATOM     68  H52 <0> d           7.374  -7.409  -3.634  0.00  0.00     0.072 H 
ATOM     69  C37 <0> d           6.131  -9.835  -3.679  0.00  0.00     0.084 C 
ATOM     70  H13 <0> d           7.626 -10.006  -5.220  0.00  0.00     0.064 H 
ATOM     71  C36 <0> d           5.013  -9.473  -4.659  0.00  0.00    -0.152 C 
ATOM     72  H12 <0> d           5.987  -9.289  -2.746  0.00  0.00     0.061 H 
ATOM     73  C35 <0> d           5.046  -7.969  -4.937  0.00  0.00    -0.105 C 
ATOM     74  H49 <0> d           4.049  -9.741  -4.225  0.00  0.00     0.067 H 
ATOM     75  H50 <0> d           5.156 -10.019  -5.591  0.00  0.00     0.070 H 
ATOM     76  H47 <0> d           4.903  -7.423  -4.005  0.00  0.00     0.063 H 
ATOM     77  H48 <0> d           4.250  -7.712  -5.636  0.00  0.00     0.071 H 
BRANCH  66  78
ATOM     78  O8  <0> d           8.527  -9.798  -3.372  0.00  0.00    -0.383 OA
BRANCH  78  79
ATOM     79  C40 <0> d           8.600  -8.944  -2.229  0.00  0.00     0.031 C 
ATOM     80  H53 <0> d           9.206  -8.070  -2.467  0.00  0.00     0.059 H 
ATOM     81  H54 <0> d           7.596  -8.624  -1.950  0.00  0.00     0.035 H 
ATOM     82  H55 <0> d           9.053  -9.485  -1.398  0.00  0.00     0.080 H 
ENDBRANCH  78  79
ENDBRANCH  66  78
BRANCH  69  83
ATOM     83  O9  <0> d           6.099 -11.240  -3.418  0.00  0.00    -0.566 OA
ATOM     84  H56 <0> d           6.058 -11.465  -2.478  0.00  0.00     0.377 HD
ENDBRANCH  69  83
ENDBRANCH  61  63
BRANCH  60  85
ATOM     85  C41 <0> d           4.758  -6.492  -7.558  0.00  0.00    -0.108 C 
ATOM     86  H57 <0> d           4.460  -5.992  -8.479  0.00  0.00     0.059 H 
ATOM     87  H58 <0> d           5.248  -7.435  -7.799  0.00  0.00     0.053 H 
ATOM     88  H59 <0> d           3.876  -6.687  -6.947  0.00  0.00     0.070 H 
ENDBRANCH  60  85
ENDBRANCH  29  60
BRANCH  31  89
ATOM     89  C31 <0> d           6.264  -3.473  -9.516  0.00  0.00    -0.151 C 
ATOM     90  H43 <0> d           5.721  -2.549  -9.314  0.00  0.00     0.062 H 
ATOM     91  H44 <0> d           7.036  -3.285 -10.262  0.00  0.00     0.065 H 
ATOM     92  H45 <0> d           5.570  -4.226  -9.893  0.00  0.00     0.066 H 
ENDBRANCH  31  89
BRANCH  33  93
ATOM     93  O7  <0> d           6.633  -6.374  -8.391  0.00  0.00    -0.511 OA
ATOM     94  H42 <0> d           6.954  -7.230  -8.703  0.00  0.00     0.352 HD
ENDBRANCH  33  93
BRANCH  38  95
ATOM     95  C28 <0> d          11.526  -5.045 -11.420  0.00  0.00    -0.077 C 
ATOM     96  H37 <0> d          12.434  -4.448 -11.510  0.00  0.00     0.076 H 
ATOM     97  H38 <0> d          11.785  -6.053 -11.099  0.00  0.00     0.073 H 
BRANCH  95  98
ATOM     98  C29 <0> d          10.830  -5.105 -12.755  0.00  0.00    -0.151 C 
ATOM     99  C30 <0> d          10.209  -4.049 -13.218  0.00  0.00    -0.186 C 
ATOM    100  H40 <0> d          10.195  -3.135 -12.642  0.00  0.00     0.094 H 
ATOM    101  H41 <0> d           9.710  -4.093 -14.175  0.00  0.00     0.097 H 
ATOM    102  H39 <0> d          10.845  -6.019 -13.331  0.00  0.00     0.112 H 
ENDBRANCH  95  98
ENDBRANCH  38  95
BRANCH  13 103
ATOM    103  O10 <0> d           8.100   2.429  -5.840  0.00  0.00    -0.538 OA
ATOM    104  H60 <0> d           8.761   2.526  -6.540  0.00  0.00     0.384 HD
ENDBRANCH  13 103
BRANCH  41 105
ATOM    105  C27 <0> d          11.374  -1.697 -10.576  0.00  0.00    -0.132 C 
ATOM    106  H34 <0> d          10.464  -1.142 -10.348  0.00  0.00     0.070 H 
ATOM    107  H35 <0> d          12.174  -0.996 -10.819  0.00  0.00     0.067 H 
ATOM    108  H36 <0> d          11.196  -2.355 -11.426  0.00  0.00     0.068 H 
ENDBRANCH  41 105
BRANCH  11 109
ATOM    109  C42 <0> d           9.255   4.163  -4.447  0.00  0.00    -0.130 C 
ATOM    110  H61 <0> d           9.384   4.006  -5.518  0.00  0.00     0.084 H 
ATOM    111  H62 <0> d           8.323   4.701  -4.269  0.00  0.00     0.057 H 
ATOM    112  H63 <0> d          10.090   4.749  -4.062  0.00  0.00     0.051 H 
ENDBRANCH  11 109
BRANCH   1 113
ATOM    113  C1  <0> d          13.859   0.214  -7.827  0.00  0.00    -0.155 C 
ATOM    114  H14 <0> d          14.347   0.864  -8.554  0.00  0.00     0.057 H 
ATOM    115  H15 <0> d          13.600   0.791  -6.940  0.00  0.00     0.057 H 
ATOM    116  H16 <0> d          14.537  -0.594  -7.550  0.00  0.00     0.054 H 
ENDBRANCH   1 113
BRANCH   8 117
ATOM    117  O11 <0> d          11.767   3.566  -5.124  0.00  0.00    -0.371 OA
BRANCH 117 118
ATOM    118  C43 <0> d          13.013   4.113  -4.685  0.00  0.00     0.026 C 
ATOM    119  H64 <0> d          13.469   4.677  -5.499  0.00  0.00     0.041 H 
ATOM    120  H65 <0> d          12.840   4.775  -3.836  0.00  0.00     0.089 H 
ATOM    121  H66 <0> d          13.678   3.304  -4.385  0.00  0.00     0.042 H 
ENDBRANCH 117 118
ENDBRANCH   8 117
BRANCH   4 122
ATOM    122  O12 <0> d          11.457  -0.866  -5.553  0.00  0.00    -0.348 OA
BRANCH 122 123
ATOM    123  C44 <0> d          12.480  -1.197  -4.612  0.00  0.00     0.028 C 
ATOM    124  H67 <0> d          13.453  -0.928  -5.024  0.00  0.00     0.037 H 
ATOM    125  H68 <0> d          12.313  -0.647  -3.686  0.00  0.00     0.037 H 
ATOM    126  H69 <0> d          12.455  -2.267  -4.409  0.00  0.00     0.085 H 
ENDBRANCH 122 123
ENDBRANCH   4 122
TORSDOF 18
ENDMDL
MODEL 5
REMARK VINA RESULT:      -5.6      3.840      8.958
REMARK  18 active torsions:
REMARK  status: ('A' for Active; 'I' for Inactive)
REMARK    1  A    between atoms: C1_1  and  C2_2 
REMARK    2  A    between atoms: C4_5  and  O12_69 
REMARK    3  A    between atoms: C6_9  and  O11_67 
REMARK    4  A    between atoms: C8_12  and  C42_66 
REMARK    5  A    between atoms: C9_14  and  O10_65 
REMARK    6  A    between atoms: C18_30  and  C32_50 
REMARK    7  A    between atoms: C19_32  and  C31_49 
REMARK    8  A    between atoms: C20_34  and  O7_48 
REMARK    9  A    between atoms: C23_39  and  C28_45 
REMARK   10  A    between atoms: C25_42  and  C27_44 
REMARK   11  A    between atoms: C28_45  and  C29_46 
REMARK   12  A    between atoms: C32_50  and  C41_64 
REMARK   13  A    between atoms: C33_51  and  C34_52 
REMARK   14  A    between atoms: C37_56  and  O9_63 
REMARK   15  A    between atoms: C38_58  and  O8_61 
REMARK   16  A    between atoms: O8_61  and  C40_62 
REMARK   17  A    between atoms: O11_67  and  C43_68 
REMARK   18  A    between atoms: O12_69  and  C44_70 
ROOT
ATOM      1  C2  <0> d           3.619  -4.829  -8.363  0.00  0.00    -0.092 C 
ATOM      2  H1  <0> d           3.015  -5.153  -7.516  0.00  0.00     0.081 H 
ATOM      3  C3  <0> d           4.027  -3.366  -8.171  0.00  0.00    -0.114 C 
ATOM      4  C4  <0> d           4.342  -2.738  -9.533  0.00  0.00     0.095 C 
ATOM      5  H2  <0> d           3.663  -3.139 -10.286  0.00  0.00     0.086 H 
ATOM      6  C5  <0> d           4.157  -1.222  -9.433  0.00  0.00     0.069 C 
ATOM      7  H3  <0> d           3.464  -0.994  -8.620  0.00  0.00     0.092 H 
ATOM      8  C6  <0> d           3.586  -0.679 -10.743  0.00  0.00     0.060 C 
ATOM      9  H4  <0> d           3.643  -1.451 -11.511  0.00  0.00     0.067 H 
ATOM     10  C7  <0> d           4.393   0.540 -11.186  0.00  0.00    -0.133 C 
ATOM     11  C8  <0> d           4.568   1.506 -10.014  0.00  0.00    -0.101 C 
ATOM     12  H5  <0> d           5.143   2.372 -10.340  0.00  0.00     0.098 H 
ATOM     13  C9  <0> d           5.309   0.803  -8.870  0.00  0.00     0.265 C 
ATOM     14  O1  <0> d           5.417  -0.594  -9.168  0.00  0.00    -0.330 OA
ATOM     15  C10 <0> d           6.654   1.429  -8.676  0.00  0.00     0.360 C 
ATOM     16  O2  <0> d           6.823   2.559  -9.069  0.00  0.00    -0.378 OA
ATOM     17  C11 <0> d           7.792   0.729  -8.024  0.00  0.00     0.471 C 
ATOM     18  O3  <0> d           7.768  -0.476  -7.883  0.00  0.00    -0.453 OA
ATOM     19  N1  <0> d           8.850   1.442  -7.591  0.00  0.00    -0.577 N 
ATOM     20  C12 <0> d           8.772   2.912  -7.599  0.00  0.00     0.051 C 
ATOM     21  C13 <0> d          10.055   3.465  -8.210  0.00  0.00    -0.131 C 
ATOM     22  C14 <0> d          11.303   2.911  -7.549  0.00  0.00    -0.119 C 
ATOM     23  C15 <0> d          10.995   1.854  -6.497  0.00  0.00    -0.118 C 
ATOM     24  C16 <0> d          10.067   0.791  -7.093  0.00  0.00     0.157 C 
ATOM     25  H6  <0> d          10.575   0.293  -7.915  0.00  0.00     0.106 H 
ATOM     26  C17 <0> d           9.713  -0.213  -6.032  0.00  0.00     0.474 C 
ATOM     27  O4  <0> d           9.188   0.157  -5.008  0.00  0.00    -0.493 OA
ATOM     28  O5  <0> d           9.972  -1.513  -6.212  0.00  0.00    -0.336 OA
ATOM     29  C18 <0> d          10.264  -2.297  -5.054  0.00  0.00     0.138 C 
ATOM     30  H7  <0> d          10.269  -1.655  -4.174  0.00  0.00     0.087 H 
ATOM     31  C19 <0> d           9.194  -3.380  -4.890  0.00  0.00    -0.089 C 
ATOM     32  H8  <0> d           8.415  -3.237  -5.638  0.00  0.00     0.098 H 
ATOM     33  C20 <0> d           9.830  -4.761  -5.072  0.00  0.00     0.114 C 
ATOM     34  H9  <0> d           9.880  -5.000  -6.135  0.00  0.00     0.067 H 
ATOM     35  C21 <0> d           8.979  -5.809  -4.352  0.00  0.00    -0.219 C 
ATOM     36  C22 <0> d           8.434  -6.790  -5.356  0.00  0.00     0.369 C 
ATOM     37  O6  <0> d           9.191  -7.421  -6.053  0.00  0.00    -0.451 OA
ATOM     38  C23 <0> d           6.948  -6.989  -5.490  0.00  0.00    -0.098 C 
ATOM     39  H10 <0> d           6.432  -6.371  -4.755  0.00  0.00     0.099 H 
ATOM     40  C24 <0> d           6.508  -6.592  -6.875  0.00  0.00    -0.163 C 
ATOM     41  C25 <0> d           5.315  -6.086  -7.066  0.00  0.00    -0.094 C 
ATOM     42  C26 <0> d           4.879  -5.698  -8.453  0.00  0.00    -0.086 C 
ATOM     43  H17 <0> d           3.210  -2.820  -7.699  0.00  0.00     0.074 H 
ATOM     44  H18 <0> d           4.912  -3.315  -7.535  0.00  0.00     0.084 H 
ATOM     45  H19 <0> d           5.372   0.218 -11.539  0.00  0.00     0.077 H 
ATOM     46  H20 <0> d           3.868   1.046 -11.996  0.00  0.00     0.080 H 
ATOM     47  H21 <0> d           7.917   3.230  -8.193  0.00  0.00     0.148 H 
ATOM     48  H22 <0> d           8.668   3.278  -6.577  0.00  0.00     0.070 H 
ATOM     49  H23 <0> d          10.076   3.213  -9.271  0.00  0.00     0.069 H 
ATOM     50  H24 <0> d          10.054   4.551  -8.109  0.00  0.00     0.081 H 
ATOM     51  H25 <0> d          11.941   2.470  -8.314  0.00  0.00     0.069 H 
ATOM     52  H26 <0> d          11.844   3.732  -7.075  0.00  0.00     0.076 H 
ATOM     53  H27 <0> d          11.924   1.384  -6.172  0.00  0.00     0.090 H 
ATOM     54  H28 <0> d          10.508   2.324  -5.642  0.00  0.00     0.085 H 
ATOM     55  H29 <0> d           9.594  -6.337  -3.623  0.00  0.00     0.106 H 
ATOM     56  H30 <0> d           8.152  -5.316  -3.840  0.00  0.00     0.107 H 
ATOM     57  H31 <0> d           7.177  -6.723  -7.714  0.00  0.00     0.111 H 
ATOM     58  H32 <0> d           4.661  -6.595  -9.032  0.00  0.00     0.069 H 
ATOM     59  H33 <0> d           5.675  -5.134  -8.939  0.00  0.00     0.090 H 
ENDROOT
BRANCH  29  60
ATOM     60  C32 <0> d          11.615  -2.944  -5.213  0.00  0.00    -0.039 C 
ATOM     61  C33 <0> d          12.483  -2.898  -4.233  0.00  0.00    -0.164 C 
ATOM     62  H46 <0> d          12.200  -2.473  -3.281  0.00  0.00     0.101 H 
BRANCH  61  63
ATOM     63  C34 <0> d          13.876  -3.435  -4.433  0.00  0.00    -0.045 C 
ATOM     64  H11 <0> d          13.899  -4.062  -5.325  0.00  0.00     0.079 H 
ATOM     65  C39 <0> d          14.853  -2.270  -4.606  0.00  0.00    -0.105 C 
ATOM     66  C38 <0> d          16.267  -2.815  -4.810  0.00  0.00     0.101 C 
ATOM     67  H51 <0> d          14.562  -1.678  -5.475  0.00  0.00     0.074 H 
ATOM     68  H52 <0> d          14.830  -1.642  -3.715  0.00  0.00     0.072 H 
ATOM     69  C37 <0> d          16.674  -3.646  -3.592  0.00  0.00     0.084 C 
ATOM     70  H13 <0> d          16.290  -3.444  -5.701  0.00  0.00     0.064 H 
ATOM     71  C36 <0> d          15.698  -4.811  -3.419  0.00  0.00    -0.152 C 
ATOM     72  H12 <0> d          16.652  -3.018  -2.700  0.00  0.00     0.061 H 
ATOM     73  C35 <0> d          14.284  -4.265  -3.215  0.00  0.00    -0.105 C 
ATOM     74  H49 <0> d          15.988  -5.403  -2.550  0.00  0.00     0.067 H 
ATOM     75  H50 <0> d          15.721  -5.439  -4.310  0.00  0.00     0.070 H 
ATOM     76  H47 <0> d          14.261  -3.637  -2.324  0.00  0.00     0.063 H 
ATOM     77  H48 <0> d          13.588  -5.095  -3.092  0.00  0.00     0.071 H 
BRANCH  66  78
ATOM     78  O8  <0> d          17.179  -1.727  -4.971  0.00  0.00    -0.383 OA
BRANCH  78  79
ATOM     79  C40 <0> d          17.018  -0.684  -4.009  0.00  0.00     0.031 C 
ATOM     80  H53 <0> d          17.851  -0.706  -3.307  0.00  0.00     0.059 H 
ATOM     81  H54 <0> d          16.996   0.280  -4.518  0.00  0.00     0.035 H 
ATOM     82  H55 <0> d          16.082  -0.829  -3.468  0.00  0.00     0.080 H 
ENDBRANCH  78  79
ENDBRANCH  66  78
BRANCH  69  83
ATOM     83  O9  <0> d          17.996  -4.155  -3.782  0.00  0.00    -0.566 OA
ATOM     84  H56 <0> d          18.536  -3.630  -4.388  0.00  0.00     0.377 HD
ENDBRANCH  69  83
ENDBRANCH  61  63
BRANCH  60  85
ATOM     85  C41 <0> d          11.968  -3.645  -6.500  0.00  0.00    -0.108 C 
ATOM     86  H57 <0> d          12.610  -3.001  -7.100  0.00  0.00     0.059 H 
ATOM     87  H58 <0> d          12.494  -4.573  -6.274  0.00  0.00     0.053 H 
ATOM     88  H59 <0> d          11.056  -3.870  -7.053  0.00  0.00     0.070 H 
ENDBRANCH  60  85
ENDBRANCH  29  60
BRANCH  31  89
ATOM     89  C31 <0> d           8.582  -3.283  -3.491  0.00  0.00    -0.151 C 
ATOM     90  H43 <0> d           8.093  -4.226  -3.242  0.00  0.00     0.062 H 
ATOM     91  H44 <0> d           9.368  -3.079  -2.764  0.00  0.00     0.065 H 
ATOM     92  H45 <0> d           7.849  -2.477  -3.470  0.00  0.00     0.066 H 
ENDBRANCH  31  89
BRANCH  33  93
ATOM     93  O7  <0> d          11.149  -4.755  -4.522  0.00  0.00    -0.511 OA
ATOM     94  H42 <0> d          11.721  -5.455  -4.866  0.00  0.00     0.352 HD
ENDBRANCH  33  93
BRANCH  38  95
ATOM     95  C28 <0> d           6.607  -8.460  -5.249  0.00  0.00    -0.077 C 
ATOM     96  H37 <0> d           5.529  -8.601  -5.332  0.00  0.00     0.076 H 
ATOM     97  H38 <0> d           7.112  -9.077  -5.992  0.00  0.00     0.073 H 
BRANCH  95  98
ATOM     98  C29 <0> d           7.062  -8.861  -3.869  0.00  0.00    -0.151 C 
ATOM     99  C30 <0> d           6.454  -9.835  -3.237  0.00  0.00    -0.186 C 
ATOM    100  H40 <0> d           5.627 -10.349  -3.704  0.00  0.00     0.094 H 
ATOM    101  H41 <0> d           6.780 -10.122  -2.248  0.00  0.00     0.097 H 
ATOM    102  H39 <0> d           7.889  -8.348  -3.402  0.00  0.00     0.112 H 
ENDBRANCH  95  98
ENDBRANCH  38  95
BRANCH  13 103
ATOM    103  O10 <0> d           4.542   0.954  -7.668  0.00  0.00    -0.538 OA
ATOM    104  H60 <0> d           4.336   1.872  -7.446  0.00  0.00     0.384 HD
ENDBRANCH  13 103
BRANCH  41 105
ATOM    105  C27 <0> d           4.374  -5.904  -5.903  0.00  0.00    -0.132 C 
ATOM    106  H34 <0> d           4.671  -5.027  -5.329  0.00  0.00     0.070 H 
ATOM    107  H35 <0> d           3.359  -5.766  -6.277  0.00  0.00     0.067 H 
ATOM    108  H36 <0> d           4.410  -6.786  -5.265  0.00  0.00     0.068 H 
ENDBRANCH  41 105
BRANCH  11 109
ATOM    109  C42 <0> d           3.193   1.964  -9.523  0.00  0.00    -0.130 C 
ATOM    110  H61 <0> d           3.271   2.309  -8.492  0.00  0.00     0.084 H 
ATOM    111  H62 <0> d           2.836   2.779 -10.153  0.00  0.00     0.057 H 
ATOM    112  H63 <0> d           2.492   1.130  -9.576  0.00  0.00     0.051 H 
ENDBRANCH  11 109
BRANCH   1 113
ATOM    113  C1  <0> d           2.808  -4.969  -9.653  0.00  0.00    -0.155 C 
ATOM    114  H14 <0> d           3.274  -5.717 -10.295  0.00  0.00     0.057 H 
ATOM    115  H15 <0> d           1.792  -5.279  -9.411  0.00  0.00     0.057 H 
ATOM    116  H16 <0> d           2.782  -4.010 -10.171  0.00  0.00     0.054 H 
ENDBRANCH   1 113
BRANCH   8 117
ATOM    117  O11 <0> d           2.222  -0.302 -10.548  0.00  0.00    -0.371 OA
BRANCH 117 118
ATOM    118  C43 <0> d           1.291  -1.069 -11.315  0.00  0.00     0.026 C 
ATOM    119  H64 <0> d           0.442  -0.442 -11.588  0.00  0.00     0.041 H 
ATOM    120  H65 <0> d           1.780  -1.433 -12.220  0.00  0.00     0.089 H 
ATOM    121  H66 <0> d           0.944  -1.915 -10.724  0.00  0.00     0.042 H 
ENDBRANCH 117 118
ENDBRANCH   8 117
BRANCH   4 122
ATOM    122  O12 <0> d           5.691  -3.035  -9.898  0.00  0.00    -0.348 OA
BRANCH 122 123
ATOM    123  C44 <0> d           5.847  -3.465 -11.252  0.00  0.00     0.028 C 
ATOM    124  H67 <0> d           5.647  -4.535 -11.318  0.00  0.00     0.037 H 
ATOM    125  H68 <0> d           5.145  -2.925 -11.887  0.00  0.00     0.037 H 
ATOM    126  H69 <0> d           6.865  -3.265 -11.583  0.00  0.00     0.085 H 
ENDBRANCH 122 123
ENDBRANCH   4 122
TORSDOF 18
ENDMDL
MODEL 6
REMARK VINA RESULT:      -5.5      4.557     11.152
REMARK  18 active torsions:
REMARK  status: ('A' for Active; 'I' for Inactive)
REMARK    1  A    between atoms: C1_1  and  C2_2 
REMARK    2  A    between atoms: C4_5  and  O12_69 
REMARK    3  A    between atoms: C6_9  and  O11_67 
REMARK    4  A    between atoms: C8_12  and  C42_66 
REMARK    5  A    between atoms: C9_14  and  O10_65 
REMARK    6  A    between atoms: C18_30  and  C32_50 
REMARK    7  A    between atoms: C19_32  and  C31_49 
REMARK    8  A    between atoms: C20_34  and  O7_48 
REMARK    9  A    between atoms: C23_39  and  C28_45 
REMARK   10  A    between atoms: C25_42  and  C27_44 
REMARK   11  A    between atoms: C28_45  and  C29_46 
REMARK   12  A    between atoms: C32_50  and  C41_64 
REMARK   13  A    between atoms: C33_51  and  C34_52 
REMARK   14  A    between atoms: C37_56  and  O9_63 
REMARK   15  A    between atoms: C38_58  and  O8_61 
REMARK   16  A    between atoms: O8_61  and  C40_62 
REMARK   17  A    between atoms: O11_67  and  C43_68 
REMARK   18  A    between atoms: O12_69  and  C44_70 
ROOT
ATOM      1  C2  <0> d           3.415  -6.462 -13.272  0.00  0.00    -0.092 C 
ATOM      2  H1  <0> d           4.209  -6.284 -13.998  0.00  0.00     0.081 H 
ATOM      3  C3  <0> d           3.844  -7.571 -12.307  0.00  0.00    -0.114 C 
ATOM      4  C4  <0> d           2.602  -8.227 -11.694  0.00  0.00     0.095 C 
ATOM      5  H2  <0> d           1.808  -8.272 -12.440  0.00  0.00     0.086 H 
ATOM      6  C5  <0> d           2.963  -9.643 -11.241  0.00  0.00     0.069 C 
ATOM      7  H3  <0> d           3.819 -10.001 -11.818  0.00  0.00     0.092 H 
ATOM      8  C6  <0> d           1.778 -10.581 -11.472  0.00  0.00     0.060 C 
ATOM      9  H4  <0> d           0.888  -9.993 -11.700  0.00  0.00     0.067 H 
ATOM     10  C7  <0> d           1.530 -11.411 -10.213  0.00  0.00    -0.133 C 
ATOM     11  C8  <0> d           2.846 -12.009  -9.714  0.00  0.00    -0.101 C 
ATOM     12  H5  <0> d           2.659 -12.599  -8.817  0.00  0.00     0.098 H 
ATOM     13  C9  <0> d           3.836 -10.884  -9.387  0.00  0.00     0.265 C 
ATOM     14  O1  <0> d           3.301  -9.639  -9.850  0.00  0.00    -0.330 OA
ATOM     15  C10 <0> d           4.102 -10.855  -7.915  0.00  0.00     0.360 C 
ATOM     16  O2  <0> d           3.903 -11.860  -7.275  0.00  0.00    -0.378 OA
ATOM     17  C11 <0> d           4.598  -9.650  -7.201  0.00  0.00     0.471 C 
ATOM     18  O3  <0> d           4.533  -8.558  -7.727  0.00  0.00    -0.453 OA
ATOM     19  N1  <0> d           5.122  -9.777  -5.966  0.00  0.00    -0.577 N 
ATOM     20  C12 <0> d           5.367 -11.126  -5.430  0.00  0.00     0.051 C 
ATOM     21  C13 <0> d           4.829 -11.190  -4.005  0.00  0.00    -0.131 C 
ATOM     22  C14 <0> d           5.357 -10.067  -3.130  0.00  0.00    -0.119 C 
ATOM     23  C15 <0> d           6.220  -9.076  -3.899  0.00  0.00    -0.118 C 
ATOM     24  C16 <0> d           5.474  -8.608  -5.152  0.00  0.00     0.157 C 
ATOM     25  H6  <0> d           4.567  -8.087  -4.855  0.00  0.00     0.106 H 
ATOM     26  C17 <0> d           6.356  -7.682  -5.941  0.00  0.00     0.474 C 
ATOM     27  O4  <0> d           7.440  -8.062  -6.317  0.00  0.00    -0.493 OA
ATOM     28  O5  <0> d           5.951  -6.440  -6.233  0.00  0.00    -0.336 OA
ATOM     29  C18 <0> d           6.951  -5.427  -6.349  0.00  0.00     0.138 C 
ATOM     30  H7  <0> d           7.928  -5.855  -6.123  0.00  0.00     0.087 H 
ATOM     31  C19 <0> d           6.954  -4.875  -7.776  0.00  0.00    -0.089 C 
ATOM     32  H8  <0> d           6.259  -5.449  -8.389  0.00  0.00     0.098 H 
ATOM     33  C20 <0> d           6.524  -3.406  -7.758  0.00  0.00     0.114 C 
ATOM     34  H9  <0> d           5.435  -3.346  -7.759  0.00  0.00     0.067 H 
ATOM     35  C21 <0> d           7.075  -2.702  -9.001  0.00  0.00    -0.219 C 
ATOM     36  C22 <0> d           5.932  -2.215  -9.851  0.00  0.00     0.369 C 
ATOM     37  O6  <0> d           5.120  -1.451  -9.388  0.00  0.00    -0.451 OA
ATOM     38  C23 <0> d           5.800  -2.676 -11.278  0.00  0.00    -0.098 C 
ATOM     39  H10 <0> d           6.642  -3.322 -11.529  0.00  0.00     0.099 H 
ATOM     40  C24 <0> d           4.514  -3.441 -11.446  0.00  0.00    -0.163 C 
ATOM     41  C25 <0> d           4.440  -4.421 -12.312  0.00  0.00    -0.094 C 
ATOM     42  C26 <0> d           3.150  -5.177 -12.480  0.00  0.00    -0.086 C 
ATOM     43  H17 <0> d           4.422  -8.321 -12.849  0.00  0.00     0.074 H 
ATOM     44  H18 <0> d           4.459  -7.144 -11.513  0.00  0.00     0.084 H 
ATOM     45  H19 <0> d           1.106 -10.774  -9.438  0.00  0.00     0.077 H 
ATOM     46  H20 <0> d           0.831 -12.214 -10.442  0.00  0.00     0.080 H 
ATOM     47  H21 <0> d           4.855 -11.863  -6.047  0.00  0.00     0.148 H 
ATOM     48  H22 <0> d           6.438 -11.329  -5.425  0.00  0.00     0.070 H 
ATOM     49  H23 <0> d           3.741 -11.130  -4.036  0.00  0.00     0.069 H 
ATOM     50  H24 <0> d           5.113 -12.145  -3.563  0.00  0.00     0.081 H 
ATOM     51  H25 <0> d           4.513  -9.534  -2.694  0.00  0.00     0.069 H 
ATOM     52  H26 <0> d           5.950 -10.499  -2.324  0.00  0.00     0.076 H 
ATOM     53  H27 <0> d           6.438  -8.217  -3.265  0.00  0.00     0.090 H 
ATOM     54  H28 <0> d           7.153  -9.558  -4.191  0.00  0.00     0.085 H 
ATOM     55  H29 <0> d           7.689  -1.855  -8.696  0.00  0.00     0.106 H 
ATOM     56  H30 <0> d           7.682  -3.402  -9.575  0.00  0.00     0.107 H 
ATOM     57  H31 <0> d           3.650  -3.185 -10.849  0.00  0.00     0.111 H 
ATOM     58  H32 <0> d           2.431  -4.560 -13.019  0.00  0.00     0.069 H 
ATOM     59  H33 <0> d           2.748  -5.431 -11.499  0.00  0.00     0.090 H 
ENDROOT
BRANCH  29  60
ATOM     60  C32 <0> d           6.653  -4.314  -5.378  0.00  0.00    -0.039 C 
ATOM     61  C33 <0> d           5.424  -3.886  -5.230  0.00  0.00    -0.164 C 
ATOM     62  H46 <0> d           4.612  -4.387  -5.737  0.00  0.00     0.101 H 
BRANCH  61  63
ATOM     63  C34 <0> d           5.142  -2.694  -4.353  0.00  0.00    -0.045 C 
ATOM     64  H11 <0> d           6.080  -2.303  -3.958  0.00  0.00     0.079 H 
ATOM     65  C39 <0> d           4.445  -1.608  -5.176  0.00  0.00    -0.105 C 
ATOM     66  C38 <0> d           4.159  -0.397  -4.286  0.00  0.00     0.101 C 
ATOM     67  H51 <0> d           5.091  -1.308  -6.002  0.00  0.00     0.074 H 
ATOM     68  H52 <0> d           3.507  -1.998  -5.572  0.00  0.00     0.072 H 
ATOM     69  C37 <0> d           3.253  -0.819  -3.127  0.00  0.00     0.084 C 
ATOM     70  H13 <0> d           5.097  -0.007  -3.890  0.00  0.00     0.064 H 
ATOM     71  C36 <0> d           3.950  -1.904  -2.304  0.00  0.00    -0.152 C 
ATOM     72  H12 <0> d           2.315  -1.209  -3.522  0.00  0.00     0.061 H 
ATOM     73  C35 <0> d           4.236  -3.114  -3.194  0.00  0.00    -0.105 C 
ATOM     74  H49 <0> d           3.305  -2.204  -1.478  0.00  0.00     0.067 H 
ATOM     75  H50 <0> d           4.888  -1.514  -1.908  0.00  0.00     0.070 H 
ATOM     76  H47 <0> d           3.298  -3.505  -3.590  0.00  0.00     0.063 H 
ATOM     77  H48 <0> d           4.733  -3.887  -2.608  0.00  0.00     0.071 H 
BRANCH  66  78
ATOM     78  O8  <0> d           3.508   0.617  -5.055  0.00  0.00    -0.383 OA
BRANCH  78  79
ATOM     79  C40 <0> d           3.030   0.168  -6.323  0.00  0.00     0.031 C 
ATOM     80  H53 <0> d           2.024   0.555  -6.489  0.00  0.00     0.059 H 
ATOM     81  H54 <0> d           3.691   0.530  -7.110  0.00  0.00     0.035 H 
ATOM     82  H55 <0> d           3.007  -0.921  -6.340  0.00  0.00     0.080 H 
ENDBRANCH  78  79
ENDBRANCH  66  78
BRANCH  69  83
ATOM     83  O9  <0> d           2.986   0.312  -2.296  0.00  0.00    -0.566 OA
ATOM     84  H56 <0> d           3.669   0.484  -1.633  0.00  0.00     0.377 HD
ENDBRANCH  69  83
ENDBRANCH  61  63
BRANCH  60  85
ATOM     85  C41 <0> d           7.769  -3.695  -4.577  0.00  0.00    -0.108 C 
ATOM     86  H57 <0> d           8.727  -3.963  -5.020  0.00  0.00     0.059 H 
ATOM     87  H58 <0> d           7.659  -2.610  -4.579  0.00  0.00     0.053 H 
ATOM     88  H59 <0> d           7.726  -4.062  -3.551  0.00  0.00     0.070 H 
ENDBRANCH  60  85
ENDBRANCH  29  60
BRANCH  31  89
ATOM     89  C31 <0> d           8.362  -4.985  -8.363  0.00  0.00    -0.151 C 
ATOM     90  H43 <0> d           8.720  -3.992  -8.639  0.00  0.00     0.062 H 
ATOM     91  H44 <0> d           9.032  -5.419  -7.621  0.00  0.00     0.065 H 
ATOM     92  H45 <0> d           8.339  -5.621  -9.248  0.00  0.00     0.066 H 
ENDBRANCH  31  89
BRANCH  33  93
ATOM     93  O7  <0> d           7.037  -2.773  -6.584  0.00  0.00    -0.511 OA
ATOM     94  H42 <0> d           7.080  -1.809  -6.644  0.00  0.00     0.352 HD
ENDBRANCH  33  93
BRANCH  38  95
ATOM     95  C28 <0> d           5.795  -1.462 -12.207  0.00  0.00    -0.077 C 
ATOM     96  H37 <0> d           6.364  -0.652 -11.751  0.00  0.00     0.076 H 
ATOM     97  H38 <0> d           6.248  -1.731 -13.161  0.00  0.00     0.073 H 
BRANCH  95  98
ATOM     98  C29 <0> d           4.375  -1.011 -12.436  0.00  0.00    -0.151 C 
ATOM     99  C30 <0> d           4.008   0.199 -12.091  0.00  0.00    -0.186 C 
ATOM    100  H40 <0> d           4.723   0.872 -11.642  0.00  0.00     0.094 H 
ATOM    101  H41 <0> d           2.990   0.521 -12.255  0.00  0.00     0.097 H 
ATOM    102  H39 <0> d           3.660  -1.684 -12.886  0.00  0.00     0.112 H 
ENDBRANCH  95  98
ENDBRANCH  38  95
BRANCH  13 103
ATOM    103  O10 <0> d           5.064 -11.140 -10.082  0.00  0.00    -0.538 OA
ATOM    104  H60 <0> d           5.444 -12.011  -9.901  0.00  0.00     0.384 HD
ENDBRANCH  13 103
BRANCH  41 105
ATOM    105  C27 <0> d           5.638  -4.783 -13.151  0.00  0.00    -0.132 C 
ATOM    106  H34 <0> d           5.964  -3.910 -13.716  0.00  0.00     0.070 H 
ATOM    107  H35 <0> d           6.448  -5.117 -12.502  0.00  0.00     0.067 H 
ATOM    108  H36 <0> d           5.370  -5.583 -13.840  0.00  0.00     0.068 H 
ENDBRANCH  41 105
BRANCH  11 109
ATOM    109  C42 <0> d           3.439 -12.909 -10.800  0.00  0.00    -0.130 C 
ATOM    110  H61 <0> d           4.064 -13.673 -10.338  0.00  0.00     0.084 H 
ATOM    111  H62 <0> d           2.633 -13.387 -11.356  0.00  0.00     0.057 H 
ATOM    112  H63 <0> d           4.043 -12.307 -11.481  0.00  0.00     0.051 H 
ENDBRANCH  11 109
BRANCH   1 113
ATOM    113  C1  <0> d           2.140  -6.886 -14.003  0.00  0.00    -0.155 C 
ATOM    114  H14 <0> d           2.404  -7.459 -14.891  0.00  0.00     0.057 H 
ATOM    115  H15 <0> d           1.529  -7.500 -13.341  0.00  0.00     0.057 H 
ATOM    116  H16 <0> d           1.577  -5.999 -14.296  0.00  0.00     0.054 H 
ENDBRANCH   1 113
BRANCH   8 117
ATOM    117  O11 <0> d           2.067 -11.452 -12.567  0.00  0.00    -0.371 OA
BRANCH 117 118
ATOM    118  C43 <0> d           1.370 -11.122 -13.771  0.00  0.00     0.026 C 
ATOM    119  H64 <0> d           0.375 -11.568 -13.749  0.00  0.00     0.041 H 
ATOM    120  H65 <0> d           1.281 -10.039 -13.853  0.00  0.00     0.089 H 
ATOM    121  H66 <0> d           1.923 -11.508 -14.627  0.00  0.00     0.042 H 
ENDBRANCH 117 118
ENDBRANCH   8 117
BRANCH   4 122
ATOM    122  O12 <0> d           2.161  -7.461 -10.571  0.00  0.00    -0.348 OA
BRANCH 122 123
ATOM    123  C44 <0> d           0.749  -7.244 -10.533  0.00  0.00     0.028 C 
ATOM    124  H67 <0> d           0.538  -6.190 -10.716  0.00  0.00     0.037 H 
ATOM    125  H68 <0> d           0.268  -7.849 -11.302  0.00  0.00     0.037 H 
ATOM    126  H69 <0> d           0.363  -7.526  -9.554  0.00  0.00     0.085 H 
ENDBRANCH 122 123
ENDBRANCH   4 122
TORSDOF 18
ENDMDL
MODEL 7
REMARK VINA RESULT:      -5.5      3.600      9.552
REMARK  18 active torsions:
REMARK  status: ('A' for Active; 'I' for Inactive)
REMARK    1  A    between atoms: C1_1  and  C2_2 
REMARK    2  A    between atoms: C4_5  and  O12_69 
REMARK    3  A    between atoms: C6_9  and  O11_67 
REMARK    4  A    between atoms: C8_12  and  C42_66 
REMARK    5  A    between atoms: C9_14  and  O10_65 
REMARK    6  A    between atoms: C18_30  and  C32_50 
REMARK    7  A    between atoms: C19_32  and  C31_49 
REMARK    8  A    between atoms: C20_34  and  O7_48 
REMARK    9  A    between atoms: C23_39  and  C28_45 
REMARK   10  A    between atoms: C25_42  and  C27_44 
REMARK   11  A    between atoms: C28_45  and  C29_46 
REMARK   12  A    between atoms: C32_50  and  C41_64 
REMARK   13  A    between atoms: C33_51  and  C34_52 
REMARK   14  A    between atoms: C37_56  and  O9_63 
REMARK   15  A    between atoms: C38_58  and  O8_61 
REMARK   16  A    between atoms: O8_61  and  C40_62 
REMARK   17  A    between atoms: O11_67  and  C43_68 
REMARK   18  A    between atoms: O12_69  and  C44_70 
ROOT
ATOM      1  C2  <0> d           9.056  -6.996  -9.035  0.00  0.00    -0.092 C 
ATOM      2  H1  <0> d           8.685  -7.847  -8.464  0.00  0.00     0.081 H 
ATOM      3  C3  <0> d           7.875  -6.152  -9.523  0.00  0.00    -0.114 C 
ATOM      4  C4  <0> d           8.296  -5.344 -10.755  0.00  0.00     0.095 C 
ATOM      5  H2  <0> d           8.979  -5.937 -11.364  0.00  0.00     0.086 H 
ATOM      6  C5  <0> d           7.048  -5.000 -11.571  0.00  0.00     0.069 C 
ATOM      7  H3  <0> d           6.264  -5.729 -11.357  0.00  0.00     0.092 H 
ATOM      8  C6  <0> d           7.375  -5.038 -13.063  0.00  0.00     0.060 C 
ATOM      9  H4  <0> d           8.456  -5.089 -13.198  0.00  0.00     0.067 H 
ATOM     10  C7  <0> d           6.837  -3.777 -13.738  0.00  0.00    -0.133 C 
ATOM     11  C8  <0> d           5.387  -3.537 -13.316  0.00  0.00    -0.101 C 
ATOM     12  H5  <0> d           5.012  -2.637 -13.802  0.00  0.00     0.098 H 
ATOM     13  C9  <0> d           5.312  -3.363 -11.794  0.00  0.00     0.265 C 
ATOM     14  O1  <0> d           6.583  -3.691 -11.221  0.00  0.00    -0.330 OA
ATOM     15  C10 <0> d           4.905  -1.962 -11.462  0.00  0.00     0.360 C 
ATOM     16  O2  <0> d           4.312  -1.323 -12.299  0.00  0.00    -0.378 OA
ATOM     17  C11 <0> d           5.193  -1.318 -10.155  0.00  0.00     0.471 C 
ATOM     18  O3  <0> d           6.022  -1.795  -9.408  0.00  0.00    -0.453 OA
ATOM     19  N1  <0> d           4.528  -0.201  -9.803  0.00  0.00    -0.577 N 
ATOM     20  C12 <0> d           3.398   0.249 -10.633  0.00  0.00     0.051 C 
ATOM     21  C13 <0> d           3.543   1.745 -10.887  0.00  0.00    -0.131 C 
ATOM     22  C14 <0> d           3.731   2.539  -9.607  0.00  0.00    -0.119 C 
ATOM     23  C15 <0> d           3.833   1.654  -8.372  0.00  0.00    -0.118 C 
ATOM     24  C16 <0> d           4.887   0.567  -8.606  0.00  0.00     0.157 C 
ATOM     25  H6  <0> d           5.858   1.035  -8.751  0.00  0.00     0.106 H 
ATOM     26  C17 <0> d           4.937  -0.343  -7.410  0.00  0.00     0.474 C 
ATOM     27  O4  <0> d           3.936  -0.916  -7.051  0.00  0.00    -0.493 OA
ATOM     28  O5  <0> d           6.082  -0.525  -6.742  0.00  0.00    -0.336 OA
ATOM     29  C18 <0> d           5.996  -0.792  -5.341  0.00  0.00     0.138 C 
ATOM     30  H7  <0> d           4.952  -0.755  -5.029  0.00  0.00     0.087 H 
ATOM     31  C19 <0> d           6.567  -2.183  -5.051  0.00  0.00    -0.089 C 
ATOM     32  H8  <0> d           6.815  -2.676  -5.991  0.00  0.00     0.098 H 
ATOM     33  C20 <0> d           7.828  -2.050  -4.194  0.00  0.00     0.114 C 
ATOM     34  H9  <0> d           8.686  -1.855  -4.838  0.00  0.00     0.067 H 
ATOM     35  C21 <0> d           8.055  -3.353  -3.424  0.00  0.00    -0.219 C 
ATOM     36  C22 <0> d           9.357  -3.973  -3.854  0.00  0.00     0.369 C 
ATOM     37  O6  <0> d          10.386  -3.352  -3.739  0.00  0.00    -0.451 OA
ATOM     38  C23 <0> d           9.380  -5.364  -4.428  0.00  0.00    -0.098 C 
ATOM     39  H10 <0> d           8.371  -5.778  -4.414  0.00  0.00     0.099 H 
ATOM     40  C24 <0> d           9.884  -5.319  -5.846  0.00  0.00    -0.163 C 
ATOM     41  C25 <0> d           9.446  -6.183  -6.728  0.00  0.00    -0.094 C 
ATOM     42  C26 <0> d           9.958  -6.137  -8.142  0.00  0.00    -0.086 C 
ATOM     43  H17 <0> d           7.044  -6.807  -9.784  0.00  0.00     0.074 H 
ATOM     44  H18 <0> d           7.564  -5.470  -8.730  0.00  0.00     0.084 H 
ATOM     45  H19 <0> d           7.445  -2.923 -13.444  0.00  0.00     0.077 H 
ATOM     46  H20 <0> d           6.884  -3.898 -14.820  0.00  0.00     0.080 H 
ATOM     47  H21 <0> d           3.405  -0.286 -11.581  0.00  0.00     0.148 H 
ATOM     48  H22 <0> d           2.461   0.057 -10.109  0.00  0.00     0.070 H 
ATOM     49  H23 <0> d           4.405   1.910 -11.533  0.00  0.00     0.069 H 
ATOM     50  H24 <0> d           2.650   2.104 -11.398  0.00  0.00     0.081 H 
ATOM     51  H25 <0> d           4.640   3.133  -9.691  0.00  0.00     0.069 H 
ATOM     52  H26 <0> d           2.883   3.216  -9.486  0.00  0.00     0.076 H 
ATOM     53  H27 <0> d           4.122   2.261  -7.514  0.00  0.00     0.090 H 
ATOM     54  H28 <0> d           2.867   1.188  -8.179  0.00  0.00     0.085 H 
ATOM     55  H29 <0> d           8.089  -3.141  -2.354  0.00  0.00     0.106 H 
ATOM     56  H30 <0> d           7.237  -4.044  -3.630  0.00  0.00     0.107 H 
ATOM     57  H31 <0> d          10.607  -4.571  -6.141  0.00  0.00     0.111 H 
ATOM     58  H32 <0> d          10.977  -6.523  -8.175  0.00  0.00     0.069 H 
ATOM     59  H33 <0> d           9.947  -5.107  -8.498  0.00  0.00     0.090 H 
ENDROOT
BRANCH  29  60
ATOM     60  C32 <0> d           6.784   0.244  -4.583  0.00  0.00    -0.039 C 
ATOM     61  C33 <0> d           7.862   0.766  -5.115  0.00  0.00    -0.164 C 
ATOM     62  H46 <0> d           8.138   0.518  -6.129  0.00  0.00     0.101 H 
BRANCH  61  63
ATOM     63  C34 <0> d           8.718   1.709  -4.311  0.00  0.00    -0.045 C 
ATOM     64  H11 <0> d           8.345   1.756  -3.287  0.00  0.00     0.079 H 
ATOM     65  C39 <0> d          10.164   1.206  -4.303  0.00  0.00    -0.105 C 
ATOM     66  C38 <0> d          11.033   2.164  -3.487  0.00  0.00     0.101 C 
ATOM     67  H51 <0> d          10.200   0.212  -3.857  0.00  0.00     0.074 H 
ATOM     68  H52 <0> d          10.537   1.159  -5.326  0.00  0.00     0.072 H 
ATOM     69  C37 <0> d          10.981   3.559  -4.112  0.00  0.00     0.084 C 
ATOM     70  H13 <0> d          10.659   2.212  -2.463  0.00  0.00     0.064 H 
ATOM     71  C36 <0> d           9.536   4.062  -4.120  0.00  0.00    -0.152 C 
ATOM     72  H12 <0> d          11.354   3.513  -5.136  0.00  0.00     0.061 H 
ATOM     73  C35 <0> d           8.668   3.104  -4.937  0.00  0.00    -0.105 C 
ATOM     74  H49 <0> d           9.500   5.056  -4.566  0.00  0.00     0.067 H 
ATOM     75  H50 <0> d           9.163   4.110  -3.097  0.00  0.00     0.070 H 
ATOM     76  H47 <0> d           9.041   3.057  -5.960  0.00  0.00     0.063 H 
ATOM     77  H48 <0> d           7.638   3.462  -4.942  0.00  0.00     0.071 H 
BRANCH  66  78
ATOM     78  O8  <0> d          12.382   1.695  -3.479  0.00  0.00    -0.383 OA
BRANCH  78  79
ATOM     79  C40 <0> d          12.576   0.468  -4.182  0.00  0.00     0.031 C 
ATOM     80  H53 <0> d          11.826   0.377  -4.968  0.00  0.00     0.059 H 
ATOM     81  H54 <0> d          13.570   0.456  -4.628  0.00  0.00     0.035 H 
ATOM     82  H55 <0> d          12.479  -0.369  -3.490  0.00  0.00     0.080 H 
ENDBRANCH  78  79
ENDBRANCH  66  78
BRANCH  69  83
ATOM     83  O9  <0> d          11.793   4.454  -3.349  0.00  0.00    -0.566 OA
ATOM     84  H56 <0> d          12.254   4.034  -2.609  0.00  0.00     0.377 HD
ENDBRANCH  69  83
ENDBRANCH  61  63
BRANCH  60  85
ATOM     85  C41 <0> d           6.331   0.683  -3.215  0.00  0.00    -0.108 C 
ATOM     86  H57 <0> d           5.264   0.493  -3.107  0.00  0.00     0.059 H 
ATOM     87  H58 <0> d           6.877   0.122  -2.455  0.00  0.00     0.053 H 
ATOM     88  H59 <0> d           6.527   1.748  -3.091  0.00  0.00     0.070 H 
ENDBRANCH  60  85
ENDBRANCH  29  60
BRANCH  31  89
ATOM     89  C31 <0> d           5.526  -3.014  -4.299  0.00  0.00    -0.151 C 
ATOM     90  H43 <0> d           4.684  -3.226  -4.959  0.00  0.00     0.062 H 
ATOM     91  H44 <0> d           5.976  -3.951  -3.973  0.00  0.00     0.065 H 
ATOM     92  H45 <0> d           5.175  -2.458  -3.429  0.00  0.00     0.066 H 
ENDBRANCH  31  89
BRANCH  33  93
ATOM     93  O7  <0> d           7.668  -0.971  -3.272  0.00  0.00    -0.511 OA
ATOM     94  H42 <0> d           7.120  -0.248  -3.605  0.00  0.00     0.352 HD
ENDBRANCH  33  93
BRANCH  38  95
ATOM     95  C28 <0> d          10.305  -6.246  -3.587  0.00  0.00    -0.077 C 
ATOM     96  H37 <0> d          10.662  -7.079  -4.193  0.00  0.00     0.076 H 
ATOM     97  H38 <0> d          11.153  -5.658  -3.241  0.00  0.00     0.073 H 
BRANCH  95  98
ATOM     98  C29 <0> d           9.545  -6.780  -2.399  0.00  0.00    -0.151 C 
ATOM     99  C30 <0> d           9.918  -6.457  -1.185  0.00  0.00    -0.186 C 
ATOM    100  H40 <0> d          10.770  -5.810  -1.036  0.00  0.00     0.094 H 
ATOM    101  H41 <0> d           9.374  -6.839  -0.334  0.00  0.00     0.097 H 
ATOM    102  H39 <0> d           8.694  -7.426  -2.548  0.00  0.00     0.112 H 
ENDBRANCH  95  98
ENDBRANCH  38  95
BRANCH  13 103
ATOM    103  O10 <0> d           4.331  -4.273 -11.278  0.00  0.00    -0.538 OA
ATOM    104  H60 <0> d           3.495  -4.268 -11.765  0.00  0.00     0.384 HD
ENDBRANCH  13 103
BRANCH  41 105
ATOM    105  C27 <0> d           8.441  -7.232  -6.326  0.00  0.00    -0.132 C 
ATOM    106  H34 <0> d           8.437  -7.336  -5.241  0.00  0.00     0.070 H 
ATOM    107  H35 <0> d           7.449  -6.932  -6.665  0.00  0.00     0.067 H 
ATOM    108  H36 <0> d           8.708  -8.184  -6.782  0.00  0.00     0.068 H 
ENDBRANCH  41 105
BRANCH  11 109
ATOM    109  C42 <0> d           4.531  -4.734 -13.733  0.00  0.00    -0.130 C 
ATOM    110  H61 <0> d           4.156  -5.241 -12.845  0.00  0.00     0.084 H 
ATOM    111  H62 <0> d           3.690  -4.388 -14.335  0.00  0.00     0.057 H 
ATOM    112  H63 <0> d           5.136  -5.427 -14.319  0.00  0.00     0.051 H 
ENDBRANCH  11 109
BRANCH   1 113
ATOM    113  C1  <0> d           9.857  -7.498 -10.238  0.00  0.00    -0.155 C 
ATOM    114  H14 <0> d          10.903  -7.215 -10.122  0.00  0.00     0.057 H 
ATOM    115  H15 <0> d           9.778  -8.583 -10.300  0.00  0.00     0.057 H 
ATOM    116  H16 <0> d           9.460  -7.053 -11.151  0.00  0.00     0.054 H 
ENDBRANCH   1 113
BRANCH   8 117
ATOM    117  O11 <0> d           6.768  -6.190 -13.654  0.00  0.00    -0.371 OA
BRANCH 117 118
ATOM    118  C43 <0> d           7.654  -6.962 -14.467  0.00  0.00     0.026 C 
ATOM    119  H64 <0> d           7.294  -7.989 -14.523  0.00  0.00     0.041 H 
ATOM    120  H65 <0> d           7.692  -6.534 -15.469  0.00  0.00     0.089 H 
ATOM    121  H66 <0> d           8.651  -6.950 -14.028  0.00  0.00     0.042 H 
ENDBRANCH 117 118
ENDBRANCH   8 117
BRANCH   4 122
ATOM    122  O12 <0> d           8.947  -4.141 -10.340  0.00  0.00    -0.348 OA
BRANCH 122 123
ATOM    123  C44 <0> d          10.149  -3.852 -11.056  0.00  0.00     0.028 C 
ATOM    124  H67 <0> d          10.202  -4.481 -11.945  0.00  0.00     0.037 H 
ATOM    125  H68 <0> d          10.152  -2.803 -11.352  0.00  0.00     0.037 H 
ATOM    126  H69 <0> d          11.009  -4.052 -10.419  0.00  0.00     0.085 H 
ENDBRANCH 122 123
ENDBRANCH   4 122
TORSDOF 18
ENDMDL
MODEL 8
REMARK VINA RESULT:      -5.4      3.661     10.803
REMARK  18 active torsions:
REMARK  status: ('A' for Active; 'I' for Inactive)
REMARK    1  A    between atoms: C1_1  and  C2_2 
REMARK    2  A    between atoms: C4_5  and  O12_69 
REMARK    3  A    between atoms: C6_9  and  O11_67 
REMARK    4  A    between atoms: C8_12  and  C42_66 
REMARK    5  A    between atoms: C9_14  and  O10_65 
REMARK    6  A    between atoms: C18_30  and  C32_50 
REMARK    7  A    between atoms: C19_32  and  C31_49 
REMARK    8  A    between atoms: C20_34  and  O7_48 
REMARK    9  A    between atoms: C23_39  and  C28_45 
REMARK   10  A    between atoms: C25_42  and  C27_44 
REMARK   11  A    between atoms: C28_45  and  C29_46 
REMARK   12  A    between atoms: C32_50  and  C41_64 
REMARK   13  A    between atoms: C33_51  and  C34_52 
REMARK   14  A    between atoms: C37_56  and  O9_63 
REMARK   15  A    between atoms: C38_58  and  O8_61 
REMARK   16  A    between atoms: O8_61  and  C40_62 
REMARK   17  A    between atoms: O11_67  and  C43_68 
REMARK   18  A    between atoms: O12_69  and  C44_70 
ROOT
ATOM      1  C2  <0> d           7.915  -6.079  -5.553  0.00  0.00    -0.092 C 
ATOM      2  H1  <0> d           7.618  -6.229  -6.591  0.00  0.00     0.081 H 
ATOM      3  C3  <0> d           9.394  -5.685  -5.496  0.00  0.00    -0.114 C 
ATOM      4  C4  <0> d           9.965  -6.035  -4.117  0.00  0.00     0.095 C 
ATOM      5  H2  <0> d           9.516  -6.963  -3.761  0.00  0.00     0.086 H 
ATOM      6  C5  <0> d          11.480  -6.214  -4.241  0.00  0.00     0.069 C 
ATOM      7  H3  <0> d          11.731  -6.480  -5.270  0.00  0.00     0.092 H 
ATOM      8  C6  <0> d          11.950  -7.330  -3.307  0.00  0.00     0.060 C 
ATOM      9  H4  <0> d          11.145  -7.592  -2.620  0.00  0.00     0.067 H 
ATOM     10  C7  <0> d          13.164  -6.853  -2.512  0.00  0.00    -0.133 C 
ATOM     11  C8  <0> d          14.186  -6.211  -3.451  0.00  0.00    -0.101 C 
ATOM     12  H5  <0> d          15.047  -5.876  -2.875  0.00  0.00     0.098 H 
ATOM     13  C9  <0> d          13.551  -5.011  -4.165  0.00  0.00     0.265 C 
ATOM     14  O1  <0> d          12.145  -4.994  -3.894  0.00  0.00    -0.330 OA
ATOM     15  C10 <0> d          14.212  -3.746  -3.716  0.00  0.00     0.360 C 
ATOM     16  O2  <0> d          15.326  -3.813  -3.253  0.00  0.00    -0.378 OA
ATOM     17  C11 <0> d          13.566  -2.411  -3.812  0.00  0.00     0.471 C 
ATOM     18  O3  <0> d          12.369  -2.323  -3.988  0.00  0.00    -0.453 OA
ATOM     19  N1  <0> d          14.319  -1.299  -3.704  0.00  0.00    -0.577 N 
ATOM     20  C12 <0> d          15.786  -1.428  -3.685  0.00  0.00     0.051 C 
ATOM     21  C13 <0> d          16.336  -0.576  -2.547  0.00  0.00    -0.131 C 
ATOM     22  C14 <0> d          15.838   0.857  -2.598  0.00  0.00    -0.119 C 
ATOM     23  C15 <0> d          14.824   1.092  -3.709  0.00  0.00    -0.118 C 
ATOM     24  C16 <0> d          13.717   0.036  -3.626  0.00  0.00     0.157 C 
ATOM     25  H6  <0> d          13.192   0.143  -2.679  0.00  0.00     0.106 H 
ATOM     26  C17 <0> d          12.755   0.231  -4.764  0.00  0.00     0.474 C 
ATOM     27  O4  <0> d          13.161   0.204  -5.902  0.00  0.00    -0.493 OA
ATOM     28  O5  <0> d          11.453   0.433  -4.529  0.00  0.00    -0.336 OA
ATOM     29  C18 <0> d          10.729   1.240  -5.458  0.00  0.00     0.138 C 
ATOM     30  H7  <0> d          11.412   1.613  -6.223  0.00  0.00     0.087 H 
ATOM     31  C19 <0> d           9.634   0.399  -6.118  0.00  0.00    -0.089 C 
ATOM     32  H8  <0> d           9.727  -0.637  -5.793  0.00  0.00     0.098 H 
ATOM     33  C20 <0> d           8.260   0.940  -5.715  0.00  0.00     0.114 C 
ATOM     34  H9  <0> d           7.973   0.519  -4.750  0.00  0.00     0.067 H 
ATOM     35  C21 <0> d           7.229   0.540  -6.772  0.00  0.00    -0.219 C 
ATOM     36  C22 <0> d           6.191  -0.357  -6.151  0.00  0.00     0.369 C 
ATOM     37  O6  <0> d           5.545   0.034  -5.209  0.00  0.00    -0.451 OA
ATOM     38  C23 <0> d           5.957  -1.738  -6.701  0.00  0.00    -0.098 C 
ATOM     39  H10 <0> d           6.597  -1.895  -7.570  0.00  0.00     0.099 H 
ATOM     40  C24 <0> d           6.281  -2.764  -5.647  0.00  0.00    -0.163 C 
ATOM     41  C25 <0> d           6.754  -3.936  -5.994  0.00  0.00    -0.094 C 
ATOM     42  C26 <0> d           7.069  -4.959  -4.937  0.00  0.00    -0.086 C 
ATOM     43  H17 <0> d           9.944  -6.226  -6.266  0.00  0.00     0.074 H 
ATOM     44  H18 <0> d           9.491  -4.612  -5.667  0.00  0.00     0.084 H 
ATOM     45  H19 <0> d          12.846  -6.122  -1.769  0.00  0.00     0.077 H 
ATOM     46  H20 <0> d          13.622  -7.704  -2.006  0.00  0.00     0.080 H 
ATOM     47  H21 <0> d          16.059  -2.471  -3.526  0.00  0.00     0.148 H 
ATOM     48  H22 <0> d          16.196  -1.080  -4.633  0.00  0.00     0.070 H 
ATOM     49  H23 <0> d          16.036  -1.020  -1.598  0.00  0.00     0.069 H 
ATOM     50  H24 <0> d          17.425  -0.573  -2.603  0.00  0.00     0.081 H 
ATOM     51  H25 <0> d          15.375   1.103  -1.642  0.00  0.00     0.069 H 
ATOM     52  H26 <0> d          16.690   1.520  -2.753  0.00  0.00     0.076 H 
ATOM     53  H27 <0> d          14.389   2.084  -3.599  0.00  0.00     0.090 H 
ATOM     54  H28 <0> d          15.323   1.019  -4.676  0.00  0.00     0.085 H 
ATOM     55  H29 <0> d           6.747   1.435  -7.166  0.00  0.00     0.106 H 
ATOM     56  H30 <0> d           7.728   0.010  -7.584  0.00  0.00     0.107 H 
ATOM     57  H31 <0> d           6.126  -2.535  -4.603  0.00  0.00     0.111 H 
ATOM     58  H32 <0> d           6.142  -5.378  -4.545  0.00  0.00     0.069 H 
ATOM     59  H33 <0> d           7.626  -4.486  -4.128  0.00  0.00     0.090 H 
ENDROOT
BRANCH  29  60
ATOM     60  C32 <0> d          10.104   2.403  -4.733  0.00  0.00    -0.039 C 
ATOM     61  C33 <0> d          10.256   3.621  -5.192  0.00  0.00    -0.164 C 
ATOM     62  H46 <0> d          10.755   3.784  -6.136  0.00  0.00     0.101 H 
BRANCH  61  63
ATOM     63  C34 <0> d           9.736   4.794  -4.402  0.00  0.00    -0.045 C 
ATOM     64  H11 <0> d           8.771   4.539  -3.965  0.00  0.00     0.079 H 
ATOM     65  C39 <0> d          10.726   5.138  -3.287  0.00  0.00    -0.105 C 
ATOM     66  C38 <0> d          10.199   6.329  -2.486  0.00  0.00     0.101 C 
ATOM     67  H51 <0> d          10.842   4.277  -2.627  0.00  0.00     0.074 H 
ATOM     68  H52 <0> d          11.692   5.392  -3.724  0.00  0.00     0.072 H 
ATOM     69  C37 <0> d          10.036   7.535  -3.412  0.00  0.00     0.084 C 
ATOM     70  H13 <0> d           9.232   6.074  -2.048  0.00  0.00     0.064 H 
ATOM     71  C36 <0> d           9.046   7.192  -4.527  0.00  0.00    -0.152 C 
ATOM     72  H12 <0> d          11.001   7.790  -3.850  0.00  0.00     0.061 H 
ATOM     73  C35 <0> d           9.574   6.001  -5.329  0.00  0.00    -0.105 C 
ATOM     74  H49 <0> d           8.930   8.052  -5.188  0.00  0.00     0.067 H 
ATOM     75  H50 <0> d           8.080   6.937  -4.090  0.00  0.00     0.070 H 
ATOM     76  H47 <0> d          10.540   6.255  -5.766  0.00  0.00     0.063 H 
ATOM     77  H48 <0> d           8.869   5.756  -6.123  0.00  0.00     0.071 H 
BRANCH  66  78
ATOM     78  O8  <0> d          11.122   6.650  -1.444  0.00  0.00    -0.383 OA
BRANCH  78  79
ATOM     79  C40 <0> d          10.668   6.301  -0.136  0.00  0.00     0.031 C 
ATOM     80  H53 <0> d          10.725   7.175   0.514  0.00  0.00     0.059 H 
ATOM     81  H54 <0> d           9.636   5.955  -0.189  0.00  0.00     0.035 H 
ATOM     82  H55 <0> d          11.296   5.507   0.269  0.00  0.00     0.080 H 
ENDBRANCH  78  79
ENDBRANCH  66  78
BRANCH  69  83
ATOM     83  O9  <0> d           9.543   8.648  -2.663  0.00  0.00    -0.566 OA
ATOM     84  H56 <0> d           8.693   8.988  -2.977  0.00  0.00     0.377 HD
ENDBRANCH  69  83
ENDBRANCH  61  63
BRANCH  60  85
ATOM     85  C41 <0> d           9.301   2.165  -3.480  0.00  0.00    -0.108 C 
ATOM     86  H57 <0> d           9.899   1.596  -2.768  0.00  0.00     0.059 H 
ATOM     87  H58 <0> d           9.026   3.123  -3.037  0.00  0.00     0.053 H 
ATOM     88  H59 <0> d           8.399   1.606  -3.727  0.00  0.00     0.070 H 
ENDBRANCH  60  85
ENDBRANCH  29  60
BRANCH  31  89
ATOM     89  C31 <0> d           9.782   0.472  -7.639  0.00  0.00    -0.151 C 
ATOM     90  H43 <0> d           8.911   0.016  -8.111  0.00  0.00     0.062 H 
ATOM     91  H44 <0> d           9.858   1.514  -7.948  0.00  0.00     0.065 H 
ATOM     92  H45 <0> d          10.682  -0.064  -7.943  0.00  0.00     0.066 H 
ENDBRANCH  31  89
BRANCH  33  93
ATOM     93  O7  <0> d           8.317   2.364  -5.617  0.00  0.00    -0.511 OA
ATOM     94  H42 <0> d           7.598   2.819  -6.078  0.00  0.00     0.352 HD
ENDBRANCH  33  93
BRANCH  38  95
ATOM     95  C28 <0> d           4.492  -1.879  -7.116  0.00  0.00    -0.077 C 
ATOM     96  H37 <0> d           4.301  -2.905  -7.433  0.00  0.00     0.076 H 
ATOM     97  H38 <0> d           3.849  -1.635  -6.271  0.00  0.00     0.073 H 
BRANCH  95  98
ATOM     98  C29 <0> d           4.200  -0.939  -8.257  0.00  0.00    -0.151 C 
ATOM     99  C30 <0> d           3.072  -0.274  -8.286  0.00  0.00    -0.186 C 
ATOM    100  H40 <0> d           2.350  -0.401  -7.493  0.00  0.00     0.094 H 
ATOM    101  H41 <0> d           2.863   0.400  -9.104  0.00  0.00     0.097 H 
ATOM    102  H39 <0> d           4.922  -0.811  -9.050  0.00  0.00     0.112 H 
ENDBRANCH  95  98
ENDBRANCH  38  95
BRANCH  13 103
ATOM    103  O10 <0> d          13.741  -5.167  -5.577  0.00  0.00    -0.538 OA
ATOM    104  H60 <0> d          14.626  -5.470  -5.823  0.00  0.00     0.384 HD
ENDBRANCH  13 103
BRANCH  41 105
ATOM    105  C27 <0> d           6.970  -4.266  -7.448  0.00  0.00    -0.132 C 
ATOM    106  H34 <0> d           8.036  -4.239  -7.673  0.00  0.00     0.070 H 
ATOM    107  H35 <0> d           6.580  -5.263  -7.655  0.00  0.00     0.067 H 
ATOM    108  H36 <0> d           6.449  -3.536  -8.068  0.00  0.00     0.068 H 
ENDBRANCH  41 105
BRANCH  11 109
ATOM    109  C42 <0> d          14.638  -7.239  -4.490  0.00  0.00    -0.130 C 
ATOM    110  H61 <0> d          13.790  -7.526  -5.111  0.00  0.00     0.084 H 
ATOM    111  H62 <0> d          15.416  -6.803  -5.117  0.00  0.00     0.057 H 
ATOM    112  H63 <0> d          15.032  -8.120  -3.982  0.00  0.00     0.051 H 
ENDBRANCH  11 109
BRANCH   1 113
ATOM    113  C1  <0> d           7.700  -7.374  -4.767  0.00  0.00    -0.155 C 
ATOM    114  H14 <0> d           7.987  -7.219  -3.727  0.00  0.00     0.057 H 
ATOM    115  H15 <0> d           6.649  -7.659  -4.816  0.00  0.00     0.057 H 
ATOM    116  H16 <0> d           8.312  -8.167  -5.199  0.00  0.00     0.054 H 
ENDBRANCH   1 113
BRANCH   8 117
ATOM    117  O11 <0> d          12.308  -8.477  -4.081  0.00  0.00    -0.371 OA
BRANCH 117 118
ATOM    118  C43 <0> d          11.347  -9.534  -4.030  0.00  0.00     0.026 C 
ATOM    119  H64 <0> d          11.715 -10.329  -3.381  0.00  0.00     0.041 H 
ATOM    120  H65 <0> d          10.405  -9.150  -3.637  0.00  0.00     0.089 H 
ATOM    121  H66 <0> d          11.189  -9.928  -5.033  0.00  0.00     0.042 H 
ENDBRANCH 117 118
ENDBRANCH   8 117
BRANCH   4 122
ATOM    122  O12 <0> d           9.679  -4.980  -3.197  0.00  0.00    -0.348 OA
BRANCH 122 123
ATOM    123  C44 <0> d           9.543  -5.411  -1.841  0.00  0.00     0.028 C 
ATOM    124  H67 <0> d           9.685  -4.560  -1.174  0.00  0.00     0.037 H 
ATOM    125  H68 <0> d           8.547  -5.827  -1.691  0.00  0.00     0.037 H 
ATOM    126  H69 <0> d          10.291  -6.171  -1.624  0.00  0.00     0.085 H 
ENDBRANCH 122 123
ENDBRANCH   4 122
TORSDOF 18
ENDMDL
MODEL 9
REMARK VINA RESULT:      -5.3      3.677      7.700
REMARK  18 active torsions:
REMARK  status: ('A' for Active; 'I' for Inactive)
REMARK    1  A    between atoms: C1_1  and  C2_2 
REMARK    2  A    between atoms: C4_5  and  O12_69 
REMARK    3  A    between atoms: C6_9  and  O11_67 
REMARK    4  A    between atoms: C8_12  and  C42_66 
REMARK    5  A    between atoms: C9_14  and  O10_65 
REMARK    6  A    between atoms: C18_30  and  C32_50 
REMARK    7  A    between atoms: C19_32  and  C31_49 
REMARK    8  A    between atoms: C20_34  and  O7_48 
REMARK    9  A    between atoms: C23_39  and  C28_45 
REMARK   10  A    between atoms: C25_42  and  C27_44 
REMARK   11  A    between atoms: C28_45  and  C29_46 
REMARK   12  A    between atoms: C32_50  and  C41_64 
REMARK   13  A    between atoms: C33_51  and  C34_52 
REMARK   14  A    between atoms: C37_56  and  O9_63 
REMARK   15  A    between atoms: C38_58  and  O8_61 
REMARK   16  A    between atoms: O8_61  and  C40_62 
REMARK   17  A    between atoms: O11_67  and  C43_68 
REMARK   18  A    between atoms: O12_69  and  C44_70 
ROOT
ATOM      1  C2  <0> d           6.482  -4.377 -12.135  0.00  0.00    -0.092 C 
ATOM      2  H1  <0> d           6.200  -5.422 -12.264  0.00  0.00     0.081 H 
ATOM      3  C3  <0> d           5.609  -3.741 -11.050  0.00  0.00    -0.114 C 
ATOM      4  C4  <0> d           5.564  -2.223 -11.252  0.00  0.00     0.095 C 
ATOM      5  H2  <0> d           5.559  -1.996 -12.318  0.00  0.00     0.086 H 
ATOM      6  C5  <0> d           4.289  -1.675 -10.606  0.00  0.00     0.069 C 
ATOM      7  H3  <0> d           3.541  -2.469 -10.552  0.00  0.00     0.092 H 
ATOM      8  C6  <0> d           3.736  -0.522 -11.442  0.00  0.00     0.060 C 
ATOM      9  H4  <0> d           4.481  -0.216 -12.178  0.00  0.00     0.067 H 
ATOM     10  C7  <0> d           3.406   0.659 -10.531  0.00  0.00    -0.133 C 
ATOM     11  C8  <0> d           2.595   0.179  -9.326  0.00  0.00    -0.101 C 
ATOM     12  H5  <0> d           2.364   1.027  -8.683  0.00  0.00     0.098 H 
ATOM     13  C9  <0> d           3.405  -0.855  -8.535  0.00  0.00     0.265 C 
ATOM     14  O1  <0> d           4.575  -1.208  -9.283  0.00  0.00    -0.330 OA
ATOM     15  C10 <0> d           3.759  -0.302  -7.190  0.00  0.00     0.360 C 
ATOM     16  O2  <0> d           3.082   0.593  -6.742  0.00  0.00    -0.378 OA
ATOM     17  C11 <0> d           4.901  -0.799  -6.380  0.00  0.00     0.471 C 
ATOM     18  O3  <0> d           5.769  -1.472  -6.896  0.00  0.00    -0.453 OA
ATOM     19  N1  <0> d           4.967  -0.497  -5.069  0.00  0.00    -0.577 N 
ATOM     20  C12 <0> d           3.813   0.153  -4.427  0.00  0.00     0.051 C 
ATOM     21  C13 <0> d           4.315   1.322  -3.588  0.00  0.00    -0.131 C 
ATOM     22  C14 <0> d           5.418   0.919  -2.625  0.00  0.00    -0.119 C 
ATOM     23  C15 <0> d           5.841  -0.534  -2.788  0.00  0.00    -0.118 C 
ATOM     24  C16 <0> d           6.149  -0.818  -4.261  0.00  0.00     0.157 C 
ATOM     25  H6  <0> d           6.985  -0.199  -4.578  0.00  0.00     0.106 H 
ATOM     26  C17 <0> d           6.502  -2.270  -4.426  0.00  0.00     0.474 C 
ATOM     27  O4  <0> d           5.718  -3.121  -4.075  0.00  0.00    -0.493 OA
ATOM     28  O5  <0> d           7.676  -2.629  -4.959  0.00  0.00    -0.336 OA
ATOM     29  C18 <0> d           8.258  -3.855  -4.514  0.00  0.00     0.138 C 
ATOM     30  H7  <0> d           7.631  -4.293  -3.737  0.00  0.00     0.087 H 
ATOM     31  C19 <0> d           8.364  -4.826  -5.693  0.00  0.00    -0.089 C 
ATOM     32  H8  <0> d           7.885  -4.387  -6.568  0.00  0.00     0.098 H 
ATOM     33  C20 <0> d           9.839  -5.098  -6.001  0.00  0.00     0.114 C 
ATOM     34  H9  <0> d          10.228  -4.308  -6.644  0.00  0.00     0.067 H 
ATOM     35  C21 <0> d           9.965  -6.445  -6.716  0.00  0.00    -0.219 C 
ATOM     36  C22 <0> d          10.524  -6.232  -8.098  0.00  0.00     0.369 C 
ATOM     37  O6  <0> d          11.597  -5.697  -8.236  0.00  0.00    -0.451 OA
ATOM     38  C23 <0> d           9.749  -6.685  -9.306  0.00  0.00    -0.098 C 
ATOM     39  H10 <0> d           8.833  -7.180  -8.983  0.00  0.00     0.099 H 
ATOM     40  C24 <0> d           9.401  -5.493 -10.160  0.00  0.00    -0.163 C 
ATOM     41  C25 <0> d           8.292  -5.485 -10.856  0.00  0.00    -0.094 C 
ATOM     42  C26 <0> d           7.953  -4.295 -11.713  0.00  0.00    -0.086 C 
ATOM     43  H17 <0> d           4.599  -4.147 -11.113  0.00  0.00     0.074 H 
ATOM     44  H18 <0> d           6.029  -3.965 -10.068  0.00  0.00     0.084 H 
ATOM     45  H19 <0> d           4.331   1.118 -10.184  0.00  0.00     0.077 H 
ATOM     46  H20 <0> d           2.826   1.395 -11.087  0.00  0.00     0.080 H 
ATOM     47  H21 <0> d           3.127   0.518  -5.191  0.00  0.00     0.148 H 
ATOM     48  H22 <0> d           3.301  -0.563  -3.784  0.00  0.00     0.070 H 
ATOM     49  H23 <0> d           4.696   2.096  -4.255  0.00  0.00     0.069 H 
ATOM     50  H24 <0> d           3.481   1.732  -3.018  0.00  0.00     0.081 H 
ATOM     51  H25 <0> d           6.284   1.559  -2.794  0.00  0.00     0.069 H 
ATOM     52  H26 <0> d           5.066   1.072  -1.604  0.00  0.00     0.076 H 
ATOM     53  H27 <0> d           6.732  -0.721  -2.188  0.00  0.00     0.090 H 
ATOM     54  H28 <0> d           5.035  -1.186  -2.452  0.00  0.00     0.085 H 
ATOM     55  H29 <0> d          10.633  -7.096  -6.150  0.00  0.00     0.106 H 
ATOM     56  H30 <0> d           8.982  -6.911  -6.790  0.00  0.00     0.107 H 
ATOM     57  H31 <0> d          10.065  -4.642 -10.197  0.00  0.00     0.111 H 
ATOM     58  H32 <0> d           8.586  -4.291 -12.600  0.00  0.00     0.069 H 
ATOM     59  H33 <0> d           8.118  -3.380 -11.144  0.00  0.00     0.090 H 
ENDROOT
BRANCH  29  60
ATOM     60  C32 <0> d           9.632  -3.585  -3.958  0.00  0.00    -0.039 C 
ATOM     61  C33 <0> d          10.428  -2.736  -4.561  0.00  0.00    -0.164 C 
ATOM     62  H46 <0> d          10.069  -2.166  -5.405  0.00  0.00     0.101 H 
BRANCH  61  63
ATOM     63  C34 <0> d          11.844  -2.557  -4.078  0.00  0.00    -0.045 C 
ATOM     64  H11 <0> d          11.917  -2.878  -3.039  0.00  0.00     0.079 H 
ATOM     65  C39 <0> d          12.787  -3.402  -4.938  0.00  0.00    -0.105 C 
ATOM     66  C38 <0> d          14.225  -3.220  -4.448  0.00  0.00     0.101 C 
ATOM     67  H51 <0> d          12.506  -4.453  -4.861  0.00  0.00     0.074 H 
ATOM     68  H52 <0> d          12.714  -3.082  -5.978  0.00  0.00     0.072 H 
ATOM     69  C37 <0> d          14.618  -1.746  -4.556  0.00  0.00     0.084 C 
ATOM     70  H13 <0> d          14.297  -3.540  -3.408  0.00  0.00     0.064 H 
ATOM     71  C36 <0> d          13.676  -0.902  -3.696  0.00  0.00    -0.152 C 
ATOM     72  H12 <0> d          14.546  -1.425  -5.596  0.00  0.00     0.061 H 
ATOM     73  C35 <0> d          12.238  -1.083  -4.187  0.00  0.00    -0.105 C 
ATOM     74  H49 <0> d          13.956   0.149  -3.773  0.00  0.00     0.067 H 
ATOM     75  H50 <0> d          13.748  -1.221  -2.657  0.00  0.00     0.070 H 
ATOM     76  H47 <0> d          12.165  -0.763  -5.227  0.00  0.00     0.063 H 
ATOM     77  H48 <0> d          11.567  -0.482  -3.574  0.00  0.00     0.071 H 
BRANCH  66  78
ATOM     78  O8  <0> d          15.106  -4.009  -5.251  0.00  0.00    -0.383 OA
BRANCH  78  79
ATOM     79  C40 <0> d          14.438  -4.855  -6.188  0.00  0.00     0.031 C 
ATOM     80  H53 <0> d          13.366  -4.837  -5.994  0.00  0.00     0.059 H 
ATOM     81  H54 <0> d          14.630  -4.498  -7.200  0.00  0.00     0.035 H 
ATOM     82  H55 <0> d          14.809  -5.875  -6.086  0.00  0.00     0.080 H 
ENDBRANCH  78  79
ENDBRANCH  66  78
BRANCH  69  83
ATOM     83  O9  <0> d          15.961  -1.576  -4.098  0.00  0.00    -0.566 OA
ATOM     84  H56 <0> d          16.191  -0.662  -3.882  0.00  0.00     0.377 HD
ENDBRANCH  69  83
ENDBRANCH  61  63
BRANCH  60  85
ATOM     85  C41 <0> d          10.091  -4.290  -2.708  0.00  0.00    -0.108 C 
ATOM     86  H57 <0> d           9.510  -3.935  -1.857  0.00  0.00     0.059 H 
ATOM     87  H58 <0> d           9.946  -5.365  -2.823  0.00  0.00     0.053 H 
ATOM     88  H59 <0> d          11.148  -4.082  -2.540  0.00  0.00     0.070 H 
ENDBRANCH  60  85
ENDBRANCH  29  60
BRANCH  31  89
ATOM     89  C31 <0> d           7.669  -6.140  -5.335  0.00  0.00    -0.151 C 
ATOM     90  H43 <0> d           8.322  -6.977  -5.584  0.00  0.00     0.062 H 
ATOM     91  H44 <0> d           7.449  -6.156  -4.268  0.00  0.00     0.065 H 
ATOM     92  H45 <0> d           6.739  -6.225  -5.899  0.00  0.00     0.066 H 
ENDBRANCH  31  89
BRANCH  33  93
ATOM     93  O7  <0> d          10.583  -5.133  -4.782  0.00  0.00    -0.511 OA
ATOM     94  H42 <0> d          10.439  -5.930  -4.256  0.00  0.00     0.352 HD
ENDBRANCH  33  93
BRANCH  38  95
ATOM     95  C28 <0> d          10.598  -7.663 -10.119  0.00  0.00    -0.077 C 
ATOM     96  H37 <0> d          10.475  -7.455 -11.182  0.00  0.00     0.076 H 
ATOM     97  H38 <0> d          11.647  -7.549  -9.845  0.00  0.00     0.073 H 
BRANCH  95  98
ATOM     98  C29 <0> d          10.154  -9.074  -9.829  0.00  0.00    -0.151 C 
ATOM     99  C30 <0> d           9.510  -9.759 -10.741  0.00  0.00    -0.186 C 
ATOM    100  H40 <0> d           9.297  -9.311 -11.701  0.00  0.00     0.094 H 
ATOM    101  H41 <0> d           9.193 -10.769 -10.534  0.00  0.00     0.097 H 
ATOM    102  H39 <0> d          10.368  -9.521  -8.870  0.00  0.00     0.112 H 
ENDBRANCH  95  98
ENDBRANCH  38  95
BRANCH  13 103
ATOM    103  O10 <0> d           2.602  -2.031  -8.364  0.00  0.00    -0.538 OA
ATOM    104  H60 <0> d           3.064  -2.855  -8.569  0.00  0.00     0.384 HD
ENDBRANCH  13 103
BRANCH  41 105
ATOM    105  C27 <0> d           7.362  -6.670 -10.814  0.00  0.00    -0.132 C 
ATOM    106  H34 <0> d           7.816  -7.469 -10.230  0.00  0.00     0.070 H 
ATOM    107  H35 <0> d           6.419  -6.374 -10.351  0.00  0.00     0.067 H 
ATOM    108  H36 <0> d           7.174  -7.021 -11.828  0.00  0.00     0.068 H 
ENDBRANCH  41 105
BRANCH  11 109
ATOM    109  C42 <0> d           1.293  -0.460  -9.812  0.00  0.00    -0.130 C 
ATOM    110  H61 <0> d           1.297  -1.523  -9.573  0.00  0.00     0.084 H 
ATOM    111  H62 <0> d           0.447   0.019  -9.319  0.00  0.00     0.057 H 
ATOM    112  H63 <0> d           1.205  -0.331 -10.892  0.00  0.00     0.051 H 
ENDBRANCH  11 109
BRANCH   1 113
ATOM    113  C1  <0> d           6.286  -3.627 -13.454  0.00  0.00    -0.155 C 
ATOM    114  H14 <0> d           5.974  -4.329 -14.227  0.00  0.00     0.057 H 
ATOM    115  H15 <0> d           5.520  -2.862 -13.326  0.00  0.00     0.057 H 
ATOM    116  H16 <0> d           7.225  -3.156 -13.747  0.00  0.00     0.054 H 
ENDBRANCH   1 113
BRANCH   8 117
ATOM    117  O11 <0> d           2.550  -0.949 -12.116  0.00  0.00    -0.371 OA
BRANCH 117 118
ATOM    118  C43 <0> d           2.793  -1.587 -13.372  0.00  0.00     0.026 C 
ATOM    119  H64 <0> d           2.639  -0.870 -14.180  0.00  0.00     0.041 H 
ATOM    120  H65 <0> d           3.821  -1.951 -13.401  0.00  0.00     0.089 H 
ATOM    121  H66 <0> d           2.106  -2.423 -13.493  0.00  0.00     0.042 H 
ENDBRANCH 117 118
ENDBRANCH   8 117
BRANCH   4 122
ATOM    122  O12 <0> d           6.708  -1.623 -10.640  0.00  0.00    -0.348 OA
BRANCH 122 123
ATOM    123  C44 <0> d           7.372  -0.662 -11.463  0.00  0.00     0.028 C 
ATOM    124  H67 <0> d           6.815  -0.532 -12.392  0.00  0.00     0.037 H 
ATOM    125  H68 <0> d           7.426   0.291 -10.937  0.00  0.00     0.037 H 
ATOM    126  H69 <0> d           8.379  -1.010 -11.690  0.00  0.00     0.085 H 
ENDBRANCH 122 123
ENDBRANCH   4 122
TORSDOF 18
ENDMDL
