REMARK  3 active torsions:
REMARK  status: ('A' for Active; 'I' for Inactive)
REMARK    1  A    between atoms: C_1  and  C_2 
REMARK    2  A    between atoms: C_2  and  C_10 
REMARK    3  A    between atoms: C_6  and  C_8 
ROOT
ATOM      1  C   LIG d   1       0.002  -0.004   0.002  0.00  0.00     0.194 A 
ATOM      2  C   LIG d   1       1.473  -0.367  -0.014  0.00  0.00     0.207 A 
ATOM      3  O   LIG d   1       1.962  -1.478  -0.025  0.00  0.00    -0.288 OA
ATOM      4  C   LIG d   1       2.154   0.879  -0.014  0.00  0.00     0.029 A 
ATOM      5  C   LIG d   1       1.251   1.880   0.000  0.00  0.00     0.148 A 
ATOM      6  O   LIG d   1      -0.017   1.429   0.010  0.00  0.00    -0.472 OA
ATOM      7  H   LIG d   1       3.227   1.005  -0.023  0.00  0.00     0.069 H 
ENDROOT
BRANCH   1   8
ATOM      8  C   LIG d   1      -0.669  -0.554   1.262  0.00  0.00    -0.013 C 
ATOM      9  H   LIG d   1      -1.707  -0.223   1.295  0.00  0.00     0.028 H 
ATOM     10  H   LIG d   1      -0.635  -1.643   1.247  0.00  0.00     0.028 H 
ATOM     11  H   LIG d   1      -0.143  -0.186   2.144  0.00  0.00     0.028 H 
ENDBRANCH   1   8
BRANCH   1  12
ATOM     12  C   LIG d   1      -0.685  -0.532  -1.231  0.00  0.00     0.003 A 
ATOM     13  C   LIG d   1      -1.732   0.173  -1.794  0.00  0.00    -0.054 A 
ATOM     14  C   LIG d   1      -2.363  -0.311  -2.925  0.00  0.00    -0.061 A 
ATOM     15  H   LIG d   1      -2.058   1.102  -1.350  0.00  0.00     0.062 H 
ATOM     16  C   LIG d   1      -1.946  -1.501  -3.493  0.00  0.00    -0.062 A 
ATOM     17  H   LIG d   1      -3.181   0.239  -3.364  0.00  0.00     0.062 H 
ATOM     18  C   LIG d   1      -0.898  -2.205  -2.930  0.00  0.00    -0.061 A 
ATOM     19  H   LIG d   1      -2.439  -1.879  -4.376  0.00  0.00     0.062 H 
ATOM     20  C   LIG d   1      -0.265  -1.719  -1.802  0.00  0.00    -0.054 A 
ATOM     21  H   LIG d   1      -0.572  -3.134  -3.374  0.00  0.00     0.062 H 
ATOM     22  H   LIG d   1       0.556  -2.267  -1.364  0.00  0.00     0.062 H 
ENDBRANCH   1  12
BRANCH   5  23
ATOM     23  C   LIG d   1       1.614   3.317   0.004  0.00  0.00     0.106 C 
ATOM     24  O   LIG d   1       0.743   4.163   0.017  0.00  0.00    -0.542 OA
ATOM     25  O   LIG d   1       2.910   3.684  -0.006  0.00  0.00    -0.542 OA
ENDBRANCH   5  23
TORSDOF 3
