@<TRIPOS>MOLECULE
ZINC00000010
 25 26 0 0 0
SMALL
GASTEIGER

@<TRIPOS>ATOM
      1 C          -0.6691   -0.5536    1.2623 C.3     1  LIG1       -0.0132
      2 C           0.0021   -0.0041    0.0020 C.3     1  LIG1        0.1940
      3 C           1.4734   -0.3667   -0.0140 C.2     1  LIG1        0.2071
      4 O           1.9621   -1.4776   -0.0250 O.2     1  LIG1       -0.2879
      5 C           2.1543    0.8786   -0.0138 C.2     1  LIG1        0.0288
      6 C           1.2506    1.8797    0.0002 C.2     1  LIG1        0.1481
      7 O          -0.0174    1.4292    0.0099 O.2     1  LIG1       -0.4716
      8 C           1.6138    3.3169    0.0045 C.2     1  LIG1        0.1065
      9 O           0.7433    4.1629    0.0173 O.co2   1  LIG1       -0.5416
     10 C          -0.6852   -0.5321   -1.2308 C.ar    1  LIG1        0.0030
     11 C          -0.2648   -1.7187   -1.8018 C.ar    1  LIG1       -0.0544
     12 C          -0.8977   -2.2051   -2.9304 C.ar    1  LIG1       -0.0614
     13 C          -1.9458   -1.5007   -3.4928 C.ar    1  LIG1       -0.0617
     14 C          -2.3628   -0.3114   -2.9248 C.ar    1  LIG1       -0.0614
     15 C          -1.7323    0.1730   -1.7940 C.ar    1  LIG1       -0.0544
     16 H          -1.7073   -0.2232    1.2946 H       1  LIG1        0.0276
     17 H          -0.6349   -1.6430    1.2466 H       1  LIG1        0.0276
     18 H          -0.1433   -0.1862    2.1436 H       1  LIG1        0.0276
     19 H           3.2268    1.0047   -0.0234 H       1  LIG1        0.0691
     20 H           0.5563   -2.2674   -1.3644 H       1  LIG1        0.0622
     21 H          -0.5717   -3.1341   -3.3743 H       1  LIG1        0.0618
     22 H          -2.4386   -1.8793   -4.3761 H       1  LIG1        0.0618
     23 H          -3.1814    0.2392   -3.3644 H       1  LIG1        0.0618
     24 H          -2.0581    1.1022   -1.3502 H       1  LIG1        0.0622
     25 O           2.9097    3.6841   -0.0059 O.co2   1  LIG1       -0.5416
@<TRIPOS>BOND
     1     1     2    1
     2     1    16    1
     3     1    17    1
     4     1    18    1
     5     2     7    1
     6     2     3    1
     7     2    10    1
     8     3     4    2
     9     3     5    1
    10     5     6    2
    11     5    19    1
    12     6     7    1
    13     6     8    1
    14     8     9   ar
    15     8    25   ar
    16    10    15   ar
    17    10    11   ar
    18    11    12   ar
    19    11    20    1
    20    12    13   ar
    21    12    21    1
    22    13    14   ar
    23    13    22    1
    24    14    15   ar
    25    14    23    1
    26    15    24    1
