MODEL 1
REMARK VINA RESULT:      -6.7      0.000      0.000
REMARK  19 active torsions:
REMARK  status: ('A' for Active; 'I' for Inactive)
REMARK    1  A    between atoms: C1_1  and  C2_2 
REMARK    2  A    between atoms: C7_9  and  O13_78 
REMARK    3  A    between atoms: C8_11  and  C50_77 
REMARK    4  A    between atoms: C14_17  and  C49_76 
REMARK    5  A    between atoms: C16_20  and  C48_75 
REMARK    6  A    between atoms: C18_24  and  O12_73 
REMARK    7  A    between atoms: C19_26  and  O11_72 
REMARK    8  A    between atoms: C20_28  and  C46_71 
REMARK    9  A    between atoms: C22_30  and  C45_70 
REMARK   10  A    between atoms: C25_35  and  C35_54 
REMARK   11  A    between atoms: C34_51  and  O8_53 
REMARK   12  A    between atoms: C35_54  and  C36_56 
REMARK   13  A    between atoms: C35_54  and  C37_57 
REMARK   14  A    between atoms: C37_57  and  C38_58 
REMARK   15  A    between atoms: C41_62  and  O10_69 
REMARK   16  A    between atoms: C42_64  and  O9_67 
REMARK   17  A    between atoms: O9_67  and  C44_68 
REMARK   18  A    between atoms: O12_73  and  C47_74 
REMARK   19  A    between atoms: O13_78  and  C51_79 
ROOT
ATOM      1  C2  <0> d           6.093  -9.716  -4.654  0.00  0.00    -0.101 C 
ATOM      2  H1  <0> d           5.386  -9.579  -3.835  0.00  0.00     0.097 H 
ATOM      3  C3  <0> d           6.590 -11.162  -4.666  0.00  0.00    -0.109 C 
ATOM      4  C4  <0> d           5.494 -12.085  -5.213  0.00  0.00    -0.153 C 
ATOM      5  C5  <0> d           4.177 -11.312  -5.277  0.00  0.00     0.110 C 
ATOM      6  H2  <0> d           3.975 -10.881  -4.280  0.00  0.00     0.054 H 
ATOM      7  C6  <0> d           3.021 -12.241  -5.609  0.00  0.00    -0.106 C 
ATOM      8  C7  <0> d           3.306 -13.150  -6.806  0.00  0.00     0.132 C 
ATOM      9  H3  <0> d           3.835 -14.042  -6.476  0.00  0.00     0.070 H 
ATOM     10  C8  <0> d           1.975 -13.543  -7.412  0.00  0.00    -0.149 C 
ATOM     11  C9  <0> d           1.687 -13.281  -8.677  0.00  0.00    -0.111 C 
ATOM     12  C10 <0> d           0.380 -13.617  -9.247  0.00  0.00    -0.123 C 
ATOM     13  C11 <0> d           0.109 -13.268 -10.520  0.00  0.00    -0.118 C 
ATOM     14  C12 <0> d          -1.224 -13.490 -11.096  0.00  0.00    -0.138 C 
ATOM     15  C13 <0> d          -1.444 -13.022 -12.322  0.00  0.00    -0.128 C 
ATOM     16  C14 <0> d          -2.757 -13.094 -13.040  0.00  0.00    -0.058 C 
ATOM     17  H4  <0> d          -2.761 -14.010 -13.657  0.00  0.00     0.084 H 
ATOM     18  C15 <0> d          -2.919 -11.900 -13.973  0.00  0.00    -0.101 C 
ATOM     19  C16 <0> d          -3.062 -10.568 -13.247  0.00  0.00    -0.129 C 
ATOM     20  H5  <0> d          -3.742 -10.652 -12.403  0.00  0.00     0.097 H 
ATOM     21  C17 <0> d          -3.626  -9.540 -14.206  0.00  0.00     0.351 C 
ATOM     22  O1  <0> d          -3.893  -9.866 -15.339  0.00  0.00    -0.427 OA
ATOM     23  C18 <0> d          -3.839  -8.119 -13.763  0.00  0.00     0.060 C 
ATOM     24  H6  <0> d          -3.448  -7.972 -12.758  0.00  0.00     0.089 H 
ATOM     25  C19 <0> d          -3.129  -7.167 -14.728  0.00  0.00     0.152 C 
ATOM     26  H7  <0> d          -3.751  -7.002 -15.607  0.00  0.00     0.080 H 
ATOM     27  C20 <0> d          -2.879  -5.842 -14.040  0.00  0.00    -0.151 C 
ATOM     28  C21 <0> d          -1.961  -5.776 -13.116  0.00  0.00    -0.125 C 
ATOM     29  C22 <0> d          -1.612  -4.513 -12.378  0.00  0.00    -0.100 C 
ATOM     30  H8  <0> d          -1.768  -3.638 -13.004  0.00  0.00     0.111 H 
ATOM     31  C23 <0> d          -0.151  -4.572 -11.990  0.00  0.00     0.364 C 
ATOM     32  O2  <0> d           0.673  -4.779 -12.851  0.00  0.00    -0.440 OA
ATOM     33  C24 <0> d           0.272  -4.374 -10.562  0.00  0.00    -0.171 C 
ATOM     34  C25 <0> d           1.796  -4.469 -10.433  0.00  0.00     0.111 C 
ATOM     35  H9  <0> d           2.194  -5.122 -11.207  0.00  0.00     0.091 H 
ATOM     36  O3  <0> d           2.129  -4.998  -9.148  0.00  0.00    -0.371 OA
ATOM     37  C26 <0> d           3.423  -5.224  -8.868  0.00  0.00     0.456 C 
ATOM     38  O4  <0> d           4.133  -5.767  -9.680  0.00  0.00    -0.437 OA
ATOM     39  C27 <0> d           3.980  -4.789  -7.536  0.00  0.00     0.173 C 
ATOM     40  H10 <0> d           3.170  -4.745  -6.805  0.00  0.00     0.100 H 
ATOM     41  C28 <0> d           4.599  -3.400  -7.680  0.00  0.00    -0.138 C 
ATOM     42  C29 <0> d           5.142  -2.905  -6.345  0.00  0.00    -0.116 C 
ATOM     43  C30 <0> d           5.817  -4.017  -5.554  0.00  0.00    -0.139 C 
ATOM     44  C31 <0> d           6.245  -5.152  -6.484  0.00  0.00     0.121 C 
ATOM     45  N1  <0> d           4.999  -5.729  -7.065  0.00  0.00    -0.643 N 
ATOM     46  C32 <0> d           4.934  -7.048  -7.114  0.00  0.00     0.512 C 
ATOM     47  O5  <0> d           4.784  -7.588  -8.182  0.00  0.00    -0.431 OA
ATOM     48  C33 <0> d           4.981  -7.936  -5.942  0.00  0.00     0.327 C 
ATOM     49  O6  <0> d           4.668  -7.463  -4.878  0.00  0.00    -0.390 OA
ATOM     50  C34 <0> d           5.412  -9.374  -5.984  0.00  0.00     0.287 C 
ATOM     51  O7  <0> d           4.293 -10.233  -6.194  0.00  0.00    -0.354 OA
ATOM     52  H18 <0> d           7.477 -11.236  -5.296  0.00  0.00     0.077 H 
ATOM     53  H19 <0> d           6.846 -11.466  -3.649  0.00  0.00     0.070 H 
ATOM     54  H20 <0> d           5.774 -12.427  -6.210  0.00  0.00     0.086 H 
ATOM     55  H21 <0> d           5.380 -12.949  -4.555  0.00  0.00     0.073 H 
ATOM     56  H22 <0> d           2.813 -12.863  -4.735  0.00  0.00     0.092 H 
ATOM     57  H23 <0> d           2.137 -11.637  -5.821  0.00  0.00     0.080 H 
ATOM     58  H24 <0> d           2.423 -12.814  -9.321  0.00  0.00     0.119 H 
ATOM     59  H25 <0> d          -0.374 -14.141  -8.684  0.00  0.00     0.114 H 
ATOM     60  H26 <0> d           0.879 -12.823 -11.133  0.00  0.00     0.110 H 
ATOM     61  H27 <0> d          -1.965 -14.028 -10.534  0.00  0.00     0.116 H 
ATOM     62  H28 <0> d          -0.591 -12.575 -12.840  0.00  0.00     0.107 H 
ATOM     63  H29 <0> d          -2.048 -11.852 -14.639  0.00  0.00     0.068 H 
ATOM     64  H30 <0> d          -3.804 -12.063 -14.600  0.00  0.00     0.073 H 
ATOM     65  H31 <0> d          -1.420  -6.687 -12.866  0.00  0.00     0.115 H 
ATOM     66  H32 <0> d          -0.037  -3.383 -10.225  0.00  0.00     0.116 H 
ATOM     67  H33 <0> d          -0.178  -5.136  -9.932  0.00  0.00     0.118 H 
ATOM     68  H34 <0> d           5.414  -3.447  -8.403  0.00  0.00     0.087 H 
ATOM     69  H35 <0> d           3.840  -2.702  -8.035  0.00  0.00     0.102 H 
ATOM     70  H36 <0> d           5.874  -2.118  -6.536  0.00  0.00     0.075 H 
ATOM     71  H37 <0> d           4.326  -2.492  -5.755  0.00  0.00     0.073 H 
ATOM     72  H38 <0> d           6.697  -3.613  -5.053  0.00  0.00     0.082 H 
ATOM     73  H39 <0> d           5.123  -4.400  -4.809  0.00  0.00     0.077 H 
ATOM     74  H40 <0> d           6.874  -4.764  -7.284  0.00  0.00     0.080 H 
ATOM     75  H41 <0> d           6.779  -5.917  -5.924  0.00  0.00     0.082 H 
ENDROOT
BRANCH  34  76
ATOM     76  C35 <0> d           2.407  -3.074 -10.585  0.00  0.00    -0.122 C 
ATOM     77  H11 <0> d           3.099  -2.889  -9.764  0.00  0.00     0.093 H 
BRANCH  76  78
ATOM     78  C36 <0> d           3.159  -2.990 -11.915  0.00  0.00    -0.161 C 
ATOM     79  H43 <0> d           4.109  -2.479 -11.762  0.00  0.00     0.066 H 
ATOM     80  H44 <0> d           3.343  -3.995 -12.293  0.00  0.00     0.062 H 
ATOM     81  H45 <0> d           2.560  -2.435 -12.637  0.00  0.00     0.066 H 
ENDBRANCH  76  78
BRANCH  76  82
ATOM     82  C37 <0> d           1.293  -2.025 -10.561  0.00  0.00    -0.137 C 
ATOM     83  H46 <0> d           0.900  -1.889 -11.568  0.00  0.00     0.078 H 
ATOM     84  H47 <0> d           0.493  -2.360  -9.900  0.00  0.00     0.075 H 
BRANCH  82  85
ATOM     85  C38 <0> d           1.855  -0.697 -10.049  0.00  0.00    -0.083 C 
ATOM     86  H12 <0> d           1.045   0.025  -9.949  0.00  0.00     0.077 H 
ATOM     87  C43 <0> d           2.517  -0.915  -8.687  0.00  0.00    -0.110 C 
ATOM     88  C42 <0> d           3.078   0.413  -8.175  0.00  0.00     0.102 C 
ATOM     89  H52 <0> d           1.777  -1.294  -7.981  0.00  0.00     0.074 H 
ATOM     90  H53 <0> d           3.326  -1.638  -8.787  0.00  0.00     0.075 H 
ATOM     91  C41 <0> d           4.115   0.944  -9.166  0.00  0.00     0.083 C 
ATOM     92  H14 <0> d           2.269   1.135  -8.074  0.00  0.00     0.065 H 
ATOM     93  C40 <0> d           3.454   1.162 -10.528  0.00  0.00    -0.150 C 
ATOM     94  H13 <0> d           4.926   0.221  -9.267  0.00  0.00     0.062 H 
ATOM     95  C39 <0> d           2.893  -0.166 -11.041  0.00  0.00    -0.116 C 
ATOM     96  H50 <0> d           4.194   1.540 -11.235  0.00  0.00     0.069 H 
ATOM     97  H51 <0> d           2.645   1.884 -10.428  0.00  0.00     0.071 H 
ATOM     98  H48 <0> d           3.702  -0.889 -11.141  0.00  0.00     0.068 H 
ATOM     99  H49 <0> d           2.422  -0.011 -12.011  0.00  0.00     0.070 H 
BRANCH  88 100
ATOM    100  O9  <0> d           3.696   0.209  -6.902  0.00  0.00    -0.381 OA
BRANCH 100 101
ATOM    101  C44 <0> d           2.793   0.290  -5.798  0.00  0.00     0.031 C 
ATOM    102  H54 <0> d           1.814   0.613  -6.152  0.00  0.00     0.081 H 
ATOM    103  H55 <0> d           2.705  -0.690  -5.329  0.00  0.00     0.060 H 
ATOM    104  H56 <0> d           3.171   1.009  -5.071  0.00  0.00     0.035 H 
ENDBRANCH 100 101
ENDBRANCH  88 100
BRANCH  91 105
ATOM    105  O10 <0> d           4.641   2.184  -8.687  0.00  0.00    -0.565 OA
ATOM    106  H57 <0> d           4.921   2.160  -7.762  0.00  0.00     0.377 HD
ENDBRANCH  91 105
ENDBRANCH  82  85
ENDBRANCH  76  82
ENDBRANCH  34  76
BRANCH  29 107
ATOM    107  C45 <0> d          -2.477  -4.398 -11.121  0.00  0.00    -0.147 C 
ATOM    108  H58 <0> d          -2.438  -5.336 -10.568  0.00  0.00     0.065 H 
ATOM    109  H59 <0> d          -2.100  -3.590 -10.493  0.00  0.00     0.068 H 
ATOM    110  H60 <0> d          -3.507  -4.187 -11.407  0.00  0.00     0.068 H 
ENDBRANCH  29 107
BRANCH  27 111
ATOM    111  C46 <0> d          -3.692  -4.643 -14.449  0.00  0.00    -0.117 C 
ATOM    112  H61 <0> d          -3.718  -3.925 -13.628  0.00  0.00     0.074 H 
ATOM    113  H62 <0> d          -3.238  -4.178 -15.323  0.00  0.00     0.065 H 
ATOM    114  H63 <0> d          -4.707  -4.958 -14.690  0.00  0.00     0.066 H 
ENDBRANCH  27 111
BRANCH  25 115
ATOM    115  O11 <0> d          -1.879  -7.725 -15.134  0.00  0.00    -0.554 OA
ATOM    116  H64 <0> d          -1.525  -8.384 -14.521  0.00  0.00     0.392 HD
ENDBRANCH  25 115
BRANCH  23 117
ATOM    117  O12 <0> d          -5.242  -7.833 -13.767  0.00  0.00    -0.361 OA
BRANCH 117 118
ATOM    118  C47 <0> d          -5.791  -7.601 -12.469  0.00  0.00     0.025 C 
ATOM    119  H65 <0> d          -6.864  -7.430 -12.553  0.00  0.00     0.044 H 
ATOM    120  H66 <0> d          -5.611  -8.471 -11.837  0.00  0.00     0.050 H 
ATOM    121  H67 <0> d          -5.317  -6.726 -12.025  0.00  0.00     0.096 H 
ENDBRANCH 117 118
ENDBRANCH  23 117
BRANCH  50 122
ATOM    122  O8  <0> d           6.355  -9.556  -7.041  0.00  0.00    -0.541 OA
ATOM    123  H42 <0> d           6.420  -8.803  -7.643  0.00  0.00     0.394 HD
ENDBRANCH  50 122
BRANCH   1 124
ATOM    124  C1  <0> d           7.296  -8.788  -4.440  0.00  0.00    -0.150 C 
ATOM    125  H15 <0> d           7.141  -7.860  -4.988  0.00  0.00     0.052 H 
ATOM    126  H16 <0> d           7.402  -8.570  -3.378  0.00  0.00     0.067 H 
ATOM    127  H17 <0> d           8.201  -9.277  -4.803  0.00  0.00     0.071 H 
ENDBRANCH   1 124
BRANCH  19 128
ATOM    128  C48 <0> d          -1.696 -10.077 -12.760  0.00  0.00    -0.145 C 
ATOM    129  H68 <0> d          -1.339  -9.285 -13.419  0.00  0.00     0.066 H 
ATOM    130  H69 <0> d          -1.789  -9.692 -11.745  0.00  0.00     0.054 H 
ATOM    131  H70 <0> d          -0.988 -10.905 -12.772  0.00  0.00     0.076 H 
ENDBRANCH  19 128
BRANCH  16 132
ATOM    132  C49 <0> d          -3.923 -13.181 -12.061  0.00  0.00    -0.148 C 
ATOM    133  H71 <0> d          -4.692 -12.463 -12.347  0.00  0.00     0.057 H 
ATOM    134  H72 <0> d          -4.341 -14.188 -12.082  0.00  0.00     0.058 H 
ATOM    135  H73 <0> d          -3.571 -12.955 -11.055  0.00  0.00     0.058 H 
ENDBRANCH  16 132
BRANCH   8 136
ATOM    136  O13 <0> d           4.085 -12.454  -7.781  0.00  0.00    -0.353 OA
BRANCH 136 137
ATOM    137  C51 <0> d           5.087 -13.258  -8.405  0.00  0.00     0.026 C 
ATOM    138  H77 <0> d           5.219 -14.180  -7.838  0.00  0.00     0.039 H 
ATOM    139  H78 <0> d           4.780 -13.498  -9.423  0.00  0.00     0.040 H 
ATOM    140  H79 <0> d           6.030 -12.710  -8.429  0.00  0.00     0.086 H 
ENDBRANCH 136 137
ENDBRANCH   8 136
BRANCH  10 141
ATOM    141  C50 <0> d           0.978 -14.261  -6.533  0.00  0.00    -0.119 C 
ATOM    142  H74 <0> d           1.510 -14.826  -5.768  0.00  0.00     0.068 H 
ATOM    143  H75 <0> d           0.324 -13.531  -6.056  0.00  0.00     0.067 H 
ATOM    144  H76 <0> d           0.382 -14.941  -7.140  0.00  0.00     0.062 H 
ENDBRANCH  10 141
TORSDOF 19
ENDMDL
MODEL 2
REMARK VINA RESULT:      -6.5      2.190      3.774
REMARK  19 active torsions:
REMARK  status: ('A' for Active; 'I' for Inactive)
REMARK    1  A    between atoms: C1_1  and  C2_2 
REMARK    2  A    between atoms: C7_9  and  O13_78 
REMARK    3  A    between atoms: C8_11  and  C50_77 
REMARK    4  A    between atoms: C14_17  and  C49_76 
REMARK    5  A    between atoms: C16_20  and  C48_75 
REMARK    6  A    between atoms: C18_24  and  O12_73 
REMARK    7  A    between atoms: C19_26  and  O11_72 
REMARK    8  A    between atoms: C20_28  and  C46_71 
REMARK    9  A    between atoms: C22_30  and  C45_70 
REMARK   10  A    between atoms: C25_35  and  C35_54 
REMARK   11  A    between atoms: C34_51  and  O8_53 
REMARK   12  A    between atoms: C35_54  and  C36_56 
REMARK   13  A    between atoms: C35_54  and  C37_57 
REMARK   14  A    between atoms: C37_57  and  C38_58 
REMARK   15  A    between atoms: C41_62  and  O10_69 
REMARK   16  A    between atoms: C42_64  and  O9_67 
REMARK   17  A    between atoms: O9_67  and  C44_68 
REMARK   18  A    between atoms: O12_73  and  C47_74 
REMARK   19  A    between atoms: O13_78  and  C51_79 
ROOT
ATOM      1  C2  <0> d           9.254  -5.719  -4.040  0.00  0.00    -0.101 C 
ATOM      2  H1  <0> d           8.588  -5.521  -3.200  0.00  0.00     0.097 H 
ATOM      3  C3  <0> d          10.151  -6.913  -3.713  0.00  0.00    -0.109 C 
ATOM      4  C4  <0> d           9.343  -8.213  -3.809  0.00  0.00    -0.153 C 
ATOM      5  C5  <0> d           7.855  -7.870  -3.897  0.00  0.00     0.110 C 
ATOM      6  H2  <0> d           7.596  -7.217  -3.046  0.00  0.00     0.054 H 
ATOM      7  C6  <0> d           7.004  -9.124  -3.779  0.00  0.00    -0.106 C 
ATOM      8  C7  <0> d           7.472 -10.255  -4.697  0.00  0.00     0.132 C 
ATOM      9  H3  <0> d           8.257 -10.828  -4.208  0.00  0.00     0.070 H 
ATOM     10  C8  <0> d           6.280 -11.151  -4.965  0.00  0.00    -0.149 C 
ATOM     11  C9  <0> d           5.854 -11.383  -6.197  0.00  0.00    -0.111 C 
ATOM     12  C10 <0> d           4.671 -12.210  -6.450  0.00  0.00    -0.123 C 
ATOM     13  C11 <0> d           4.235 -12.361  -7.716  0.00  0.00    -0.118 C 
ATOM     14  C12 <0> d           2.993 -13.092  -8.004  0.00  0.00    -0.138 C 
ATOM     15  C13 <0> d           2.574 -13.106  -9.267  0.00  0.00    -0.128 C 
ATOM     16  C14 <0> d           1.299 -13.740  -9.735  0.00  0.00    -0.058 C 
ATOM     17  H4  <0> d           1.526 -14.771 -10.059  0.00  0.00     0.084 H 
ATOM     18  C15 <0> d           0.739 -12.985 -10.935  0.00  0.00    -0.101 C 
ATOM     19  C16 <0> d           0.256 -11.577 -10.605  0.00  0.00    -0.129 C 
ATOM     20  H5  <0> d          -0.318 -11.567  -9.681  0.00  0.00     0.097 H 
ATOM     21  C17 <0> d          -0.640 -11.087 -11.723  0.00  0.00     0.351 C 
ATOM     22  O1  <0> d          -0.866 -11.810 -12.665  0.00  0.00    -0.427 OA
ATOM     23  C18 <0> d          -1.232  -9.706 -11.676  0.00  0.00     0.060 C 
ATOM     24  H6  <0> d          -0.843  -9.155 -10.822  0.00  0.00     0.089 H 
ATOM     25  C19 <0> d          -0.891  -8.954 -12.964  0.00  0.00     0.152 C 
ATOM     26  H7  <0> d          -1.585  -9.242 -13.753  0.00  0.00     0.080 H 
ATOM     27  C20 <0> d          -0.999  -7.464 -12.726  0.00  0.00    -0.151 C 
ATOM     28  C21 <0> d          -0.088  -6.875 -12.002  0.00  0.00    -0.125 C 
ATOM     29  C22 <0> d          -0.080  -5.399 -11.713  0.00  0.00    -0.100 C 
ATOM     30  H8  <0> d          -0.522  -4.837 -12.532  0.00  0.00     0.111 H 
ATOM     31  C23 <0> d           1.355  -4.950 -11.542  0.00  0.00     0.364 C 
ATOM     32  O2  <0> d           2.151  -5.195 -12.419  0.00  0.00    -0.440 OA
ATOM     33  C24 <0> d           1.785  -4.212 -10.306  0.00  0.00    -0.171 C 
ATOM     34  C25 <0> d           3.275  -3.861 -10.380  0.00  0.00     0.111 C 
ATOM     35  H9  <0> d           3.800  -4.596 -10.986  0.00  0.00     0.091 H 
ATOM     36  O3  <0> d           3.824  -3.854  -9.061  0.00  0.00    -0.371 OA
ATOM     37  C26 <0> d           5.141  -3.635  -8.920  0.00  0.00     0.456 C 
ATOM     38  O4  <0> d           5.930  -4.201  -9.638  0.00  0.00    -0.437 OA
ATOM     39  C27 <0> d           5.625  -2.675  -7.863  0.00  0.00     0.173 C 
ATOM     40  H10 <0> d           4.882  -2.616  -7.064  0.00  0.00     0.100 H 
ATOM     41  C28 <0> d           5.801  -1.290  -8.483  0.00  0.00    -0.138 C 
ATOM     42  C29 <0> d           6.253  -0.279  -7.439  0.00  0.00    -0.116 C 
ATOM     43  C30 <0> d           7.270  -0.869  -6.472  0.00  0.00    -0.139 C 
ATOM     44  C31 <0> d           7.955  -2.086  -7.094  0.00  0.00     0.121 C 
ATOM     45  N1  <0> d           6.900  -3.120  -7.298  0.00  0.00    -0.643 N 
ATOM     46  C32 <0> d           7.221  -4.356  -6.960  0.00  0.00     0.512 C 
ATOM     47  O5  <0> d           7.173  -5.223  -7.796  0.00  0.00    -0.431 OA
ATOM     48  C33 <0> d           7.596  -4.787  -5.604  0.00  0.00     0.327 C 
ATOM     49  O6  <0> d           7.221  -4.102  -4.684  0.00  0.00    -0.390 OA
ATOM     50  C34 <0> d           8.425  -6.001  -5.298  0.00  0.00     0.287 C 
ATOM     51  O7  <0> d           7.596  -7.143  -5.090  0.00  0.00    -0.354 OA
ATOM     52  H18 <0> d          10.982  -6.948  -4.419  0.00  0.00     0.077 H 
ATOM     53  H19 <0> d          10.544  -6.805  -2.700  0.00  0.00     0.070 H 
ATOM     54  H20 <0> d           9.651  -8.765  -4.698  0.00  0.00     0.086 H 
ATOM     55  H21 <0> d           9.526  -8.825  -2.923  0.00  0.00     0.073 H 
ATOM     56  H22 <0> d           7.040  -9.471  -2.744  0.00  0.00     0.092 H 
ATOM     57  H23 <0> d           5.971  -8.869  -4.023  0.00  0.00     0.080 H 
ATOM     58  H24 <0> d           6.381 -10.968  -7.047  0.00  0.00     0.119 H 
ATOM     59  H25 <0> d           4.138 -12.708  -5.658  0.00  0.00     0.114 H 
ATOM     60  H26 <0> d           4.802 -11.947  -8.536  0.00  0.00     0.110 H 
ATOM     61  H27 <0> d           2.477 -13.599  -7.211  0.00  0.00     0.116 H 
ATOM     62  H28 <0> d           3.226 -12.639 -10.009  0.00  0.00     0.107 H 
ATOM     63  H29 <0> d           1.517 -12.923 -11.707  0.00  0.00     0.068 H 
ATOM     64  H30 <0> d          -0.094 -13.561 -11.354  0.00  0.00     0.073 H 
ATOM     65  H31 <0> d           0.710  -7.487 -11.585  0.00  0.00     0.115 H 
ATOM     66  H32 <0> d           1.220  -3.280 -10.223  0.00  0.00     0.116 H 
ATOM     67  H33 <0> d           1.616  -4.826  -9.427  0.00  0.00     0.118 H 
ATOM     68  H34 <0> d           6.549  -1.348  -9.274  0.00  0.00     0.087 H 
ATOM     69  H35 <0> d           4.851  -0.962  -8.907  0.00  0.00     0.102 H 
ATOM     70  H36 <0> d           6.710   0.571  -7.950  0.00  0.00     0.075 H 
ATOM     71  H37 <0> d           5.389   0.072  -6.878  0.00  0.00     0.073 H 
ATOM     72  H38 <0> d           8.021  -0.114  -6.240  0.00  0.00     0.082 H 
ATOM     73  H39 <0> d           6.763  -1.166  -5.556  0.00  0.00     0.077 H 
ATOM     74  H40 <0> d           8.394  -1.819  -8.053  0.00  0.00     0.080 H 
ATOM     75  H41 <0> d           8.722  -2.470  -6.423  0.00  0.00     0.082 H 
ENDROOT
BRANCH  34  76
ATOM     76  C35 <0> d           3.441  -2.476 -11.010  0.00  0.00    -0.122 C 
ATOM     77  H11 <0> d           4.199  -1.916 -10.462  0.00  0.00     0.093 H 
BRANCH  76  78
ATOM     78  C36 <0> d           3.874  -2.628 -12.469  0.00  0.00    -0.161 C 
ATOM     79  H43 <0> d           3.482  -1.796 -13.052  0.00  0.00     0.066 H 
ATOM     80  H44 <0> d           4.962  -2.632 -12.526  0.00  0.00     0.062 H 
ATOM     81  H45 <0> d           3.486  -3.566 -12.867  0.00  0.00     0.066 H 
ENDBRANCH  76  78
BRANCH  76  82
ATOM     82  C37 <0> d           2.108  -1.726 -10.948  0.00  0.00    -0.137 C 
ATOM     83  H46 <0> d           1.626  -1.762 -11.925  0.00  0.00     0.078 H 
ATOM     84  H47 <0> d           1.462  -2.194 -10.205  0.00  0.00     0.075 H 
BRANCH  82  85
ATOM     85  C38 <0> d           2.362  -0.268 -10.558  0.00  0.00    -0.083 C 
ATOM     86  H12 <0> d           1.533   0.350 -10.905  0.00  0.00     0.077 H 
ATOM     87  C43 <0> d           2.477  -0.161  -9.036  0.00  0.00    -0.110 C 
ATOM     88  C42 <0> d           2.730   1.297  -8.646  0.00  0.00     0.102 C 
ATOM     89  H52 <0> d           1.550  -0.504  -8.577  0.00  0.00     0.074 H 
ATOM     90  H53 <0> d           3.305  -0.778  -8.690  0.00  0.00     0.075 H 
ATOM     91  C41 <0> d           4.031   1.779  -9.292  0.00  0.00     0.083 C 
ATOM     92  H14 <0> d           1.902   1.915  -8.993  0.00  0.00     0.065 H 
ATOM     93  C40 <0> d           3.916   1.672 -10.813  0.00  0.00    -0.150 C 
ATOM     94  H13 <0> d           4.860   1.161  -8.945  0.00  0.00     0.062 H 
ATOM     95  C39 <0> d           3.663   0.214 -11.204  0.00  0.00    -0.116 C 
ATOM     96  H50 <0> d           4.843   2.015 -11.273  0.00  0.00     0.069 H 
ATOM     97  H51 <0> d           3.088   2.289 -11.160  0.00  0.00     0.071 H 
ATOM     98  H48 <0> d           4.491  -0.404 -10.857  0.00  0.00     0.068 H 
ATOM     99  H49 <0> d           3.581   0.137 -12.288  0.00  0.00     0.070 H 
BRANCH  88 100
ATOM    100  O9  <0> d           2.838   1.398  -7.225  0.00  0.00    -0.381 OA
BRANCH 100 101
ATOM    101  C44 <0> d           2.860   0.137  -6.552  0.00  0.00     0.031 C 
ATOM    102  H54 <0> d           2.978   0.299  -5.481  0.00  0.00     0.081 H 
ATOM    103  H55 <0> d           1.925  -0.390  -6.740  0.00  0.00     0.060 H 
ATOM    104  H56 <0> d           3.694  -0.458  -6.924  0.00  0.00     0.035 H 
ENDBRANCH 100 101
ENDBRANCH  88 100
BRANCH  91 105
ATOM    105  O10 <0> d           4.268   3.140  -8.926  0.00  0.00    -0.565 OA
ATOM    106  H57 <0> d           4.027   3.350  -8.013  0.00  0.00     0.377 HD
ENDBRANCH  91 105
ENDBRANCH  82  85
ENDBRANCH  76  82
ENDBRANCH  34  76
BRANCH  29 107
ATOM    107  C45 <0> d          -0.865  -5.125 -10.428  0.00  0.00    -0.147 C 
ATOM    108  H58 <0> d          -1.846  -4.722 -10.680  0.00  0.00     0.065 H 
ATOM    109  H59 <0> d          -0.987  -6.054  -9.871  0.00  0.00     0.068 H 
ATOM    110  H60 <0> d          -0.322  -4.404  -9.818  0.00  0.00     0.068 H 
ENDBRANCH  29 107
BRANCH  27 111
ATOM    111  C46 <0> d          -2.150  -6.709 -13.335  0.00  0.00    -0.117 C 
ATOM    112  H61 <0> d          -1.851  -6.311 -14.305  0.00  0.00     0.074 H 
ATOM    113  H62 <0> d          -2.997  -7.382 -13.464  0.00  0.00     0.065 H 
ATOM    114  H63 <0> d          -2.434  -5.888 -12.676  0.00  0.00     0.066 H 
ENDBRANCH  27 111
BRANCH  25 115
ATOM    115  O11 <0> d           0.442  -9.266 -13.373  0.00  0.00    -0.554 OA
ATOM    116  H64 <0> d           1.034  -9.494 -12.643  0.00  0.00     0.392 HD
ENDBRANCH  25 115
BRANCH  23 117
ATOM    117  O12 <0> d          -2.656  -9.811 -11.555  0.00  0.00    -0.361 OA
BRANCH 117 118
ATOM    118  C47 <0> d          -3.113 -10.010 -10.217  0.00  0.00     0.025 C 
ATOM    119  H65 <0> d          -3.135  -9.054  -9.694  0.00  0.00     0.044 H 
ATOM    120  H66 <0> d          -4.115 -10.438 -10.235  0.00  0.00     0.050 H 
ATOM    121  H67 <0> d          -2.436 -10.690  -9.699  0.00  0.00     0.096 H 
ENDBRANCH 117 118
ENDBRANCH  23 117
BRANCH  50 122
ATOM    122  O8  <0> d           9.315  -6.253  -6.386  0.00  0.00    -0.541 OA
ATOM    123  H42 <0> d           8.875  -6.544  -7.195  0.00  0.00     0.394 HD
ENDBRANCH  50 122
BRANCH   1 124
ATOM    124  C1  <0> d          10.143  -4.491  -4.276  0.00  0.00    -0.150 C 
ATOM    125  H15 <0> d          10.587  -4.549  -5.270  0.00  0.00     0.052 H 
ATOM    126  H16 <0> d           9.541  -3.586  -4.199  0.00  0.00     0.067 H 
ATOM    127  H17 <0> d          10.935  -4.466  -3.527  0.00  0.00     0.071 H 
ENDBRANCH   1 124
BRANCH  19 128
ATOM    128  C48 <0> d           1.445 -10.621 -10.482  0.00  0.00    -0.145 C 
ATOM    129  H68 <0> d           2.323 -11.174 -10.147  0.00  0.00     0.066 H 
ATOM    130  H69 <0> d           1.648 -10.168 -11.452  0.00  0.00     0.054 H 
ATOM    131  H70 <0> d           1.210  -9.840  -9.758  0.00  0.00     0.076 H 
ENDBRANCH  19 128
BRANCH  16 132
ATOM    132  C49 <0> d           0.269 -13.816  -8.612  0.00  0.00    -0.148 C 
ATOM    133  H71 <0> d          -0.268 -14.762  -8.675  0.00  0.00     0.057 H 
ATOM    134  H72 <0> d           0.775 -13.749  -7.649  0.00  0.00     0.058 H 
ATOM    135  H73 <0> d          -0.437 -12.991  -8.710  0.00  0.00     0.058 H 
ENDBRANCH  16 132
BRANCH   8 136
ATOM    136  O13 <0> d           7.953  -9.723  -5.932  0.00  0.00    -0.353 OA
BRANCH 136 137
ATOM    137  C51 <0> d           9.106 -10.394  -6.444  0.00  0.00     0.026 C 
ATOM    138  H77 <0> d           8.806 -11.071  -7.244  0.00  0.00     0.039 H 
ATOM    139  H78 <0> d           9.811  -9.660  -6.834  0.00  0.00     0.040 H 
ATOM    140  H79 <0> d           9.579 -10.964  -5.644  0.00  0.00     0.086 H 
ENDBRANCH 136 137
ENDBRANCH   8 136
BRANCH  10 141
ATOM    141  C50 <0> d           5.591 -11.790  -3.783  0.00  0.00    -0.119 C 
ATOM    142  H74 <0> d           4.570 -11.415  -3.711  0.00  0.00     0.068 H 
ATOM    143  H75 <0> d           5.572 -12.872  -3.914  0.00  0.00     0.067 H 
ATOM    144  H76 <0> d           6.134 -11.544  -2.870  0.00  0.00     0.062 H 
ENDBRANCH  10 141
TORSDOF 19
ENDMDL
MODEL 3
REMARK VINA RESULT:      -6.3      2.989     12.687
REMARK  19 active torsions:
REMARK  status: ('A' for Active; 'I' for Inactive)
REMARK    1  A    between atoms: C1_1  and  C2_2 
REMARK    2  A    between atoms: C7_9  and  O13_78 
REMARK    3  A    between atoms: C8_11  and  C50_77 
REMARK    4  A    between atoms: C14_17  and  C49_76 
REMARK    5  A    between atoms: C16_20  and  C48_75 
REMARK    6  A    between atoms: C18_24  and  O12_73 
REMARK    7  A    between atoms: C19_26  and  O11_72 
REMARK    8  A    between atoms: C20_28  and  C46_71 
REMARK    9  A    between atoms: C22_30  and  C45_70 
REMARK   10  A    between atoms: C25_35  and  C35_54 
REMARK   11  A    between atoms: C34_51  and  O8_53 
REMARK   12  A    between atoms: C35_54  and  C36_56 
REMARK   13  A    between atoms: C35_54  and  C37_57 
REMARK   14  A    between atoms: C37_57  and  C38_58 
REMARK   15  A    between atoms: C41_62  and  O10_69 
REMARK   16  A    between atoms: C42_64  and  O9_67 
REMARK   17  A    between atoms: O9_67  and  C44_68 
REMARK   18  A    between atoms: O12_73  and  C47_74 
REMARK   19  A    between atoms: O13_78  and  C51_79 
ROOT
ATOM      1  C2  <0> d           1.652  -0.864 -10.277  0.00  0.00    -0.101 C 
ATOM      2  H1  <0> d           0.842  -0.911  -9.549  0.00  0.00     0.097 H 
ATOM      3  C3  <0> d           2.339   0.499 -10.193  0.00  0.00    -0.109 C 
ATOM      4  C4  <0> d           3.217   0.564  -8.938  0.00  0.00    -0.153 C 
ATOM      5  C5  <0> d           2.884  -0.624  -8.034  0.00  0.00     0.110 C 
ATOM      6  H2  <0> d           1.795  -0.626  -7.847  0.00  0.00     0.054 H 
ATOM      7  C6  <0> d           3.572  -0.487  -6.686  0.00  0.00    -0.106 C 
ATOM      8  C7  <0> d           5.060  -0.151  -6.804  0.00  0.00     0.132 C 
ATOM      9  H3  <0> d           5.190   0.925  -6.900  0.00  0.00     0.070 H 
ATOM     10  C8  <0> d           5.742  -0.635  -5.541  0.00  0.00    -0.149 C 
ATOM     11  C9  <0> d           6.738  -1.506  -5.584  0.00  0.00    -0.111 C 
ATOM     12  C10 <0> d           7.362  -2.011  -4.358  0.00  0.00    -0.123 C 
ATOM     13  C11 <0> d           8.325  -2.948  -4.450  0.00  0.00    -0.118 C 
ATOM     14  C12 <0> d           8.902  -3.558  -3.245  0.00  0.00    -0.138 C 
ATOM     15  C13 <0> d           9.771  -4.551  -3.420  0.00  0.00    -0.128 C 
ATOM     16  C14 <0> d          10.405  -5.335  -2.312  0.00  0.00    -0.058 C 
ATOM     17  H4  <0> d          11.373  -4.863  -2.067  0.00  0.00     0.084 H 
ATOM     18  C15 <0> d          10.683  -6.764  -2.762  0.00  0.00    -0.101 C 
ATOM     19  C16 <0> d           9.424  -7.586  -3.011  0.00  0.00    -0.129 C 
ATOM     20  H5  <0> d           8.693  -7.433  -2.220  0.00  0.00     0.097 H 
ATOM     21  C17 <0> d           9.789  -9.055  -3.037  0.00  0.00     0.351 C 
ATOM     22  O1  <0> d          10.938  -9.386  -2.857  0.00  0.00    -0.427 OA
ATOM     23  C18 <0> d           8.739 -10.099  -3.301  0.00  0.00     0.060 C 
ATOM     24  H6  <0> d           7.789  -9.627  -3.547  0.00  0.00     0.089 H 
ATOM     25  C19 <0> d           9.179 -10.991  -4.462  0.00  0.00     0.152 C 
ATOM     26  H7  <0> d           9.868 -11.754  -4.100  0.00  0.00     0.080 H 
ATOM     27  C20 <0> d           7.969 -11.663  -5.073  0.00  0.00    -0.151 C 
ATOM     28  C21 <0> d           7.142 -10.947  -5.783  0.00  0.00    -0.125 C 
ATOM     29  C22 <0> d           5.918 -11.508  -6.453  0.00  0.00    -0.100 C 
ATOM     30  H8  <0> d           6.069 -12.545  -6.740  0.00  0.00     0.111 H 
ATOM     31  C23 <0> d           5.641 -10.699  -7.702  0.00  0.00     0.364 C 
ATOM     32  O2  <0> d           6.523 -10.565  -8.518  0.00  0.00    -0.440 OA
ATOM     33  C24 <0> d           4.293 -10.074  -7.927  0.00  0.00    -0.171 C 
ATOM     34  C25 <0> d           4.264  -9.322  -9.262  0.00  0.00     0.111 C 
ATOM     35  H9  <0> d           5.262  -8.966  -9.508  0.00  0.00     0.091 H 
ATOM     36  O3  <0> d           3.374  -8.209  -9.158  0.00  0.00    -0.371 OA
ATOM     37  C26 <0> d           3.264  -7.381 -10.208  0.00  0.00     0.456 C 
ATOM     38  O4  <0> d           4.254  -7.001 -10.788  0.00  0.00    -0.437 OA
ATOM     39  C27 <0> d           1.897  -6.933 -10.661  0.00  0.00     0.173 C 
ATOM     40  H10 <0> d           1.205  -6.986  -9.818  0.00  0.00     0.100 H 
ATOM     41  C28 <0> d           1.405  -7.864 -11.768  0.00  0.00    -0.138 C 
ATOM     42  C29 <0> d           0.008  -7.470 -12.229  0.00  0.00    -0.116 C 
ATOM     43  C30 <0> d          -0.167  -5.960 -12.302  0.00  0.00    -0.139 C 
ATOM     44  C31 <0> d           1.192  -5.269 -12.421  0.00  0.00     0.121 C 
ATOM     45  N1  <0> d           1.938  -5.559 -11.163  0.00  0.00    -0.643 N 
ATOM     46  C32 <0> d           2.584  -4.543 -10.619  0.00  0.00     0.512 C 
ATOM     47  O5  <0> d           3.775  -4.626 -10.456  0.00  0.00    -0.431 OA
ATOM     48  C33 <0> d           1.950  -3.304 -10.139  0.00  0.00     0.327 C 
ATOM     49  O6  <0> d           0.779  -3.358  -9.855  0.00  0.00    -0.390 OA
ATOM     50  C34 <0> d           2.658  -1.987 -10.001  0.00  0.00     0.287 C 
ATOM     51  O7  <0> d           3.208  -1.840  -8.694  0.00  0.00    -0.354 OA
ATOM     52  H18 <0> d           2.957   0.650 -11.079  0.00  0.00     0.077 H 
ATOM     53  H19 <0> d           1.581   1.284 -10.146  0.00  0.00     0.070 H 
ATOM     54  H20 <0> d           4.268   0.525  -9.229  0.00  0.00     0.086 H 
ATOM     55  H21 <0> d           3.025   1.496  -8.403  0.00  0.00     0.073 H 
ATOM     56  H22 <0> d           3.075   0.305  -6.121  0.00  0.00     0.092 H 
ATOM     57  H23 <0> d           3.459  -1.425  -6.140  0.00  0.00     0.080 H 
ATOM     58  H24 <0> d           7.117  -1.859  -6.535  0.00  0.00     0.119 H 
ATOM     59  H25 <0> d           7.081  -1.654  -3.382  0.00  0.00     0.114 H 
ATOM     60  H26 <0> d           8.688  -3.257  -5.420  0.00  0.00     0.110 H 
ATOM     61  H27 <0> d           8.629  -3.185  -2.275  0.00  0.00     0.116 H 
ATOM     62  H28 <0> d          10.050  -4.787  -4.451  0.00  0.00     0.107 H 
ATOM     63  H29 <0> d          11.277  -6.734  -3.685  0.00  0.00     0.068 H 
ATOM     64  H30 <0> d          11.291  -7.261  -1.997  0.00  0.00     0.073 H 
ATOM     65  H31 <0> d           7.352  -9.885  -5.896  0.00  0.00     0.115 H 
ATOM     66  H32 <0> d           3.530 -10.855  -7.960  0.00  0.00     0.116 H 
ATOM     67  H33 <0> d           4.070  -9.373  -7.128  0.00  0.00     0.118 H 
ATOM     68  H34 <0> d           2.092  -7.804 -12.613  0.00  0.00     0.087 H 
ATOM     69  H35 <0> d           1.380  -8.888 -11.394  0.00  0.00     0.102 H 
ATOM     70  H36 <0> d          -0.163  -7.889 -13.223  0.00  0.00     0.075 H 
ATOM     71  H37 <0> d          -0.728  -7.882 -11.543  0.00  0.00     0.073 H 
ATOM     72  H38 <0> d          -0.773  -5.712 -13.173  0.00  0.00     0.082 H 
ATOM     73  H39 <0> d          -0.672  -5.614 -11.402  0.00  0.00     0.077 H 
ATOM     74  H40 <0> d           1.742  -5.668 -13.271  0.00  0.00     0.080 H 
ATOM     75  H41 <0> d           1.060  -4.194 -12.531  0.00  0.00     0.082 H 
ENDROOT
BRANCH  34  76
ATOM     76  C35 <0> d           3.777 -10.264 -10.365  0.00  0.00    -0.122 C 
ATOM     77  H11 <0> d           2.866  -9.864 -10.809  0.00  0.00     0.093 H 
BRANCH  76  78
ATOM     78  C36 <0> d           4.857 -10.388 -11.443  0.00  0.00    -0.161 C 
ATOM     79  H43 <0> d           5.818 -10.084 -11.029  0.00  0.00     0.066 H 
ATOM     80  H44 <0> d           4.916 -11.423 -11.780  0.00  0.00     0.062 H 
ATOM     81  H45 <0> d           4.604  -9.745 -12.286  0.00  0.00     0.066 H 
ENDBRANCH  76  78
BRANCH  76  82
ATOM     82  C37 <0> d           3.492 -11.644  -9.768  0.00  0.00    -0.137 C 
ATOM     83  H46 <0> d           4.290 -12.332 -10.044  0.00  0.00     0.078 H 
ATOM     84  H47 <0> d           3.438 -11.565  -8.682  0.00  0.00     0.075 H 
BRANCH  82  85
ATOM     85  C38 <0> d           2.159 -12.167 -10.308  0.00  0.00    -0.083 C 
ATOM     86  H12 <0> d           2.331 -12.703 -11.242  0.00  0.00     0.077 H 
ATOM     87  C43 <0> d           1.530 -13.114  -9.284  0.00  0.00    -0.110 C 
ATOM     88  C42 <0> d           0.198 -13.637  -9.825  0.00  0.00     0.102 C 
ATOM     89  H52 <0> d           2.203 -13.952  -9.104  0.00  0.00     0.074 H 
ATOM     90  H53 <0> d           1.359 -12.578  -8.351  0.00  0.00     0.075 H 
ATOM     91  C41 <0> d          -0.746 -12.460 -10.079  0.00  0.00     0.083 C 
ATOM     92  H14 <0> d           0.370 -14.173 -10.758  0.00  0.00     0.065 H 
ATOM     93  C40 <0> d          -0.118 -11.513 -11.103  0.00  0.00    -0.150 C 
ATOM     94  H13 <0> d          -0.919 -11.924  -9.145  0.00  0.00     0.062 H 
ATOM     95  C39 <0> d           1.214 -10.990 -10.562  0.00  0.00    -0.116 C 
ATOM     96  H50 <0> d          -0.791 -10.675 -11.283  0.00  0.00     0.069 H 
ATOM     97  H51 <0> d           0.054 -12.049 -12.036  0.00  0.00     0.071 H 
ATOM     98  H48 <0> d           1.043 -10.454  -9.629  0.00  0.00     0.068 H 
ATOM     99  H49 <0> d           1.662 -10.315 -11.292  0.00  0.00     0.070 H 
BRANCH  88 100
ATOM    100  O9  <0> d          -0.390 -14.521  -8.868  0.00  0.00    -0.381 OA
BRANCH 100 101
ATOM    101  C44 <0> d           0.543 -15.074  -7.937  0.00  0.00     0.031 C 
ATOM    102  H54 <0> d           0.093 -15.097  -6.944  0.00  0.00     0.081 H 
ATOM    103  H55 <0> d           0.804 -16.087  -8.242  0.00  0.00     0.060 H 
ATOM    104  H56 <0> d           1.441 -14.457  -7.914  0.00  0.00     0.035 H 
ENDBRANCH 100 101
ENDBRANCH  88 100
BRANCH  91 105
ATOM    105  O10 <0> d          -1.992 -12.949 -10.582  0.00  0.00    -0.565 OA
ATOM    106  H57 <0> d          -2.729 -12.334 -10.471  0.00  0.00     0.377 HD
ENDBRANCH  91 105
ENDBRANCH  82  85
ENDBRANCH  76  82
ENDBRANCH  34  76
BRANCH  29 107
ATOM    107  C45 <0> d           4.725 -11.413  -5.500  0.00  0.00    -0.147 C 
ATOM    108  H58 <0> d           5.052 -10.992  -4.549  0.00  0.00     0.065 H 
ATOM    109  H59 <0> d           3.960 -10.771  -5.937  0.00  0.00     0.068 H 
ATOM    110  H60 <0> d           4.312 -12.408  -5.333  0.00  0.00     0.068 H 
ENDBRANCH  29 107
BRANCH  27 111
ATOM    111  C46 <0> d           7.760 -13.136  -4.845  0.00  0.00    -0.117 C 
ATOM    112  H61 <0> d           6.705 -13.380  -4.983  0.00  0.00     0.074 H 
ATOM    113  H62 <0> d           8.359 -13.702  -5.558  0.00  0.00     0.065 H 
ATOM    114  H63 <0> d           8.063 -13.394  -3.831  0.00  0.00     0.066 H 
ENDBRANCH  27 111
BRANCH  25 115
ATOM    115  O11 <0> d           9.830 -10.206  -5.462  0.00  0.00    -0.554 OA
ATOM    116  H64 <0> d          10.204 -10.724  -6.188  0.00  0.00     0.392 HD
ENDBRANCH  25 115
BRANCH  23 117
ATOM    117  O12 <0> d           8.572 -10.902  -2.126  0.00  0.00    -0.361 OA
BRANCH 117 118
ATOM    118  C47 <0> d           7.636 -10.371  -1.187  0.00  0.00     0.025 C 
ATOM    119  H65 <0> d           6.685 -10.186  -1.686  0.00  0.00     0.044 H 
ATOM    120  H66 <0> d           7.488 -11.086  -0.378  0.00  0.00     0.050 H 
ATOM    121  H67 <0> d           8.021  -9.436  -0.780  0.00  0.00     0.096 H 
ENDBRANCH 117 118
ENDBRANCH  23 117
BRANCH  50 122
ATOM    122  O8  <0> d           3.707  -1.910 -10.968  0.00  0.00    -0.541 OA
ATOM    123  H42 <0> d           3.433  -2.143 -11.865  0.00  0.00     0.394 HD
ENDBRANCH  50 122
BRANCH   1 124
ATOM    124  C1  <0> d           1.070  -1.031 -11.687  0.00  0.00    -0.150 C 
ATOM    125  H15 <0> d           1.166  -0.094 -12.234  0.00  0.00     0.052 H 
ATOM    126  H16 <0> d           1.613  -1.816 -12.214  0.00  0.00     0.067 H 
ATOM    127  H17 <0> d           0.016  -1.304 -11.615  0.00  0.00     0.071 H 
ENDBRANCH   1 124
BRANCH  19 128
ATOM    128  C48 <0> d           8.804  -7.217  -4.361  0.00  0.00    -0.145 C 
ATOM    129  H68 <0> d           8.666  -6.137  -4.415  0.00  0.00     0.066 H 
ATOM    130  H69 <0> d           9.466  -7.540  -5.164  0.00  0.00     0.054 H 
ATOM    131  H70 <0> d           7.838  -7.712  -4.464  0.00  0.00     0.076 H 
ENDBRANCH  19 128
BRANCH  16 132
ATOM    132  C49 <0> d           9.543  -5.320  -1.053  0.00  0.00    -0.148 C 
ATOM    133  H71 <0> d           8.519  -5.055  -1.317  0.00  0.00     0.057 H 
ATOM    134  H72 <0> d           9.555  -6.307  -0.593  0.00  0.00     0.058 H 
ATOM    135  H73 <0> d           9.938  -4.586  -0.351  0.00  0.00     0.058 H 
ENDBRANCH  16 132
BRANCH   8 136
ATOM    136  O13 <0> d           5.629  -0.813  -7.934  0.00  0.00    -0.353 OA
BRANCH 136 137
ATOM    137  C51 <0> d           6.569  -0.019  -8.661  0.00  0.00     0.026 C 
ATOM    138  H77 <0> d           7.406  -0.643  -8.974  0.00  0.00     0.039 H 
ATOM    139  H78 <0> d           6.084   0.405  -9.540  0.00  0.00     0.040 H 
ATOM    140  H79 <0> d           6.935   0.786  -8.023  0.00  0.00     0.086 H 
ENDBRANCH 136 137
ENDBRANCH   8 136
BRANCH  10 141
ATOM    141  C50 <0> d           5.262  -0.085  -4.219  0.00  0.00    -0.119 C 
ATOM    142  H74 <0> d           5.912  -0.441  -3.420  0.00  0.00     0.068 H 
ATOM    143  H75 <0> d           5.286   1.005  -4.249  0.00  0.00     0.067 H 
ATOM    144  H76 <0> d           4.241  -0.421  -4.035  0.00  0.00     0.062 H 
ENDBRANCH  10 141
TORSDOF 19
ENDMDL
MODEL 4
REMARK VINA RESULT:      -6.0      4.030     10.730
REMARK  19 active torsions:
REMARK  status: ('A' for Active; 'I' for Inactive)
REMARK    1  A    between atoms: C1_1  and  C2_2 
REMARK    2  A    between atoms: C7_9  and  O13_78 
REMARK    3  A    between atoms: C8_11  and  C50_77 
REMARK    4  A    between atoms: C14_17  and  C49_76 
REMARK    5  A    between atoms: C16_20  and  C48_75 
REMARK    6  A    between atoms: C18_24  and  O12_73 
REMARK    7  A    between atoms: C19_26  and  O11_72 
REMARK    8  A    between atoms: C20_28  and  C46_71 
REMARK    9  A    between atoms: C22_30  and  C45_70 
REMARK   10  A    between atoms: C25_35  and  C35_54 
REMARK   11  A    between atoms: C34_51  and  O8_53 
REMARK   12  A    between atoms: C35_54  and  C36_56 
REMARK   13  A    between atoms: C35_54  and  C37_57 
REMARK   14  A    between atoms: C37_57  and  C38_58 
REMARK   15  A    between atoms: C41_62  and  O10_69 
REMARK   16  A    between atoms: C42_64  and  O9_67 
REMARK   17  A    between atoms: O9_67  and  C44_68 
REMARK   18  A    between atoms: O12_73  and  C47_74 
REMARK   19  A    between atoms: O13_78  and  C51_79 
ROOT
ATOM      1  C2  <0> d           0.784  -2.873 -12.558  0.00  0.00    -0.101 C 
ATOM      2  H1  <0> d           1.504  -2.870 -13.377  0.00  0.00     0.097 H 
ATOM      3  C3  <0> d          -0.316  -3.895 -12.846  0.00  0.00    -0.109 C 
ATOM      4  C4  <0> d           0.221  -5.314 -12.624  0.00  0.00    -0.153 C 
ATOM      5  C5  <0> d           1.743  -5.256 -12.488  0.00  0.00     0.110 C 
ATOM      6  H2  <0> d           2.152  -4.730 -13.369  0.00  0.00     0.054 H 
ATOM      7  C6  <0> d           2.338  -6.655 -12.481  0.00  0.00    -0.106 C 
ATOM      8  C7  <0> d           1.629  -7.603 -11.512  0.00  0.00     0.132 C 
ATOM      9  H3  <0> d           0.764  -8.051 -11.998  0.00  0.00     0.070 H 
ATOM     10  C8  <0> d           2.615  -8.688 -11.127  0.00  0.00    -0.149 C 
ATOM     11  C9  <0> d           2.946  -8.904  -9.864  0.00  0.00    -0.111 C 
ATOM     12  C10 <0> d           3.937  -9.920  -9.500  0.00  0.00    -0.123 C 
ATOM     13  C11 <0> d           4.293 -10.055  -8.207  0.00  0.00    -0.118 C 
ATOM     14  C12 <0> d           5.358 -10.986  -7.812  0.00  0.00    -0.138 C 
ATOM     15  C13 <0> d           5.725 -10.985  -6.532  0.00  0.00    -0.128 C 
ATOM     16  C14 <0> d           6.836 -11.813  -5.963  0.00  0.00    -0.058 C 
ATOM     17  H4  <0> d           6.402 -12.754  -5.581  0.00  0.00     0.084 H 
ATOM     18  C15 <0> d           7.491 -11.090  -4.792  0.00  0.00    -0.101 C 
ATOM     19  C16 <0> d           8.249  -9.830  -5.193  0.00  0.00    -0.129 C 
ATOM     20  H5  <0> d           8.845  -9.999  -6.086  0.00  0.00     0.097 H 
ATOM     21  C17 <0> d           9.185  -9.437  -4.069  0.00  0.00     0.351 C 
ATOM     22  O1  <0> d           9.235 -10.117  -3.071  0.00  0.00    -0.427 OA
ATOM     23  C18 <0> d          10.035  -8.202  -4.181  0.00  0.00     0.060 C 
ATOM     24  H6  <0> d           9.789  -7.653  -5.088  0.00  0.00     0.089 H 
ATOM     25  C19 <0> d           9.803  -7.304  -2.964  0.00  0.00     0.152 C 
ATOM     26  H7  <0> d          10.401  -7.659  -2.126  0.00  0.00     0.080 H 
ATOM     27  C20 <0> d          10.206  -5.884  -3.297  0.00  0.00    -0.151 C 
ATOM     28  C21 <0> d           9.451  -5.188  -4.102  0.00  0.00    -0.125 C 
ATOM     29  C22 <0> d           9.741  -3.764  -4.490  0.00  0.00    -0.100 C 
ATOM     30  H8  <0> d          10.255  -3.237  -3.690  0.00  0.00     0.111 H 
ATOM     31  C23 <0> d           8.426  -3.064  -4.759  0.00  0.00     0.364 C 
ATOM     32  O2  <0> d           7.569  -3.085  -3.906  0.00  0.00    -0.440 OA
ATOM     33  C24 <0> d           8.189  -2.352  -6.060  0.00  0.00    -0.171 C 
ATOM     34  C25 <0> d           6.794  -1.718  -6.081  0.00  0.00     0.111 C 
ATOM     35  H9  <0> d           6.116  -2.292  -5.453  0.00  0.00     0.091 H 
ATOM     36  O3  <0> d           6.301  -1.706  -7.423  0.00  0.00    -0.371 OA
ATOM     37  C26 <0> d           5.057  -1.251  -7.641  0.00  0.00     0.456 C 
ATOM     38  O4  <0> d           4.149  -1.600  -6.924  0.00  0.00    -0.437 OA
ATOM     39  C27 <0> d           4.804  -0.299  -8.782  0.00  0.00     0.173 C 
ATOM     40  H10 <0> d           5.571  -0.443  -9.546  0.00  0.00     0.100 H 
ATOM     41  C28 <0> d           4.880   1.137  -8.265  0.00  0.00    -0.138 C 
ATOM     42  C29 <0> d           4.668   2.134  -9.396  0.00  0.00    -0.116 C 
ATOM     43  C30 <0> d           3.589   1.678 -10.368  0.00  0.00    -0.139 C 
ATOM     44  C31 <0> d           2.660   0.665  -9.699  0.00  0.00     0.121 C 
ATOM     45  N1  <0> d           3.487  -0.533  -9.375  0.00  0.00    -0.643 N 
ATOM     46  C32 <0> d           2.944  -1.708  -9.643  0.00  0.00     0.512 C 
ATOM     47  O5  <0> d           2.795  -2.502  -8.749  0.00  0.00    -0.431 OA
ATOM     48  C33 <0> d           2.538  -2.159 -10.984  0.00  0.00     0.327 C 
ATOM     49  O6  <0> d           3.069  -1.630 -11.929  0.00  0.00    -0.390 OA
ATOM     50  C34 <0> d           1.500  -3.213 -11.246  0.00  0.00     0.287 C 
ATOM     51  O7  <0> d           2.098  -4.504 -11.337  0.00  0.00    -0.354 OA
ATOM     52  H18 <0> d          -1.161  -3.717 -12.180  0.00  0.00     0.077 H 
ATOM     53  H19 <0> d          -0.647  -3.790 -13.881  0.00  0.00     0.070 H 
ATOM     54  H20 <0> d          -0.218  -5.728 -11.715  0.00  0.00     0.086 H 
ATOM     55  H21 <0> d          -0.048  -5.945 -13.474  0.00  0.00     0.073 H 
ATOM     56  H22 <0> d           2.270  -7.066 -13.491  0.00  0.00     0.092 H 
ATOM     57  H23 <0> d           3.392  -6.584 -12.207  0.00  0.00     0.080 H 
ATOM     58  H24 <0> d           2.481  -8.332  -9.070  0.00  0.00     0.119 H 
ATOM     59  H25 <0> d           4.389 -10.568 -10.231  0.00  0.00     0.114 H 
ATOM     60  H26 <0> d           3.789  -9.479  -7.445  0.00  0.00     0.110 H 
ATOM     61  H27 <0> d           5.793 -11.641  -8.544  0.00  0.00     0.116 H 
ATOM     62  H28 <0> d           5.151 -10.346  -5.855  0.00  0.00     0.107 H 
ATOM     63  H29 <0> d           6.714 -10.823  -4.063  0.00  0.00     0.068 H 
ATOM     64  H30 <0> d           8.182 -11.782  -4.295  0.00  0.00     0.073 H 
ATOM     65  H31 <0> d           8.565  -5.666  -4.513  0.00  0.00     0.115 H 
ATOM     66  H32 <0> d           8.926  -1.555  -6.179  0.00  0.00     0.116 H 
ATOM     67  H33 <0> d           8.265  -3.053  -6.887  0.00  0.00     0.118 H 
ATOM     68  H34 <0> d           4.108   1.283  -7.509  0.00  0.00     0.087 H 
ATOM     69  H35 <0> d           5.861   1.308  -7.820  0.00  0.00     0.102 H 
ATOM     70  H36 <0> d           4.367   3.092  -8.966  0.00  0.00     0.075 H 
ATOM     71  H37 <0> d           5.602   2.270  -9.938  0.00  0.00     0.073 H 
ATOM     72  H38 <0> d           3.006   2.543 -10.686  0.00  0.00     0.082 H 
ATOM     73  H39 <0> d           4.059   1.221 -11.237  0.00  0.00     0.077 H 
ATOM     74  H40 <0> d           2.249   1.083  -8.781  0.00  0.00     0.080 H 
ATOM     75  H41 <0> d           1.856   0.385 -10.377  0.00  0.00     0.082 H 
ENDROOT
BRANCH  34  76
ATOM     76  C35 <0> d           6.879  -0.284  -5.556  0.00  0.00    -0.122 C 
ATOM     77  H11 <0> d           6.375   0.388  -6.250  0.00  0.00     0.093 H 
BRANCH  76  78
ATOM     78  C36 <0> d           6.203  -0.203  -4.185  0.00  0.00    -0.161 C 
ATOM     79  H43 <0> d           6.420  -1.109  -3.620  0.00  0.00     0.066 H 
ATOM     80  H44 <0> d           6.583   0.664  -3.644  0.00  0.00     0.062 H 
ATOM     81  H45 <0> d           5.126  -0.105  -4.316  0.00  0.00     0.066 H 
ENDBRANCH  76  78
BRANCH  76  82
ATOM     82  C37 <0> d           8.348   0.124  -5.425  0.00  0.00    -0.137 C 
ATOM     83  H46 <0> d           8.713  -0.145  -4.435  0.00  0.00     0.078 H 
ATOM     84  H47 <0> d           8.937  -0.391  -6.184  0.00  0.00     0.075 H 
BRANCH  82  85
ATOM     85  C38 <0> d           8.476   1.637  -5.621  0.00  0.00    -0.083 C 
ATOM     86  H12 <0> d           7.493   2.059  -5.832  0.00  0.00     0.077 H 
ATOM     87  C43 <0> d           9.041   2.270  -4.348  0.00  0.00    -0.110 C 
ATOM     88  C42 <0> d           9.168   3.782  -4.544  0.00  0.00     0.102 C 
ATOM     89  H52 <0> d           8.371   2.067  -3.513  0.00  0.00     0.074 H 
ATOM     90  H53 <0> d          10.023   1.847  -4.137  0.00  0.00     0.075 H 
ATOM     91  C41 <0> d          10.109   4.066  -5.717  0.00  0.00     0.083 C 
ATOM     92  H14 <0> d           8.186   4.205  -4.755  0.00  0.00     0.065 H 
ATOM     93  C40 <0> d           9.543   3.433  -6.990  0.00  0.00    -0.150 C 
ATOM     94  H13 <0> d          11.091   3.644  -5.507  0.00  0.00     0.062 H 
ATOM     95  C39 <0> d           9.416   1.921  -6.794  0.00  0.00    -0.116 C 
ATOM     96  H50 <0> d          10.213   3.636  -7.826  0.00  0.00     0.069 H 
ATOM     97  H51 <0> d           8.561   3.856  -7.201  0.00  0.00     0.071 H 
ATOM     98  H48 <0> d          10.398   1.498  -6.583  0.00  0.00     0.068 H 
ATOM     99  H49 <0> d           9.013   1.470  -7.701  0.00  0.00     0.070 H 
BRANCH  88 100
ATOM    100  O9  <0> d           9.697   4.374  -3.356  0.00  0.00    -0.381 OA
BRANCH 100 101
ATOM    101  C44 <0> d          10.668   3.566  -2.687  0.00  0.00     0.031 C 
ATOM    102  H54 <0> d          10.302   3.307  -1.693  0.00  0.00     0.081 H 
ATOM    103  H55 <0> d          10.839   2.655  -3.260  0.00  0.00     0.060 H 
ATOM    104  H56 <0> d          11.602   4.121  -2.597  0.00  0.00     0.035 H 
ENDBRANCH 100 101
ENDBRANCH  88 100
BRANCH  91 105
ATOM    105  O10 <0> d          10.228   5.479  -5.900  0.00  0.00    -0.565 OA
ATOM    106  H57 <0> d          10.435   5.964  -5.089  0.00  0.00     0.377 HD
ENDBRANCH  91 105
ENDBRANCH  82  85
ENDBRANCH  76  82
ENDBRANCH  34  76
BRANCH  29 107
ATOM    107  C45 <0> d          10.606  -3.743  -5.751  0.00  0.00    -0.147 C 
ATOM    108  H58 <0> d          11.161  -2.806  -5.795  0.00  0.00     0.065 H 
ATOM    109  H59 <0> d          11.306  -4.579  -5.727  0.00  0.00     0.068 H 
ATOM    110  H60 <0> d           9.968  -3.829  -6.631  0.00  0.00     0.068 H 
ENDBRANCH  29 107
BRANCH  27 111
ATOM    111  C46 <0> d          11.461  -5.320  -2.687  0.00  0.00    -0.117 C 
ATOM    112  H61 <0> d          12.307  -5.961  -2.935  0.00  0.00     0.074 H 
ATOM    113  H62 <0> d          11.637  -4.319  -3.080  0.00  0.00     0.065 H 
ATOM    114  H63 <0> d          11.347  -5.270  -1.604  0.00  0.00     0.066 H 
ENDBRANCH  27 111
BRANCH  25 115
ATOM    115  O11 <0> d           8.422  -7.324  -2.599  0.00  0.00    -0.554 OA
ATOM    116  H64 <0> d           7.818  -7.164  -3.337  0.00  0.00     0.392 HD
ENDBRANCH  25 115
BRANCH  23 117
ATOM    117  O12 <0> d          11.414  -8.587  -4.226  0.00  0.00    -0.361 OA
BRANCH 117 118
ATOM    118  C47 <0> d          12.050  -8.324  -5.478  0.00  0.00     0.025 C 
ATOM    119  H65 <0> d          13.132  -8.352  -5.349  0.00  0.00     0.044 H 
ATOM    120  H66 <0> d          11.751  -9.080  -6.203  0.00  0.00     0.050 H 
ATOM    121  H67 <0> d          11.752  -7.339  -5.837  0.00  0.00     0.096 H 
ENDBRANCH 117 118
ENDBRANCH  23 117
BRANCH  50 122
ATOM    122  O8  <0> d           0.541  -3.207 -10.187  0.00  0.00    -0.541 OA
ATOM    123  H42 <0> d           0.094  -2.359 -10.066  0.00  0.00     0.394 HD
ENDBRANCH  50 122
BRANCH   1 124
ATOM    124  C1  <0> d           0.142  -1.483 -12.447  0.00  0.00    -0.150 C 
ATOM    125  H15 <0> d           0.712  -0.874 -11.747  0.00  0.00     0.052 H 
ATOM    126  H16 <0> d           0.140  -1.005 -13.427  0.00  0.00     0.067 H 
ATOM    127  H17 <0> d          -0.883  -1.584 -12.090  0.00  0.00     0.071 H 
ENDBRANCH   1 124
BRANCH  19 128
ATOM    128  C48 <0> d           7.273  -8.676  -5.436  0.00  0.00    -0.145 C 
ATOM    129  H68 <0> d           6.254  -9.064  -5.475  0.00  0.00     0.066 H 
ATOM    130  H69 <0> d           7.357  -7.953  -4.625  0.00  0.00     0.054 H 
ATOM    131  H70 <0> d           7.513  -8.191  -6.382  0.00  0.00     0.076 H 
ENDBRANCH  19 128
BRANCH  16 132
ATOM    132  C49 <0> d           7.868 -12.169  -7.028  0.00  0.00    -0.148 C 
ATOM    133  H71 <0> d           7.962 -13.253  -7.096  0.00  0.00     0.057 H 
ATOM    134  H72 <0> d           7.549 -11.771  -7.991  0.00  0.00     0.058 H 
ATOM    135  H73 <0> d           8.832 -11.738  -6.758  0.00  0.00     0.058 H 
ENDBRANCH  16 132
BRANCH   8 136
ATOM    136  O13 <0> d           1.219  -6.897 -10.340  0.00  0.00    -0.353 OA
BRANCH 136 137
ATOM    137  C51 <0> d          -0.103  -7.215  -9.903  0.00  0.00     0.026 C 
ATOM    138  H77 <0> d          -0.812  -6.519 -10.353  0.00  0.00     0.039 H 
ATOM    139  H78 <0> d          -0.352  -8.232 -10.206  0.00  0.00     0.040 H 
ATOM    140  H79 <0> d          -0.157  -7.135  -8.817  0.00  0.00     0.086 H 
ENDBRANCH 136 137
ENDBRANCH   8 136
BRANCH  10 141
ATOM    141  C50 <0> d           3.206  -9.533 -12.230  0.00  0.00    -0.119 C 
ATOM    142  H74 <0> d           3.990 -10.169 -11.820  0.00  0.00     0.068 H 
ATOM    143  H75 <0> d           2.425 -10.156 -12.668  0.00  0.00     0.067 H 
ATOM    144  H76 <0> d           3.627  -8.886 -12.999  0.00  0.00     0.062 H 
ENDBRANCH  10 141
TORSDOF 19
ENDMDL
MODEL 5
REMARK VINA RESULT:      -6.0      6.827     14.121
REMARK  19 active torsions:
REMARK  status: ('A' for Active; 'I' for Inactive)
REMARK    1  A    between atoms: C1_1  and  C2_2 
REMARK    2  A    between atoms: C7_9  and  O13_78 
REMARK    3  A    between atoms: C8_11  and  C50_77 
REMARK    4  A    between atoms: C14_17  and  C49_76 
REMARK    5  A    between atoms: C16_20  and  C48_75 
REMARK    6  A    between atoms: C18_24  and  O12_73 
REMARK    7  A    between atoms: C19_26  and  O11_72 
REMARK    8  A    between atoms: C20_28  and  C46_71 
REMARK    9  A    between atoms: C22_30  and  C45_70 
REMARK   10  A    between atoms: C25_35  and  C35_54 
REMARK   11  A    between atoms: C34_51  and  O8_53 
REMARK   12  A    between atoms: C35_54  and  C36_56 
REMARK   13  A    between atoms: C35_54  and  C37_57 
REMARK   14  A    between atoms: C37_57  and  C38_58 
REMARK   15  A    between atoms: C41_62  and  O10_69 
REMARK   16  A    between atoms: C42_64  and  O9_67 
REMARK   17  A    between atoms: O9_67  and  C44_68 
REMARK   18  A    between atoms: O12_73  and  C47_74 
REMARK   19  A    between atoms: O13_78  and  C51_79 
ROOT
ATOM      1  C2  <0> d          10.717  -9.638  -5.665  0.00  0.00    -0.101 C 
ATOM      2  H1  <0> d          10.888  -9.571  -6.740  0.00  0.00     0.097 H 
ATOM      3  C3  <0> d          11.875 -10.389  -5.007  0.00  0.00    -0.109 C 
ATOM      4  C4  <0> d          13.111  -9.484  -4.939  0.00  0.00    -0.153 C 
ATOM      5  C5  <0> d          12.877  -8.253  -5.816  0.00  0.00     0.110 C 
ATOM      6  H2  <0> d          12.597  -8.593  -6.829  0.00  0.00     0.054 H 
ATOM      7  C6  <0> d          14.151  -7.436  -5.950  0.00  0.00    -0.106 C 
ATOM      8  C7  <0> d          14.834  -7.164  -4.608  0.00  0.00     0.132 C 
ATOM      9  H3  <0> d          15.482  -7.999  -4.347  0.00  0.00     0.070 H 
ATOM     10  C8  <0> d          15.662  -5.905  -4.761  0.00  0.00    -0.149 C 
ATOM     11  C9  <0> d          15.466  -4.851  -3.985  0.00  0.00    -0.111 C 
ATOM     12  C10 <0> d          16.235  -3.617  -4.168  0.00  0.00    -0.123 C 
ATOM     13  C11 <0> d          15.952  -2.547  -3.399  0.00  0.00    -0.118 C 
ATOM     14  C12 <0> d          16.624  -1.260  -3.620  0.00  0.00    -0.138 C 
ATOM     15  C13 <0> d          16.214  -0.225  -2.891  0.00  0.00    -0.128 C 
ATOM     16  C14 <0> d          16.733   1.173  -3.028  0.00  0.00    -0.058 C 
ATOM     17  H4  <0> d          17.556   1.308  -2.304  0.00  0.00     0.084 H 
ATOM     18  C15 <0> d          15.641   2.182  -2.687  0.00  0.00    -0.101 C 
ATOM     19  C16 <0> d          14.490   2.203  -3.686  0.00  0.00    -0.129 C 
ATOM     20  H5  <0> d          14.859   2.176  -4.709  0.00  0.00     0.097 H 
ATOM     21  C17 <0> d          13.700   3.482  -3.503  0.00  0.00     0.351 C 
ATOM     22  O1  <0> d          14.050   4.283  -2.668  0.00  0.00    -0.427 OA
ATOM     23  C18 <0> d          12.480   3.752  -4.340  0.00  0.00     0.060 C 
ATOM     24  H6  <0> d          12.247   2.887  -4.959  0.00  0.00     0.089 H 
ATOM     25  C19 <0> d          11.290   4.062  -3.430  0.00  0.00     0.152 C 
ATOM     26  H7  <0> d          11.327   5.106  -3.119  0.00  0.00     0.080 H 
ATOM     27  C20 <0> d          10.000   3.811  -4.179  0.00  0.00    -0.151 C 
ATOM     28  C21 <0> d           9.643   2.580  -4.423  0.00  0.00    -0.125 C 
ATOM     29  C22 <0> d           8.375   2.209  -5.142  0.00  0.00    -0.100 C 
ATOM     30  H8  <0> d           7.591   2.939  -4.958  0.00  0.00     0.111 H 
ATOM     31  C23 <0> d           7.908   0.864  -4.628  0.00  0.00     0.364 C 
ATOM     32  O2  <0> d           7.757   0.715  -3.437  0.00  0.00    -0.440 OA
ATOM     33  C24 <0> d           7.635  -0.268  -5.578  0.00  0.00    -0.171 C 
ATOM     34  C25 <0> d           7.166  -1.511  -4.814  0.00  0.00     0.111 C 
ATOM     35  H9  <0> d           7.590  -1.512  -3.812  0.00  0.00     0.091 H 
ATOM     36  O3  <0> d           7.593  -2.682  -5.512  0.00  0.00    -0.371 OA
ATOM     37  C26 <0> d           7.338  -3.880  -4.962  0.00  0.00     0.456 C 
ATOM     38  O4  <0> d           7.543  -4.063  -3.785  0.00  0.00    -0.437 OA
ATOM     39  C27 <0> d           6.791  -4.991  -5.822  0.00  0.00     0.173 C 
ATOM     40  H10 <0> d           7.082  -4.817  -6.860  0.00  0.00     0.100 H 
ATOM     41  C28 <0> d           5.266  -4.995  -5.727  0.00  0.00    -0.138 C 
ATOM     42  C29 <0> d           4.668  -6.079  -6.613  0.00  0.00    -0.116 C 
ATOM     43  C30 <0> d           5.487  -7.363  -6.579  0.00  0.00    -0.139 C 
ATOM     44  C31 <0> d           6.339  -7.420  -5.312  0.00  0.00     0.121 C 
ATOM     45  N1  <0> d           7.308  -6.290  -5.390  0.00  0.00    -0.643 N 
ATOM     46  C32 <0> d           8.555  -6.563  -5.046  0.00  0.00     0.512 C 
ATOM     47  O5  <0> d           9.062  -5.947  -4.142  0.00  0.00    -0.431 OA
ATOM     48  C33 <0> d           9.415  -7.549  -5.719  0.00  0.00     0.327 C 
ATOM     49  O6  <0> d           9.141  -7.835  -6.858  0.00  0.00    -0.390 OA
ATOM     50  C34 <0> d          10.590  -8.230  -5.075  0.00  0.00     0.287 C 
ATOM     51  O7  <0> d          11.790  -7.495  -5.304  0.00  0.00    -0.354 OA
ATOM     52  H18 <0> d          11.587 -10.689  -3.999  0.00  0.00     0.077 H 
ATOM     53  H19 <0> d          12.109 -11.280  -5.593  0.00  0.00     0.070 H 
ATOM     54  H20 <0> d          13.279  -9.178  -3.906  0.00  0.00     0.086 H 
ATOM     55  H21 <0> d          13.985 -10.030  -5.300  0.00  0.00     0.073 H 
ATOM     56  H22 <0> d          14.845  -7.978  -6.597  0.00  0.00     0.092 H 
ATOM     57  H23 <0> d          13.906  -6.484  -6.426  0.00  0.00     0.080 H 
ATOM     58  H24 <0> d          14.732  -4.885  -3.189  0.00  0.00     0.119 H 
ATOM     59  H25 <0> d          17.026  -3.536  -4.894  0.00  0.00     0.114 H 
ATOM     60  H26 <0> d          15.227  -2.631  -2.603  0.00  0.00     0.110 H 
ATOM     61  H27 <0> d          17.422  -1.191  -4.335  0.00  0.00     0.116 H 
ATOM     62  H28 <0> d          15.460  -0.429  -2.125  0.00  0.00     0.107 H 
ATOM     63  H29 <0> d          15.244   1.948  -1.691  0.00  0.00     0.068 H 
ATOM     64  H30 <0> d          16.090   3.181  -2.636  0.00  0.00     0.073 H 
ATOM     65  H31 <0> d          10.300   1.781  -4.087  0.00  0.00     0.115 H 
ATOM     66  H32 <0> d           6.844   0.023  -6.272  0.00  0.00     0.116 H 
ATOM     67  H33 <0> d           8.537  -0.517  -6.128  0.00  0.00     0.118 H 
ATOM     68  H34 <0> d           4.976  -5.177  -4.691  0.00  0.00     0.087 H 
ATOM     69  H35 <0> d           4.882  -4.025  -6.045  0.00  0.00     0.102 H 
ATOM     70  H36 <0> d           3.659  -6.301  -6.261  0.00  0.00     0.075 H 
ATOM     71  H37 <0> d           4.612  -5.718  -7.637  0.00  0.00     0.073 H 
ATOM     72  H38 <0> d           4.811  -8.217  -6.595  0.00  0.00     0.082 H 
ATOM     73  H39 <0> d           6.133  -7.398  -7.454  0.00  0.00     0.077 H 
ATOM     74  H40 <0> d           5.710  -7.301  -4.431  0.00  0.00     0.080 H 
ATOM     75  H41 <0> d           6.879  -8.364  -5.263  0.00  0.00     0.082 H 
ENDROOT
BRANCH  34  76
ATOM     76  C35 <0> d           5.639  -1.502  -4.717  0.00  0.00    -0.122 C 
ATOM     77  H11 <0> d           5.245  -2.441  -5.108  0.00  0.00     0.093 H 
BRANCH  76  78
ATOM     78  C36 <0> d           5.222  -1.343  -3.254  0.00  0.00    -0.161 C 
ATOM     79  H43 <0> d           4.711  -0.390  -3.125  0.00  0.00     0.066 H 
ATOM     80  H44 <0> d           4.551  -2.156  -2.977  0.00  0.00     0.062 H 
ATOM     81  H45 <0> d           6.107  -1.371  -2.619  0.00  0.00     0.066 H 
ENDBRANCH  76  78
BRANCH  76  82
ATOM     82  C37 <0> d           5.083  -0.335  -5.536  0.00  0.00    -0.137 C 
ATOM     83  H46 <0> d           4.638   0.400  -4.866  0.00  0.00     0.078 H 
ATOM     84  H47 <0> d           5.892   0.129  -6.101  0.00  0.00     0.075 H 
BRANCH  82  85
ATOM     85  C38 <0> d           4.017  -0.854  -6.504  0.00  0.00    -0.083 C 
ATOM     86  H12 <0> d           3.170  -1.241  -5.937  0.00  0.00     0.077 H 
ATOM     87  C43 <0> d           3.548   0.290  -7.405  0.00  0.00    -0.110 C 
ATOM     88  C42 <0> d           2.481  -0.229  -8.372  0.00  0.00     0.102 C 
ATOM     89  H52 <0> d           3.126   1.086  -6.792  0.00  0.00     0.074 H 
ATOM     90  H53 <0> d           4.394   0.677  -7.972  0.00  0.00     0.075 H 
ATOM     91  C41 <0> d           3.074  -1.347  -9.233  0.00  0.00     0.083 C 
ATOM     92  H14 <0> d           1.635  -0.616  -7.806  0.00  0.00     0.065 H 
ATOM     93  C40 <0> d           3.543  -2.490  -8.331  0.00  0.00    -0.150 C 
ATOM     94  H13 <0> d           3.921  -0.960  -9.800  0.00  0.00     0.062 H 
ATOM     95  C39 <0> d           4.610  -1.972  -7.364  0.00  0.00    -0.116 C 
ATOM     96  H50 <0> d           3.965  -3.286  -8.944  0.00  0.00     0.069 H 
ATOM     97  H51 <0> d           2.697  -2.877  -7.765  0.00  0.00     0.071 H 
ATOM     98  H48 <0> d           5.456  -1.584  -7.930  0.00  0.00     0.068 H 
ATOM     99  H49 <0> d           4.944  -2.786  -6.722  0.00  0.00     0.070 H 
BRANCH  88 100
ATOM    100  O9  <0> d           2.043   0.839  -9.215  0.00  0.00    -0.381 OA
BRANCH 100 101
ATOM    101  C44 <0> d           2.793   2.046  -9.062  0.00  0.00     0.031 C 
ATOM    102  H54 <0> d           3.702   1.986  -9.660  0.00  0.00     0.081 H 
ATOM    103  H55 <0> d           2.192   2.891  -9.396  0.00  0.00     0.060 H 
ATOM    104  H56 <0> d           3.057   2.178  -8.013  0.00  0.00     0.035 H 
ENDBRANCH 100 101
ENDBRANCH  88 100
BRANCH  91 105
ATOM    105  O10 <0> d           2.078  -1.830 -10.137  0.00  0.00    -0.565 OA
ATOM    106  H57 <0> d           2.072  -2.792 -10.238  0.00  0.00     0.377 HD
ENDBRANCH  91 105
ENDBRANCH  82  85
ENDBRANCH  76  82
ENDBRANCH  34  76
BRANCH  29 107
ATOM    107  C45 <0> d           8.646   2.122  -6.645  0.00  0.00    -0.147 C 
ATOM    108  H58 <0> d           9.527   2.715  -6.890  0.00  0.00     0.065 H 
ATOM    109  H59 <0> d           8.820   1.082  -6.924  0.00  0.00     0.068 H 
ATOM    110  H60 <0> d           7.786   2.506  -7.193  0.00  0.00     0.068 H 
ENDBRANCH  29 107
BRANCH  27 111
ATOM    111  C46 <0> d           9.168   4.987  -4.615  0.00  0.00    -0.117 C 
ATOM    112  H61 <0> d           8.223   4.986  -4.070  0.00  0.00     0.074 H 
ATOM    113  H62 <0> d           9.707   5.910  -4.405  0.00  0.00     0.065 H 
ATOM    114  H63 <0> d           8.971   4.917  -5.684  0.00  0.00     0.066 H 
ENDBRANCH  27 111
BRANCH  25 115
ATOM    115  O11 <0> d          11.328   3.224  -2.273  0.00  0.00    -0.554 OA
ATOM    116  H64 <0> d          12.141   3.305  -1.756  0.00  0.00     0.392 HD
ENDBRANCH  25 115
BRANCH  23 117
ATOM    117  O12 <0> d          12.733   4.880  -5.186  0.00  0.00    -0.361 OA
BRANCH 117 118
ATOM    118  C47 <0> d          12.770   4.565  -6.578  0.00  0.00     0.025 C 
ATOM    119  H65 <0> d          11.764   4.332  -6.926  0.00  0.00     0.044 H 
ATOM    120  H66 <0> d          13.158   5.419  -7.134  0.00  0.00     0.050 H 
ATOM    121  H67 <0> d          13.418   3.703  -6.739  0.00  0.00     0.096 H 
ENDBRANCH 117 118
ENDBRANCH  23 117
BRANCH  50 122
ATOM    122  O8  <0> d          10.361  -8.340  -3.670  0.00  0.00    -0.541 OA
ATOM    123  H42 <0> d          11.146  -8.177  -3.130  0.00  0.00     0.394 HD
ENDBRANCH  50 122
BRANCH   1 124
ATOM    124  C1  <0> d           9.421 -10.420  -5.411  0.00  0.00    -0.150 C 
ATOM    125  H15 <0> d           8.584  -9.897  -5.872  0.00  0.00     0.052 H 
ATOM    126  H16 <0> d           9.508 -11.418  -5.842  0.00  0.00     0.067 H 
ATOM    127  H17 <0> d           9.251 -10.502  -4.337  0.00  0.00     0.071 H 
ENDBRANCH   1 124
BRANCH  19 128
ATOM    128  C48 <0> d          13.553   1.017  -3.445  0.00  0.00    -0.145 C 
ATOM    129  H68 <0> d          12.659   1.131  -4.058  0.00  0.00     0.066 H 
ATOM    130  H69 <0> d          14.063   0.092  -3.712  0.00  0.00     0.054 H 
ATOM    131  H70 <0> d          13.270   0.986  -2.393  0.00  0.00     0.076 H 
ENDBRANCH  19 128
BRANCH  16 132
ATOM    132  C49 <0> d          17.289   1.428  -4.425  0.00  0.00    -0.148 C 
ATOM    133  H71 <0> d          16.747   0.819  -5.149  0.00  0.00     0.057 H 
ATOM    134  H72 <0> d          17.172   2.481  -4.677  0.00  0.00     0.058 H 
ATOM    135  H73 <0> d          18.347   1.164  -4.449  0.00  0.00     0.058 H 
ENDBRANCH  16 132
BRANCH   8 136
ATOM    136  O13 <0> d          13.855  -6.968  -3.586  0.00  0.00    -0.353 OA
BRANCH 136 137
ATOM    137  C51 <0> d          14.184  -7.585  -2.341  0.00  0.00     0.026 C 
ATOM    138  H77 <0> d          13.734  -8.577  -2.297  0.00  0.00     0.039 H 
ATOM    139  H78 <0> d          15.267  -7.675  -2.253  0.00  0.00     0.040 H 
ATOM    140  H79 <0> d          13.802  -6.977  -1.521  0.00  0.00     0.086 H 
ENDBRANCH 136 137
ENDBRANCH   8 136
BRANCH  10 141
ATOM    141  C50 <0> d          16.736  -5.886  -5.822  0.00  0.00    -0.119 C 
ATOM    142  H74 <0> d          17.626  -5.394  -5.430  0.00  0.00     0.068 H 
ATOM    143  H75 <0> d          16.983  -6.910  -6.107  0.00  0.00     0.067 H 
ATOM    144  H76 <0> d          16.375  -5.344  -6.695  0.00  0.00     0.062 H 
ENDBRANCH  10 141
TORSDOF 19
ENDMDL
MODEL 6
REMARK VINA RESULT:      -6.0      5.930     13.261
REMARK  19 active torsions:
REMARK  status: ('A' for Active; 'I' for Inactive)
REMARK    1  A    between atoms: C1_1  and  C2_2 
REMARK    2  A    between atoms: C7_9  and  O13_78 
REMARK    3  A    between atoms: C8_11  and  C50_77 
REMARK    4  A    between atoms: C14_17  and  C49_76 
REMARK    5  A    between atoms: C16_20  and  C48_75 
REMARK    6  A    between atoms: C18_24  and  O12_73 
REMARK    7  A    between atoms: C19_26  and  O11_72 
REMARK    8  A    between atoms: C20_28  and  C46_71 
REMARK    9  A    between atoms: C22_30  and  C45_70 
REMARK   10  A    between atoms: C25_35  and  C35_54 
REMARK   11  A    between atoms: C34_51  and  O8_53 
REMARK   12  A    between atoms: C35_54  and  C36_56 
REMARK   13  A    between atoms: C35_54  and  C37_57 
REMARK   14  A    between atoms: C37_57  and  C38_58 
REMARK   15  A    between atoms: C41_62  and  O10_69 
REMARK   16  A    between atoms: C42_64  and  O9_67 
REMARK   17  A    between atoms: O9_67  and  C44_68 
REMARK   18  A    between atoms: O12_73  and  C47_74 
REMARK   19  A    between atoms: O13_78  and  C51_79 
ROOT
ATOM      1  C2  <0> d           8.501  -9.799  -5.627  0.00  0.00    -0.101 C 
ATOM      2  H1  <0> d           8.892  -9.916  -6.638  0.00  0.00     0.097 H 
ATOM      3  C3  <0> d           9.333 -10.635  -4.654  0.00  0.00    -0.109 C 
ATOM      4  C4  <0> d          10.685  -9.955  -4.408  0.00  0.00    -0.153 C 
ATOM      5  C5  <0> d          10.878  -8.840  -5.436  0.00  0.00     0.110 C 
ATOM      6  H2  <0> d          10.744  -9.269  -6.446  0.00  0.00     0.054 H 
ATOM      7  C6  <0> d          12.289  -8.281  -5.368  0.00  0.00    -0.106 C 
ATOM      8  C7  <0> d          12.732  -7.942  -3.943  0.00  0.00     0.132 C 
ATOM      9  H3  <0> d          13.137  -8.829  -3.460  0.00  0.00     0.070 H 
ATOM     10  C8  <0> d          13.807  -6.878  -4.037  0.00  0.00    -0.149 C 
ATOM     11  C9  <0> d          13.673  -5.706  -3.437  0.00  0.00    -0.111 C 
ATOM     12  C10 <0> d          14.692  -4.661  -3.571  0.00  0.00    -0.123 C 
ATOM     13  C11 <0> d          14.479  -3.460  -2.998  0.00  0.00    -0.118 C 
ATOM     14  C12 <0> d          15.423  -2.352  -3.196  0.00  0.00    -0.138 C 
ATOM     15  C13 <0> d          15.089  -1.169  -2.687  0.00  0.00    -0.128 C 
ATOM     16  C14 <0> d          15.891   0.086  -2.849  0.00  0.00    -0.058 C 
ATOM     17  H4  <0> d          16.564   0.179  -1.978  0.00  0.00     0.084 H 
ATOM     18  C15 <0> d          14.975   1.304  -2.864  0.00  0.00    -0.101 C 
ATOM     19  C16 <0> d          14.073   1.380  -4.091  0.00  0.00    -0.129 C 
ATOM     20  H5  <0> d          14.625   1.144  -4.998  0.00  0.00     0.097 H 
ATOM     21  C17 <0> d          13.532   2.788  -4.221  0.00  0.00     0.351 C 
ATOM     22  O1  <0> d          13.860   3.629  -3.416  0.00  0.00    -0.427 OA
ATOM     23  C18 <0> d          12.580   3.141  -5.330  0.00  0.00     0.060 C 
ATOM     24  H6  <0> d          12.308   2.250  -5.894  0.00  0.00     0.089 H 
ATOM     25  C19 <0> d          11.318   3.777  -4.744  0.00  0.00     0.152 C 
ATOM     26  H7  <0> d          11.498   4.833  -4.542  0.00  0.00     0.080 H 
ATOM     27  C20 <0> d          10.179   3.646  -5.732  0.00  0.00    -0.151 C 
ATOM     28  C21 <0> d           9.641   2.473  -5.920  0.00  0.00    -0.125 C 
ATOM     29  C22 <0> d           8.494   2.226  -6.861  0.00  0.00    -0.100 C 
ATOM     30  H8  <0> d           7.849   3.098  -6.931  0.00  0.00     0.111 H 
ATOM     31  C23 <0> d           7.677   1.069  -6.327  0.00  0.00     0.364 C 
ATOM     32  O2  <0> d           7.266   1.120  -5.191  0.00  0.00    -0.440 OA
ATOM     33  C24 <0> d           7.380  -0.123  -7.192  0.00  0.00    -0.171 C 
ATOM     34  C25 <0> d           6.532  -1.146  -6.427  0.00  0.00     0.111 C 
ATOM     35  H9  <0> d           6.739  -1.076  -5.362  0.00  0.00     0.091 H 
ATOM     36  O3  <0> d           6.849  -2.461  -6.889  0.00  0.00    -0.371 OA
ATOM     37  C26 <0> d           6.258  -3.506  -6.288  0.00  0.00     0.456 C 
ATOM     38  O4  <0> d           6.184  -3.552  -5.083  0.00  0.00    -0.437 OA
ATOM     39  C27 <0> d           5.683  -4.617  -7.129  0.00  0.00     0.173 C 
ATOM     40  H10 <0> d           6.204  -4.646  -8.090  0.00  0.00     0.100 H 
ATOM     41  C28 <0> d           4.200  -4.346  -7.375  0.00  0.00    -0.138 C 
ATOM     42  C29 <0> d           3.587  -5.428  -8.255  0.00  0.00    -0.116 C 
ATOM     43  C30 <0> d           4.112  -6.814  -7.909  0.00  0.00    -0.139 C 
ATOM     44  C31 <0> d           4.668  -6.835  -6.485  0.00  0.00     0.121 C 
ATOM     45  N1  <0> d           5.837  -5.911  -6.462  0.00  0.00    -0.643 N 
ATOM     46  C32 <0> d           6.911  -6.342  -5.823  0.00  0.00     0.512 C 
ATOM     47  O5  <0> d           7.340  -5.699  -4.898  0.00  0.00    -0.431 OA
ATOM     48  C33 <0> d           7.676  -7.547  -6.183  0.00  0.00     0.327 C 
ATOM     49  O6  <0> d           7.582  -7.941  -7.319  0.00  0.00    -0.390 OA
ATOM     50  C34 <0> d           8.540  -8.319  -5.229  0.00  0.00     0.287 C 
ATOM     51  O7  <0> d           9.884  -7.841  -5.259  0.00  0.00    -0.354 OA
ATOM     52  H18 <0> d           8.797 -10.734  -3.710  0.00  0.00     0.077 H 
ATOM     53  H19 <0> d           9.498 -11.627  -5.079  0.00  0.00     0.070 H 
ATOM     54  H20 <0> d          10.701  -9.538  -3.400  0.00  0.00     0.086 H 
ATOM     55  H21 <0> d          11.488 -10.688  -4.508  0.00  0.00     0.073 H 
ATOM     56  H22 <0> d          12.977  -9.021  -5.785  0.00  0.00     0.092 H 
ATOM     57  H23 <0> d          12.338  -7.380  -5.982  0.00  0.00     0.080 H 
ATOM     58  H24 <0> d          12.804  -5.499  -2.825  0.00  0.00     0.119 H 
ATOM     59  H25 <0> d          15.611  -4.821  -4.108  0.00  0.00     0.114 H 
ATOM     60  H26 <0> d          13.608  -3.304  -2.379  0.00  0.00     0.110 H 
ATOM     61  H27 <0> d          16.345  -2.524  -3.720  0.00  0.00     0.116 H 
ATOM     62  H28 <0> d          14.173  -1.129  -2.091  0.00  0.00     0.107 H 
ATOM     63  H29 <0> d          14.350   1.287  -1.962  0.00  0.00     0.068 H 
ATOM     64  H30 <0> d          15.594   2.209  -2.818  0.00  0.00     0.073 H 
ATOM     65  H31 <0> d          10.047   1.629  -5.366  0.00  0.00     0.115 H 
ATOM     66  H32 <0> d           6.816   0.196  -8.071  0.00  0.00     0.116 H 
ATOM     67  H33 <0> d           8.306  -0.600  -7.500  0.00  0.00     0.118 H 
ATOM     68  H34 <0> d           3.679  -4.327  -6.417  0.00  0.00     0.087 H 
ATOM     69  H35 <0> d           4.087  -3.381  -7.869  0.00  0.00     0.102 H 
ATOM     70  H36 <0> d           2.505  -5.421  -8.116  0.00  0.00     0.075 H 
ATOM     71  H37 <0> d           3.809  -5.213  -9.298  0.00  0.00     0.073 H 
ATOM     72  H38 <0> d           3.298  -7.534  -7.986  0.00  0.00     0.082 H 
ATOM     73  H39 <0> d           4.900  -7.085  -8.610  0.00  0.00     0.077 H 
ATOM     74  H40 <0> d           3.913  -6.486  -5.783  0.00  0.00     0.080 H 
ATOM     75  H41 <0> d           4.989  -7.841  -6.220  0.00  0.00     0.082 H 
ENDROOT
BRANCH  34  76
ATOM     76  C35 <0> d           5.048  -0.862  -6.674  0.00  0.00    -0.122 C 
ATOM     77  H11 <0> d           4.566  -1.760  -7.057  0.00  0.00     0.093 H 
BRANCH  76  78
ATOM     78  C36 <0> d           4.384  -0.448  -5.359  0.00  0.00    -0.161 C 
ATOM     79  H43 <0> d           3.301  -0.466  -5.479  0.00  0.00     0.066 H 
ATOM     80  H44 <0> d           4.675  -1.142  -4.571  0.00  0.00     0.062 H 
ATOM     81  H45 <0> d           4.703   0.560  -5.092  0.00  0.00     0.066 H 
ENDBRANCH  76  78
BRANCH  76  82
ATOM     82  C37 <0> d           4.909   0.269  -7.695  0.00  0.00    -0.137 C 
ATOM     83  H46 <0> d           4.474   1.143  -7.211  0.00  0.00     0.078 H 
ATOM     84  H47 <0> d           5.892   0.524  -8.091  0.00  0.00     0.075 H 
BRANCH  82  85
ATOM     85  C38 <0> d           4.000  -0.186  -8.838  0.00  0.00    -0.083 C 
ATOM     86  H12 <0> d           3.998   0.570  -9.623  0.00  0.00     0.077 H 
ATOM     87  C43 <0> d           4.519  -1.509  -9.406  0.00  0.00    -0.110 C 
ATOM     88  C42 <0> d           3.610  -1.964 -10.550  0.00  0.00     0.102 C 
ATOM     89  H52 <0> d           5.533  -1.370  -9.781  0.00  0.00     0.074 H 
ATOM     90  H53 <0> d           4.522  -2.265  -8.621  0.00  0.00     0.075 H 
ATOM     91  C41 <0> d           2.187  -2.158 -10.023  0.00  0.00     0.083 C 
ATOM     92  H14 <0> d           3.608  -1.208 -11.334  0.00  0.00     0.065 H 
ATOM     93  C40 <0> d           1.668  -0.835  -9.456  0.00  0.00    -0.150 C 
ATOM     94  H13 <0> d           2.189  -2.914  -9.239  0.00  0.00     0.062 H 
ATOM     95  C39 <0> d           2.576  -0.380  -8.312  0.00  0.00    -0.116 C 
ATOM     96  H50 <0> d           0.654  -0.974  -9.081  0.00  0.00     0.069 H 
ATOM     97  H51 <0> d           1.665  -0.079 -10.241  0.00  0.00     0.071 H 
ATOM     98  H48 <0> d           2.579  -1.136  -7.528  0.00  0.00     0.068 H 
ATOM     99  H49 <0> d           2.207   0.562  -7.908  0.00  0.00     0.070 H 
BRANCH  88 100
ATOM    100  O9  <0> d           4.094  -3.200 -11.080  0.00  0.00    -0.381 OA
BRANCH 100 101
ATOM    101  C44 <0> d           5.482  -3.436 -10.830  0.00  0.00     0.031 C 
ATOM    102  H54 <0> d           5.611  -3.784  -9.805  0.00  0.00     0.081 H 
ATOM    103  H55 <0> d           5.851  -4.193 -11.521  0.00  0.00     0.060 H 
ATOM    104  H56 <0> d           6.039  -2.510 -10.972  0.00  0.00     0.035 H 
ENDBRANCH 100 101
ENDBRANCH  88 100
BRANCH  91 105
ATOM    105  O10 <0> d           1.338  -2.584 -11.092  0.00  0.00    -0.565 OA
ATOM    106  H57 <0> d           1.718  -3.285 -11.640  0.00  0.00     0.377 HD
ENDBRANCH  91 105
ENDBRANCH  82  85
ENDBRANCH  76  82
ENDBRANCH  34  76
BRANCH  29 107
ATOM    107  C45 <0> d           9.035   1.880  -8.249  0.00  0.00    -0.147 C 
ATOM    108  H58 <0> d           8.462   2.415  -9.006  0.00  0.00     0.065 H 
ATOM    109  H59 <0> d          10.084   2.173  -8.314  0.00  0.00     0.068 H 
ATOM    110  H60 <0> d           8.946   0.807  -8.417  0.00  0.00     0.068 H 
ENDBRANCH  29 107
BRANCH  27 111
ATOM    111  C46 <0> d           9.700   4.874  -6.460  0.00  0.00    -0.117 C 
ATOM    112  H61 <0> d           8.617   4.828  -6.575  0.00  0.00     0.074 H 
ATOM    113  H62 <0> d           9.967   5.762  -5.888  0.00  0.00     0.065 H 
ATOM    114  H63 <0> d          10.170   4.919  -7.442  0.00  0.00     0.066 H 
ENDBRANCH  27 111
BRANCH  25 115
ATOM    115  O11 <0> d          10.959   3.120  -3.528  0.00  0.00    -0.554 OA
ATOM    116  H64 <0> d          10.629   3.715  -2.842  0.00  0.00     0.392 HD
ENDBRANCH  25 115
BRANCH  23 117
ATOM    117  O12 <0> d          13.214   4.076  -6.211  0.00  0.00    -0.361 OA
BRANCH 117 118
ATOM    118  C47 <0> d          13.506   3.549  -7.506  0.00  0.00     0.025 C 
ATOM    119  H65 <0> d          14.453   3.011  -7.475  0.00  0.00     0.044 H 
ATOM    120  H66 <0> d          12.711   2.868  -7.808  0.00  0.00     0.050 H 
ATOM    121  H67 <0> d          13.576   4.367  -8.223  0.00  0.00     0.096 H 
ENDBRANCH 117 118
ENDBRANCH  23 117
BRANCH  50 122
ATOM    122  O8  <0> d           8.020  -8.188  -3.905  0.00  0.00    -0.541 OA
ATOM    123  H42 <0> d           8.004  -7.278  -3.578  0.00  0.00     0.394 HD
ENDBRANCH  50 122
BRANCH   1 124
ATOM    124  C1  <0> d           7.052 -10.302  -5.588  0.00  0.00    -0.150 C 
ATOM    125  H15 <0> d           6.839 -10.868  -6.494  0.00  0.00     0.052 H 
ATOM    126  H16 <0> d           6.913 -10.944  -4.717  0.00  0.00     0.067 H 
ATOM    127  H17 <0> d           6.373  -9.451  -5.523  0.00  0.00     0.071 H 
ENDBRANCH   1 124
BRANCH  19 128
ATOM    128  C48 <0> d          12.891   0.419  -3.943  0.00  0.00    -0.145 C 
ATOM    129  H68 <0> d          12.141   0.646  -4.702  0.00  0.00     0.066 H 
ATOM    130  H69 <0> d          13.239  -0.606  -4.069  0.00  0.00     0.054 H 
ATOM    131  H70 <0> d          12.451   0.535  -2.952  0.00  0.00     0.076 H 
ENDBRANCH  19 128
BRANCH  16 132
ATOM    132  C49 <0> d          16.753   0.039  -4.106  0.00  0.00    -0.148 C 
ATOM    133  H71 <0> d          16.164   0.365  -4.963  0.00  0.00     0.057 H 
ATOM    134  H72 <0> d          17.612   0.698  -3.983  0.00  0.00     0.058 H 
ATOM    135  H73 <0> d          17.099  -0.982  -4.272  0.00  0.00     0.058 H 
ENDBRANCH  16 132
BRANCH   8 136
ATOM    136  O13 <0> d          11.629  -7.436  -3.190  0.00  0.00    -0.353 OA
BRANCH 136 137
ATOM    137  C51 <0> d          11.608  -7.870  -1.829  0.00  0.00     0.026 C 
ATOM    138  H77 <0> d          11.971  -7.068  -1.186  0.00  0.00     0.039 H 
ATOM    139  H78 <0> d          10.588  -8.129  -1.545  0.00  0.00     0.040 H 
ATOM    140  H79 <0> d          12.250  -8.744  -1.716  0.00  0.00     0.086 H 
ENDBRANCH 136 137
ENDBRANCH   8 136
BRANCH  10 141
ATOM    141  C50 <0> d          15.053  -7.195  -4.830  0.00  0.00    -0.119 C 
ATOM    142  H74 <0> d          15.112  -6.534  -5.693  0.00  0.00     0.068 H 
ATOM    143  H75 <0> d          15.931  -7.050  -4.200  0.00  0.00     0.067 H 
ATOM    144  H76 <0> d          15.015  -8.231  -5.166  0.00  0.00     0.062 H 
ENDBRANCH  10 141
TORSDOF 19
ENDMDL
MODEL 7
REMARK VINA RESULT:      -5.9      6.940     12.598
REMARK  19 active torsions:
REMARK  status: ('A' for Active; 'I' for Inactive)
REMARK    1  A    between atoms: C1_1  and  C2_2 
REMARK    2  A    between atoms: C7_9  and  O13_78 
REMARK    3  A    between atoms: C8_11  and  C50_77 
REMARK    4  A    between atoms: C14_17  and  C49_76 
REMARK    5  A    between atoms: C16_20  and  C48_75 
REMARK    6  A    between atoms: C18_24  and  O12_73 
REMARK    7  A    between atoms: C19_26  and  O11_72 
REMARK    8  A    between atoms: C20_28  and  C46_71 
REMARK    9  A    between atoms: C22_30  and  C45_70 
REMARK   10  A    between atoms: C25_35  and  C35_54 
REMARK   11  A    between atoms: C34_51  and  O8_53 
REMARK   12  A    between atoms: C35_54  and  C36_56 
REMARK   13  A    between atoms: C35_54  and  C37_57 
REMARK   14  A    between atoms: C37_57  and  C38_58 
REMARK   15  A    between atoms: C41_62  and  O10_69 
REMARK   16  A    between atoms: C42_64  and  O9_67 
REMARK   17  A    between atoms: O9_67  and  C44_68 
REMARK   18  A    between atoms: O12_73  and  C47_74 
REMARK   19  A    between atoms: O13_78  and  C51_79 
ROOT
ATOM      1  C2  <0> d           4.690  -2.696  -6.027  0.00  0.00    -0.101 C 
ATOM      2  H1  <0> d           3.801  -2.066  -5.983  0.00  0.00     0.097 H 
ATOM      3  C3  <0> d           4.293  -4.116  -6.434  0.00  0.00    -0.109 C 
ATOM      4  C4  <0> d           3.966  -4.156  -7.932  0.00  0.00    -0.153 C 
ATOM      5  C5  <0> d           3.848  -2.724  -8.455  0.00  0.00     0.110 C 
ATOM      6  H2  <0> d           3.117  -2.181  -7.828  0.00  0.00     0.054 H 
ATOM      7  C6  <0> d           3.316  -2.711  -9.879  0.00  0.00    -0.106 C 
ATOM      8  C7  <0> d           4.049  -3.687 -10.801  0.00  0.00     0.132 C 
ATOM      9  H3  <0> d           3.605  -4.677 -10.720  0.00  0.00     0.070 H 
ATOM     10  C8  <0> d           3.901  -3.177 -12.220  0.00  0.00    -0.149 C 
ATOM     11  C9  <0> d           4.957  -2.900 -12.969  0.00  0.00    -0.111 C 
ATOM     12  C10 <0> d           4.810  -2.360 -14.323  0.00  0.00    -0.123 C 
ATOM     13  C11 <0> d           5.914  -2.028 -15.020  0.00  0.00    -0.118 C 
ATOM     14  C12 <0> d           5.810  -1.386 -16.337  0.00  0.00    -0.138 C 
ATOM     15  C13 <0> d           6.942  -0.992 -16.915  0.00  0.00    -0.128 C 
ATOM     16  C14 <0> d           7.025  -0.261 -18.219  0.00  0.00    -0.058 C 
ATOM     17  H4  <0> d           7.164  -1.005 -19.023  0.00  0.00     0.084 H 
ATOM     18  C15 <0> d           8.231   0.671 -18.231  0.00  0.00    -0.101 C 
ATOM     19  C16 <0> d           8.117   1.836 -17.255  0.00  0.00    -0.129 C 
ATOM     20  H5  <0> d           7.127   2.283 -17.292  0.00  0.00     0.097 H 
ATOM     21  C17 <0> d           9.128   2.899 -17.634  0.00  0.00     0.351 C 
ATOM     22  O1  <0> d           9.841   2.727 -18.595  0.00  0.00    -0.427 OA
ATOM     23  C18 <0> d           9.261   4.152 -16.814  0.00  0.00     0.060 C 
ATOM     24  H6  <0> d           8.627   4.097 -15.931  0.00  0.00     0.089 H 
ATOM     25  C19 <0> d          10.717   4.335 -16.383  0.00  0.00     0.152 C 
ATOM     26  H7  <0> d          11.287   4.786 -17.195  0.00  0.00     0.080 H 
ATOM     27  C20 <0> d          10.778   5.237 -15.170  0.00  0.00    -0.151 C 
ATOM     28  C21 <0> d          10.374   4.773 -14.020  0.00  0.00    -0.125 C 
ATOM     29  C22 <0> d          10.405   5.570 -12.745  0.00  0.00    -0.100 C 
ATOM     30  H8  <0> d          11.227   6.281 -12.746  0.00  0.00     0.111 H 
ATOM     31  C23 <0> d          10.598   4.614 -11.587  0.00  0.00     0.364 C 
ATOM     32  O2  <0> d          11.536   3.851 -11.611  0.00  0.00    -0.440 OA
ATOM     33  C24 <0> d           9.644   4.613 -10.426  0.00  0.00    -0.171 C 
ATOM     34  C25 <0> d          10.063   3.568  -9.386  0.00  0.00     0.111 C 
ATOM     35  H9  <0> d          10.589   2.750  -9.874  0.00  0.00     0.091 H 
ATOM     36  O3  <0> d           8.898   3.061  -8.731  0.00  0.00    -0.371 OA
ATOM     37  C26 <0> d           9.051   2.078  -7.829  0.00  0.00     0.456 C 
ATOM     38  O4  <0> d           9.770   1.138  -8.073  0.00  0.00    -0.437 OA
ATOM     39  C27 <0> d           8.325   2.161  -6.511  0.00  0.00     0.173 C 
ATOM     40  H10 <0> d           7.433   2.781  -6.631  0.00  0.00     0.100 H 
ATOM     41  C28 <0> d           9.241   2.804  -5.472  0.00  0.00    -0.138 C 
ATOM     42  C29 <0> d           8.532   2.943  -4.131  0.00  0.00    -0.116 C 
ATOM     43  C30 <0> d           7.668   1.731  -3.812  0.00  0.00    -0.139 C 
ATOM     44  C31 <0> d           8.139   0.514  -4.609  0.00  0.00     0.121 C 
ATOM     45  N1  <0> d           7.926   0.831  -6.050  0.00  0.00    -0.643 N 
ATOM     46  C32 <0> d           7.403  -0.132  -6.789  0.00  0.00     0.512 C 
ATOM     47  O5  <0> d           8.017  -0.536  -7.744  0.00  0.00    -0.431 OA
ATOM     48  C33 <0> d           6.080  -0.737  -6.568  0.00  0.00     0.327 C 
ATOM     49  O6  <0> d           5.270  -0.085  -5.958  0.00  0.00    -0.390 OA
ATOM     50  C34 <0> d           5.687  -2.110  -7.033  0.00  0.00     0.287 C 
ATOM     51  O7  <0> d           5.096  -2.058  -8.330  0.00  0.00    -0.354 OA
ATOM     52  H18 <0> d           5.117  -4.798  -6.223  0.00  0.00     0.077 H 
ATOM     53  H19 <0> d           3.416  -4.425  -5.863  0.00  0.00     0.070 H 
ATOM     54  H20 <0> d           4.762  -4.680  -8.462  0.00  0.00     0.086 H 
ATOM     55  H21 <0> d           3.022  -4.681  -8.087  0.00  0.00     0.073 H 
ATOM     56  H22 <0> d           2.256  -2.974  -9.856  0.00  0.00     0.092 H 
ATOM     57  H23 <0> d           3.413  -1.700 -10.278  0.00  0.00     0.080 H 
ATOM     58  H24 <0> d           5.957  -3.075 -12.592  0.00  0.00     0.119 H 
ATOM     59  H25 <0> d           3.847  -2.223 -14.785  0.00  0.00     0.114 H 
ATOM     60  H26 <0> d           6.893  -2.240 -14.615  0.00  0.00     0.110 H 
ATOM     61  H27 <0> d           4.847  -1.267 -16.798  0.00  0.00     0.116 H 
ATOM     62  H28 <0> d           7.873  -1.248 -16.401  0.00  0.00     0.107 H 
ATOM     63  H29 <0> d           9.129   0.088 -17.988  0.00  0.00     0.068 H 
ATOM     64  H30 <0> d           8.360   1.065 -19.247  0.00  0.00     0.073 H 
ATOM     65  H31 <0> d           9.994   3.755 -13.984  0.00  0.00     0.115 H 
ATOM     66  H32 <0> d           9.654   5.593  -9.946  0.00  0.00     0.116 H 
ATOM     67  H33 <0> d           8.641   4.379 -10.769  0.00  0.00     0.118 H 
ATOM     68  H34 <0> d          10.127   2.181  -5.345  0.00  0.00     0.087 H 
ATOM     69  H35 <0> d           9.542   3.794  -5.818  0.00  0.00     0.102 H 
ATOM     70  H36 <0> d           9.284   3.051  -3.347  0.00  0.00     0.075 H 
ATOM     71  H37 <0> d           7.906   3.833  -4.144  0.00  0.00     0.073 H 
ATOM     72  H38 <0> d           7.741   1.511  -2.747  0.00  0.00     0.082 H 
ATOM     73  H39 <0> d           6.633   1.952  -4.064  0.00  0.00     0.077 H 
ATOM     74  H40 <0> d           9.197   0.334  -4.428  0.00  0.00     0.080 H 
ATOM     75  H41 <0> d           7.557  -0.364  -4.335  0.00  0.00     0.082 H 
ENDROOT
BRANCH  34  76
ATOM     76  C35 <0> d          10.986   4.219  -8.354  0.00  0.00    -0.122 C 
ATOM     77  H11 <0> d          10.739   3.847  -7.360  0.00  0.00     0.093 H 
BRANCH  76  78
ATOM     78  C36 <0> d          12.440   3.875  -8.682  0.00  0.00    -0.161 C 
ATOM     79  H43 <0> d          12.529   3.655  -9.746  0.00  0.00     0.066 H 
ATOM     80  H44 <0> d          13.079   4.721  -8.430  0.00  0.00     0.062 H 
ATOM     81  H45 <0> d          12.747   3.003  -8.104  0.00  0.00     0.066 H 
ENDBRANCH  76  78
BRANCH  76  82
ATOM     82  C37 <0> d          10.801   5.738  -8.392  0.00  0.00    -0.137 C 
ATOM     83  H46 <0> d          11.771   6.219  -8.510  0.00  0.00     0.078 H 
ATOM     84  H47 <0> d          10.157   6.004  -9.230  0.00  0.00     0.075 H 
BRANCH  82  85
ATOM     85  C38 <0> d          10.156   6.205  -7.085  0.00  0.00    -0.083 C 
ATOM     86  H12 <0> d           9.245   5.633  -6.905  0.00  0.00     0.077 H 
ATOM     87  C43 <0> d          11.132   5.985  -5.928  0.00  0.00    -0.110 C 
ATOM     88  C42 <0> d          10.487   6.451  -4.621  0.00  0.00     0.102 C 
ATOM     89  H52 <0> d          11.376   4.925  -5.855  0.00  0.00     0.074 H 
ATOM     90  H53 <0> d          12.043   6.556  -6.107  0.00  0.00     0.075 H 
ATOM     91  C41 <0> d          10.145   7.939  -4.724  0.00  0.00     0.083 C 
ATOM     92  H14 <0> d           9.577   5.880  -4.442  0.00  0.00     0.065 H 
ATOM     93  C40 <0> d           9.168   8.158  -5.881  0.00  0.00    -0.150 C 
ATOM     94  H13 <0> d          11.055   8.510  -4.904  0.00  0.00     0.062 H 
ATOM     95  C39 <0> d           9.813   7.693  -7.188  0.00  0.00    -0.116 C 
ATOM     96  H50 <0> d           8.924   9.219  -5.954  0.00  0.00     0.069 H 
ATOM     97  H51 <0> d           8.258   7.588  -5.702  0.00  0.00     0.071 H 
ATOM     98  H48 <0> d          10.724   8.263  -7.368  0.00  0.00     0.068 H 
ATOM     99  H49 <0> d           9.117   7.849  -8.012  0.00  0.00     0.070 H 
BRANCH  88 100
ATOM    100  O9  <0> d          11.399   6.247  -3.540  0.00  0.00    -0.381 OA
BRANCH 100 101
ATOM    101  C44 <0> d          10.960   5.279  -2.584  0.00  0.00     0.031 C 
ATOM    102  H54 <0> d          10.664   4.366  -3.102  0.00  0.00     0.081 H 
ATOM    103  H55 <0> d          11.773   5.058  -1.892  0.00  0.00     0.060 H 
ATOM    104  H56 <0> d          10.109   5.675  -2.031  0.00  0.00     0.035 H 
ENDBRANCH 100 101
ENDBRANCH  88 100
BRANCH  91 105
ATOM    105  O10 <0> d           9.543   8.375  -3.503  0.00  0.00    -0.565 OA
ATOM    106  H57 <0> d          10.139   8.874  -2.928  0.00  0.00     0.377 HD
ENDBRANCH  91 105
ENDBRANCH  82  85
ENDBRANCH  76  82
ENDBRANCH  34  76
BRANCH  29 107
ATOM    107  C45 <0> d           9.082   6.322 -12.579  0.00  0.00    -0.147 C 
ATOM    108  H58 <0> d           8.882   6.906 -13.477  0.00  0.00     0.065 H 
ATOM    109  H59 <0> d           8.274   5.606 -12.424  0.00  0.00     0.068 H 
ATOM    110  H60 <0> d           9.148   6.988 -11.719  0.00  0.00     0.068 H 
ENDBRANCH  29 107
BRANCH  27 111
ATOM    111  C46 <0> d          11.308   6.637 -15.328  0.00  0.00    -0.117 C 
ATOM    112  H61 <0> d          12.002   6.857 -14.516  0.00  0.00     0.074 H 
ATOM    113  H62 <0> d          11.827   6.723 -16.282  0.00  0.00     0.065 H 
ATOM    114  H63 <0> d          10.479   7.344 -15.299  0.00  0.00     0.066 H 
ENDBRANCH  27 111
BRANCH  25 115
ATOM    115  O11 <0> d          11.291   3.069 -16.053  0.00  0.00    -0.554 OA
ATOM    116  H64 <0> d          11.251   2.853 -15.111  0.00  0.00     0.392 HD
ENDBRANCH  25 115
BRANCH  23 117
ATOM    117  O12 <0> d           8.860   5.275 -17.609  0.00  0.00    -0.361 OA
BRANCH 117 118
ATOM    118  C47 <0> d           7.668   5.915 -17.151  0.00  0.00     0.025 C 
ATOM    119  H65 <0> d           7.091   5.218 -16.544  0.00  0.00     0.044 H 
ATOM    120  H66 <0> d           7.931   6.787 -16.552  0.00  0.00     0.050 H 
ATOM    121  H67 <0> d           7.073   6.229 -18.008  0.00  0.00     0.096 H 
ENDBRANCH 117 118
ENDBRANCH  23 117
BRANCH  50 122
ATOM    122  O8  <0> d           6.843  -2.947  -7.072  0.00  0.00    -0.541 OA
ATOM    123  H42 <0> d           6.648  -3.891  -7.008  0.00  0.00     0.394 HD
ENDBRANCH  50 122
BRANCH   1 124
ATOM    124  C1  <0> d           5.337  -2.750  -4.636  0.00  0.00    -0.150 C 
ATOM    125  H15 <0> d           6.419  -2.684  -4.735  0.00  0.00     0.052 H 
ATOM    126  H16 <0> d           4.975  -1.917  -4.034  0.00  0.00     0.067 H 
ATOM    127  H17 <0> d           5.074  -3.691  -4.150  0.00  0.00     0.071 H 
ENDBRANCH   1 124
BRANCH  19 128
ATOM    128  C48 <0> d           8.418   1.368 -15.829  0.00  0.00    -0.145 C 
ATOM    129  H68 <0> d           8.546   2.236 -15.182  0.00  0.00     0.066 H 
ATOM    130  H69 <0> d           7.590   0.761 -15.465  0.00  0.00     0.054 H 
ATOM    131  H70 <0> d           9.333   0.776 -15.827  0.00  0.00     0.076 H 
ENDBRANCH  19 128
BRANCH  16 132
ATOM    132  C49 <0> d           5.740   0.510 -18.509  0.00  0.00    -0.148 C 
ATOM    133  H71 <0> d           5.785   0.926 -19.516  0.00  0.00     0.057 H 
ATOM    134  H72 <0> d           4.887  -0.164 -18.433  0.00  0.00     0.058 H 
ATOM    135  H73 <0> d           5.631   1.318 -17.787  0.00  0.00     0.058 H 
ENDBRANCH  16 132
BRANCH   8 136
ATOM    136  O13 <0> d           5.435  -3.744 -10.460  0.00  0.00    -0.353 OA
BRANCH 136 137
ATOM    137  C51 <0> d           5.997  -5.055 -10.531  0.00  0.00     0.026 C 
ATOM    138  H77 <0> d           5.216  -5.772 -10.788  0.00  0.00     0.039 H 
ATOM    139  H78 <0> d           6.775  -5.078 -11.293  0.00  0.00     0.040 H 
ATOM    140  H79 <0> d           6.427  -5.320  -9.564  0.00  0.00     0.086 H 
ENDBRANCH 136 137
ENDBRANCH   8 136
BRANCH  10 141
ATOM    141  C50 <0> d           2.505  -3.003 -12.770  0.00  0.00    -0.119 C 
ATOM    142  H74 <0> d           1.786  -3.032 -11.952  0.00  0.00     0.068 H 
ATOM    143  H75 <0> d           2.433  -2.044 -13.283  0.00  0.00     0.067 H 
ATOM    144  H76 <0> d           2.289  -3.808 -13.473  0.00  0.00     0.062 H 
ENDBRANCH  10 141
TORSDOF 19
ENDMDL
MODEL 8
REMARK VINA RESULT:      -5.8      7.230     12.573
REMARK  19 active torsions:
REMARK  status: ('A' for Active; 'I' for Inactive)
REMARK    1  A    between atoms: C1_1  and  C2_2 
REMARK    2  A    between atoms: C7_9  and  O13_78 
REMARK    3  A    between atoms: C8_11  and  C50_77 
REMARK    4  A    between atoms: C14_17  and  C49_76 
REMARK    5  A    between atoms: C16_20  and  C48_75 
REMARK    6  A    between atoms: C18_24  and  O12_73 
REMARK    7  A    between atoms: C19_26  and  O11_72 
REMARK    8  A    between atoms: C20_28  and  C46_71 
REMARK    9  A    between atoms: C22_30  and  C45_70 
REMARK   10  A    between atoms: C25_35  and  C35_54 
REMARK   11  A    between atoms: C34_51  and  O8_53 
REMARK   12  A    between atoms: C35_54  and  C36_56 
REMARK   13  A    between atoms: C35_54  and  C37_57 
REMARK   14  A    between atoms: C37_57  and  C38_58 
REMARK   15  A    between atoms: C41_62  and  O10_69 
REMARK   16  A    between atoms: C42_64  and  O9_67 
REMARK   17  A    between atoms: O9_67  and  C44_68 
REMARK   18  A    between atoms: O12_73  and  C47_74 
REMARK   19  A    between atoms: O13_78  and  C51_79 
ROOT
ATOM      1  C2  <0> d           5.777  -1.940  -4.737  0.00  0.00    -0.101 C 
ATOM      2  H1  <0> d           4.879  -1.326  -4.676  0.00  0.00     0.097 H 
ATOM      3  C3  <0> d           5.385  -3.409  -4.896  0.00  0.00    -0.109 C 
ATOM      4  C4  <0> d           4.892  -3.665  -6.325  0.00  0.00    -0.153 C 
ATOM      5  C5  <0> d           4.667  -2.323  -7.022  0.00  0.00     0.110 C 
ATOM      6  H2  <0> d           3.994  -1.711  -6.395  0.00  0.00     0.054 H 
ATOM      7  C6  <0> d           3.978  -2.519  -8.363  0.00  0.00    -0.106 C 
ATOM      8  C7  <0> d           4.634  -3.602  -9.222  0.00  0.00     0.132 C 
ATOM      9  H3  <0> d           4.236  -4.579  -8.954  0.00  0.00     0.070 H 
ATOM     10  C8  <0> d           4.308  -3.299 -10.670  0.00  0.00    -0.149 C 
ATOM     11  C9  <0> d           5.263  -3.111 -11.568  0.00  0.00    -0.111 C 
ATOM     12  C10 <0> d           4.945  -2.769 -12.957  0.00  0.00    -0.123 C 
ATOM     13  C11 <0> d           5.951  -2.519 -13.817  0.00  0.00    -0.118 C 
ATOM     14  C12 <0> d           5.677  -2.069 -15.188  0.00  0.00    -0.138 C 
ATOM     15  C13 <0> d           6.723  -1.741 -15.943  0.00  0.00    -0.128 C 
ATOM     16  C14 <0> d           6.632  -1.199 -17.336  0.00  0.00    -0.058 C 
ATOM     17  H4  <0> d           6.704  -2.046 -18.041  0.00  0.00     0.084 H 
ATOM     18  C15 <0> d           7.797  -0.256 -17.617  0.00  0.00    -0.101 C 
ATOM     19  C16 <0> d           7.755   1.032 -16.804  0.00  0.00    -0.129 C 
ATOM     20  H5  <0> d           6.752   1.452 -16.786  0.00  0.00     0.097 H 
ATOM     21  C17 <0> d           8.680   2.049 -17.440  0.00  0.00     0.351 C 
ATOM     22  O1  <0> d           9.284   1.756 -18.445  0.00  0.00    -0.427 OA
ATOM     23  C18 <0> d           8.862   3.407 -16.822  0.00  0.00     0.060 C 
ATOM     24  H6  <0> d           8.334   3.465 -15.871  0.00  0.00     0.089 H 
ATOM     25  C19 <0> d          10.351   3.674 -16.593  0.00  0.00     0.152 C 
ATOM     26  H7  <0> d          10.810   4.017 -17.520  0.00  0.00     0.080 H 
ATOM     27  C20 <0> d          10.518   4.738 -15.531  0.00  0.00    -0.151 C 
ATOM     28  C21 <0> d          10.263   4.434 -14.289  0.00  0.00    -0.125 C 
ATOM     29  C22 <0> d          10.411   5.402 -13.147  0.00  0.00    -0.100 C 
ATOM     30  H8  <0> d          11.203   6.120 -13.343  0.00  0.00     0.111 H 
ATOM     31  C23 <0> d          10.767   4.622 -11.900  0.00  0.00     0.364 C 
ATOM     32  O2  <0> d          11.721   3.880 -11.929  0.00  0.00    -0.440 OA
ATOM     33  C24 <0> d           9.951   4.766 -10.646  0.00  0.00    -0.171 C 
ATOM     34  C25 <0> d          10.520   3.885  -9.529  0.00  0.00     0.111 C 
ATOM     35  H9  <0> d          11.015   3.016  -9.958  0.00  0.00     0.091 H 
ATOM     36  O3  <0> d           9.455   3.454  -8.679  0.00  0.00    -0.371 OA
ATOM     37  C26 <0> d           9.742   2.611  -7.675  0.00  0.00     0.456 C 
ATOM     38  O4  <0> d          10.460   1.659  -7.869  0.00  0.00    -0.437 OA
ATOM     39  C27 <0> d           9.168   2.865  -6.305  0.00  0.00     0.173 C 
ATOM     40  H10 <0> d           8.247   3.446  -6.404  0.00  0.00     0.100 H 
ATOM     41  C28 <0> d          10.174   3.664  -5.478  0.00  0.00    -0.138 C 
ATOM     42  C29 <0> d           9.616   3.977  -4.096  0.00  0.00    -0.116 C 
ATOM     43  C30 <0> d           8.836   2.806  -3.514  0.00  0.00    -0.139 C 
ATOM     44  C31 <0> d           9.254   1.498  -4.186  0.00  0.00     0.121 C 
ATOM     45  N1  <0> d           8.868   1.606  -5.622  0.00  0.00    -0.643 N 
ATOM     46  C32 <0> d           8.298   0.539  -6.156  0.00  0.00     0.512 C 
ATOM     47  O5  <0> d           8.814   0.016  -7.112  0.00  0.00    -0.431 OA
ATOM     48  C33 <0> d           7.030  -0.052  -5.701  0.00  0.00     0.327 C 
ATOM     49  O6  <0> d           6.273   0.665  -5.095  0.00  0.00    -0.390 OA
ATOM     50  C34 <0> d           6.633  -1.484  -5.923  0.00  0.00     0.287 C 
ATOM     51  O7  <0> d           5.898  -1.624  -7.137  0.00  0.00    -0.354 OA
ATOM     52  H18 <0> d           6.251  -4.041  -4.691  0.00  0.00     0.077 H 
ATOM     53  H19 <0> d           4.589  -3.651  -4.189  0.00  0.00     0.070 H 
ATOM     54  H20 <0> d           5.641  -4.244  -6.868  0.00  0.00     0.086 H 
ATOM     55  H21 <0> d           3.955  -4.224  -6.295  0.00  0.00     0.073 H 
ATOM     56  H22 <0> d           2.936  -2.795  -8.180  0.00  0.00     0.092 H 
ATOM     57  H23 <0> d           3.994  -1.573  -8.906  0.00  0.00     0.080 H 
ATOM     58  H24 <0> d           6.305  -3.214 -11.290  0.00  0.00     0.119 H 
ATOM     59  H25 <0> d           3.932  -2.715 -13.317  0.00  0.00     0.114 H 
ATOM     60  H26 <0> d           6.976  -2.654 -13.504  0.00  0.00     0.110 H 
ATOM     61  H27 <0> d           4.664  -2.034 -15.546  0.00  0.00     0.116 H 
ATOM     62  H28 <0> d           7.714  -1.905 -15.511  0.00  0.00     0.107 H 
ATOM     63  H29 <0> d           8.736  -0.783 -17.403  0.00  0.00     0.068 H 
ATOM     64  H30 <0> d           7.796  -0.007 -18.685  0.00  0.00     0.073 H 
ATOM     65  H31 <0> d           9.924   3.423 -14.069  0.00  0.00     0.115 H 
ATOM     66  H32 <0> d           9.982   5.805 -10.310  0.00  0.00     0.116 H 
ATOM     67  H33 <0> d           8.923   4.469 -10.835  0.00  0.00     0.118 H 
ATOM     68  H34 <0> d          11.089   3.080  -5.372  0.00  0.00     0.087 H 
ATOM     69  H35 <0> d          10.399   4.600  -5.990  0.00  0.00     0.102 H 
ATOM     70  H36 <0> d          10.448   4.207  -3.427  0.00  0.00     0.075 H 
ATOM     71  H37 <0> d           8.964   4.845  -4.158  0.00  0.00     0.073 H 
ATOM     72  H38 <0> d           9.036   2.740  -2.445  0.00  0.00     0.082 H 
ATOM     73  H39 <0> d           7.772   2.971  -3.672  0.00  0.00     0.077 H 
ATOM     74  H40 <0> d          10.331   1.364  -4.107  0.00  0.00     0.080 H 
ATOM     75  H41 <0> d           8.737   0.657  -3.728  0.00  0.00     0.082 H 
ENDROOT
BRANCH  34  76
ATOM     76  C35 <0> d          11.532   4.691  -8.711  0.00  0.00    -0.122 C 
ATOM     77  H11 <0> d          11.385   4.488  -7.651  0.00  0.00     0.093 H 
BRANCH  76  78
ATOM     78  C36 <0> d          12.951   4.289  -9.117  0.00  0.00    -0.161 C 
ATOM     79  H43 <0> d          13.560   4.160  -8.223  0.00  0.00     0.066 H 
ATOM     80  H44 <0> d          12.917   3.352  -9.673  0.00  0.00     0.062 H 
ATOM     81  H45 <0> d          13.384   5.068  -9.744  0.00  0.00     0.066 H 
ENDBRANCH  76  78
BRANCH  76  82
ATOM     82  C37 <0> d          11.328   6.184  -8.979  0.00  0.00    -0.137 C 
ATOM     83  H46 <0> d          12.238   6.604  -9.407  0.00  0.00     0.078 H 
ATOM     84  H47 <0> d          10.501   6.319  -9.676  0.00  0.00     0.075 H 
BRANCH  82  85
ATOM     85  C38 <0> d          11.008   6.898  -7.664  0.00  0.00    -0.083 C 
ATOM     86  H12 <0> d          11.595   6.456  -6.859  0.00  0.00     0.077 H 
ATOM     87  C43 <0> d          11.353   8.383  -7.792  0.00  0.00    -0.110 C 
ATOM     88  C42 <0> d          11.033   9.096  -6.477  0.00  0.00     0.102 C 
ATOM     89  H52 <0> d          12.414   8.491  -8.015  0.00  0.00     0.074 H 
ATOM     90  H53 <0> d          10.766   8.824  -8.597  0.00  0.00     0.075 H 
ATOM     91  C41 <0> d           9.542   8.944  -6.165  0.00  0.00     0.083 C 
ATOM     92  H14 <0> d          11.619   8.655  -5.672  0.00  0.00     0.065 H 
ATOM     93  C40 <0> d           9.197   7.459  -6.036  0.00  0.00    -0.150 C 
ATOM     94  H13 <0> d           8.955   9.385  -6.970  0.00  0.00     0.062 H 
ATOM     95  C39 <0> d           9.517   6.746  -7.351  0.00  0.00    -0.116 C 
ATOM     96  H50 <0> d           8.135   7.351  -5.813  0.00  0.00     0.069 H 
ATOM     97  H51 <0> d           9.784   7.018  -5.231  0.00  0.00     0.071 H 
ATOM     98  H48 <0> d           8.931   7.187  -8.156  0.00  0.00     0.068 H 
ATOM     99  H49 <0> d           9.272   5.688  -7.259  0.00  0.00     0.070 H 
BRANCH  88 100
ATOM    100  O9  <0> d          11.354  10.484  -6.597  0.00  0.00    -0.381 OA
BRANCH 100 101
ATOM    101  C44 <0> d          10.907  11.081  -7.816  0.00  0.00     0.031 C 
ATOM    102  H54 <0> d           9.858  10.832  -7.979  0.00  0.00     0.081 H 
ATOM    103  H55 <0> d          11.018  12.163  -7.753  0.00  0.00     0.060 H 
ATOM    104  H56 <0> d          11.503  10.701  -8.646  0.00  0.00     0.035 H 
ENDBRANCH 100 101
ENDBRANCH  88 100
BRANCH  91 105
ATOM    105  O10 <0> d           9.243   9.612  -4.937  0.00  0.00    -0.565 OA
ATOM    106  H57 <0> d           9.340   9.054  -4.153  0.00  0.00     0.377 HD
ENDBRANCH  91 105
ENDBRANCH  82  85
ENDBRANCH  76  82
ENDBRANCH  34  76
BRANCH  29 107
ATOM    107  C45 <0> d           9.091   6.146 -12.933  0.00  0.00    -0.147 C 
ATOM    108  H58 <0> d           9.065   7.030 -13.570  0.00  0.00     0.065 H 
ATOM    109  H59 <0> d           8.258   5.490 -13.189  0.00  0.00     0.068 H 
ATOM    110  H60 <0> d           9.010   6.448 -11.889  0.00  0.00     0.068 H 
ENDBRANCH  29 107
BRANCH  27 111
ATOM    111  C46 <0> d          10.979   6.112 -15.940  0.00  0.00    -0.117 C 
ATOM    112  H61 <0> d          10.238   6.850 -15.632  0.00  0.00     0.074 H 
ATOM    113  H62 <0> d          11.932   6.332 -15.461  0.00  0.00     0.065 H 
ATOM    114  H63 <0> d          11.099   6.147 -17.023  0.00  0.00     0.066 H 
ENDBRANCH  27 111
BRANCH  25 115
ATOM    115  O11 <0> d          11.001   2.478 -16.161  0.00  0.00    -0.554 OA
ATOM    116  H64 <0> d          10.936   2.316 -15.210  0.00  0.00     0.392 HD
ENDBRANCH  25 115
BRANCH  23 117
ATOM    117  O12 <0> d           8.336   4.400 -17.711  0.00  0.00    -0.361 OA
BRANCH 117 118
ATOM    118  C47 <0> d           7.294   5.195 -17.143  0.00  0.00     0.025 C 
ATOM    119  H65 <0> d           7.681   5.741 -16.283  0.00  0.00     0.044 H 
ATOM    120  H66 <0> d           6.929   5.901 -17.888  0.00  0.00     0.050 H 
ATOM    121  H67 <0> d           6.476   4.548 -16.825  0.00  0.00     0.096 H 
ENDBRANCH 117 118
ENDBRANCH  23 117
BRANCH  50 122
ATOM    122  O8  <0> d           7.806  -2.296  -5.982  0.00  0.00    -0.541 OA
ATOM    123  H42 <0> d           7.629  -3.246  -5.947  0.00  0.00     0.394 HD
ENDBRANCH  50 122
BRANCH   1 124
ATOM    124  C1  <0> d           6.579  -1.787  -3.437  0.00  0.00    -0.150 C 
ATOM    125  H15 <0> d           7.283  -2.613  -3.344  0.00  0.00     0.052 H 
ATOM    126  H16 <0> d           7.126  -0.845  -3.456  0.00  0.00     0.067 H 
ATOM    127  H17 <0> d           5.896  -1.794  -2.586  0.00  0.00     0.071 H 
ENDBRANCH   1 124
BRANCH  19 128
ATOM    128  C48 <0> d           8.231   0.774 -15.372  0.00  0.00    -0.145 C 
ATOM    129  H68 <0> d           7.932  -0.228 -15.065  0.00  0.00     0.066 H 
ATOM    130  H69 <0> d           9.316   0.859 -15.330  0.00  0.00     0.054 H 
ATOM    131  H70 <0> d           7.782   1.508 -14.703  0.00  0.00     0.076 H 
ENDBRANCH  19 128
BRANCH  16 132
ATOM    132  C49 <0> d           5.297  -0.499 -17.577  0.00  0.00    -0.148 C 
ATOM    133  H71 <0> d           4.849  -0.878 -18.496  0.00  0.00     0.057 H 
ATOM    134  H72 <0> d           4.628  -0.695 -16.739  0.00  0.00     0.058 H 
ATOM    135  H73 <0> d           5.461   0.574 -17.669  0.00  0.00     0.058 H 
ENDBRANCH  16 132
BRANCH   8 136
ATOM    136  O13 <0> d           6.051  -3.586  -9.040  0.00  0.00    -0.353 OA
BRANCH 136 137
ATOM    137  C51 <0> d           6.645  -4.884  -8.996  0.00  0.00     0.026 C 
ATOM    138  H77 <0> d           7.586  -4.834  -8.448  0.00  0.00     0.039 H 
ATOM    139  H78 <0> d           5.970  -5.577  -8.494  0.00  0.00     0.040 H 
ATOM    140  H79 <0> d           6.835  -5.232 -10.012  0.00  0.00     0.086 H 
ENDBRANCH 136 137
ENDBRANCH   8 136
BRANCH  10 141
ATOM    141  C50 <0> d           2.854  -3.229 -11.071  0.00  0.00    -0.119 C 
ATOM    142  H74 <0> d           2.733  -2.500 -11.872  0.00  0.00     0.068 H 
ATOM    143  H75 <0> d           2.526  -4.209 -11.420  0.00  0.00     0.067 H 
ATOM    144  H76 <0> d           2.254  -2.930 -10.212  0.00  0.00     0.062 H 
ENDBRANCH  10 141
TORSDOF 19
ENDMDL
MODEL 9
REMARK VINA RESULT:      -5.8      5.047     14.361
REMARK  19 active torsions:
REMARK  status: ('A' for Active; 'I' for Inactive)
REMARK    1  A    between atoms: C1_1  and  C2_2 
REMARK    2  A    between atoms: C7_9  and  O13_78 
REMARK    3  A    between atoms: C8_11  and  C50_77 
REMARK    4  A    between atoms: C14_17  and  C49_76 
REMARK    5  A    between atoms: C16_20  and  C48_75 
REMARK    6  A    between atoms: C18_24  and  O12_73 
REMARK    7  A    between atoms: C19_26  and  O11_72 
REMARK    8  A    between atoms: C20_28  and  C46_71 
REMARK    9  A    between atoms: C22_30  and  C45_70 
REMARK   10  A    between atoms: C25_35  and  C35_54 
REMARK   11  A    between atoms: C34_51  and  O8_53 
REMARK   12  A    between atoms: C35_54  and  C36_56 
REMARK   13  A    between atoms: C35_54  and  C37_57 
REMARK   14  A    between atoms: C37_57  and  C38_58 
REMARK   15  A    between atoms: C41_62  and  O10_69 
REMARK   16  A    between atoms: C42_64  and  O9_67 
REMARK   17  A    between atoms: O9_67  and  C44_68 
REMARK   18  A    between atoms: O12_73  and  C47_74 
REMARK   19  A    between atoms: O13_78  and  C51_79 
ROOT
ATOM      1  C2  <0> d           1.662  -4.561 -10.453  0.00  0.00    -0.101 C 
ATOM      2  H1  <0> d           1.090  -4.404  -9.539  0.00  0.00     0.097 H 
ATOM      3  C3  <0> d           1.176  -3.596 -11.535  0.00  0.00    -0.109 C 
ATOM      4  C4  <0> d           1.688  -2.182 -11.240  0.00  0.00    -0.153 C 
ATOM      5  C5  <0> d           2.250  -2.141  -9.818  0.00  0.00     0.110 C 
ATOM      6  H2  <0> d           1.476  -2.516  -9.125  0.00  0.00     0.054 H 
ATOM      7  C6  <0> d           2.572  -0.714  -9.405  0.00  0.00    -0.106 C 
ATOM      8  C7  <0> d           3.388   0.044 -10.454  0.00  0.00     0.132 C 
ATOM      9  H3  <0> d           2.722   0.484 -11.193  0.00  0.00     0.070 H 
ATOM     10  C8  <0> d           4.149   1.141  -9.738  0.00  0.00    -0.149 C 
ATOM     11  C9  <0> d           5.470   1.216  -9.796  0.00  0.00    -0.111 C 
ATOM     12  C10 <0> d           6.207   2.248  -9.062  0.00  0.00    -0.123 C 
ATOM     13  C11 <0> d           7.554   2.241  -9.096  0.00  0.00    -0.118 C 
ATOM     14  C12 <0> d           8.333   3.191  -8.290  0.00  0.00    -0.138 C 
ATOM     15  C13 <0> d           9.657   3.052  -8.295  0.00  0.00    -0.128 C 
ATOM     16  C14 <0> d          10.604   3.881  -7.484  0.00  0.00    -0.058 C 
ATOM     17  H4  <0> d          10.940   4.729  -8.106  0.00  0.00     0.084 H 
ATOM     18  C15 <0> d          11.834   3.064  -7.104  0.00  0.00    -0.101 C 
ATOM     19  C16 <0> d          11.541   1.927  -6.132  0.00  0.00    -0.129 C 
ATOM     20  H5  <0> d          10.880   2.255  -5.333  0.00  0.00     0.097 H 
ATOM     21  C17 <0> d          12.841   1.464  -5.507  0.00  0.00     0.351 C 
ATOM     22  O1  <0> d          13.875   2.010  -5.810  0.00  0.00    -0.427 OA
ATOM     23  C18 <0> d          12.853   0.321  -4.529  0.00  0.00     0.060 C 
ATOM     24  H6  <0> d          11.862  -0.123  -4.453  0.00  0.00     0.089 H 
ATOM     25  C19 <0> d          13.852  -0.741  -4.990  0.00  0.00     0.152 C 
ATOM     26  H7  <0> d          14.859  -0.454  -4.691  0.00  0.00     0.080 H 
ATOM     27  C20 <0> d          13.505  -2.072  -4.358  0.00  0.00    -0.151 C 
ATOM     28  C21 <0> d          12.450  -2.713  -4.779  0.00  0.00    -0.125 C 
ATOM     29  C22 <0> d          12.018  -4.049  -4.240  0.00  0.00    -0.100 C 
ATOM     30  H8  <0> d          12.873  -4.635  -3.913  0.00  0.00     0.111 H 
ATOM     31  C23 <0> d          11.311  -4.805  -5.343  0.00  0.00     0.364 C 
ATOM     32  O2  <0> d          11.877  -4.960  -6.401  0.00  0.00    -0.440 OA
ATOM     33  C24 <0> d           9.930  -5.359  -5.131  0.00  0.00    -0.171 C 
ATOM     34  C25 <0> d           9.443  -6.088  -6.388  0.00  0.00     0.111 C 
ATOM     35  H9  <0> d           9.905  -5.653  -7.271  0.00  0.00     0.091 H 
ATOM     36  O3  <0> d           8.022  -5.963  -6.484  0.00  0.00    -0.371 OA
ATOM     37  C26 <0> d           7.409  -6.479  -7.562  0.00  0.00     0.456 C 
ATOM     38  O4  <0> d           7.866  -6.296  -8.665  0.00  0.00    -0.437 OA
ATOM     39  C27 <0> d           6.152  -7.292  -7.383  0.00  0.00     0.173 C 
ATOM     40  H10 <0> d           5.661  -6.992  -6.454  0.00  0.00     0.100 H 
ATOM     41  C28 <0> d           6.519  -8.772  -7.296  0.00  0.00    -0.138 C 
ATOM     42  C29 <0> d           5.279  -9.628  -7.076  0.00  0.00    -0.116 C 
ATOM     43  C30 <0> d           4.089  -9.133  -7.886  0.00  0.00    -0.139 C 
ATOM     44  C31 <0> d           4.562  -8.287  -9.069  0.00  0.00     0.121 C 
ATOM     45  N1  <0> d           5.232  -7.083  -8.501  0.00  0.00    -0.643 N 
ATOM     46  C32 <0> d           4.940  -5.928  -9.073  0.00  0.00     0.512 C 
ATOM     47  O5  <0> d           5.830  -5.269  -9.550  0.00  0.00    -0.431 OA
ATOM     48  C33 <0> d           3.594  -5.338  -9.138  0.00  0.00     0.327 C 
ATOM     49  O6  <0> d           2.793  -5.698  -8.311  0.00  0.00    -0.390 OA
ATOM     50  C34 <0> d           3.153  -4.341 -10.171  0.00  0.00     0.287 C 
ATOM     51  O7  <0> d           3.371  -3.007  -9.716  0.00  0.00    -0.354 OA
ATOM     52  H18 <0> d           1.548  -3.923 -12.507  0.00  0.00     0.077 H 
ATOM     53  H19 <0> d           0.085  -3.591 -11.552  0.00  0.00     0.070 H 
ATOM     54  H20 <0> d           2.469  -1.923 -11.956  0.00  0.00     0.086 H 
ATOM     55  H21 <0> d           0.866  -1.468 -11.329  0.00  0.00     0.073 H 
ATOM     56  H22 <0> d           1.633  -0.182  -9.234  0.00  0.00     0.092 H 
ATOM     57  H23 <0> d           3.130  -0.740  -8.467  0.00  0.00     0.080 H 
ATOM     58  H24 <0> d           6.033   0.513 -10.397  0.00  0.00     0.119 H 
ATOM     59  H25 <0> d           5.708   3.018  -8.499  0.00  0.00     0.114 H 
ATOM     60  H26 <0> d           8.075   1.535  -9.725  0.00  0.00     0.110 H 
ATOM     61  H27 <0> d           7.829   3.966  -7.744  0.00  0.00     0.116 H 
ATOM     62  H28 <0> d          10.070   2.289  -8.961  0.00  0.00     0.107 H 
ATOM     63  H29 <0> d          12.276   2.647  -8.018  0.00  0.00     0.068 H 
ATOM     64  H30 <0> d          12.577   3.736  -6.657  0.00  0.00     0.073 H 
ATOM     65  H31 <0> d          11.852  -2.254  -5.563  0.00  0.00     0.115 H 
ATOM     66  H32 <0> d           9.948  -6.075  -4.307  0.00  0.00     0.116 H 
ATOM     67  H33 <0> d           9.237  -4.553  -4.905  0.00  0.00     0.118 H 
ATOM     68  H34 <0> d           7.001  -9.073  -8.227  0.00  0.00     0.087 H 
ATOM     69  H35 <0> d           7.208  -8.925  -6.465  0.00  0.00     0.102 H 
ATOM     70  H36 <0> d           5.503 -10.653  -7.378  0.00  0.00     0.075 H 
ATOM     71  H37 <0> d           5.018  -9.621  -6.020  0.00  0.00     0.073 H 
ATOM     72  H38 <0> d           3.529  -9.990  -8.260  0.00  0.00     0.082 H 
ATOM     73  H39 <0> d           3.444  -8.533  -7.247  0.00  0.00     0.077 H 
ATOM     74  H40 <0> d           5.274  -8.850  -9.671  0.00  0.00     0.080 H 
ATOM     75  H41 <0> d           3.713  -7.984  -9.679  0.00  0.00     0.082 H 
ENDROOT
BRANCH  34  76
ATOM     76  C35 <0> d           9.821  -7.568  -6.295  0.00  0.00    -0.122 C 
ATOM     77  H11 <0> d           8.927  -8.179  -6.417  0.00  0.00     0.093 H 
BRANCH  76  78
ATOM     78  C36 <0> d          10.824  -7.907  -7.399  0.00  0.00    -0.161 C 
ATOM     79  H43 <0> d          11.786  -7.451  -7.167  0.00  0.00     0.066 H 
ATOM     80  H44 <0> d          10.940  -8.988  -7.464  0.00  0.00     0.062 H 
ATOM     81  H45 <0> d          10.460  -7.523  -8.352  0.00  0.00     0.066 H 
ENDBRANCH  76  78
BRANCH  76  82
ATOM     82  C37 <0> d          10.451  -7.848  -4.929  0.00  0.00    -0.137 C 
ATOM     83  H46 <0> d          11.425  -8.316  -5.068  0.00  0.00     0.078 H 
ATOM     84  H47 <0> d          10.570  -6.911  -4.386  0.00  0.00     0.075 H 
BRANCH  82  85
ATOM     85  C38 <0> d           9.542  -8.788  -4.133  0.00  0.00    -0.083 C 
ATOM     86  H12 <0> d           9.583  -9.787  -4.567  0.00  0.00     0.077 H 
ATOM     87  C43 <0> d          10.015  -8.843  -2.679  0.00  0.00    -0.110 C 
ATOM     88  C42 <0> d           9.108  -9.783  -1.883  0.00  0.00     0.102 C 
ATOM     89  H52 <0> d          11.040  -9.213  -2.645  0.00  0.00     0.074 H 
ATOM     90  H53 <0> d           9.975  -7.845  -2.245  0.00  0.00     0.075 H 
ATOM     91  C41 <0> d           7.669  -9.263  -1.932  0.00  0.00     0.083 C 
ATOM     92  H14 <0> d           9.148 -10.781  -2.317  0.00  0.00     0.065 H 
ATOM     93  C40 <0> d           7.196  -9.208  -3.385  0.00  0.00    -0.150 C 
ATOM     94  H13 <0> d           7.628  -8.264  -1.497  0.00  0.00     0.062 H 
ATOM     95  C39 <0> d           8.103  -8.268  -4.181  0.00  0.00    -0.116 C 
ATOM     96  H50 <0> d           6.171  -8.838  -3.420  0.00  0.00     0.069 H 
ATOM     97  H51 <0> d           7.236 -10.206  -3.819  0.00  0.00     0.071 H 
ATOM     98  H48 <0> d           8.063  -7.270  -3.748  0.00  0.00     0.068 H 
ATOM     99  H49 <0> d           7.766  -8.229  -5.217  0.00  0.00     0.070 H 
BRANCH  88 100
ATOM    100  O9  <0> d           9.549  -9.835  -0.525  0.00  0.00    -0.381 OA
BRANCH 100 101
ATOM    101  C44 <0> d          10.742  -9.090  -0.273  0.00  0.00     0.031 C 
ATOM    102  H54 <0> d          11.442  -9.706   0.292  0.00  0.00     0.081 H 
ATOM    103  H55 <0> d          11.196  -8.799  -1.220  0.00  0.00     0.060 H 
ATOM    104  H56 <0> d          10.498  -8.197   0.303  0.00  0.00     0.035 H 
ENDBRANCH 100 101
ENDBRANCH  88 100
BRANCH  91 105
ATOM    105  O10 <0> d           6.821 -10.141  -1.187  0.00  0.00    -0.565 OA
ATOM    106  H57 <0> d           5.908  -9.830  -1.106  0.00  0.00     0.377 HD
ENDBRANCH  91 105
ENDBRANCH  82  85
ENDBRANCH  76  82
ENDBRANCH  34  76
BRANCH  29 107
ATOM    107  C45 <0> d          11.064  -3.841  -3.062  0.00  0.00    -0.147 C 
ATOM    108  H58 <0> d          11.571  -3.276  -2.280  0.00  0.00     0.065 H 
ATOM    109  H59 <0> d          10.187  -3.287  -3.398  0.00  0.00     0.068 H 
ATOM    110  H60 <0> d          10.755  -4.809  -2.669  0.00  0.00     0.068 H 
ENDBRANCH  29 107
BRANCH  27 111
ATOM    111  C46 <0> d          14.390  -2.614  -3.268  0.00  0.00    -0.117 C 
ATOM    112  H61 <0> d          13.778  -2.902  -2.413  0.00  0.00     0.074 H 
ATOM    113  H62 <0> d          14.929  -3.486  -3.639  0.00  0.00     0.065 H 
ATOM    114  H63 <0> d          15.103  -1.849  -2.964  0.00  0.00     0.066 H 
ENDBRANCH  27 111
BRANCH  25 115
ATOM    115  O11 <0> d          13.803  -0.874  -6.412  0.00  0.00    -0.554 OA
ATOM    116  H64 <0> d          13.266  -1.617  -6.719  0.00  0.00     0.392 HD
ENDBRANCH  25 115
BRANCH  23 117
ATOM    117  O12 <0> d          13.247   0.812  -3.242  0.00  0.00    -0.361 OA
BRANCH 117 118
ATOM    118  C47 <0> d          14.658   0.966  -3.086  0.00  0.00     0.025 C 
ATOM    119  H65 <0> d          15.135   0.965  -4.066  0.00  0.00     0.044 H 
ATOM    120  H66 <0> d          14.867   1.910  -2.582  0.00  0.00     0.050 H 
ATOM    121  H67 <0> d          15.050   0.142  -2.490  0.00  0.00     0.096 H 
ENDBRANCH 117 118
ENDBRANCH  23 117
BRANCH  50 122
ATOM    122  O8  <0> d           3.884  -4.556 -11.379  0.00  0.00    -0.541 OA
ATOM    123  H42 <0> d           4.710  -5.043 -11.257  0.00  0.00     0.394 HD
ENDBRANCH  50 122
BRANCH   1 124
ATOM    124  C1  <0> d           1.440  -5.998 -10.945  0.00  0.00    -0.150 C 
ATOM    125  H15 <0> d           0.396  -6.274 -10.802  0.00  0.00     0.052 H 
ATOM    126  H16 <0> d           1.691  -6.063 -12.003  0.00  0.00     0.067 H 
ATOM    127  H17 <0> d           2.076  -6.678 -10.377  0.00  0.00     0.071 H 
ENDBRANCH   1 124
BRANCH  19 128
ATOM    128  C48 <0> d          10.910   0.744  -6.870  0.00  0.00    -0.145 C 
ATOM    129  H68 <0> d          11.491  -0.158  -6.674  0.00  0.00     0.066 H 
ATOM    130  H69 <0> d           9.888   0.602  -6.520  0.00  0.00     0.054 H 
ATOM    131  H70 <0> d          10.904   0.946  -7.941  0.00  0.00     0.076 H 
ENDBRANCH  19 128
BRANCH  16 132
ATOM    132  C49 <0> d           9.925   4.449  -6.241  0.00  0.00    -0.148 C 
ATOM    133  H71 <0> d           9.443   5.394  -6.490  0.00  0.00     0.057 H 
ATOM    134  H72 <0> d           9.176   3.743  -5.882  0.00  0.00     0.058 H 
ATOM    135  H73 <0> d          10.670   4.615  -5.464  0.00  0.00     0.058 H 
ENDBRANCH  16 132
BRANCH   8 136
ATOM    136  O13 <0> d           4.313  -0.837 -11.093  0.00  0.00    -0.353 OA
BRANCH 136 137
ATOM    137  C51 <0> d           4.484  -0.586 -12.489  0.00  0.00     0.026 C 
ATOM    138  H77 <0> d           3.877  -1.288 -13.061  0.00  0.00     0.039 H 
ATOM    139  H78 <0> d           4.171   0.433 -12.717  0.00  0.00     0.040 H 
ATOM    140  H79 <0> d           5.533  -0.713 -12.756  0.00  0.00     0.086 H 
ENDBRANCH 136 137
ENDBRANCH   8 136
BRANCH  10 141
ATOM    141  C50 <0> d           3.357   2.165  -8.961  0.00  0.00    -0.119 C 
ATOM    142  H74 <0> d           2.446   2.409  -9.505  0.00  0.00     0.068 H 
ATOM    143  H75 <0> d           3.098   1.757  -7.983  0.00  0.00     0.067 H 
ATOM    144  H76 <0> d           3.956   3.066  -8.831  0.00  0.00     0.062 H 
ENDBRANCH  10 141
TORSDOF 19
ENDMDL
