MODEL 1
REMARK VINA RESULT:      -4.1      0.000      0.000
REMARK  3 active torsions:
REMARK  status: ('A' for Active; 'I' for Inactive)
REMARK    1  A    between atoms: C_1  and  C_2 
REMARK       I    between atoms: C_2  and  N_4 
REMARK       I    between atoms: N_4  and  CA_5 
REMARK    2  A    between atoms: CA_5  and  CB_7 
REMARK       I    between atoms: CA_5  and  C_9 
REMARK    3  A    between atoms: CB_7  and  SG_8 
ROOT
ATOM      1  C   UNK d   0       4.206  -2.347  -3.886  0.00  0.00     0.210 C 
ATOM      2  O   UNK d   0       3.794  -2.512  -2.757  0.00  0.00    -0.276 OA
ATOM      3  N   CYS d   1       3.871  -1.235  -4.571  0.00  0.00    -0.307 N 
ATOM      4  CA  CYS d   1       3.008  -0.227  -3.952  0.00  0.00     0.071 C 
ATOM      5  HA  CYS d   1       2.274  -0.719  -3.314  0.00  0.00     0.057 H 
ATOM      6  C   CYS d   1       3.846   0.711  -3.122  0.00  0.00     0.063 C 
ATOM      7  O   CYS d   1       5.002   0.938  -3.439  0.00  0.00    -0.548 OA
ATOM      8  OXT CYS d   1       3.370   1.245  -2.136  0.00  0.00    -0.548 OA
ATOM      9  H   CYS d   1       4.201  -1.104  -5.473  0.00  0.00     0.149 HD
ENDROOT
BRANCH   4  10
ATOM     10  CB  CYS d   1       2.285   0.565  -5.044  0.00  0.00     0.014 C 
ATOM     11  HB1 CYS d   1       1.230   0.290  -5.054  0.00  0.00     0.040 H 
ATOM     12  HB2 CYS d   1       2.381   1.631  -4.842  0.00  0.00     0.040 H 
BRANCH  10  13
ATOM     13  SG  CYS d   1       3.024   0.185  -6.656  0.00  0.00    -0.176 SA
ATOM     14  HG  CYS d   1       3.531  -1.050  -6.499  0.00  0.00     0.102 HD
ENDBRANCH  10  13
ENDBRANCH   4  10
BRANCH   1  15
ATOM     15  C   UNK d   0       5.094  -3.385  -4.523  0.00  0.00     0.012 C 
ATOM     16  H   UNK d   0       5.433  -3.027  -5.494  0.00  0.00     0.032 H 
ATOM     17  H   UNK d   0       5.956  -3.569  -3.882  0.00  0.00     0.032 H 
ATOM     18  H   UNK d   0       4.534  -4.311  -4.653  0.00  0.00     0.032 H 
ENDBRANCH   1  15
TORSDOF 5
ENDMDL
MODEL 2
REMARK VINA RESULT:      -3.8      3.000      3.818
REMARK  3 active torsions:
REMARK  status: ('A' for Active; 'I' for Inactive)
REMARK    1  A    between atoms: C_1  and  C_2 
REMARK       I    between atoms: C_2  and  N_4 
REMARK       I    between atoms: N_4  and  CA_5 
REMARK    2  A    between atoms: CA_5  and  CB_7 
REMARK       I    between atoms: CA_5  and  C_9 
REMARK    3  A    between atoms: CB_7  and  SG_8 
ROOT
ATOM      1  C   UNK d   0       3.332   0.294  -3.840  0.00  0.00     0.210 C 
ATOM      2  O   UNK d   0       2.335  -0.393  -3.907  0.00  0.00    -0.276 OA
ATOM      3  N   CYS d   1       4.208   0.312  -4.865  0.00  0.00    -0.307 N 
ATOM      4  CA  CYS d   1       3.957  -0.499  -6.058  0.00  0.00     0.071 C 
ATOM      5  HA  CYS d   1       3.473  -1.431  -5.768  0.00  0.00     0.057 H 
ATOM      6  C   CYS d   1       3.060   0.260  -7.002  0.00  0.00     0.063 C 
ATOM      7  O   CYS d   1       3.095   1.479  -7.028  0.00  0.00    -0.548 OA
ATOM      8  OXT CYS d   1       2.299  -0.343  -7.739  0.00  0.00    -0.548 OA
ATOM      9  H   CYS d   1       5.005   0.863  -4.811  0.00  0.00     0.149 HD
ENDROOT
BRANCH   4  10
ATOM     10  CB  CYS d   1       5.284  -0.808  -6.753  0.00  0.00     0.014 C 
ATOM     11  HB1 CYS d   1       5.375  -1.884  -6.902  0.00  0.00     0.040 H 
ATOM     12  HB2 CYS d   1       5.314  -0.304  -7.719  0.00  0.00     0.040 H 
BRANCH  10  13
ATOM     13  SG  CYS d   1       6.658  -0.223  -5.723  0.00  0.00    -0.176 SA
ATOM     14  HG  CYS d   1       6.679  -1.082  -4.690  0.00  0.00     0.102 HD
ENDBRANCH  10  13
ENDBRANCH   4  10
BRANCH   1  15
ATOM     15  C   UNK d   0       3.591   1.129  -2.612  0.00  0.00     0.012 C 
ATOM     16  H   UNK d   0       4.308   1.914  -2.851  0.00  0.00     0.032 H 
ATOM     17  H   UNK d   0       2.658   1.579  -2.275  0.00  0.00     0.032 H 
ATOM     18  H   UNK d   0       3.995   0.495  -1.822  0.00  0.00     0.032 H 
ENDBRANCH   1  15
TORSDOF 5
ENDMDL
MODEL 3
REMARK VINA RESULT:      -3.7      2.957      3.952
REMARK  3 active torsions:
REMARK  status: ('A' for Active; 'I' for Inactive)
REMARK    1  A    between atoms: C_1  and  C_2 
REMARK       I    between atoms: C_2  and  N_4 
REMARK       I    between atoms: N_4  and  CA_5 
REMARK    2  A    between atoms: CA_5  and  CB_7 
REMARK       I    between atoms: CA_5  and  C_9 
REMARK    3  A    between atoms: CB_7  and  SG_8 
ROOT
ATOM      1  C   UNK d   0       2.918   0.197  -7.800  0.00  0.00     0.210 C 
ATOM      2  O   UNK d   0       3.359   1.323  -7.711  0.00  0.00    -0.276 OA
ATOM      3  N   CYS d   1       3.122  -0.688  -6.803  0.00  0.00    -0.307 N 
ATOM      4  CA  CYS d   1       3.876  -0.289  -5.613  0.00  0.00     0.071 C 
ATOM      5  HA  CYS d   1       4.666   0.404  -5.899  0.00  0.00     0.057 H 
ATOM      6  C   CYS d   1       2.950   0.383  -4.632  0.00  0.00     0.063 C 
ATOM      7  O   CYS d   1       1.772   0.067  -4.591  0.00  0.00    -0.548 OA
ATOM      8  OXT CYS d   1       3.376   1.241  -3.880  0.00  0.00    -0.548 OA
ATOM      9  H   CYS d   1       2.769  -1.588  -6.875  0.00  0.00     0.149 HD
ENDROOT
BRANCH   4  10
ATOM     10  CB  CYS d   1       4.496  -1.528  -4.963  0.00  0.00     0.014 C 
ATOM     11  HB1 CYS d   1       3.845  -1.883  -4.164  0.00  0.00     0.040 H 
ATOM     12  HB2 CYS d   1       4.613  -2.311  -5.712  0.00  0.00     0.040 H 
BRANCH  10  13
ATOM     13  SG  CYS d   1       6.119  -1.102  -4.275  0.00  0.00    -0.176 SA
ATOM     14  HG  CYS d   1       6.030   0.216  -4.023  0.00  0.00     0.102 HD
ENDBRANCH  10  13
ENDBRANCH   4  10
BRANCH   1  15
ATOM     15  C   UNK d   0       2.142  -0.214  -9.025  0.00  0.00     0.012 C 
ATOM     16  H   UNK d   0       1.075  -0.189  -8.805  0.00  0.00     0.032 H 
ATOM     17  H   UNK d   0       2.361   0.474  -9.841  0.00  0.00     0.032 H 
ATOM     18  H   UNK d   0       2.430  -1.225  -9.314  0.00  0.00     0.032 H 
ENDBRANCH   1  15
TORSDOF 5
ENDMDL
MODEL 4
REMARK VINA RESULT:      -3.7      2.598      3.447
REMARK  3 active torsions:
REMARK  status: ('A' for Active; 'I' for Inactive)
REMARK    1  A    between atoms: C_1  and  C_2 
REMARK       I    between atoms: C_2  and  N_4 
REMARK       I    between atoms: N_4  and  CA_5 
REMARK    2  A    between atoms: CA_5  and  CB_7 
REMARK       I    between atoms: CA_5  and  C_9 
REMARK    3  A    between atoms: CB_7  and  SG_8 
ROOT
ATOM      1  C   UNK d   0       6.884   0.757  -4.009  0.00  0.00     0.210 C 
ATOM      2  O   UNK d   0       7.045   1.659  -3.214  0.00  0.00    -0.276 OA
ATOM      3  N   CYS d   1       5.916  -0.159  -3.803  0.00  0.00    -0.307 N 
ATOM      4  CA  CYS d   1       5.060  -0.065  -2.619  0.00  0.00     0.071 C 
ATOM      5  HA  CYS d   1       5.641   0.315  -1.779  0.00  0.00     0.057 H 
ATOM      6  C   CYS d   1       3.913   0.871  -2.900  0.00  0.00     0.063 C 
ATOM      7  O   CYS d   1       3.482   0.983  -4.036  0.00  0.00    -0.548 OA
ATOM      8  OXT CYS d   1       3.415   1.517  -1.994  0.00  0.00    -0.548 OA
ATOM      9  H   CYS d   1       5.787  -0.879  -4.439  0.00  0.00     0.149 HD
ENDROOT
BRANCH   4  10
ATOM     10  CB  CYS d   1       4.513  -1.452  -2.273  0.00  0.00     0.014 C 
ATOM     11  HB1 CYS d   1       5.109  -1.888  -1.471  0.00  0.00     0.040 H 
ATOM     12  HB2 CYS d   1       3.477  -1.363  -1.950  0.00  0.00     0.040 H 
BRANCH  10  13
ATOM     13  SG  CYS d   1       4.600  -2.518  -3.738  0.00  0.00    -0.176 SA
ATOM     14  HG  CYS d   1       5.072  -3.685  -3.264  0.00  0.00     0.102 HD
ENDBRANCH  10  13
ENDBRANCH   4  10
BRANCH   1  15
ATOM     15  C   UNK d   0       7.765   0.660  -5.228  0.00  0.00     0.012 C 
ATOM     16  H   UNK d   0       8.490   1.474  -5.218  0.00  0.00     0.032 H 
ATOM     17  H   UNK d   0       8.290  -0.295  -5.221  0.00  0.00     0.032 H 
ATOM     18  H   UNK d   0       7.151   0.731  -6.126  0.00  0.00     0.032 H 
ENDBRANCH   1  15
TORSDOF 5
ENDMDL
MODEL 5
REMARK VINA RESULT:      -3.7      2.802      4.145
REMARK  3 active torsions:
REMARK  status: ('A' for Active; 'I' for Inactive)
REMARK    1  A    between atoms: C_1  and  C_2 
REMARK       I    between atoms: C_2  and  N_4 
REMARK       I    between atoms: N_4  and  CA_5 
REMARK    2  A    between atoms: CA_5  and  CB_7 
REMARK       I    between atoms: CA_5  and  C_9 
REMARK    3  A    between atoms: CB_7  and  SG_8 
ROOT
ATOM      1  C   UNK d   0       4.809  -0.431  -2.162  0.00  0.00     0.210 C 
ATOM      2  O   UNK d   0       4.268  -1.341  -1.570  0.00  0.00    -0.276 OA
ATOM      3  N   CYS d   1       5.660  -0.696  -3.173  0.00  0.00    -0.307 N 
ATOM      4  CA  CYS d   1       5.934  -2.083  -3.555  0.00  0.00     0.071 C 
ATOM      5  HA  CYS d   1       5.926  -2.713  -2.666  0.00  0.00     0.057 H 
ATOM      6  C   CYS d   1       4.874  -2.558  -4.515  0.00  0.00     0.063 C 
ATOM      7  O   CYS d   1       4.329  -1.764  -5.263  0.00  0.00    -0.548 OA
ATOM      8  OXT CYS d   1       4.561  -3.736  -4.546  0.00  0.00    -0.548 OA
ATOM      9  H   CYS d   1       6.092   0.032  -3.647  0.00  0.00     0.149 HD
ENDROOT
BRANCH   4  10
ATOM     10  CB  CYS d   1       7.306  -2.166  -4.227  0.00  0.00     0.014 C 
ATOM     11  HB1 CYS d   1       8.037  -2.547  -3.515  0.00  0.00     0.040 H 
ATOM     12  HB2 CYS d   1       7.249  -2.836  -5.085  0.00  0.00     0.040 H 
BRANCH  10  13
ATOM     13  SG  CYS d   1       7.808  -0.514  -4.783  0.00  0.00    -0.176 SA
ATOM     14  HG  CYS d   1       8.078   0.145  -3.643  0.00  0.00     0.102 HD
ENDBRANCH  10  13
ENDBRANCH   4  10
BRANCH   1  15
ATOM     15  C   UNK d   0       4.528   0.997  -1.769  0.00  0.00     0.012 C 
ATOM     16  H   UNK d   0       5.381   1.621  -2.032  0.00  0.00     0.032 H 
ATOM     17  H   UNK d   0       3.642   1.351  -2.295  0.00  0.00     0.032 H 
ATOM     18  H   UNK d   0       4.357   1.049  -0.693  0.00  0.00     0.032 H 
ENDBRANCH   1  15
TORSDOF 5
ENDMDL
MODEL 6
REMARK VINA RESULT:      -3.7      2.285      3.549
REMARK  3 active torsions:
REMARK  status: ('A' for Active; 'I' for Inactive)
REMARK    1  A    between atoms: C_1  and  C_2 
REMARK       I    between atoms: C_2  and  N_4 
REMARK       I    between atoms: N_4  and  CA_5 
REMARK    2  A    between atoms: CA_5  and  CB_7 
REMARK       I    between atoms: CA_5  and  C_9 
REMARK    3  A    between atoms: CB_7  and  SG_8 
ROOT
ATOM      1  C   UNK d   0       3.068   0.148  -5.526  0.00  0.00     0.210 C 
ATOM      2  O   UNK d   0       2.083   0.173  -4.819  0.00  0.00    -0.276 OA
ATOM      3  N   CYS d   1       4.263  -0.194  -5.004  0.00  0.00    -0.307 N 
ATOM      4  CA  CYS d   1       4.372  -0.535  -3.584  0.00  0.00     0.071 C 
ATOM      5  HA  CYS d   1       3.679   0.079  -3.009  0.00  0.00     0.057 H 
ATOM      6  C   CYS d   1       4.032  -1.990  -3.388  0.00  0.00     0.063 C 
ATOM      7  O   CYS d   1       4.258  -2.793  -4.278  0.00  0.00    -0.548 OA
ATOM      8  OXT CYS d   1       3.533  -2.366  -2.342  0.00  0.00    -0.548 OA
ATOM      9  H   CYS d   1       5.051  -0.215  -5.570  0.00  0.00     0.149 HD
ENDROOT
BRANCH   4  10
ATOM     10  CB  CYS d   1       5.802  -0.276  -3.105  0.00  0.00     0.014 C 
ATOM     11  HB1 CYS d   1       5.829   0.645  -2.522  0.00  0.00     0.040 H 
ATOM     12  HB2 CYS d   1       6.133  -1.109  -2.485  0.00  0.00     0.040 H 
BRANCH  10  13
ATOM     13  SG  CYS d   1       6.900  -0.114  -4.539  0.00  0.00    -0.176 SA
ATOM     14  HG  CYS d   1       8.096   0.185  -4.002  0.00  0.00     0.102 HD
ENDBRANCH  10  13
ENDBRANCH   4  10
BRANCH   1  15
ATOM     15  C   UNK d   0       2.957   0.499  -6.987  0.00  0.00     0.012 C 
ATOM     16  H   UNK d   0       3.144  -0.389  -7.589  0.00  0.00     0.032 H 
ATOM     17  H   UNK d   0       1.955   0.875  -7.195  0.00  0.00     0.032 H 
ATOM     18  H   UNK d   0       3.691   1.267  -7.232  0.00  0.00     0.032 H 
ENDBRANCH   1  15
TORSDOF 5
ENDMDL
MODEL 7
REMARK VINA RESULT:      -3.6      2.613      3.471
REMARK  3 active torsions:
REMARK  status: ('A' for Active; 'I' for Inactive)
REMARK    1  A    between atoms: C_1  and  C_2 
REMARK       I    between atoms: C_2  and  N_4 
REMARK       I    between atoms: N_4  and  CA_5 
REMARK    2  A    between atoms: CA_5  and  CB_7 
REMARK       I    between atoms: CA_5  and  C_9 
REMARK    3  A    between atoms: CB_7  and  SG_8 
ROOT
ATOM      1  C   UNK d   0       3.278  -0.204  -4.301  0.00  0.00     0.210 C 
ATOM      2  O   UNK d   0       3.499   0.988  -4.336  0.00  0.00    -0.276 OA
ATOM      3  N   CYS d   1       3.548  -0.972  -5.376  0.00  0.00    -0.307 N 
ATOM      4  CA  CYS d   1       4.107  -0.366  -6.586  0.00  0.00     0.071 C 
ATOM      5  HA  CYS d   1       3.693   0.633  -6.717  0.00  0.00     0.057 H 
ATOM      6  C   CYS d   1       5.606  -0.274  -6.456  0.00  0.00     0.063 C 
ATOM      7  O   CYS d   1       6.212  -1.098  -5.790  0.00  0.00    -0.548 OA
ATOM      8  OXT CYS d   1       6.214   0.622  -7.015  0.00  0.00    -0.548 OA
ATOM      9  H   CYS d   1       3.372  -1.925  -5.347  0.00  0.00     0.149 HD
ENDROOT
BRANCH   4  10
ATOM     10  CB  CYS d   1       3.753  -1.229  -7.799  0.00  0.00     0.014 C 
ATOM     11  HB1 CYS d   1       4.628  -1.330  -8.441  0.00  0.00     0.040 H 
ATOM     12  HB2 CYS d   1       3.433  -2.214  -7.463  0.00  0.00     0.040 H 
BRANCH  10  13
ATOM     13  SG  CYS d   1       2.409  -0.441  -8.729  0.00  0.00    -0.176 SA
ATOM     14  HG  CYS d   1       3.044   0.334  -9.626  0.00  0.00     0.102 HD
ENDBRANCH  10  13
ENDBRANCH   4  10
BRANCH   1  15
ATOM     15  C   UNK d   0       2.702  -0.828  -3.056  0.00  0.00     0.012 C 
ATOM     16  H   UNK d   0       3.461  -1.441  -2.572  0.00  0.00     0.032 H 
ATOM     17  H   UNK d   0       2.378  -0.043  -2.373  0.00  0.00     0.032 H 
ATOM     18  H   UNK d   0       1.848  -1.451  -3.324  0.00  0.00     0.032 H 
ENDBRANCH   1  15
TORSDOF 5
ENDMDL
MODEL 8
REMARK VINA RESULT:      -3.5      3.531      4.344
REMARK  3 active torsions:
REMARK  status: ('A' for Active; 'I' for Inactive)
REMARK    1  A    between atoms: C_1  and  C_2 
REMARK       I    between atoms: C_2  and  N_4 
REMARK       I    between atoms: N_4  and  CA_5 
REMARK    2  A    between atoms: CA_5  and  CB_7 
REMARK       I    between atoms: CA_5  and  C_9 
REMARK    3  A    between atoms: CB_7  and  SG_8 
ROOT
ATOM      1  C   UNK d   0       5.335   0.148  -2.714  0.00  0.00     0.210 C 
ATOM      2  O   UNK d   0       5.414  -1.059  -2.631  0.00  0.00    -0.276 OA
ATOM      3  N   CYS d   1       5.975   0.798  -3.707  0.00  0.00    -0.307 N 
ATOM      4  CA  CYS d   1       6.764   0.047  -4.685  0.00  0.00     0.071 C 
ATOM      5  HA  CYS d   1       7.238  -0.803  -4.194  0.00  0.00     0.057 H 
ATOM      6  C   CYS d   1       5.862  -0.449  -5.786  0.00  0.00     0.063 C 
ATOM      7  O   CYS d   1       4.867   0.187  -6.091  0.00  0.00    -0.548 OA
ATOM      8  OXT CYS d   1       6.126  -1.485  -6.372  0.00  0.00    -0.548 OA
ATOM      9  H   CYS d   1       5.911   1.764  -3.774  0.00  0.00     0.149 HD
ENDROOT
BRANCH   4  10
ATOM     10  CB  CYS d   1       7.841   0.957  -5.279  0.00  0.00     0.014 C 
ATOM     11  HB1 CYS d   1       8.670   0.350  -5.643  0.00  0.00     0.040 H 
ATOM     12  HB2 CYS d   1       7.418   1.528  -6.105  0.00  0.00     0.040 H 
BRANCH  10  13
ATOM     13  SG  CYS d   1       8.442   2.096  -4.002  0.00  0.00    -0.176 SA
ATOM     14  HG  CYS d   1       9.147   1.310  -3.170  0.00  0.00     0.102 HD
ENDBRANCH  10  13
ENDBRANCH   4  10
BRANCH   1  15
ATOM     15  C   UNK d   0       4.523   0.922  -1.708  0.00  0.00     0.012 C 
ATOM     16  H   UNK d   0       4.916   1.935  -1.625  0.00  0.00     0.032 H 
ATOM     17  H   UNK d   0       3.483   0.961  -2.033  0.00  0.00     0.032 H 
ATOM     18  H   UNK d   0       4.582   0.428  -0.737  0.00  0.00     0.032 H 
ENDBRANCH   1  15
TORSDOF 5
ENDMDL
MODEL 9
REMARK VINA RESULT:      -3.4      2.592      4.610
REMARK  3 active torsions:
REMARK  status: ('A' for Active; 'I' for Inactive)
REMARK    1  A    between atoms: C_1  and  C_2 
REMARK       I    between atoms: C_2  and  N_4 
REMARK       I    between atoms: N_4  and  CA_5 
REMARK    2  A    between atoms: CA_5  and  CB_7 
REMARK       I    between atoms: CA_5  and  C_9 
REMARK    3  A    between atoms: CB_7  and  SG_8 
ROOT
ATOM      1  C   UNK d   0       4.434  -2.307  -3.761  0.00  0.00     0.210 C 
ATOM      2  O   UNK d   0       5.597  -2.456  -3.450  0.00  0.00    -0.276 OA
ATOM      3  N   CYS d   1       3.989  -2.770  -4.947  0.00  0.00    -0.307 N 
ATOM      4  CA  CYS d   1       4.910  -3.452  -5.859  0.00  0.00     0.071 C 
ATOM      5  HA  CYS d   1       5.898  -2.998  -5.784  0.00  0.00     0.057 H 
ATOM      6  C   CYS d   1       4.999  -4.910  -5.486  0.00  0.00     0.063 C 
ATOM      7  O   CYS d   1       4.041  -5.468  -4.977  0.00  0.00    -0.548 OA
ATOM      8  OXT CYS d   1       6.026  -5.532  -5.694  0.00  0.00    -0.548 OA
ATOM      9  H   CYS d   1       3.059  -2.651  -5.195  0.00  0.00     0.149 HD
ENDROOT
BRANCH   4  10
ATOM     10  CB  CYS d   1       4.396  -3.323  -7.294  0.00  0.00     0.014 C 
ATOM     11  HB1 CYS d   1       4.998  -3.948  -7.953  0.00  0.00     0.040 H 
ATOM     12  HB2 CYS d   1       3.356  -3.644  -7.337  0.00  0.00     0.040 H 
BRANCH  10  13
ATOM     13  SG  CYS d   1       4.517  -1.593  -7.826  0.00  0.00    -0.176 SA
ATOM     14  HG  CYS d   1       5.055  -1.668  -9.056  0.00  0.00     0.102 HD
ENDBRANCH  10  13
ENDBRANCH   4  10
BRANCH   1  15
ATOM     15  C   UNK d   0       3.486  -1.604  -2.823  0.00  0.00     0.012 C 
ATOM     16  H   UNK d   0       2.475  -1.652  -3.226  0.00  0.00     0.032 H 
ATOM     17  H   UNK d   0       3.513  -2.091  -1.849  0.00  0.00     0.032 H 
ATOM     18  H   UNK d   0       3.787  -0.562  -2.718  0.00  0.00     0.032 H 
ENDBRANCH   1  15
TORSDOF 5
ENDMDL
MODEL 10
REMARK VINA RESULT:      -3.4      2.672      3.883
REMARK  3 active torsions:
REMARK  status: ('A' for Active; 'I' for Inactive)
REMARK    1  A    between atoms: C_1  and  C_2 
REMARK       I    between atoms: C_2  and  N_4 
REMARK       I    between atoms: N_4  and  CA_5 
REMARK    2  A    between atoms: CA_5  and  CB_7 
REMARK       I    between atoms: CA_5  and  C_9 
REMARK    3  A    between atoms: CB_7  and  SG_8 
ROOT
ATOM      1  C   UNK d   0       3.953  -0.446  -6.124  0.00  0.00     0.210 C 
ATOM      2  O   UNK d   0       4.805   0.293  -5.676  0.00  0.00    -0.276 OA
ATOM      3  N   CYS d   1       3.900  -1.732  -5.725  0.00  0.00    -0.307 N 
ATOM      4  CA  CYS d   1       4.869  -2.238  -4.751  0.00  0.00     0.071 C 
ATOM      5  HA  CYS d   1       5.833  -1.756  -4.913  0.00  0.00     0.057 H 
ATOM      6  C   CYS d   1       4.385  -1.937  -3.356  0.00  0.00     0.063 C 
ATOM      7  O   CYS d   1       3.189  -1.877  -3.126  0.00  0.00    -0.548 OA
ATOM      8  OXT CYS d   1       5.188  -1.752  -2.458  0.00  0.00    -0.548 OA
ATOM      9  H   CYS d   1       3.218  -2.322  -6.083  0.00  0.00     0.149 HD
ENDROOT
BRANCH   4  10
ATOM     10  CB  CYS d   1       5.022  -3.751  -4.922  0.00  0.00     0.014 C 
ATOM     11  HB1 CYS d   1       4.736  -4.252  -3.997  0.00  0.00     0.040 H 
ATOM     12  HB2 CYS d   1       4.379  -4.091  -5.733  0.00  0.00     0.040 H 
BRANCH  10  13
ATOM     13  SG  CYS d   1       6.748  -4.145  -5.314  0.00  0.00    -0.176 SA
ATOM     14  HG  CYS d   1       6.662  -4.975  -6.368  0.00  0.00     0.102 HD
ENDBRANCH  10  13
ENDBRANCH   4  10
BRANCH   1  15
ATOM     15  C   UNK d   0       2.956   0.075  -7.127  0.00  0.00     0.012 C 
ATOM     16  H   UNK d   0       2.917  -0.598  -7.983  0.00  0.00     0.032 H 
ATOM     17  H   UNK d   0       1.971   0.132  -6.663  0.00  0.00     0.032 H 
ATOM     18  H   UNK d   0       3.260   1.068  -7.458  0.00  0.00     0.032 H 
ENDBRANCH   1  15
TORSDOF 5
ENDMDL
