MODEL 1
REMARK VINA RESULT:      -5.5      0.000      0.000
REMARK  10 active torsions:
REMARK  status: ('A' for Active; 'I' for Inactive)
REMARK    1  A    between atoms: C_1  and  C_2 
REMARK    2  A    between atoms: C_6  and  O_31 
REMARK    3  A    between atoms: C_7  and  C_23 
REMARK    4  A    between atoms: C_12  and  C_13 
REMARK    5  A    between atoms: C_16  and  O_21 
REMARK    6  A    between atoms: C_18  and  O_19 
REMARK    7  A    between atoms: O_19  and  C_20 
REMARK    8  A    between atoms: O_21  and  C_22 
REMARK    9  A    between atoms: C_23  and  N_24 
REMARK   10  A    between atoms: N_27  and  C_30 
ROOT
ATOM      1  C   LIG d   1       6.775  -5.790  -5.358  0.00  0.00    -0.025 A 
ATOM      2  C   LIG d   1       7.038  -4.452  -4.971  0.00  0.00     0.022 A 
ATOM      3  C   LIG d   1       8.336  -4.064  -4.609  0.00  0.00    -0.047 A 
ATOM      4  C   LIG d   1       8.584  -2.775  -4.237  0.00  0.00    -0.019 A 
ATOM      5  C   LIG d   1       7.552  -1.837  -4.215  0.00  0.00     0.125 A 
ATOM      6  C   LIG d   1       6.265  -2.201  -4.570  0.00  0.00     0.051 A 
ATOM      7  C   LIG d   1       5.993  -3.509  -4.946  0.00  0.00     0.147 A 
ATOM      8  O   LIG d   1       4.737  -3.864  -5.297  0.00  0.00    -0.421 OA
ATOM      9  C   LIG d   1       4.447  -5.121  -5.669  0.00  0.00     0.345 A 
ATOM     10  O   LIG d   1       3.306  -5.415  -5.976  0.00  0.00    -0.244 OA
ATOM     11  C   LIG d   1       5.499  -6.140  -5.707  0.00  0.00     0.074 A 
ATOM     12  H   LIG d   1       9.140  -4.785  -4.624  0.00  0.00     0.063 H 
ATOM     13  H   LIG d   1       9.583  -2.479  -3.958  0.00  0.00     0.065 H 
ENDROOT
BRANCH   6  14
ATOM     14  C   LIG d   1       5.157  -1.179  -4.543  0.00  0.00     0.031 C 
ATOM     15  H   LIG d   1       4.327  -1.554  -3.927  0.00  0.00     0.048 H 
ATOM     16  H   LIG d   1       5.536  -0.239  -4.116  0.00  0.00     0.048 H 
BRANCH  14  17
ATOM     17  N   LIG d   1       4.681  -0.938  -5.911  0.00  0.00    -0.295 N 
ATOM     18  C   LIG d   1       3.443  -0.145  -5.906  0.00  0.00     0.012 C 
ATOM     19  C   LIG d   1       2.937   0.016  -7.342  0.00  0.00     0.011 C 
ATOM     20  H   LIG d   1       2.680  -0.660  -5.304  0.00  0.00     0.044 H 
ATOM     21  H   LIG d   1       3.644   0.846  -5.473  0.00  0.00     0.044 H 
ATOM     22  N   LIG d   1       3.974   0.669  -8.153  0.00  0.00    -0.303 N 
ATOM     23  H   LIG d   1       2.027   0.633  -7.343  0.00  0.00     0.044 H 
ATOM     24  H   LIG d   1       2.709  -0.973  -7.765  0.00  0.00     0.044 H 
ATOM     25  C   LIG d   1       5.212  -0.123  -8.159  0.00  0.00     0.011 C 
ATOM     26  C   LIG d   1       5.718  -0.284  -6.723  0.00  0.00     0.012 C 
ATOM     27  H   LIG d   1       5.976   0.392  -8.761  0.00  0.00     0.044 H 
ATOM     28  H   LIG d   1       5.011  -1.115  -8.590  0.00  0.00     0.044 H 
ATOM     29  H   LIG d   1       5.944   0.705  -6.300  0.00  0.00     0.044 H 
ATOM     30  H   LIG d   1       6.628  -0.902  -6.721  0.00  0.00     0.044 H 
BRANCH  22  31
ATOM     31  C   LIG d   1       3.497   0.911  -9.521  0.00  0.00    -0.013 C 
ATOM     32  H   LIG d   1       2.695   1.664  -9.502  0.00  0.00     0.039 H 
ATOM     33  H   LIG d   1       3.110  -0.027  -9.945  0.00  0.00     0.039 H 
ATOM     34  H   LIG d   1       4.330   1.278 -10.140  0.00  0.00     0.039 H 
ENDBRANCH  22  31
ENDBRANCH  14  17
ENDBRANCH   6  14
BRANCH   5  35
ATOM     35  O   LIG d   1       7.812  -0.558  -3.843  0.00  0.00    -0.506 OA
ATOM     36  H   LIG d   1       8.849  -0.189  -3.830  0.00  0.00     0.292 HD
ENDBRANCH   5  35
BRANCH   1  37
ATOM     37  C   LIG d   1       7.884  -6.811  -5.385  0.00  0.00    -0.038 C 
ATOM     38  H   LIG d   1       7.547  -7.704  -5.932  0.00  0.00     0.028 H 
ATOM     39  H   LIG d   1       8.152  -7.091  -4.355  0.00  0.00     0.028 H 
ATOM     40  H   LIG d   1       8.763  -6.383  -5.889  0.00  0.00     0.028 H 
ENDBRANCH   1  37
BRANCH  11  41
ATOM     41  C   LIG d   1       5.185  -7.529  -6.117  0.00  0.00     0.031 A 
ATOM     42  C   LIG d   1       5.170  -7.874  -7.472  0.00  0.00     0.132 A 
ATOM     43  C   LIG d   1       4.881  -9.174  -7.848  0.00  0.00     0.022 A 
ATOM     44  C   LIG d   1       4.598 -10.129  -6.884  0.00  0.00     0.124 A 
ATOM     45  H   LIG d   1       4.871  -9.445  -8.895  0.00  0.00     0.069 H 
ATOM     46  C   LIG d   1       4.608  -9.787  -5.538  0.00  0.00    -0.019 A 
ATOM     47  C   LIG d   1       4.900  -8.495  -5.153  0.00  0.00    -0.047 A 
ATOM     48  H   LIG d   1       4.387 -10.535  -4.790  0.00  0.00     0.065 H 
ATOM     49  H   LIG d   1       4.906  -8.232  -4.105  0.00  0.00     0.063 H 
BRANCH  42  50
ATOM     50  O   LIG d   1       5.442  -6.936  -8.418  0.00  0.00    -0.494 OA
BRANCH  50  51
ATOM     51  C   LIG d   1       4.373  -6.566  -9.290  0.00  0.00     0.079 C 
ATOM     52  H   LIG d   1       3.944  -7.469  -9.749  0.00  0.00     0.066 H 
ATOM     53  H   LIG d   1       4.757  -5.902 -10.079  0.00  0.00     0.066 H 
ATOM     54  H   LIG d   1       3.595  -6.041  -8.716  0.00  0.00     0.066 H 
ENDBRANCH  50  51
ENDBRANCH  42  50
BRANCH  44  55
ATOM     55  O   LIG d   1       4.310 -11.404  -7.256  0.00  0.00    -0.495 OA
BRANCH  55  56
ATOM     56  C   LIG d   1       3.771 -12.268  -6.253  0.00  0.00     0.079 C 
ATOM     57  H   LIG d   1       4.499 -13.059  -6.021  0.00  0.00     0.066 H 
ATOM     58  H   LIG d   1       2.839 -12.722  -6.622  0.00  0.00     0.066 H 
ATOM     59  H   LIG d   1       3.559 -11.686  -5.343  0.00  0.00     0.066 H 
ENDBRANCH  55  56
ENDBRANCH  44  55
ENDBRANCH  11  41
TORSDOF 10
ENDMDL
MODEL 2
REMARK VINA RESULT:      -5.4      3.295      7.874
REMARK  10 active torsions:
REMARK  status: ('A' for Active; 'I' for Inactive)
REMARK    1  A    between atoms: C_1  and  C_2 
REMARK    2  A    between atoms: C_6  and  O_31 
REMARK    3  A    between atoms: C_7  and  C_23 
REMARK    4  A    between atoms: C_12  and  C_13 
REMARK    5  A    between atoms: C_16  and  O_21 
REMARK    6  A    between atoms: C_18  and  O_19 
REMARK    7  A    between atoms: O_19  and  C_20 
REMARK    8  A    between atoms: O_21  and  C_22 
REMARK    9  A    between atoms: C_23  and  N_24 
REMARK   10  A    between atoms: N_27  and  C_30 
ROOT
ATOM      1  C   LIG d   1       7.314  -2.748  -4.382  0.00  0.00    -0.025 A 
ATOM      2  C   LIG d   1       8.152  -3.826  -4.000  0.00  0.00     0.022 A 
ATOM      3  C   LIG d   1       9.168  -3.628  -3.053  0.00  0.00    -0.047 A 
ATOM      4  C   LIG d   1       9.972  -4.668  -2.689  0.00  0.00    -0.019 A 
ATOM      5  C   LIG d   1       9.791  -5.930  -3.252  0.00  0.00     0.125 A 
ATOM      6  C   LIG d   1       8.793  -6.145  -4.187  0.00  0.00     0.051 A 
ATOM      7  C   LIG d   1       7.969  -5.098  -4.574  0.00  0.00     0.147 A 
ATOM      8  O   LIG d   1       6.991  -5.308  -5.483  0.00  0.00    -0.421 OA
ATOM      9  C   LIG d   1       6.177  -4.314  -5.873  0.00  0.00     0.345 A 
ATOM     10  O   LIG d   1       5.307  -4.530  -6.697  0.00  0.00    -0.244 OA
ATOM     11  C   LIG d   1       6.330  -2.971  -5.308  0.00  0.00     0.074 A 
ATOM     12  H   LIG d   1       9.314  -2.652  -2.613  0.00  0.00     0.063 H 
ATOM     13  H   LIG d   1      10.753  -4.512  -1.961  0.00  0.00     0.065 H 
ENDROOT
BRANCH   6  14
ATOM     14  C   LIG d   1       8.605  -7.514  -4.789  0.00  0.00     0.031 C 
ATOM     15  H   LIG d   1       8.458  -7.420  -5.875  0.00  0.00     0.048 H 
ATOM     16  H   LIG d   1       9.496  -8.127  -4.591  0.00  0.00     0.048 H 
BRANCH  14  17
ATOM     17  N   LIG d   1       7.427  -8.155  -4.189  0.00  0.00    -0.295 N 
ATOM     18  C   LIG d   1       6.505  -8.640  -5.226  0.00  0.00     0.012 C 
ATOM     19  C   LIG d   1       5.258  -9.227  -4.562  0.00  0.00     0.011 C 
ATOM     20  H   LIG d   1       6.215  -7.803  -5.878  0.00  0.00     0.044 H 
ATOM     21  H   LIG d   1       7.004  -9.416  -5.826  0.00  0.00     0.044 H 
ATOM     22  N   LIG d   1       5.654 -10.319  -3.662  0.00  0.00    -0.303 N 
ATOM     23  H   LIG d   1       4.579  -9.617  -5.335  0.00  0.00     0.044 H 
ATOM     24  H   LIG d   1       4.745  -8.444  -3.985  0.00  0.00     0.044 H 
ATOM     25  C   LIG d   1       6.576  -9.835  -2.624  0.00  0.00     0.011 C 
ATOM     26  C   LIG d   1       7.824  -9.247  -3.289  0.00  0.00     0.012 C 
ATOM     27  H   LIG d   1       6.868 -10.672  -1.972  0.00  0.00     0.044 H 
ATOM     28  H   LIG d   1       6.079  -9.058  -2.025  0.00  0.00     0.044 H 
ATOM     29  H   LIG d   1       8.336 -10.031  -3.867  0.00  0.00     0.044 H 
ATOM     30  H   LIG d   1       8.502  -8.858  -2.516  0.00  0.00     0.044 H 
BRANCH  22  31
ATOM     31  C   LIG d   1       4.477 -10.961  -3.062  0.00  0.00    -0.013 C 
ATOM     32  H   LIG d   1       4.351 -10.603  -2.029  0.00  0.00     0.039 H 
ATOM     33  H   LIG d   1       4.616 -12.052  -3.058  0.00  0.00     0.039 H 
ATOM     34  H   LIG d   1       3.582 -10.707  -3.649  0.00  0.00     0.039 H 
ENDBRANCH  22  31
ENDBRANCH  14  17
ENDBRANCH   6  14
BRANCH   5  35
ATOM     35  O   LIG d   1      10.598  -6.956  -2.880  0.00  0.00    -0.506 OA
ATOM     36  H   LIG d   1      10.167  -7.945  -2.665  0.00  0.00     0.292 HD
ENDBRANCH   5  35
BRANCH   1  37
ATOM     37  C   LIG d   1       7.502  -1.380  -3.779  0.00  0.00    -0.038 C 
ATOM     38  H   LIG d   1       8.574  -1.136  -3.751  0.00  0.00     0.028 H 
ATOM     39  H   LIG d   1       7.097  -1.370  -2.757  0.00  0.00     0.028 H 
ATOM     40  H   LIG d   1       6.972  -0.634  -4.391  0.00  0.00     0.028 H 
ENDBRANCH   1  37
BRANCH  11  41
ATOM     41  C   LIG d   1       5.435  -1.870  -5.733  0.00  0.00     0.031 A 
ATOM     42  C   LIG d   1       4.270  -1.594  -5.009  0.00  0.00     0.132 A 
ATOM     43  C   LIG d   1       3.439  -0.561  -5.408  0.00  0.00     0.022 A 
ATOM     44  C   LIG d   1       3.757   0.191  -6.529  0.00  0.00     0.124 A 
ATOM     45  H   LIG d   1       2.541  -0.344  -4.849  0.00  0.00     0.069 H 
ATOM     46  C   LIG d   1       4.911  -0.086  -7.252  0.00  0.00    -0.019 A 
ATOM     47  C   LIG d   1       5.747  -1.110  -6.858  0.00  0.00    -0.047 A 
ATOM     48  H   LIG d   1       5.153   0.503  -8.124  0.00  0.00     0.065 H 
ATOM     49  H   LIG d   1       6.643  -1.322  -7.423  0.00  0.00     0.063 H 
BRANCH  42  50
ATOM     50  O   LIG d   1       3.956  -2.335  -3.913  0.00  0.00    -0.494 OA
BRANCH  50  51
ATOM     51  C   LIG d   1       3.655  -1.623  -2.712  0.00  0.00     0.079 C 
ATOM     52  H   LIG d   1       2.716  -2.003  -2.286  0.00  0.00     0.066 H 
ATOM     53  H   LIG d   1       3.548  -0.552  -2.939  0.00  0.00     0.066 H 
ATOM     54  H   LIG d   1       4.471  -1.764  -1.988  0.00  0.00     0.066 H 
ENDBRANCH  50  51
ENDBRANCH  42  50
BRANCH  44  55
ATOM     55  O   LIG d   1       2.938   1.201  -6.921  0.00  0.00    -0.495 OA
BRANCH  55  56
ATOM     56  C   LIG d   1       2.934   1.531  -8.312  0.00  0.00     0.079 C 
ATOM     57  H   LIG d   1       3.007   0.610  -8.907  0.00  0.00     0.066 H 
ATOM     58  H   LIG d   1       3.792   2.183  -8.536  0.00  0.00     0.066 H 
ATOM     59  H   LIG d   1       2.000   2.057  -8.562  0.00  0.00     0.066 H 
ENDBRANCH  55  56
ENDBRANCH  44  55
ENDBRANCH  11  41
TORSDOF 10
ENDMDL
MODEL 3
REMARK VINA RESULT:      -5.3      5.620      7.887
REMARK  10 active torsions:
REMARK  status: ('A' for Active; 'I' for Inactive)
REMARK    1  A    between atoms: C_1  and  C_2 
REMARK    2  A    between atoms: C_6  and  O_31 
REMARK    3  A    between atoms: C_7  and  C_23 
REMARK    4  A    between atoms: C_12  and  C_13 
REMARK    5  A    between atoms: C_16  and  O_21 
REMARK    6  A    between atoms: C_18  and  O_19 
REMARK    7  A    between atoms: O_19  and  C_20 
REMARK    8  A    between atoms: O_21  and  C_22 
REMARK    9  A    between atoms: C_23  and  N_24 
REMARK   10  A    between atoms: N_27  and  C_30 
ROOT
ATOM      1  C   LIG d   1       9.131   0.265  -4.880  0.00  0.00    -0.025 A 
ATOM      2  C   LIG d   1      10.030   1.326  -4.602  0.00  0.00     0.022 A 
ATOM      3  C   LIG d   1      11.359   1.259  -5.046  0.00  0.00    -0.047 A 
ATOM      4  C   LIG d   1      12.221   2.281  -4.775  0.00  0.00    -0.019 A 
ATOM      5  C   LIG d   1      11.788   3.397  -4.059  0.00  0.00     0.125 A 
ATOM      6  C   LIG d   1      10.480   3.481  -3.614  0.00  0.00     0.051 A 
ATOM      7  C   LIG d   1       9.591   2.448  -3.876  0.00  0.00     0.147 A 
ATOM      8  O   LIG d   1       8.312   2.532  -3.445  0.00  0.00    -0.421 OA
ATOM      9  C   LIG d   1       7.430   1.549  -3.688  0.00  0.00     0.345 A 
ATOM     10  O   LIG d   1       6.285   1.649  -3.284  0.00  0.00    -0.244 OA
ATOM     11  C   LIG d   1       7.840   0.358  -4.436  0.00  0.00     0.074 A 
ATOM     12  H   LIG d   1      11.701   0.397  -5.601  0.00  0.00     0.063 H 
ATOM     13  H   LIG d   1      13.243   2.227  -5.117  0.00  0.00     0.065 H 
ENDROOT
BRANCH   6  14
ATOM     14  C   LIG d   1      10.022   4.692  -2.842  0.00  0.00     0.031 C 
ATOM     15  H   LIG d   1       8.955   4.589  -2.598  0.00  0.00     0.048 H 
ATOM     16  H   LIG d   1      10.604   4.775  -1.912  0.00  0.00     0.048 H 
BRANCH  14  17
ATOM     17  N   LIG d   1      10.225   5.897  -3.656  0.00  0.00    -0.295 N 
ATOM     18  C   LIG d   1       9.176   6.027  -4.677  0.00  0.00     0.012 C 
ATOM     19  C   LIG d   1       9.467   7.247  -5.553  0.00  0.00     0.011 C 
ATOM     20  H   LIG d   1       9.159   5.122  -5.302  0.00  0.00     0.044 H 
ATOM     21  H   LIG d   1       8.199   6.150  -4.185  0.00  0.00     0.044 H 
ATOM     22  N   LIG d   1       9.526   8.449  -4.708  0.00  0.00    -0.303 N 
ATOM     23  H   LIG d   1       8.668   7.363  -6.299  0.00  0.00     0.044 H 
ATOM     24  H   LIG d   1      10.430   7.111  -6.065  0.00  0.00     0.044 H 
ATOM     25  C   LIG d   1      10.576   8.320  -3.687  0.00  0.00     0.011 C 
ATOM     26  C   LIG d   1      10.285   7.099  -2.811  0.00  0.00     0.012 C 
ATOM     27  H   LIG d   1      10.592   9.225  -3.061  0.00  0.00     0.044 H 
ATOM     28  H   LIG d   1      11.552   8.195  -4.178  0.00  0.00     0.044 H 
ATOM     29  H   LIG d   1       9.321   7.235  -2.299  0.00  0.00     0.044 H 
ATOM     30  H   LIG d   1      11.084   6.983  -2.065  0.00  0.00     0.044 H 
BRANCH  22  31
ATOM     31  C   LIG d   1       9.729   9.655  -5.522  0.00  0.00    -0.013 C 
ATOM     32  H   LIG d   1      10.409   9.424  -6.356  0.00  0.00     0.039 H 
ATOM     33  H   LIG d   1      10.168  10.448  -4.899  0.00  0.00     0.039 H 
ATOM     34  H   LIG d   1       8.762   9.995  -5.921  0.00  0.00     0.039 H 
ENDBRANCH  22  31
ENDBRANCH  14  17
ENDBRANCH   6  14
BRANCH   5  35
ATOM     35  O   LIG d   1      12.655   4.407  -3.797  0.00  0.00    -0.506 OA
ATOM     36  H   LIG d   1      12.512   5.038  -2.908  0.00  0.00     0.292 HD
ENDBRANCH   5  35
BRANCH   1  37
ATOM     37  C   LIG d   1       9.589  -0.944  -5.654  0.00  0.00    -0.038 C 
ATOM     38  H   LIG d   1       8.723  -1.580  -5.888  0.00  0.00     0.028 H 
ATOM     39  H   LIG d   1      10.311  -1.515  -5.050  0.00  0.00     0.028 H 
ATOM     40  H   LIG d   1      10.070  -0.621  -6.589  0.00  0.00     0.028 H 
ENDBRANCH   1  37
BRANCH  11  41
ATOM     41  C   LIG d   1       6.871  -0.729  -4.707  0.00  0.00     0.031 A 
ATOM     42  C   LIG d   1       6.041  -0.666  -5.832  0.00  0.00     0.132 A 
ATOM     43  C   LIG d   1       5.142  -1.687  -6.082  0.00  0.00     0.022 A 
ATOM     44  C   LIG d   1       5.057  -2.765  -5.214  0.00  0.00     0.124 A 
ATOM     45  H   LIG d   1       4.502  -1.642  -6.951  0.00  0.00     0.069 H 
ATOM     46  C   LIG d   1       5.876  -2.827  -4.094  0.00  0.00    -0.019 A 
ATOM     47  C   LIG d   1       6.779  -1.816  -3.840  0.00  0.00    -0.047 A 
ATOM     48  H   LIG d   1       5.806  -3.669  -3.422  0.00  0.00     0.065 H 
ATOM     49  H   LIG d   1       7.415  -1.868  -2.967  0.00  0.00     0.063 H 
BRANCH  42  50
ATOM     50  O   LIG d   1       6.121   0.394  -6.679  0.00  0.00    -0.494 OA
BRANCH  50  51
ATOM     51  C   LIG d   1       5.539   0.236  -7.974  0.00  0.00     0.079 C 
ATOM     52  H   LIG d   1       6.209  -0.364  -8.606  0.00  0.00     0.066 H 
ATOM     53  H   LIG d   1       5.390   1.224  -8.432  0.00  0.00     0.066 H 
ATOM     54  H   LIG d   1       4.569  -0.274  -7.879  0.00  0.00     0.066 H 
ENDBRANCH  50  51
ENDBRANCH  42  50
BRANCH  44  55
ATOM     55  O   LIG d   1       4.169  -3.764  -5.460  0.00  0.00    -0.495 OA
BRANCH  55  56
ATOM     56  C   LIG d   1       4.694  -5.091  -5.553  0.00  0.00     0.079 C 
ATOM     57  H   LIG d   1       5.697  -5.057  -6.003  0.00  0.00     0.066 H 
ATOM     58  H   LIG d   1       4.030  -5.704  -6.182  0.00  0.00     0.066 H 
ATOM     59  H   LIG d   1       4.757  -5.532  -4.548  0.00  0.00     0.066 H 
ENDBRANCH  55  56
ENDBRANCH  44  55
ENDBRANCH  11  41
TORSDOF 10
ENDMDL
MODEL 4
REMARK VINA RESULT:      -5.2      8.728     14.146
REMARK  10 active torsions:
REMARK  status: ('A' for Active; 'I' for Inactive)
REMARK    1  A    between atoms: C_1  and  C_2 
REMARK    2  A    between atoms: C_6  and  O_31 
REMARK    3  A    between atoms: C_7  and  C_23 
REMARK    4  A    between atoms: C_12  and  C_13 
REMARK    5  A    between atoms: C_16  and  O_21 
REMARK    6  A    between atoms: C_18  and  O_19 
REMARK    7  A    between atoms: O_19  and  C_20 
REMARK    8  A    between atoms: O_21  and  C_22 
REMARK    9  A    between atoms: C_23  and  N_24 
REMARK   10  A    between atoms: N_27  and  C_30 
ROOT
ATOM      1  C   LIG d   1       9.945   7.468  -4.320  0.00  0.00    -0.025 A 
ATOM      2  C   LIG d   1       9.913   6.412  -5.266  0.00  0.00     0.022 A 
ATOM      3  C   LIG d   1       9.787   6.695  -6.634  0.00  0.00    -0.047 A 
ATOM      4  C   LIG d   1       9.756   5.676  -7.541  0.00  0.00    -0.019 A 
ATOM      5  C   LIG d   1       9.849   4.352  -7.116  0.00  0.00     0.125 A 
ATOM      6  C   LIG d   1       9.974   4.053  -5.770  0.00  0.00     0.051 A 
ATOM      7  C   LIG d   1      10.002   5.077  -4.833  0.00  0.00     0.147 A 
ATOM      8  O   LIG d   1      10.129   4.785  -3.520  0.00  0.00    -0.421 OA
ATOM      9  C   LIG d   1      10.164   5.756  -2.592  0.00  0.00     0.345 A 
ATOM     10  O   LIG d   1      10.275   5.465  -1.414  0.00  0.00    -0.244 OA
ATOM     11  C   LIG d   1      10.070   7.162  -2.991  0.00  0.00     0.074 A 
ATOM     12  H   LIG d   1       9.714   7.719  -6.970  0.00  0.00     0.063 H 
ATOM     13  H   LIG d   1       9.658   5.897  -8.593  0.00  0.00     0.065 H 
ENDROOT
BRANCH   6  14
ATOM     14  C   LIG d   1      10.074   2.618  -5.322  0.00  0.00     0.031 C 
ATOM     15  H   LIG d   1      10.637   2.039  -6.069  0.00  0.00     0.048 H 
ATOM     16  H   LIG d   1      10.595   2.571  -4.354  0.00  0.00     0.048 H 
BRANCH  14  17
ATOM     17  N   LIG d   1       8.726   2.054  -5.179  0.00  0.00    -0.295 N 
ATOM     18  C   LIG d   1       8.580   0.828  -5.977  0.00  0.00     0.012 C 
ATOM     19  C   LIG d   1       7.141   0.317  -5.865  0.00  0.00     0.011 C 
ATOM     20  H   LIG d   1       8.811   1.047  -7.030  0.00  0.00     0.044 H 
ATOM     21  H   LIG d   1       9.273   0.061  -5.601  0.00  0.00     0.044 H 
ATOM     22  N   LIG d   1       6.824   0.063  -4.453  0.00  0.00    -0.303 N 
ATOM     23  H   LIG d   1       7.037  -0.616  -6.438  0.00  0.00     0.044 H 
ATOM     24  H   LIG d   1       6.450   1.073  -6.266  0.00  0.00     0.044 H 
ATOM     25  C   LIG d   1       6.969   1.289  -3.654  0.00  0.00     0.011 C 
ATOM     26  C   LIG d   1       8.408   1.800  -3.767  0.00  0.00     0.012 C 
ATOM     27  H   LIG d   1       6.739   1.071  -2.600  0.00  0.00     0.044 H 
ATOM     28  H   LIG d   1       6.277   2.057  -4.030  0.00  0.00     0.044 H 
ATOM     29  H   LIG d   1       9.099   1.044  -3.366  0.00  0.00     0.044 H 
ATOM     30  H   LIG d   1       8.513   2.733  -3.194  0.00  0.00     0.044 H 
BRANCH  22  31
ATOM     31  C   LIG d   1       5.475  -0.501  -4.309  0.00  0.00    -0.013 C 
ATOM     32  H   LIG d   1       4.908   0.087  -3.572  0.00  0.00     0.039 H 
ATOM     33  H   LIG d   1       5.549  -1.544  -3.969  0.00  0.00     0.039 H 
ATOM     34  H   LIG d   1       4.959  -0.467  -5.280  0.00  0.00     0.039 H 
ENDBRANCH  22  31
ENDBRANCH  14  17
ENDBRANCH   6  14
BRANCH   5  35
ATOM     35  O   LIG d   1       9.816   3.348  -8.029  0.00  0.00    -0.506 OA
ATOM     36  H   LIG d   1      10.753   2.883  -8.369  0.00  0.00     0.292 HD
ENDBRANCH   5  35
BRANCH   1  37
ATOM     37  C   LIG d   1       9.846   8.903  -4.769  0.00  0.00    -0.038 C 
ATOM     38  H   LIG d   1      10.044   9.569  -3.917  0.00  0.00     0.028 H 
ATOM     39  H   LIG d   1       8.836   9.097  -5.159  0.00  0.00     0.028 H 
ATOM     40  H   LIG d   1      10.586   9.091  -5.561  0.00  0.00     0.028 H 
ENDBRANCH   1  37
BRANCH  11  41
ATOM     41  C   LIG d   1      10.108   8.237  -1.973  0.00  0.00     0.031 A 
ATOM     42  C   LIG d   1      11.330   8.804  -1.596  0.00  0.00     0.132 A 
ATOM     43  C   LIG d   1      11.358   9.811  -0.647  0.00  0.00     0.022 A 
ATOM     44  C   LIG d   1      10.179  10.249  -0.065  0.00  0.00     0.124 A 
ATOM     45  H   LIG d   1      12.300  10.253  -0.357  0.00  0.00     0.069 H 
ATOM     46  C   LIG d   1       8.965   9.683  -0.434  0.00  0.00    -0.019 A 
ATOM     47  C   LIG d   1       8.926   8.683  -1.382  0.00  0.00    -0.047 A 
ATOM     48  H   LIG d   1       8.049  10.029   0.023  0.00  0.00     0.065 H 
ATOM     49  H   LIG d   1       7.980   8.245  -1.667  0.00  0.00     0.063 H 
BRANCH  42  50
ATOM     50  O   LIG d   1      12.486   8.370  -2.164  0.00  0.00    -0.494 OA
BRANCH  50  51
ATOM     51  C   LIG d   1      13.382   7.633  -1.329  0.00  0.00     0.079 C 
ATOM     52  H   LIG d   1      13.804   6.792  -1.897  0.00  0.00     0.066 H 
ATOM     53  H   LIG d   1      12.835   7.248  -0.455  0.00  0.00     0.066 H 
ATOM     54  H   LIG d   1      14.194   8.293  -0.991  0.00  0.00     0.066 H 
ENDBRANCH  50  51
ENDBRANCH  42  50
BRANCH  44  55
ATOM     55  O   LIG d   1      10.210  11.235   0.870  0.00  0.00    -0.495 OA
BRANCH  55  56
ATOM     56  C   LIG d   1      10.616  12.533   0.431  0.00  0.00     0.079 C 
ATOM     57  H   LIG d   1      11.641  12.733   0.776  0.00  0.00     0.066 H 
ATOM     58  H   LIG d   1       9.934  13.291   0.847  0.00  0.00     0.066 H 
ATOM     59  H   LIG d   1      10.584  12.576  -0.668  0.00  0.00     0.066 H 
ENDBRANCH  55  56
ENDBRANCH  44  55
ENDBRANCH  11  41
TORSDOF 10
ENDMDL
MODEL 5
REMARK VINA RESULT:      -5.2      2.330      2.950
REMARK  10 active torsions:
REMARK  status: ('A' for Active; 'I' for Inactive)
REMARK    1  A    between atoms: C_1  and  C_2 
REMARK    2  A    between atoms: C_6  and  O_31 
REMARK    3  A    between atoms: C_7  and  C_23 
REMARK    4  A    between atoms: C_12  and  C_13 
REMARK    5  A    between atoms: C_16  and  O_21 
REMARK    6  A    between atoms: C_18  and  O_19 
REMARK    7  A    between atoms: O_19  and  C_20 
REMARK    8  A    between atoms: O_21  and  C_22 
REMARK    9  A    between atoms: C_23  and  N_24 
REMARK   10  A    between atoms: N_27  and  C_30 
ROOT
ATOM      1  C   LIG d   1       7.176  -7.425  -5.047  0.00  0.00    -0.025 A 
ATOM      2  C   LIG d   1       7.783  -6.144  -5.001  0.00  0.00     0.022 A 
ATOM      3  C   LIG d   1       9.124  -6.013  -4.611  0.00  0.00    -0.047 A 
ATOM      4  C   LIG d   1       9.703  -4.778  -4.568  0.00  0.00    -0.019 A 
ATOM      5  C   LIG d   1       8.970  -3.643  -4.909  0.00  0.00     0.125 A 
ATOM      6  C   LIG d   1       7.645  -3.753  -5.297  0.00  0.00     0.051 A 
ATOM      7  C   LIG d   1       7.038  -5.000  -5.342  0.00  0.00     0.147 A 
ATOM      8  O   LIG d   1       5.746  -5.108  -5.725  0.00  0.00    -0.421 OA
ATOM      9  C   LIG d   1       5.135  -6.303  -5.782  0.00  0.00     0.345 A 
ATOM     10  O   LIG d   1       3.969  -6.371  -6.126  0.00  0.00    -0.244 OA
ATOM     11  C   LIG d   1       5.866  -7.523  -5.432  0.00  0.00     0.074 A 
ATOM     12  H   LIG d   1       9.698  -6.888  -4.345  0.00  0.00     0.063 H 
ATOM     13  H   LIG d   1      10.735  -4.680  -4.267  0.00  0.00     0.065 H 
ENDROOT
BRANCH   6  14
ATOM     14  C   LIG d   1       6.862  -2.519  -5.665  0.00  0.00     0.031 C 
ATOM     15  H   LIG d   1       7.477  -1.872  -6.307  0.00  0.00     0.048 H 
ATOM     16  H   LIG d   1       5.950  -2.812  -6.206  0.00  0.00     0.048 H 
BRANCH  14  17
ATOM     17  N   LIG d   1       6.494  -1.790  -4.444  0.00  0.00    -0.295 N 
ATOM     18  C   LIG d   1       6.640  -0.340  -4.632  0.00  0.00     0.012 C 
ATOM     19  C   LIG d   1       6.326   0.377  -3.317  0.00  0.00     0.011 C 
ATOM     20  H   LIG d   1       7.673  -0.112  -4.936  0.00  0.00     0.044 H 
ATOM     21  H   LIG d   1       5.945   0.001  -5.413  0.00  0.00     0.044 H 
ATOM     22  N   LIG d   1       4.959   0.039  -2.893  0.00  0.00    -0.303 N 
ATOM     23  H   LIG d   1       6.406   1.464  -3.462  0.00  0.00     0.044 H 
ATOM     24  H   LIG d   1       7.039   0.057  -2.543  0.00  0.00     0.044 H 
ATOM     25  C   LIG d   1       4.812  -1.411  -2.705  0.00  0.00     0.011 C 
ATOM     26  C   LIG d   1       5.127  -2.128  -4.021  0.00  0.00     0.012 C 
ATOM     27  H   LIG d   1       3.779  -1.640  -2.401  0.00  0.00     0.044 H 
ATOM     28  H   LIG d   1       5.509  -1.753  -1.926  0.00  0.00     0.044 H 
ATOM     29  H   LIG d   1       4.414  -1.807  -4.794  0.00  0.00     0.044 H 
ATOM     30  H   LIG d   1       5.047  -3.215  -3.875  0.00  0.00     0.044 H 
BRANCH  22  31
ATOM     31  C   LIG d   1       4.591   0.768  -1.672  0.00  0.00    -0.013 C 
ATOM     32  H   LIG d   1       4.574   0.072  -0.821  0.00  0.00     0.039 H 
ATOM     33  H   LIG d   1       3.595   1.217  -1.800  0.00  0.00     0.039 H 
ATOM     34  H   LIG d   1       5.329   1.562  -1.482  0.00  0.00     0.039 H 
ENDBRANCH  22  31
ENDBRANCH  14  17
ENDBRANCH   6  14
BRANCH   5  35
ATOM     35  O   LIG d   1       9.558  -2.421  -4.862  0.00  0.00    -0.506 OA
ATOM     36  H   LIG d   1       9.006  -1.531  -5.198  0.00  0.00     0.292 HD
ENDBRANCH   5  35
BRANCH   1  37
ATOM     37  C   LIG d   1       7.961  -8.658  -4.680  0.00  0.00    -0.038 C 
ATOM     38  H   LIG d   1       9.010  -8.529  -4.983  0.00  0.00     0.028 H 
ATOM     39  H   LIG d   1       7.535  -9.532  -5.195  0.00  0.00     0.028 H 
ATOM     40  H   LIG d   1       7.910  -8.814  -3.592  0.00  0.00     0.028 H 
ENDBRANCH   1  37
BRANCH  11  41
ATOM     41  C   LIG d   1       5.197  -8.843  -5.493  0.00  0.00     0.031 A 
ATOM     42  C   LIG d   1       5.131  -9.542  -6.704  0.00  0.00     0.132 A 
ATOM     43  C   LIG d   1       4.509 -10.777  -6.753  0.00  0.00     0.022 A 
ATOM     44  C   LIG d   1       3.944 -11.316  -5.607  0.00  0.00     0.124 A 
ATOM     45  H   LIG d   1       4.459 -11.319  -7.686  0.00  0.00     0.069 H 
ATOM     46  C   LIG d   1       4.004 -10.621  -4.406  0.00  0.00    -0.019 A 
ATOM     47  C   LIG d   1       4.627  -9.392  -4.346  0.00  0.00    -0.047 A 
ATOM     48  H   LIG d   1       3.563 -11.046  -3.516  0.00  0.00     0.065 H 
ATOM     49  H   LIG d   1       4.671  -8.855  -3.409  0.00  0.00     0.063 H 
BRANCH  42  50
ATOM     50  O   LIG d   1       5.680  -9.010  -7.828  0.00  0.00    -0.494 OA
BRANCH  50  51
ATOM     51  C   LIG d   1       4.853  -8.958  -8.992  0.00  0.00     0.079 C 
ATOM     52  H   LIG d   1       5.361  -8.379  -9.777  0.00  0.00     0.066 H 
ATOM     53  H   LIG d   1       3.897  -8.476  -8.741  0.00  0.00     0.066 H 
ATOM     54  H   LIG d   1       4.665  -9.980  -9.353  0.00  0.00     0.066 H 
ENDBRANCH  50  51
ENDBRANCH  42  50
BRANCH  44  55
ATOM     55  O   LIG d   1       3.330 -12.527  -5.660  0.00  0.00    -0.495 OA
BRANCH  55  56
ATOM     56  C   LIG d   1       3.271 -13.170  -6.935  0.00  0.00     0.079 C 
ATOM     57  H   LIG d   1       2.222 -13.270  -7.246  0.00  0.00     0.066 H 
ATOM     58  H   LIG d   1       3.730 -14.168  -6.863  0.00  0.00     0.066 H 
ATOM     59  H   LIG d   1       3.818 -12.568  -7.676  0.00  0.00     0.066 H 
ENDBRANCH  55  56
ENDBRANCH  44  55
ENDBRANCH  11  41
TORSDOF 10
ENDMDL
MODEL 6
REMARK VINA RESULT:      -5.2      4.981      7.312
REMARK  10 active torsions:
REMARK  status: ('A' for Active; 'I' for Inactive)
REMARK    1  A    between atoms: C_1  and  C_2 
REMARK    2  A    between atoms: C_6  and  O_31 
REMARK    3  A    between atoms: C_7  and  C_23 
REMARK    4  A    between atoms: C_12  and  C_13 
REMARK    5  A    between atoms: C_16  and  O_21 
REMARK    6  A    between atoms: C_18  and  O_19 
REMARK    7  A    between atoms: O_19  and  C_20 
REMARK    8  A    between atoms: O_21  and  C_22 
REMARK    9  A    between atoms: C_23  and  N_24 
REMARK   10  A    between atoms: N_27  and  C_30 
ROOT
ATOM      1  C   LIG d   1       3.270  -0.360  -8.340  0.00  0.00    -0.025 A 
ATOM      2  C   LIG d   1       3.477  -0.219  -6.945  0.00  0.00     0.022 A 
ATOM      3  C   LIG d   1       2.459   0.295  -6.129  0.00  0.00    -0.047 A 
ATOM      4  C   LIG d   1       2.663   0.429  -4.786  0.00  0.00    -0.019 A 
ATOM      5  C   LIG d   1       3.880   0.057  -4.218  0.00  0.00     0.125 A 
ATOM      6  C   LIG d   1       4.897  -0.453  -5.007  0.00  0.00     0.051 A 
ATOM      7  C   LIG d   1       4.709  -0.592  -6.375  0.00  0.00     0.147 A 
ATOM      8  O   LIG d   1       5.699  -1.095  -7.145  0.00  0.00    -0.421 OA
ATOM      9  C   LIG d   1       5.543  -1.243  -8.471  0.00  0.00     0.345 A 
ATOM     10  O   LIG d   1       6.454  -1.695  -9.142  0.00  0.00    -0.244 OA
ATOM     11  C   LIG d   1       4.281  -0.866  -9.112  0.00  0.00     0.074 A 
ATOM     12  H   LIG d   1       1.513   0.586  -6.562  0.00  0.00     0.063 H 
ATOM     13  H   LIG d   1       1.878   0.826  -4.161  0.00  0.00     0.065 H 
ENDROOT
BRANCH   6  14
ATOM     14  C   LIG d   1       6.209  -0.854  -4.382  0.00  0.00     0.031 C 
ATOM     15  H   LIG d   1       6.090  -0.919  -3.291  0.00  0.00     0.048 H 
ATOM     16  H   LIG d   1       6.519  -1.832  -4.777  0.00  0.00     0.048 H 
BRANCH  14  17
ATOM     17  N   LIG d   1       7.231   0.151  -4.704  0.00  0.00    -0.295 N 
ATOM     18  C   LIG d   1       7.385   1.117  -3.607  0.00  0.00     0.012 C 
ATOM     19  C   LIG d   1       8.399   2.189  -4.013  0.00  0.00     0.011 C 
ATOM     20  H   LIG d   1       6.415   1.589  -3.396  0.00  0.00     0.044 H 
ATOM     21  H   LIG d   1       7.742   0.595  -2.707  0.00  0.00     0.044 H 
ATOM     22  N   LIG d   1       9.683   1.549  -4.332  0.00  0.00    -0.303 N 
ATOM     23  H   LIG d   1       8.538   2.897  -3.183  0.00  0.00     0.044 H 
ATOM     24  H   LIG d   1       8.028   2.729  -4.897  0.00  0.00     0.044 H 
ATOM     25  C   LIG d   1       9.529   0.584  -5.430  0.00  0.00     0.011 C 
ATOM     26  C   LIG d   1       8.515  -0.489  -5.023  0.00  0.00     0.012 C 
ATOM     27  H   LIG d   1      10.500   0.109  -5.641  0.00  0.00     0.044 H 
ATOM     28  H   LIG d   1       9.171   1.104  -6.330  0.00  0.00     0.044 H 
ATOM     29  H   LIG d   1       8.886  -1.029  -4.139  0.00  0.00     0.044 H 
ATOM     30  H   LIG d   1       8.376  -1.197  -5.853  0.00  0.00     0.044 H 
BRANCH  22  31
ATOM     31  C   LIG d   1      10.705   2.553  -4.654  0.00  0.00    -0.013 C 
ATOM     32  H   LIG d   1      11.639   2.309  -4.126  0.00  0.00     0.039 H 
ATOM     33  H   LIG d   1      10.355   3.547  -4.339  0.00  0.00     0.039 H 
ATOM     34  H   LIG d   1      10.888   2.556  -5.739  0.00  0.00     0.039 H 
ENDBRANCH  22  31
ENDBRANCH  14  17
ENDBRANCH   6  14
BRANCH   5  35
ATOM     35  O   LIG d   1       4.070   0.195  -2.881  0.00  0.00    -0.506 OA
ATOM     36  H   LIG d   1       3.238   0.012  -2.185  0.00  0.00     0.292 HD
ENDBRANCH   5  35
BRANCH   1  37
ATOM     37  C   LIG d   1       1.958   0.039  -8.964  0.00  0.00    -0.038 C 
ATOM     38  H   LIG d   1       1.334  -0.855  -9.112  0.00  0.00     0.028 H 
ATOM     39  H   LIG d   1       2.143   0.522  -9.935  0.00  0.00     0.028 H 
ATOM     40  H   LIG d   1       1.436   0.744  -8.299  0.00  0.00     0.028 H 
ENDBRANCH   1  37
BRANCH  11  41
ATOM     41  C   LIG d   1       4.103  -1.028 -10.573  0.00  0.00     0.031 A 
ATOM     42  C   LIG d   1       3.601  -2.227 -11.090  0.00  0.00     0.132 A 
ATOM     43  C   LIG d   1       3.432  -2.371 -12.456  0.00  0.00     0.022 A 
ATOM     44  C   LIG d   1       3.769  -1.332 -13.310  0.00  0.00     0.124 A 
ATOM     45  H   LIG d   1       3.043  -3.295 -12.858  0.00  0.00     0.069 H 
ATOM     46  C   LIG d   1       4.272  -0.142 -12.799  0.00  0.00    -0.019 A 
ATOM     47  C   LIG d   1       4.439   0.012 -11.439  0.00  0.00    -0.047 A 
ATOM     48  H   LIG d   1       4.532   0.664 -13.469  0.00  0.00     0.065 H 
ATOM     49  H   LIG d   1       4.831   0.939 -11.044  0.00  0.00     0.063 H 
BRANCH  42  50
ATOM     50  O   LIG d   1       3.277  -3.248 -10.253  0.00  0.00    -0.494 OA
BRANCH  50  51
ATOM     51  C   LIG d   1       1.898  -3.614 -10.181  0.00  0.00     0.079 C 
ATOM     52  H   LIG d   1       1.509  -3.779 -11.196  0.00  0.00     0.066 H 
ATOM     53  H   LIG d   1       1.329  -2.807  -9.696  0.00  0.00     0.066 H 
ATOM     54  H   LIG d   1       1.794  -4.539  -9.594  0.00  0.00     0.066 H 
ENDBRANCH  50  51
ENDBRANCH  42  50
BRANCH  44  55
ATOM     55  O   LIG d   1       3.606  -1.477 -14.652  0.00  0.00    -0.495 OA
BRANCH  55  56
ATOM     56  C   LIG d   1       4.201  -0.483 -15.489  0.00  0.00     0.079 C 
ATOM     57  H   LIG d   1       5.290  -0.481 -15.339  0.00  0.00     0.066 H 
ATOM     58  H   LIG d   1       3.792   0.506 -15.231  0.00  0.00     0.066 H 
ATOM     59  H   LIG d   1       3.976  -0.708 -16.543  0.00  0.00     0.066 H 
ENDBRANCH  55  56
ENDBRANCH  44  55
ENDBRANCH  11  41
TORSDOF 10
ENDMDL
MODEL 7
REMARK VINA RESULT:      -5.2      9.442     14.941
REMARK  10 active torsions:
REMARK  status: ('A' for Active; 'I' for Inactive)
REMARK    1  A    between atoms: C_1  and  C_2 
REMARK    2  A    between atoms: C_6  and  O_31 
REMARK    3  A    between atoms: C_7  and  C_23 
REMARK    4  A    between atoms: C_12  and  C_13 
REMARK    5  A    between atoms: C_16  and  O_21 
REMARK    6  A    between atoms: C_18  and  O_19 
REMARK    7  A    between atoms: O_19  and  C_20 
REMARK    8  A    between atoms: O_21  and  C_22 
REMARK    9  A    between atoms: C_23  and  N_24 
REMARK   10  A    between atoms: N_27  and  C_30 
ROOT
ATOM      1  C   LIG d   1      10.163   7.794  -3.640  0.00  0.00    -0.025 A 
ATOM      2  C   LIG d   1       9.978   6.699  -4.522  0.00  0.00     0.022 A 
ATOM      3  C   LIG d   1       9.966   6.905  -5.909  0.00  0.00    -0.047 A 
ATOM      4  C   LIG d   1       9.786   5.848  -6.754  0.00  0.00    -0.019 A 
ATOM      5  C   LIG d   1       9.615   4.561  -6.246  0.00  0.00     0.125 A 
ATOM      6  C   LIG d   1       9.624   4.339  -4.879  0.00  0.00     0.051 A 
ATOM      7  C   LIG d   1       9.800   5.402  -4.005  0.00  0.00     0.147 A 
ATOM      8  O   LIG d   1       9.814   5.184  -2.671  0.00  0.00    -0.421 OA
ATOM      9  C   LIG d   1       9.986   6.194  -1.803  0.00  0.00     0.345 A 
ATOM     10  O   LIG d   1       9.990   5.970  -0.606  0.00  0.00    -0.244 OA
ATOM     11  C   LIG d   1      10.171   7.563  -2.291  0.00  0.00     0.074 A 
ATOM     12  H   LIG d   1      10.098   7.899  -6.309  0.00  0.00     0.063 H 
ATOM     13  H   LIG d   1       9.777   6.010  -7.820  0.00  0.00     0.065 H 
ENDROOT
BRANCH   6  14
ATOM     14  C   LIG d   1       9.438   2.943  -4.341  0.00  0.00     0.031 C 
ATOM     15  H   LIG d   1       9.227   2.991  -3.263  0.00  0.00     0.048 H 
ATOM     16  H   LIG d   1       8.596   2.460  -4.858  0.00  0.00     0.048 H 
BRANCH  14  17
ATOM     17  N   LIG d   1      10.663   2.164  -4.566  0.00  0.00    -0.295 N 
ATOM     18  C   LIG d   1      11.520   2.172  -3.372  0.00  0.00     0.012 C 
ATOM     19  C   LIG d   1      12.818   1.420  -3.673  0.00  0.00     0.011 C 
ATOM     20  H   LIG d   1      11.753   3.211  -3.095  0.00  0.00     0.044 H 
ATOM     21  H   LIG d   1      10.994   1.681  -2.540  0.00  0.00     0.044 H 
ATOM     22  N   LIG d   1      12.500   0.044  -4.080  0.00  0.00    -0.303 N 
ATOM     23  H   LIG d   1      13.448   1.399  -2.772  0.00  0.00     0.044 H 
ATOM     24  H   LIG d   1      13.357   1.927  -4.486  0.00  0.00     0.044 H 
ATOM     25  C   LIG d   1      11.644   0.036  -5.275  0.00  0.00     0.011 C 
ATOM     26  C   LIG d   1      10.345   0.789  -4.973  0.00  0.00     0.012 C 
ATOM     27  H   LIG d   1      11.409  -1.003  -5.552  0.00  0.00     0.044 H 
ATOM     28  H   LIG d   1      12.168   0.528  -6.106  0.00  0.00     0.044 H 
ATOM     29  H   LIG d   1       9.806   0.281  -4.160  0.00  0.00     0.044 H 
ATOM     30  H   LIG d   1       9.715   0.809  -5.874  0.00  0.00     0.044 H 
BRANCH  22  31
ATOM     31  C   LIG d   1      13.725  -0.735  -4.305  0.00  0.00    -0.013 C 
ATOM     32  H   LIG d   1      14.392  -0.181  -4.982  0.00  0.00     0.039 H 
ATOM     33  H   LIG d   1      13.465  -1.703  -4.758  0.00  0.00     0.039 H 
ATOM     34  H   LIG d   1      14.234  -0.904  -3.345  0.00  0.00     0.039 H 
ENDBRANCH  22  31
ENDBRANCH  14  17
ENDBRANCH   6  14
BRANCH   5  35
ATOM     35  O   LIG d   1       9.437   3.519  -7.097  0.00  0.00    -0.506 OA
ATOM     36  H   LIG d   1      10.204   2.734  -7.173  0.00  0.00     0.292 HD
ENDBRANCH   5  35
BRANCH   1  37
ATOM     37  C   LIG d   1      10.349   9.189  -4.179  0.00  0.00    -0.038 C 
ATOM     38  H   LIG d   1       9.802   9.903  -3.547  0.00  0.00     0.028 H 
ATOM     39  H   LIG d   1       9.965   9.240  -5.209  0.00  0.00     0.028 H 
ATOM     40  H   LIG d   1      11.420   9.442  -4.176  0.00  0.00     0.028 H 
ENDBRANCH   1  37
BRANCH  11  41
ATOM     41  C   LIG d   1      10.362   8.681  -1.338  0.00  0.00     0.031 A 
ATOM     42  C   LIG d   1      11.650   9.039  -0.924  0.00  0.00     0.132 A 
ATOM     43  C   LIG d   1      11.822  10.087  -0.038  0.00  0.00     0.022 A 
ATOM     44  C   LIG d   1      10.720  10.774   0.447  0.00  0.00     0.124 A 
ATOM     45  H   LIG d   1      12.816  10.367   0.281  0.00  0.00     0.069 H 
ATOM     46  C   LIG d   1       9.440  10.417   0.041  0.00  0.00    -0.019 A 
ATOM     47  C   LIG d   1       9.259   9.377  -0.846  0.00  0.00    -0.047 A 
ATOM     48  H   LIG d   1       8.585  10.956   0.422  0.00  0.00     0.065 H 
ATOM     49  H   LIG d   1       8.262   9.102  -1.159  0.00  0.00     0.063 H 
BRANCH  42  50
ATOM     50  O   LIG d   1      12.730   8.360  -1.396  0.00  0.00    -0.494 OA
BRANCH  50  51
ATOM     51  C   LIG d   1      13.405   7.498  -0.478  0.00  0.00     0.079 C 
ATOM     52  H   LIG d   1      13.848   8.098   0.330  0.00  0.00     0.066 H 
ATOM     53  H   LIG d   1      14.200   6.951  -1.006  0.00  0.00     0.066 H 
ATOM     54  H   LIG d   1      12.688   6.782  -0.052  0.00  0.00     0.066 H 
ENDBRANCH  50  51
ENDBRANCH  42  50
BRANCH  44  55
ATOM     55  O   LIG d   1      10.892  11.801   1.321  0.00  0.00    -0.495 OA
BRANCH  55  56
ATOM     56  C   LIG d   1      10.862  13.124   0.782  0.00  0.00     0.079 C 
ATOM     57  H   LIG d   1      10.399  13.806   1.510  0.00  0.00     0.066 H 
ATOM     58  H   LIG d   1      10.276  13.127  -0.149  0.00  0.00     0.066 H 
ATOM     59  H   LIG d   1      11.889  13.457   0.570  0.00  0.00     0.066 H 
ENDBRANCH  55  56
ENDBRANCH  44  55
ENDBRANCH  11  41
TORSDOF 10
ENDMDL
MODEL 8
REMARK VINA RESULT:      -5.1     11.880     14.227
REMARK  10 active torsions:
REMARK  status: ('A' for Active; 'I' for Inactive)
REMARK    1  A    between atoms: C_1  and  C_2 
REMARK    2  A    between atoms: C_6  and  O_31 
REMARK    3  A    between atoms: C_7  and  C_23 
REMARK    4  A    between atoms: C_12  and  C_13 
REMARK    5  A    between atoms: C_16  and  O_21 
REMARK    6  A    between atoms: C_18  and  O_19 
REMARK    7  A    between atoms: O_19  and  C_20 
REMARK    8  A    between atoms: O_21  and  C_22 
REMARK    9  A    between atoms: C_23  and  N_24 
REMARK   10  A    between atoms: N_27  and  C_30 
ROOT
ATOM      1  C   LIG d   1      10.359   5.548  -5.833  0.00  0.00    -0.025 A 
ATOM      2  C   LIG d   1      10.330   5.552  -4.415  0.00  0.00     0.022 A 
ATOM      3  C   LIG d   1      10.706   4.405  -3.699  0.00  0.00    -0.047 A 
ATOM      4  C   LIG d   1      10.677   4.413  -2.335  0.00  0.00    -0.019 A 
ATOM      5  C   LIG d   1      10.274   5.556  -1.646  0.00  0.00     0.125 A 
ATOM      6  C   LIG d   1       9.900   6.697  -2.335  0.00  0.00     0.051 A 
ATOM      7  C   LIG d   1       9.919   6.705  -3.723  0.00  0.00     0.147 A 
ATOM      8  O   LIG d   1       9.558   7.821  -4.396  0.00  0.00    -0.421 OA
ATOM      9  C   LIG d   1       9.571   7.858  -5.738  0.00  0.00     0.345 A 
ATOM     10  O   LIG d   1       9.237   8.875  -6.320  0.00  0.00    -0.244 OA
ATOM     11  C   LIG d   1       9.987   6.681  -6.505  0.00  0.00     0.074 A 
ATOM     12  H   LIG d   1      11.019   3.517  -4.227  0.00  0.00     0.063 H 
ATOM     13  H   LIG d   1      10.966   3.530  -1.788  0.00  0.00     0.065 H 
ENDROOT
BRANCH   6  14
ATOM     14  C   LIG d   1       9.467   7.927  -1.579  0.00  0.00     0.031 C 
ATOM     15  H   LIG d   1       8.714   8.472  -2.167  0.00  0.00     0.048 H 
ATOM     16  H   LIG d   1       9.034   7.630  -0.613  0.00  0.00     0.048 H 
BRANCH  14  17
ATOM     17  N   LIG d   1      10.630   8.794  -1.349  0.00  0.00    -0.295 N 
ATOM     18  C   LIG d   1      10.419  10.126  -1.934  0.00  0.00     0.012 C 
ATOM     19  C   LIG d   1      11.680  10.971  -1.742  0.00  0.00     0.011 C 
ATOM     20  H   LIG d   1      10.204  10.025  -3.008  0.00  0.00     0.044 H 
ATOM     21  H   LIG d   1       9.569  10.615  -1.435  0.00  0.00     0.044 H 
ATOM     22  N   LIG d   1      11.986  11.071  -0.308  0.00  0.00    -0.303 N 
ATOM     23  H   LIG d   1      11.515  11.977  -2.153  0.00  0.00     0.044 H 
ATOM     24  H   LIG d   1      12.524  10.496  -2.265  0.00  0.00     0.044 H 
ATOM     25  C   LIG d   1      12.198   9.740   0.277  0.00  0.00     0.011 C 
ATOM     26  C   LIG d   1      10.936   8.895   0.085  0.00  0.00     0.012 C 
ATOM     27  H   LIG d   1      12.412   9.840   1.352  0.00  0.00     0.044 H 
ATOM     28  H   LIG d   1      13.047   9.250  -0.222  0.00  0.00     0.044 H 
ATOM     29  H   LIG d   1      10.092   9.370   0.608  0.00  0.00     0.044 H 
ATOM     30  H   LIG d   1      11.102   7.888   0.496  0.00  0.00     0.044 H 
BRANCH  22  31
ATOM     31  C   LIG d   1      13.149  11.938  -0.078  0.00  0.00    -0.013 C 
ATOM     32  H   LIG d   1      13.572  11.728   0.916  0.00  0.00     0.039 H 
ATOM     33  H   LIG d   1      12.836  12.992  -0.128  0.00  0.00     0.039 H 
ATOM     34  H   LIG d   1      13.910  11.745  -0.848  0.00  0.00     0.039 H 
ENDBRANCH  22  31
ENDBRANCH  14  17
ENDBRANCH   6  14
BRANCH   5  35
ATOM     35  O   LIG d   1      10.249   5.550  -0.289  0.00  0.00    -0.506 OA
ATOM     36  H   LIG d   1      10.101   6.490   0.263  0.00  0.00     0.292 HD
ENDBRANCH   5  35
BRANCH   1  37
ATOM     37  C   LIG d   1      10.793   4.318  -6.587  0.00  0.00    -0.038 C 
ATOM     38  H   LIG d   1      11.842   4.092  -6.349  0.00  0.00     0.028 H 
ATOM     39  H   LIG d   1      10.692   4.495  -7.668  0.00  0.00     0.028 H 
ATOM     40  H   LIG d   1      10.159   3.467  -6.295  0.00  0.00     0.028 H 
ENDBRANCH   1  37
BRANCH  11  41
ATOM     41  C   LIG d   1      10.004   6.717  -7.986  0.00  0.00     0.031 A 
ATOM     42  C   LIG d   1      11.123   7.213  -8.663  0.00  0.00     0.132 A 
ATOM     43  C   LIG d   1      11.135   7.239 -10.047  0.00  0.00     0.022 A 
ATOM     44  C   LIG d   1      10.036   6.784 -10.759  0.00  0.00     0.124 A 
ATOM     45  H   LIG d   1      11.999   7.619 -10.573  0.00  0.00     0.069 H 
ATOM     46  C   LIG d   1       8.921   6.296 -10.087  0.00  0.00    -0.019 A 
ATOM     47  C   LIG d   1       8.903   6.261  -8.709  0.00  0.00    -0.047 A 
ATOM     48  H   LIG d   1       8.068   5.942 -10.647  0.00  0.00     0.065 H 
ATOM     49  H   LIG d   1       8.035   5.881  -8.190  0.00  0.00     0.063 H 
BRANCH  42  50
ATOM     50  O   LIG d   1      12.198   7.664  -7.964  0.00  0.00    -0.494 OA
BRANCH  50  51
ATOM     51  C   LIG d   1      12.458   9.068  -8.010  0.00  0.00     0.079 C 
ATOM     52  H   LIG d   1      11.557   9.618  -7.702  0.00  0.00     0.066 H 
ATOM     53  H   LIG d   1      12.732   9.357  -9.035  0.00  0.00     0.066 H 
ATOM     54  H   LIG d   1      13.286   9.310  -7.328  0.00  0.00     0.066 H 
ENDBRANCH  50  51
ENDBRANCH  42  50
BRANCH  44  55
ATOM     55  O   LIG d   1      10.048   6.815 -12.117  0.00  0.00    -0.495 OA
BRANCH  55  56
ATOM     56  C   LIG d   1       8.891   6.311 -12.789  0.00  0.00     0.079 C 
ATOM     57  H   LIG d   1       8.034   6.322 -12.101  0.00  0.00     0.066 H 
ATOM     58  H   LIG d   1       9.081   5.279 -13.122  0.00  0.00     0.066 H 
ATOM     59  H   LIG d   1       8.669   6.942 -13.662  0.00  0.00     0.066 H 
ENDBRANCH  55  56
ENDBRANCH  44  55
ENDBRANCH  11  41
TORSDOF 10
ENDMDL
MODEL 9
REMARK VINA RESULT:      -5.0      6.343     11.838
REMARK  10 active torsions:
REMARK  status: ('A' for Active; 'I' for Inactive)
REMARK    1  A    between atoms: C_1  and  C_2 
REMARK    2  A    between atoms: C_6  and  O_31 
REMARK    3  A    between atoms: C_7  and  C_23 
REMARK    4  A    between atoms: C_12  and  C_13 
REMARK    5  A    between atoms: C_16  and  O_21 
REMARK    6  A    between atoms: C_18  and  O_19 
REMARK    7  A    between atoms: O_19  and  C_20 
REMARK    8  A    between atoms: O_21  and  C_22 
REMARK    9  A    between atoms: C_23  and  N_24 
REMARK   10  A    between atoms: N_27  and  C_30 
ROOT
ATOM      1  C   LIG d   1       9.708   4.317  -6.124  0.00  0.00    -0.025 A 
ATOM      2  C   LIG d   1       9.178   3.124  -6.678  0.00  0.00     0.022 A 
ATOM      3  C   LIG d   1       9.005   3.008  -8.065  0.00  0.00    -0.047 A 
ATOM      4  C   LIG d   1       8.494   1.858  -8.594  0.00  0.00    -0.019 A 
ATOM      5  C   LIG d   1       8.142   0.796  -7.763  0.00  0.00     0.125 A 
ATOM      6  C   LIG d   1       8.306   0.892  -6.392  0.00  0.00     0.051 A 
ATOM      7  C   LIG d   1       8.819   2.056  -5.836  0.00  0.00     0.147 A 
ATOM      8  O   LIG d   1       8.984   2.149  -4.498  0.00  0.00    -0.421 OA
ATOM      9  C   LIG d   1       9.483   3.261  -3.933  0.00  0.00     0.345 A 
ATOM     10  O   LIG d   1       9.616   3.319  -2.724  0.00  0.00    -0.244 OA
ATOM     11  C   LIG d   1       9.866   4.403  -4.767  0.00  0.00     0.074 A 
ATOM     12  H   LIG d   1       9.276   3.827  -8.715  0.00  0.00     0.063 H 
ATOM     13  H   LIG d   1       8.362   1.772  -9.661  0.00  0.00     0.065 H 
ENDROOT
BRANCH   6  14
ATOM     14  C   LIG d   1       7.923  -0.263  -5.503  0.00  0.00     0.031 C 
ATOM     15  H   LIG d   1       7.922  -1.193  -6.090  0.00  0.00     0.048 H 
ATOM     16  H   LIG d   1       8.649  -0.349  -4.681  0.00  0.00     0.048 H 
BRANCH  14  17
ATOM     17  N   LIG d   1       6.582  -0.031  -4.950  0.00  0.00    -0.295 N 
ATOM     18  C   LIG d   1       5.591  -0.911  -5.586  0.00  0.00     0.012 C 
ATOM     19  C   LIG d   1       4.198  -0.584  -5.042  0.00  0.00     0.011 C 
ATOM     20  H   LIG d   1       5.606  -0.753  -6.675  0.00  0.00     0.044 H 
ATOM     21  H   LIG d   1       5.836  -1.960  -5.365  0.00  0.00     0.044 H 
ATOM     22  N   LIG d   1       4.193  -0.759  -3.582  0.00  0.00    -0.303 N 
ATOM     23  H   LIG d   1       3.459  -1.260  -5.494  0.00  0.00     0.044 H 
ATOM     24  H   LIG d   1       3.942   0.457  -5.287  0.00  0.00     0.044 H 
ATOM     25  C   LIG d   1       5.184   0.121  -2.946  0.00  0.00     0.011 C 
ATOM     26  C   LIG d   1       6.577  -0.206  -3.491  0.00  0.00     0.012 C 
ATOM     27  H   LIG d   1       5.170  -0.037  -1.857  0.00  0.00     0.044 H 
ATOM     28  H   LIG d   1       4.940   1.170  -3.168  0.00  0.00     0.044 H 
ATOM     29  H   LIG d   1       6.832  -1.247  -3.245  0.00  0.00     0.044 H 
ATOM     30  H   LIG d   1       7.316   0.470  -3.038  0.00  0.00     0.044 H 
BRANCH  22  31
ATOM     31  C   LIG d   1       2.852  -0.527  -3.029  0.00  0.00    -0.013 C 
ATOM     32  H   LIG d   1       2.834   0.438  -2.502  0.00  0.00     0.039 H 
ATOM     33  H   LIG d   1       2.602  -1.334  -2.325  0.00  0.00     0.039 H 
ATOM     34  H   LIG d   1       2.116  -0.513  -3.847  0.00  0.00     0.039 H 
ENDBRANCH  22  31
ENDBRANCH  14  17
ENDBRANCH   6  14
BRANCH   5  35
ATOM     35  O   LIG d   1       7.635  -0.342  -8.303  0.00  0.00    -0.506 OA
ATOM     36  H   LIG d   1       6.608  -0.655  -8.062  0.00  0.00     0.292 HD
ENDBRANCH   5  35
BRANCH   1  37
ATOM     37  C   LIG d   1      10.092   5.471  -7.014  0.00  0.00    -0.038 C 
ATOM     38  H   LIG d   1      11.187   5.517  -7.104  0.00  0.00     0.028 H 
ATOM     39  H   LIG d   1       9.720   6.410  -6.579  0.00  0.00     0.028 H 
ATOM     40  H   LIG d   1       9.648   5.328  -8.010  0.00  0.00     0.028 H 
ENDBRANCH   1  37
BRANCH  11  41
ATOM     41  C   LIG d   1      10.417   5.632  -4.150  0.00  0.00     0.031 A 
ATOM     42  C   LIG d   1      11.795   5.755  -3.940  0.00  0.00     0.132 A 
ATOM     43  C   LIG d   1      12.304   6.908  -3.368  0.00  0.00     0.022 A 
ATOM     44  C   LIG d   1      11.448   7.933  -2.995  0.00  0.00     0.124 A 
ATOM     45  H   LIG d   1      13.367   7.007  -3.207  0.00  0.00     0.069 H 
ATOM     46  C   LIG d   1      10.079   7.810  -3.198  0.00  0.00    -0.019 A 
ATOM     47  C   LIG d   1       9.564   6.667  -3.772  0.00  0.00    -0.047 A 
ATOM     48  H   LIG d   1       9.418   8.612  -2.905  0.00  0.00     0.065 H 
ATOM     49  H   LIG d   1       8.499   6.575  -3.928  0.00  0.00     0.063 H 
BRANCH  42  50
ATOM     50  O   LIG d   1      12.632   4.747  -4.301  0.00  0.00    -0.494 OA
BRANCH  50  51
ATOM     51  C   LIG d   1      13.313   4.061  -3.249  0.00  0.00     0.079 C 
ATOM     52  H   LIG d   1      13.384   2.992  -3.495  0.00  0.00     0.066 H 
ATOM     53  H   LIG d   1      12.754   4.185  -2.310  0.00  0.00     0.066 H 
ATOM     54  H   LIG d   1      14.323   4.479  -3.132  0.00  0.00     0.066 H 
ENDBRANCH  50  51
ENDBRANCH  42  50
BRANCH  44  55
ATOM     55  O   LIG d   1      11.950   9.062  -2.429  0.00  0.00    -0.495 OA
BRANCH  55  56
ATOM     56  C   LIG d   1      11.064   9.826  -1.608  0.00  0.00     0.079 C 
ATOM     57  H   LIG d   1      11.646  10.528  -0.994  0.00  0.00     0.066 H 
ATOM     58  H   LIG d   1      10.496   9.148  -0.953  0.00  0.00     0.066 H 
ATOM     59  H   LIG d   1      10.366  10.389  -2.246  0.00  0.00     0.066 H 
ENDBRANCH  55  56
ENDBRANCH  44  55
ENDBRANCH  11  41
TORSDOF 10
ENDMDL
