MODEL 1
REMARK VINA RESULT:      -6.0      0.000      0.000
REMARK  0 active torsions:
REMARK  status: ('A' for Active; 'I' for Inactive)
ROOT
ATOM      1  C   LIG d   1       2.924  -0.043  -2.660  0.00  0.00    -0.061 A 
ATOM      2  C   LIG d   1       3.867   0.886  -2.247  0.00  0.00    -0.058 A 
ATOM      3  C   LIG d   1       5.213   0.650  -2.427  0.00  0.00    -0.019 A 
ATOM      4  C   LIG d   1       5.639  -0.529  -3.028  0.00  0.00     0.139 A 
ATOM      5  C   LIG d   1       4.682  -1.468  -3.446  0.00  0.00     0.065 A 
ATOM      6  C   LIG d   1       3.323  -1.218  -3.258  0.00  0.00    -0.047 A 
ATOM      7  C   LIG d   1       5.151  -2.718  -4.077  0.00  0.00     0.210 A 
ATOM      8  O   LIG d   1       4.372  -3.573  -4.456  0.00  0.00    -0.286 OA
ATOM      9  C   LIG d   1       6.609  -2.876  -4.228  0.00  0.00     0.134 A 
ATOM     10  C   LIG d   1       7.425  -1.880  -3.776  0.00  0.00     0.114 A 
ATOM     11  O   LIG d   1       6.953  -0.770  -3.208  0.00  0.00    -0.461 OA
ATOM     12  C   LIG d   1       7.159  -4.052  -4.833  0.00  0.00     0.106 C 
ATOM     13  N   LIG d   1       7.594  -4.985  -5.313  0.00  0.00    -0.191 NA
ATOM     14  H   LIG d   1       1.872   0.155  -2.513  0.00  0.00     0.062 H 
ATOM     15  H   LIG d   1       3.543   1.805  -1.780  0.00  0.00     0.062 H 
ATOM     16  H   LIG d   1       5.937   1.382  -2.102  0.00  0.00     0.065 H 
ATOM     17  H   LIG d   1       2.588  -1.942  -3.580  0.00  0.00     0.063 H 
ATOM     18  H   LIG d   1       8.494  -1.993  -3.882  0.00  0.00     0.104 H 
ENDROOT
TORSDOF 0
ENDMDL
MODEL 2
REMARK VINA RESULT:      -5.7      3.672      4.456
REMARK  0 active torsions:
REMARK  status: ('A' for Active; 'I' for Inactive)
ROOT
ATOM      1  C   LIG d   1       3.923  -0.414  -1.923  0.00  0.00    -0.061 A 
ATOM      2  C   LIG d   1       4.609  -1.603  -2.119  0.00  0.00    -0.058 A 
ATOM      3  C   LIG d   1       4.808  -2.100  -3.389  0.00  0.00    -0.019 A 
ATOM      4  C   LIG d   1       4.317  -1.409  -4.492  0.00  0.00     0.139 A 
ATOM      5  C   LIG d   1       3.622  -0.205  -4.290  0.00  0.00     0.065 A 
ATOM      6  C   LIG d   1       3.427   0.287  -3.001  0.00  0.00    -0.047 A 
ATOM      7  C   LIG d   1       3.102   0.513  -5.471  0.00  0.00     0.210 A 
ATOM      8  O   LIG d   1       2.487   1.558  -5.363  0.00  0.00    -0.286 OA
ATOM      9  C   LIG d   1       3.368  -0.097  -6.787  0.00  0.00     0.134 A 
ATOM     10  C   LIG d   1       4.059  -1.274  -6.835  0.00  0.00     0.114 A 
ATOM     11  O   LIG d   1       4.504  -1.886  -5.738  0.00  0.00    -0.461 OA
ATOM     12  C   LIG d   1       2.908   0.529  -7.990  0.00  0.00     0.106 C 
ATOM     13  N   LIG d   1       2.542   1.025  -8.944  0.00  0.00    -0.191 NA
ATOM     14  H   LIG d   1       3.775  -0.036  -0.922  0.00  0.00     0.062 H 
ATOM     15  H   LIG d   1       4.994  -2.145  -1.267  0.00  0.00     0.062 H 
ATOM     16  H   LIG d   1       5.345  -3.026  -3.529  0.00  0.00     0.065 H 
ATOM     17  H   LIG d   1       2.892   1.213  -2.848  0.00  0.00     0.063 H 
ATOM     18  H   LIG d   1       4.253  -1.725  -7.796  0.00  0.00     0.104 H 
ENDROOT
TORSDOF 0
ENDMDL
MODEL 3
REMARK VINA RESULT:      -5.6      0.749      2.259
REMARK  0 active torsions:
REMARK  status: ('A' for Active; 'I' for Inactive)
ROOT
ATOM      1  C   LIG d   1       4.729   1.232  -2.244  0.00  0.00    -0.061 A 
ATOM      2  C   LIG d   1       3.414   0.794  -2.282  0.00  0.00    -0.058 A 
ATOM      3  C   LIG d   1       3.096  -0.437  -2.814  0.00  0.00    -0.019 A 
ATOM      4  C   LIG d   1       4.099  -1.255  -3.321  0.00  0.00     0.139 A 
ATOM      5  C   LIG d   1       5.430  -0.810  -3.282  0.00  0.00     0.065 A 
ATOM      6  C   LIG d   1       5.739   0.437  -2.742  0.00  0.00    -0.047 A 
ATOM      7  C   LIG d   1       6.482  -1.689  -3.831  0.00  0.00     0.210 A 
ATOM      8  O   LIG d   1       7.654  -1.358  -3.832  0.00  0.00    -0.286 OA
ATOM      9  C   LIG d   1       6.043  -2.988  -4.375  0.00  0.00     0.134 A 
ATOM     10  C   LIG d   1       4.712  -3.291  -4.348  0.00  0.00     0.114 A 
ATOM     11  O   LIG d   1       3.800  -2.461  -3.845  0.00  0.00    -0.461 OA
ATOM     12  C   LIG d   1       6.991  -3.909  -4.925  0.00  0.00     0.106 C 
ATOM     13  N   LIG d   1       7.744  -4.640  -5.360  0.00  0.00    -0.191 NA
ATOM     14  H   LIG d   1       4.964   2.199  -1.824  0.00  0.00     0.062 H 
ATOM     15  H   LIG d   1       2.630   1.425  -1.888  0.00  0.00     0.062 H 
ATOM     16  H   LIG d   1       2.068  -0.766  -2.836  0.00  0.00     0.065 H 
ATOM     17  H   LIG d   1       6.764   0.778  -2.713  0.00  0.00     0.063 H 
ATOM     18  H   LIG d   1       4.387  -4.239  -4.748  0.00  0.00     0.104 H 
ENDROOT
TORSDOF 0
ENDMDL
MODEL 4
REMARK VINA RESULT:      -5.6      2.459      3.134
REMARK  0 active torsions:
REMARK  status: ('A' for Active; 'I' for Inactive)
ROOT
ATOM      1  C   LIG d   1       4.330  -1.342  -2.138  0.00  0.00    -0.061 A 
ATOM      2  C   LIG d   1       4.023  -0.033  -1.798  0.00  0.00    -0.058 A 
ATOM      3  C   LIG d   1       4.816   1.009  -2.226  0.00  0.00    -0.019 A 
ATOM      4  C   LIG d   1       5.939   0.755  -3.007  0.00  0.00     0.139 A 
ATOM      5  C   LIG d   1       6.247  -0.571  -3.349  0.00  0.00     0.065 A 
ATOM      6  C   LIG d   1       5.438  -1.618  -2.911  0.00  0.00    -0.047 A 
ATOM      7  C   LIG d   1       7.446  -0.824  -4.174  0.00  0.00     0.210 A 
ATOM      8  O   LIG d   1       7.771  -1.951  -4.500  0.00  0.00    -0.286 OA
ATOM      9  C   LIG d   1       8.228   0.357  -4.585  0.00  0.00     0.134 A 
ATOM     10  C   LIG d   1       7.810   1.592  -4.178  0.00  0.00     0.114 A 
ATOM     11  O   LIG d   1       6.722   1.768  -3.430  0.00  0.00    -0.461 OA
ATOM     12  C   LIG d   1       9.404   0.213  -5.389  0.00  0.00     0.106 C 
ATOM     13  N   LIG d   1      10.336   0.098  -6.027  0.00  0.00    -0.191 NA
ATOM     14  H   LIG d   1       3.700  -2.150  -1.796  0.00  0.00     0.062 H 
ATOM     15  H   LIG d   1       3.152   0.171  -1.193  0.00  0.00     0.062 H 
ATOM     16  H   LIG d   1       4.565   2.024  -1.956  0.00  0.00     0.065 H 
ATOM     17  H   LIG d   1       5.677  -2.637  -3.176  0.00  0.00     0.063 H 
ATOM     18  H   LIG d   1       8.382   2.458  -4.474  0.00  0.00     0.104 H 
ENDROOT
TORSDOF 0
ENDMDL
MODEL 5
REMARK VINA RESULT:      -5.6      2.291      2.522
REMARK  0 active torsions:
REMARK  status: ('A' for Active; 'I' for Inactive)
ROOT
ATOM      1  C   LIG d   1       4.462  -0.912  -1.546  0.00  0.00    -0.061 A 
ATOM      2  C   LIG d   1       4.542   0.426  -1.905  0.00  0.00    -0.058 A 
ATOM      3  C   LIG d   1       4.619   0.795  -3.230  0.00  0.00    -0.019 A 
ATOM      4  C   LIG d   1       4.618  -0.176  -4.225  0.00  0.00     0.139 A 
ATOM      5  C   LIG d   1       4.537  -1.529  -3.859  0.00  0.00     0.065 A 
ATOM      6  C   LIG d   1       4.459  -1.891  -2.515  0.00  0.00    -0.047 A 
ATOM      7  C   LIG d   1       4.543  -2.548  -4.927  0.00  0.00     0.210 A 
ATOM      8  O   LIG d   1       4.481  -3.738  -4.676  0.00  0.00    -0.286 OA
ATOM      9  C   LIG d   1       4.626  -2.053  -6.315  0.00  0.00     0.134 A 
ATOM     10  C   LIG d   1       4.699  -0.706  -6.524  0.00  0.00     0.114 A 
ATOM     11  O   LIG d   1       4.694   0.174  -5.524  0.00  0.00    -0.461 OA
ATOM     12  C   LIG d   1       4.633  -2.966  -7.418  0.00  0.00     0.106 C 
ATOM     13  N   LIG d   1       4.638  -3.690  -8.293  0.00  0.00    -0.191 NA
ATOM     14  H   LIG d   1       4.402  -1.187  -0.503  0.00  0.00     0.062 H 
ATOM     15  H   LIG d   1       4.543   1.185  -1.137  0.00  0.00     0.062 H 
ATOM     16  H   LIG d   1       4.680   1.840  -3.496  0.00  0.00     0.065 H 
ATOM     17  H   LIG d   1       4.397  -2.933  -2.236  0.00  0.00     0.063 H 
ATOM     18  H   LIG d   1       4.763  -0.340  -7.538  0.00  0.00     0.104 H 
ENDROOT
TORSDOF 0
ENDMDL
MODEL 6
REMARK VINA RESULT:      -5.3      3.366      3.961
REMARK  0 active torsions:
REMARK  status: ('A' for Active; 'I' for Inactive)
ROOT
ATOM      1  C   LIG d   1       4.993  -1.308  -2.315  0.00  0.00    -0.061 A 
ATOM      2  C   LIG d   1       4.256  -0.210  -1.898  0.00  0.00    -0.058 A 
ATOM      3  C   LIG d   1       3.532   0.536  -2.802  0.00  0.00    -0.019 A 
ATOM      4  C   LIG d   1       3.535   0.192  -4.149  0.00  0.00     0.139 A 
ATOM      5  C   LIG d   1       4.281  -0.920  -4.569  0.00  0.00     0.065 A 
ATOM      6  C   LIG d   1       5.010  -1.668  -3.645  0.00  0.00    -0.047 A 
ATOM      7  C   LIG d   1       4.279  -1.269  -6.004  0.00  0.00     0.210 A 
ATOM      8  O   LIG d   1       4.910  -2.218  -6.432  0.00  0.00    -0.286 OA
ATOM      9  C   LIG d   1       3.471  -0.412  -6.892  0.00  0.00     0.134 A 
ATOM     10  C   LIG d   1       2.793   0.639  -6.345  0.00  0.00     0.114 A 
ATOM     11  O   LIG d   1       2.831   0.915  -5.042  0.00  0.00    -0.461 OA
ATOM     12  C   LIG d   1       3.402  -0.674  -8.298  0.00  0.00     0.106 C 
ATOM     13  N   LIG d   1       3.348  -0.882  -9.413  0.00  0.00    -0.191 NA
ATOM     14  H   LIG d   1       5.556  -1.884  -1.595  0.00  0.00     0.062 H 
ATOM     15  H   LIG d   1       4.249   0.063  -0.852  0.00  0.00     0.062 H 
ATOM     16  H   LIG d   1       2.961   1.389  -2.464  0.00  0.00     0.065 H 
ATOM     17  H   LIG d   1       5.584  -2.523  -3.970  0.00  0.00     0.063 H 
ATOM     18  H   LIG d   1       2.203   1.271  -6.993  0.00  0.00     0.104 H 
ENDROOT
TORSDOF 0
ENDMDL
MODEL 7
REMARK VINA RESULT:      -5.1      2.406      4.943
REMARK  0 active torsions:
REMARK  status: ('A' for Active; 'I' for Inactive)
ROOT
ATOM      1  C   LIG d   1       7.389  -4.117  -5.531  0.00  0.00    -0.061 A 
ATOM      2  C   LIG d   1       6.227  -4.857  -5.690  0.00  0.00    -0.058 A 
ATOM      3  C   LIG d   1       5.047  -4.448  -5.108  0.00  0.00    -0.019 A 
ATOM      4  C   LIG d   1       5.013  -3.283  -4.349  0.00  0.00     0.139 A 
ATOM      5  C   LIG d   1       6.190  -2.536  -4.190  0.00  0.00     0.065 A 
ATOM      6  C   LIG d   1       7.378  -2.960  -4.784  0.00  0.00    -0.047 A 
ATOM      7  C   LIG d   1       6.138  -1.305  -3.376  0.00  0.00     0.210 A 
ATOM      8  O   LIG d   1       7.126  -0.616  -3.196  0.00  0.00    -0.286 OA
ATOM      9  C   LIG d   1       4.829  -0.949  -2.797  0.00  0.00     0.134 A 
ATOM     10  C   LIG d   1       3.764  -1.770  -3.035  0.00  0.00     0.114 A 
ATOM     11  O   LIG d   1       3.864  -2.875  -3.774  0.00  0.00    -0.461 OA
ATOM     12  C   LIG d   1       4.678   0.229  -1.998  0.00  0.00     0.106 C 
ATOM     13  N   LIG d   1       4.558   1.164  -1.364  0.00  0.00    -0.191 NA
ATOM     14  H   LIG d   1       8.307  -4.450  -5.994  0.00  0.00     0.062 H 
ATOM     15  H   LIG d   1       6.247  -5.763  -6.279  0.00  0.00     0.062 H 
ATOM     16  H   LIG d   1       4.149  -5.033  -5.240  0.00  0.00     0.065 H 
ATOM     17  H   LIG d   1       8.284  -2.383  -4.660  0.00  0.00     0.063 H 
ATOM     18  H   LIG d   1       2.805  -1.515  -2.611  0.00  0.00     0.104 H 
ENDROOT
TORSDOF 0
ENDMDL
MODEL 8
REMARK VINA RESULT:      -5.0      1.794      2.271
REMARK  0 active torsions:
REMARK  status: ('A' for Active; 'I' for Inactive)
ROOT
ATOM      1  C   LIG d   1       5.497   0.820  -2.516  0.00  0.00    -0.061 A 
ATOM      2  C   LIG d   1       6.488   1.202  -3.408  0.00  0.00    -0.058 A 
ATOM      3  C   LIG d   1       6.889   0.355  -4.419  0.00  0.00    -0.019 A 
ATOM      4  C   LIG d   1       6.301  -0.897  -4.552  0.00  0.00     0.139 A 
ATOM      5  C   LIG d   1       5.298  -1.281  -3.648  0.00  0.00     0.065 A 
ATOM      6  C   LIG d   1       4.900  -0.416  -2.630  0.00  0.00    -0.047 A 
ATOM      7  C   LIG d   1       4.688  -2.617  -3.800  0.00  0.00     0.210 A 
ATOM      8  O   LIG d   1       3.817  -3.011  -3.045  0.00  0.00    -0.286 OA
ATOM      9  C   LIG d   1       5.182  -3.448  -4.914  0.00  0.00     0.134 A 
ATOM     10  C   LIG d   1       6.165  -2.946  -5.718  0.00  0.00     0.114 A 
ATOM     11  O   LIG d   1       6.687  -1.734  -5.536  0.00  0.00    -0.461 OA
ATOM     12  C   LIG d   1       4.648  -4.757  -5.144  0.00  0.00     0.106 C 
ATOM     13  N   LIG d   1       4.223  -5.794  -5.327  0.00  0.00    -0.191 NA
ATOM     14  H   LIG d   1       5.192   1.494  -1.729  0.00  0.00     0.062 H 
ATOM     15  H   LIG d   1       6.949   2.174  -3.310  0.00  0.00     0.062 H 
ATOM     16  H   LIG d   1       7.661   0.666  -5.107  0.00  0.00     0.065 H 
ATOM     17  H   LIG d   1       4.128  -0.714  -1.935  0.00  0.00     0.063 H 
ATOM     18  H   LIG d   1       6.531  -3.552  -6.532  0.00  0.00     0.104 H 
ENDROOT
TORSDOF 0
ENDMDL
MODEL 9
REMARK VINA RESULT:      -5.0      2.146      2.656
REMARK  0 active torsions:
REMARK  status: ('A' for Active; 'I' for Inactive)
ROOT
ATOM      1  C   LIG d   1       2.578  -0.398  -3.802  0.00  0.00    -0.061 A 
ATOM      2  C   LIG d   1       2.793  -1.194  -2.687  0.00  0.00    -0.058 A 
ATOM      3  C   LIG d   1       4.039  -1.724  -2.431  0.00  0.00    -0.019 A 
ATOM      4  C   LIG d   1       5.097  -1.464  -3.295  0.00  0.00     0.139 A 
ATOM      5  C   LIG d   1       4.877  -0.658  -4.422  0.00  0.00     0.065 A 
ATOM      6  C   LIG d   1       3.612  -0.127  -4.671  0.00  0.00    -0.047 A 
ATOM      7  C   LIG d   1       6.010  -0.397  -5.333  0.00  0.00     0.210 A 
ATOM      8  O   LIG d   1       5.882   0.290  -6.330  0.00  0.00    -0.286 OA
ATOM      9  C   LIG d   1       7.304  -1.006  -4.972  0.00  0.00     0.134 A 
ATOM     10  C   LIG d   1       7.374  -1.769  -3.842  0.00  0.00     0.114 A 
ATOM     11  O   LIG d   1       6.320  -1.979  -3.054  0.00  0.00    -0.461 OA
ATOM     12  C   LIG d   1       8.461  -0.805  -5.790  0.00  0.00     0.106 C 
ATOM     13  N   LIG d   1       9.379  -0.645  -6.440  0.00  0.00    -0.191 NA
ATOM     14  H   LIG d   1       1.597   0.012  -3.990  0.00  0.00     0.062 H 
ATOM     15  H   LIG d   1       1.976  -1.399  -2.011  0.00  0.00     0.062 H 
ATOM     16  H   LIG d   1       4.194  -2.342  -1.558  0.00  0.00     0.065 H 
ATOM     17  H   LIG d   1       3.445   0.493  -5.540  0.00  0.00     0.063 H 
ATOM     18  H   LIG d   1       8.318  -2.219  -3.576  0.00  0.00     0.104 H 
ENDROOT
TORSDOF 0
ENDMDL
MODEL 10
REMARK VINA RESULT:      -4.6     17.396     18.220
REMARK  0 active torsions:
REMARK  status: ('A' for Active; 'I' for Inactive)
ROOT
ATOM      1  C   LIG d   1       1.867  11.279 -16.535  0.00  0.00    -0.061 A 
ATOM      2  C   LIG d   1       1.026  12.286 -16.984  0.00  0.00    -0.058 A 
ATOM      3  C   LIG d   1      -0.342  12.168 -16.859  0.00  0.00    -0.019 A 
ATOM      4  C   LIG d   1      -0.892  11.030 -16.280  0.00  0.00     0.139 A 
ATOM      5  C   LIG d   1      -0.038  10.012 -15.827  0.00  0.00     0.065 A 
ATOM      6  C   LIG d   1       1.344  10.143 -15.958  0.00  0.00    -0.047 A 
ATOM      7  C   LIG d   1      -0.639   8.808 -15.220  0.00  0.00     0.210 A 
ATOM      8  O   LIG d   1       0.047   7.888 -14.812  0.00  0.00    -0.286 OA
ATOM      9  C   LIG d   1      -2.111   8.776 -15.128  0.00  0.00     0.134 A 
ATOM     10  C   LIG d   1      -2.818   9.840 -15.610  0.00  0.00     0.114 A 
ATOM     11  O   LIG d   1      -2.228  10.904 -16.154  0.00  0.00    -0.461 OA
ATOM     12  C   LIG d   1      -2.784   7.653 -14.551  0.00  0.00     0.106 C 
ATOM     13  N   LIG d   1      -3.318   6.761 -14.092  0.00  0.00    -0.191 NA
ATOM     14  H   LIG d   1       2.937  11.385 -16.639  0.00  0.00     0.062 H 
ATOM     15  H   LIG d   1       1.447  13.173 -17.434  0.00  0.00     0.062 H 
ATOM     16  H   LIG d   1      -0.986  12.960 -17.211  0.00  0.00     0.065 H 
ATOM     17  H   LIG d   1       1.999   9.358 -15.609  0.00  0.00     0.063 H 
ATOM     18  H   LIG d   1      -3.896   9.819 -15.548  0.00  0.00     0.104 H 
ENDROOT
TORSDOF 0
ENDMDL
