MODEL 1
REMARK VINA RESULT:      -5.6      0.000      0.000
REMARK  9 active torsions:
REMARK  status: ('A' for Active; 'I' for Inactive)
REMARK    1  A    between atoms: C_1  and  C_2 
REMARK    2  A    between atoms: C_3  and  O_27 
REMARK    3  A    between atoms: C_7  and  C_26 
REMARK    4  A    between atoms: C_10  and  O_25 
REMARK    5  A    between atoms: C_15  and  C_17 
REMARK    6  A    between atoms: C_17  and  C_18 
REMARK    7  A    between atoms: C_18  and  C_19 
REMARK    8  A    between atoms: C_19  and  C_24 
REMARK    9  A    between atoms: C_20  and  C_21 
ROOT
ATOM      1  C   LIG d   1       3.840  -3.159  -8.675  0.00  0.00    -0.022 C 
ATOM      2  C   LIG d   1       4.837  -3.689  -7.969  0.00  0.00     0.159 C 
ATOM      3  C   LIG d   1       5.430  -2.951  -6.843  0.00  0.00     0.198 C 
ATOM      4  O   LIG d   1       6.460  -3.324  -6.323  0.00  0.00    -0.289 OA
ATOM      5  C   LIG d   1       4.712  -1.710  -6.355  0.00  0.00     0.020 C 
ATOM      6  C   LIG d   1       4.233  -0.942  -7.591  0.00  0.00    -0.009 C 
ATOM      7  C   LIG d   1       3.255  -1.814  -8.377  0.00  0.00     0.016 C 
ATOM      8  H   LIG d   1       2.363  -1.993  -7.759  0.00  0.00     0.038 H 
ATOM      9  C   LIG d   1       2.856  -1.104  -9.672  0.00  0.00     0.066 C 
ATOM     10  H   LIG d   1       2.259  -1.760 -10.322  0.00  0.00     0.060 H 
ATOM     11  C   LIG d   1       2.102   0.185  -9.327  0.00  0.00    -0.005 C 
ATOM     12  C   LIG d   1       2.954   1.012  -8.391  0.00  0.00    -0.070 C 
ATOM     13  C   LIG d   1       3.194   2.275  -8.640  0.00  0.00    -0.099 C 
ATOM     14  C   LIG d   1       3.525   0.346  -7.157  0.00  0.00    -0.013 C 
ATOM     15  H   LIG d   1       4.233   1.028  -6.663  0.00  0.00     0.035 H 
ATOM     16  H   LIG d   1       3.856  -2.004  -5.728  0.00  0.00     0.035 H 
ATOM     17  H   LIG d   1       5.405  -1.094  -5.762  0.00  0.00     0.035 H 
ATOM     18  H   LIG d   1       1.903   0.752 -10.248  0.00  0.00     0.034 H 
ATOM     19  H   LIG d   1       1.149  -0.068  -8.839  0.00  0.00     0.034 H 
ATOM     20  H   LIG d   1       3.815   2.864  -7.951  0.00  0.00     0.053 H 
ATOM     21  H   LIG d   1       2.773   2.747  -9.541  0.00  0.00     0.053 H 
ENDROOT
BRANCH  14  22
ATOM     22  C   LIG d   1       2.395   0.009  -6.182  0.00  0.00    -0.042 C 
ATOM     23  H   LIG d   1       1.436   0.003  -6.721  0.00  0.00     0.027 H 
ATOM     24  H   LIG d   1       2.574  -0.982  -5.740  0.00  0.00     0.027 H 
BRANCH  22  25
ATOM     25  C   LIG d   1       2.349   1.062  -5.072  0.00  0.00    -0.031 C 
ATOM     26  H   LIG d   1       2.804   1.997  -5.434  0.00  0.00     0.031 H 
ATOM     27  H   LIG d   1       1.303   1.248  -4.786  0.00  0.00     0.031 H 
BRANCH  25  28
ATOM     28  C   LIG d   1       3.116   0.562  -3.875  0.00  0.00    -0.071 C 
ATOM     29  C   LIG d   1       4.138   1.267  -3.398  0.00  0.00    -0.040 C 
ATOM     30  H   LIG d   1       4.352   2.267  -3.802  0.00  0.00     0.064 H 
BRANCH  29  31
ATOM     31  C   LIG d   1       4.982   0.709  -2.331  0.00  0.00     0.065 C 
ATOM     32  O   LIG d   1       4.819   1.062  -1.180  0.00  0.00    -0.545 OA
ATOM     33  O   LIG d   1       5.937  -0.194  -2.631  0.00  0.00    -0.545 OA
ENDBRANCH  29  31
BRANCH  28  34
ATOM     34  C   LIG d   1       2.724  -0.736  -3.218  0.00  0.00    -0.043 C 
ATOM     35  H   LIG d   1       1.629  -0.784  -3.123  0.00  0.00     0.027 H 
ATOM     36  H   LIG d   1       3.181  -0.794  -2.219  0.00  0.00     0.027 H 
ATOM     37  H   LIG d   1       3.077  -1.578  -3.831  0.00  0.00     0.027 H 
ENDBRANCH  28  34
ENDBRANCH  25  28
ENDBRANCH  22  25
ENDBRANCH  14  22
BRANCH   6  38
ATOM     38  C   LIG d   1       5.431  -0.594  -8.476  0.00  0.00    -0.058 C 
ATOM     39  H   LIG d   1       6.286  -1.231  -8.205  0.00  0.00     0.024 H 
ATOM     40  H   LIG d   1       5.700   0.463  -8.331  0.00  0.00     0.024 H 
ATOM     41  H   LIG d   1       5.168  -0.763  -9.531  0.00  0.00     0.024 H 
ENDBRANCH   6  38
BRANCH   1  42
ATOM     42  C   LIG d   1       3.274  -3.950  -9.826  0.00  0.00    -0.040 C 
ATOM     43  H   LIG d   1       2.917  -4.925  -9.462  0.00  0.00     0.028 H 
ATOM     44  H   LIG d   1       4.056  -4.106 -10.584  0.00  0.00     0.028 H 
ATOM     45  H   LIG d   1       2.435  -3.398 -10.274  0.00  0.00     0.028 H 
ENDBRANCH   1  42
BRANCH   9  46
ATOM     46  O   LIG d   1       4.030  -0.786 -10.422  0.00  0.00    -0.391 OA
ATOM     47  H   LIG d   1       5.023  -0.892  -9.960  0.00  0.00     0.210 HD
ENDBRANCH   9  46
BRANCH   2  48
ATOM     48  O   LIG d   1       5.311  -4.922  -8.292  0.00  0.00    -0.503 OA
ATOM     49  H   LIG d   1       4.944  -5.433  -9.194  0.00  0.00     0.292 HD
ENDBRANCH   2  48
TORSDOF 9
ENDMDL
MODEL 2
REMARK VINA RESULT:      -5.6      3.491      5.388
REMARK  9 active torsions:
REMARK  status: ('A' for Active; 'I' for Inactive)
REMARK    1  A    between atoms: C_1  and  C_2 
REMARK    2  A    between atoms: C_3  and  O_27 
REMARK    3  A    between atoms: C_7  and  C_26 
REMARK    4  A    between atoms: C_10  and  O_25 
REMARK    5  A    between atoms: C_15  and  C_17 
REMARK    6  A    between atoms: C_17  and  C_18 
REMARK    7  A    between atoms: C_18  and  C_19 
REMARK    8  A    between atoms: C_19  and  C_24 
REMARK    9  A    between atoms: C_20  and  C_21 
ROOT
ATOM      1  C   LIG d   1       5.143  -2.917  -5.464  0.00  0.00    -0.022 C 
ATOM      2  C   LIG d   1       5.238  -2.638  -6.763  0.00  0.00     0.159 C 
ATOM      3  C   LIG d   1       5.539  -1.271  -7.214  0.00  0.00     0.198 C 
ATOM      4  O   LIG d   1       5.431  -0.959  -8.382  0.00  0.00    -0.289 OA
ATOM      5  C   LIG d   1       5.990  -0.266  -6.174  0.00  0.00     0.020 C 
ATOM      6  C   LIG d   1       5.120  -0.475  -4.930  0.00  0.00    -0.009 C 
ATOM      7  C   LIG d   1       5.341  -1.888  -4.394  0.00  0.00     0.016 C 
ATOM      8  H   LIG d   1       6.385  -1.983  -4.062  0.00  0.00     0.038 H 
ATOM      9  C   LIG d   1       4.396  -2.148  -3.219  0.00  0.00     0.066 C 
ATOM     10  H   LIG d   1       4.436  -3.199  -2.897  0.00  0.00     0.060 H 
ATOM     11  C   LIG d   1       4.745  -1.194  -2.072  0.00  0.00    -0.005 C 
ATOM     12  C   LIG d   1       4.725   0.224  -2.596  0.00  0.00    -0.070 C 
ATOM     13  C   LIG d   1       4.044   1.159  -1.979  0.00  0.00    -0.099 C 
ATOM     14  C   LIG d   1       5.510   0.541  -3.851  0.00  0.00    -0.013 C 
ATOM     15  H   LIG d   1       5.279   1.564  -4.183  0.00  0.00     0.035 H 
ATOM     16  H   LIG d   1       7.051  -0.435  -5.936  0.00  0.00     0.035 H 
ATOM     17  H   LIG d   1       5.860   0.754  -6.569  0.00  0.00     0.035 H 
ATOM     18  H   LIG d   1       4.005  -1.303  -1.265  0.00  0.00     0.034 H 
ATOM     19  H   LIG d   1       5.747  -1.435  -1.687  0.00  0.00     0.034 H 
ATOM     20  H   LIG d   1       4.038   2.185  -2.372  0.00  0.00     0.053 H 
ATOM     21  H   LIG d   1       3.478   0.914  -1.068  0.00  0.00     0.053 H 
ENDROOT
BRANCH  14  22
ATOM     22  C   LIG d   1       7.009   0.437  -3.563  0.00  0.00    -0.042 C 
ATOM     23  H   LIG d   1       7.160   0.072  -2.536  0.00  0.00     0.027 H 
ATOM     24  H   LIG d   1       7.472  -0.263  -4.273  0.00  0.00     0.027 H 
BRANCH  22  25
ATOM     25  C   LIG d   1       7.653   1.817  -3.713  0.00  0.00    -0.031 C 
ATOM     26  H   LIG d   1       7.134   2.381  -4.502  0.00  0.00     0.031 H 
ATOM     27  H   LIG d   1       7.577   2.363  -2.761  0.00  0.00     0.031 H 
BRANCH  25  28
ATOM     28  C   LIG d   1       9.105   1.655  -4.084  0.00  0.00    -0.071 C 
ATOM     29  C   LIG d   1      10.039   2.345  -3.435  0.00  0.00    -0.040 C 
ATOM     30  H   LIG d   1       9.767   2.944  -2.554  0.00  0.00     0.064 H 
BRANCH  29  31
ATOM     31  C   LIG d   1      11.434   2.307  -3.896  0.00  0.00     0.065 C 
ATOM     32  O   LIG d   1      12.211   1.503  -3.416  0.00  0.00    -0.545 OA
ATOM     33  O   LIG d   1      11.853   3.163  -4.848  0.00  0.00    -0.545 OA
ENDBRANCH  29  31
BRANCH  28  34
ATOM     34  C   LIG d   1       9.498   0.711  -5.191  0.00  0.00    -0.043 C 
ATOM     35  H   LIG d   1       8.716   0.704  -5.963  0.00  0.00     0.027 H 
ATOM     36  H   LIG d   1       9.618  -0.303  -4.782  0.00  0.00     0.027 H 
ATOM     37  H   LIG d   1      10.449   1.042  -5.634  0.00  0.00     0.027 H 
ENDBRANCH  28  34
ENDBRANCH  25  28
ENDBRANCH  22  25
ENDBRANCH  14  22
BRANCH   6  38
ATOM     38  C   LIG d   1       3.646  -0.292  -5.296  0.00  0.00    -0.058 C 
ATOM     39  H   LIG d   1       3.098  -1.224  -5.091  0.00  0.00     0.024 H 
ATOM     40  H   LIG d   1       3.560  -0.045  -6.363  0.00  0.00     0.024 H 
ATOM     41  H   LIG d   1       3.218   0.524  -4.694  0.00  0.00     0.024 H 
ENDBRANCH   6  38
BRANCH   1  42
ATOM     42  C   LIG d   1       4.821  -4.330  -5.053  0.00  0.00    -0.040 C 
ATOM     43  H   LIG d   1       4.160  -4.789  -5.803  0.00  0.00     0.028 H 
ATOM     44  H   LIG d   1       4.317  -4.322  -4.075  0.00  0.00     0.028 H 
ATOM     45  H   LIG d   1       5.751  -4.912  -4.980  0.00  0.00     0.028 H 
ENDBRANCH   1  42
BRANCH   9  46
ATOM     46  O   LIG d   1       3.047  -1.925  -3.634  0.00  0.00    -0.391 OA
ATOM     47  H   LIG d   1       2.268  -1.719  -2.884  0.00  0.00     0.210 HD
ENDBRANCH   9  46
BRANCH   2  48
ATOM     48  O   LIG d   1       5.055  -3.626  -7.679  0.00  0.00    -0.503 OA
ATOM     49  H   LIG d   1       4.224  -3.564  -8.397  0.00  0.00     0.292 HD
ENDBRANCH   2  48
TORSDOF 9
ENDMDL
MODEL 3
REMARK VINA RESULT:      -5.3      1.960      5.669
REMARK  9 active torsions:
REMARK  status: ('A' for Active; 'I' for Inactive)
REMARK    1  A    between atoms: C_1  and  C_2 
REMARK    2  A    between atoms: C_3  and  O_27 
REMARK    3  A    between atoms: C_7  and  C_26 
REMARK    4  A    between atoms: C_10  and  O_25 
REMARK    5  A    between atoms: C_15  and  C_17 
REMARK    6  A    between atoms: C_17  and  C_18 
REMARK    7  A    between atoms: C_18  and  C_19 
REMARK    8  A    between atoms: C_19  and  C_24 
REMARK    9  A    between atoms: C_20  and  C_21 
ROOT
ATOM      1  C   LIG d   1       7.066  -2.972  -4.696  0.00  0.00    -0.022 C 
ATOM      2  C   LIG d   1       6.598  -4.155  -5.091  0.00  0.00     0.159 C 
ATOM      3  C   LIG d   1       5.198  -4.299  -5.519  0.00  0.00     0.198 C 
ATOM      4  O   LIG d   1       4.703  -5.394  -5.687  0.00  0.00    -0.289 OA
ATOM      5  C   LIG d   1       4.393  -3.035  -5.743  0.00  0.00     0.020 C 
ATOM      6  C   LIG d   1       4.739  -2.065  -4.608  0.00  0.00    -0.009 C 
ATOM      7  C   LIG d   1       6.229  -1.732  -4.668  0.00  0.00     0.016 C 
ATOM      8  H   LIG d   1       6.435  -1.197  -5.607  0.00  0.00     0.038 H 
ATOM      9  C   LIG d   1       6.610  -0.854  -3.475  0.00  0.00     0.066 C 
ATOM     10  H   LIG d   1       7.699  -0.707  -3.416  0.00  0.00     0.060 H 
ATOM     11  C   LIG d   1       5.866   0.482  -3.575  0.00  0.00    -0.005 C 
ATOM     12  C   LIG d   1       4.385   0.205  -3.708  0.00  0.00    -0.070 C 
ATOM     13  C   LIG d   1       3.518   0.800  -2.926  0.00  0.00    -0.099 C 
ATOM     14  C   LIG d   1       3.926  -0.776  -4.765  0.00  0.00    -0.013 C 
ATOM     15  H   LIG d   1       2.852  -0.979  -4.639  0.00  0.00     0.035 H 
ATOM     16  H   LIG d   1       4.659  -2.599  -6.718  0.00  0.00     0.035 H 
ATOM     17  H   LIG d   1       3.319  -3.276  -5.731  0.00  0.00     0.035 H 
ATOM     18  H   LIG d   1       6.054   1.076  -2.669  0.00  0.00     0.034 H 
ATOM     19  H   LIG d   1       6.222   1.035  -4.457  0.00  0.00     0.034 H 
ATOM     20  H   LIG d   1       2.445   0.589  -3.033  0.00  0.00     0.053 H 
ATOM     21  H   LIG d   1       3.866   1.511  -2.161  0.00  0.00     0.053 H 
ENDROOT
BRANCH  14  22
ATOM     22  C   LIG d   1       4.162  -0.183  -6.156  0.00  0.00    -0.042 C 
ATOM     23  H   LIG d   1       4.863   0.661  -6.081  0.00  0.00     0.027 H 
ATOM     24  H   LIG d   1       4.586  -0.954  -6.817  0.00  0.00     0.027 H 
BRANCH  22  25
ATOM     25  C   LIG d   1       2.832   0.308  -6.733  0.00  0.00    -0.031 C 
ATOM     26  H   LIG d   1       2.080  -0.492  -6.653  0.00  0.00     0.031 H 
ATOM     27  H   LIG d   1       2.493   1.190  -6.171  0.00  0.00     0.031 H 
BRANCH  25  28
ATOM     28  C   LIG d   1       3.020   0.677  -8.182  0.00  0.00    -0.071 C 
ATOM     29  C   LIG d   1       3.357  -0.257  -9.068  0.00  0.00    -0.040 C 
ATOM     30  H   LIG d   1       3.387  -1.314  -8.768  0.00  0.00     0.064 H 
BRANCH  29  31
ATOM     31  C   LIG d   1       3.691   0.126 -10.447  0.00  0.00     0.065 C 
ATOM     32  O   LIG d   1       2.876  -0.030 -11.336  0.00  0.00    -0.545 OA
ATOM     33  O   LIG d   1       4.901   0.649 -10.727  0.00  0.00    -0.545 OA
ENDBRANCH  29  31
BRANCH  28  34
ATOM     34  C   LIG d   1       2.824   2.103  -8.627  0.00  0.00    -0.043 C 
ATOM     35  H   LIG d   1       2.127   2.130  -9.477  0.00  0.00     0.027 H 
ATOM     36  H   LIG d   1       3.792   2.527  -8.933  0.00  0.00     0.027 H 
ATOM     37  H   LIG d   1       2.412   2.693  -7.796  0.00  0.00     0.027 H 
ENDBRANCH  28  34
ENDBRANCH  25  28
ENDBRANCH  22  25
ENDBRANCH  14  22
BRANCH   6  38
ATOM     38  C   LIG d   1       4.415  -2.713  -3.261  0.00  0.00    -0.058 C 
ATOM     39  H   LIG d   1       3.778  -2.037  -2.672  0.00  0.00     0.024 H 
ATOM     40  H   LIG d   1       5.349  -2.907  -2.713  0.00  0.00     0.024 H 
ATOM     41  H   LIG d   1       3.885  -3.662  -3.429  0.00  0.00     0.024 H 
ENDBRANCH   6  38
BRANCH   1  42
ATOM     42  C   LIG d   1       8.504  -2.879  -4.257  0.00  0.00    -0.040 C 
ATOM     43  H   LIG d   1       8.756  -3.752  -3.636  0.00  0.00     0.028 H 
ATOM     44  H   LIG d   1       8.651  -1.959  -3.672  0.00  0.00     0.028 H 
ATOM     45  H   LIG d   1       9.158  -2.859  -5.141  0.00  0.00     0.028 H 
ENDBRANCH   1  42
BRANCH   9  46
ATOM     46  O   LIG d   1       6.246  -1.515  -2.262  0.00  0.00    -0.391 OA
ATOM     47  H   LIG d   1       5.700  -2.470  -2.299  0.00  0.00     0.210 HD
ENDBRANCH   9  46
BRANCH   2  48
ATOM     48  O   LIG d   1       7.420  -5.237  -5.100  0.00  0.00    -0.503 OA
ATOM     49  H   LIG d   1       8.505  -5.105  -4.970  0.00  0.00     0.292 HD
ENDBRANCH   2  48
TORSDOF 9
ENDMDL
MODEL 4
REMARK VINA RESULT:      -5.3      3.181      7.120
REMARK  9 active torsions:
REMARK  status: ('A' for Active; 'I' for Inactive)
REMARK    1  A    between atoms: C_1  and  C_2 
REMARK    2  A    between atoms: C_3  and  O_27 
REMARK    3  A    between atoms: C_7  and  C_26 
REMARK    4  A    between atoms: C_10  and  O_25 
REMARK    5  A    between atoms: C_15  and  C_17 
REMARK    6  A    between atoms: C_17  and  C_18 
REMARK    7  A    between atoms: C_18  and  C_19 
REMARK    8  A    between atoms: C_19  and  C_24 
REMARK    9  A    between atoms: C_20  and  C_21 
ROOT
ATOM      1  C   LIG d   1       4.635  -0.407  -3.429  0.00  0.00    -0.022 C 
ATOM      2  C   LIG d   1       3.826   0.245  -4.262  0.00  0.00     0.159 C 
ATOM      3  C   LIG d   1       3.732  -0.151  -5.676  0.00  0.00     0.198 C 
ATOM      4  O   LIG d   1       3.162   0.550  -6.486  0.00  0.00    -0.289 OA
ATOM      5  C   LIG d   1       4.371  -1.461  -6.087  0.00  0.00     0.020 C 
ATOM      6  C   LIG d   1       5.719  -1.560  -5.364  0.00  0.00    -0.009 C 
ATOM      7  C   LIG d   1       5.480  -1.568  -3.855  0.00  0.00     0.016 C 
ATOM      8  H   LIG d   1       4.917  -2.475  -3.589  0.00  0.00     0.038 H 
ATOM      9  C   LIG d   1       6.821  -1.553  -3.120  0.00  0.00     0.066 C 
ATOM     10  H   LIG d   1       6.683  -1.424  -2.036  0.00  0.00     0.060 H 
ATOM     11  C   LIG d   1       7.585  -2.842  -3.440  0.00  0.00    -0.005 C 
ATOM     12  C   LIG d   1       7.689  -2.985  -4.942  0.00  0.00    -0.070 C 
ATOM     13  C   LIG d   1       8.845  -3.214  -5.516  0.00  0.00    -0.099 C 
ATOM     14  C   LIG d   1       6.428  -2.857  -5.769  0.00  0.00    -0.013 C 
ATOM     15  H   LIG d   1       6.688  -2.836  -6.838  0.00  0.00     0.035 H 
ATOM     16  H   LIG d   1       3.715  -2.296  -5.797  0.00  0.00     0.035 H 
ATOM     17  H   LIG d   1       4.518  -1.472  -7.178  0.00  0.00     0.035 H 
ATOM     18  H   LIG d   1       8.591  -2.792  -3.000  0.00  0.00     0.034 H 
ATOM     19  H   LIG d   1       7.043  -3.703  -3.021  0.00  0.00     0.034 H 
ATOM     20  H   LIG d   1       8.907  -3.315  -6.608  0.00  0.00     0.053 H 
ATOM     21  H   LIG d   1       9.754  -3.304  -4.902  0.00  0.00     0.053 H 
ENDROOT
BRANCH  14  22
ATOM     22  C   LIG d   1       5.511  -4.052  -5.501  0.00  0.00    -0.042 C 
ATOM     23  H   LIG d   1       5.822  -4.551  -4.571  0.00  0.00     0.027 H 
ATOM     24  H   LIG d   1       4.473  -3.703  -5.401  0.00  0.00     0.027 H 
BRANCH  22  25
ATOM     25  C   LIG d   1       5.608  -5.039  -6.666  0.00  0.00    -0.031 C 
ATOM     26  H   LIG d   1       4.699  -4.968  -7.283  0.00  0.00     0.031 H 
ATOM     27  H   LIG d   1       6.489  -4.798  -7.279  0.00  0.00     0.031 H 
BRANCH  25  28
ATOM     28  C   LIG d   1       5.739  -6.440  -6.127  0.00  0.00    -0.071 C 
ATOM     29  C   LIG d   1       4.771  -7.328  -6.337  0.00  0.00    -0.040 C 
ATOM     30  H   LIG d   1       3.930  -7.078  -7.000  0.00  0.00     0.064 H 
BRANCH  29  31
ATOM     31  C   LIG d   1       4.825  -8.644  -5.683  0.00  0.00     0.065 C 
ATOM     32  O   LIG d   1       4.234  -8.827  -4.637  0.00  0.00    -0.545 OA
ATOM     33  O   LIG d   1       5.532  -9.645  -6.243  0.00  0.00    -0.545 OA
ENDBRANCH  29  31
BRANCH  28  34
ATOM     34  C   LIG d   1       6.968  -6.836  -5.349  0.00  0.00    -0.043 C 
ATOM     35  H   LIG d   1       7.443  -5.937  -4.930  0.00  0.00     0.027 H 
ATOM     36  H   LIG d   1       7.677  -7.346  -6.019  0.00  0.00     0.027 H 
ATOM     37  H   LIG d   1       6.683  -7.515  -4.533  0.00  0.00     0.027 H 
ENDBRANCH  28  34
ENDBRANCH  25  28
ENDBRANCH  22  25
ENDBRANCH  14  22
BRANCH   6  38
ATOM     38  C   LIG d   1       6.592  -0.361  -5.736  0.00  0.00    -0.058 C 
ATOM     39  H   LIG d   1       7.117  -0.569  -6.680  0.00  0.00     0.024 H 
ATOM     40  H   LIG d   1       7.328  -0.181  -4.939  0.00  0.00     0.024 H 
ATOM     41  H   LIG d   1       5.958   0.530  -5.857  0.00  0.00     0.024 H 
ENDBRANCH   6  38
BRANCH   1  42
ATOM     42  C   LIG d   1       4.704   0.044  -1.993  0.00  0.00    -0.040 C 
ATOM     43  H   LIG d   1       4.956  -0.813  -1.350  0.00  0.00     0.028 H 
ATOM     44  H   LIG d   1       3.730   0.455  -1.691  0.00  0.00     0.028 H 
ATOM     45  H   LIG d   1       5.477   0.819  -1.889  0.00  0.00     0.028 H 
ENDBRANCH   1  42
BRANCH   9  46
ATOM     46  O   LIG d   1       7.586  -0.424  -3.547  0.00  0.00    -0.391 OA
ATOM     47  H   LIG d   1       7.130   0.578  -3.555  0.00  0.00     0.210 HD
ENDBRANCH   9  46
BRANCH   2  48
ATOM     48  O   LIG d   1       3.080   1.284  -3.802  0.00  0.00    -0.503 OA
ATOM     49  H   LIG d   1       2.327   1.116  -3.017  0.00  0.00     0.292 HD
ENDBRANCH   2  48
TORSDOF 9
ENDMDL
MODEL 5
REMARK VINA RESULT:      -5.2     12.217     14.647
REMARK  9 active torsions:
REMARK  status: ('A' for Active; 'I' for Inactive)
REMARK    1  A    between atoms: C_1  and  C_2 
REMARK    2  A    between atoms: C_3  and  O_27 
REMARK    3  A    between atoms: C_7  and  C_26 
REMARK    4  A    between atoms: C_10  and  O_25 
REMARK    5  A    between atoms: C_15  and  C_17 
REMARK    6  A    between atoms: C_17  and  C_18 
REMARK    7  A    between atoms: C_18  and  C_19 
REMARK    8  A    between atoms: C_19  and  C_24 
REMARK    9  A    between atoms: C_20  and  C_21 
ROOT
ATOM      1  C   LIG d   1      11.352   9.143   0.669  0.00  0.00    -0.022 C 
ATOM      2  C   LIG d   1      11.150   7.829   0.756  0.00  0.00     0.159 C 
ATOM      3  C   LIG d   1      10.610   7.079  -0.388  0.00  0.00     0.198 C 
ATOM      4  O   LIG d   1      10.233   5.932  -0.263  0.00  0.00    -0.289 OA
ATOM      5  C   LIG d   1      10.540   7.784  -1.727  0.00  0.00     0.020 C 
ATOM      6  C   LIG d   1      10.054   9.214  -1.466  0.00  0.00    -0.009 C 
ATOM      7  C   LIG d   1      11.063   9.931  -0.570  0.00  0.00     0.016 C 
ATOM      8  H   LIG d   1      12.016  10.022  -1.111  0.00  0.00     0.038 H 
ATOM      9  C   LIG d   1      10.535  11.322  -0.210  0.00  0.00     0.066 C 
ATOM     10  H   LIG d   1      11.174  11.812   0.539  0.00  0.00     0.060 H 
ATOM     11  C   LIG d   1      10.420  12.162  -1.487  0.00  0.00    -0.005 C 
ATOM     12  C   LIG d   1       9.577  11.407  -2.491  0.00  0.00    -0.070 C 
ATOM     13  C   LIG d   1       8.563  11.986  -3.085  0.00  0.00    -0.099 C 
ATOM     14  C   LIG d   1       9.932   9.968  -2.794  0.00  0.00    -0.013 C 
ATOM     15  H   LIG d   1       9.149   9.519  -3.422  0.00  0.00     0.035 H 
ATOM     16  H   LIG d   1      11.539   7.793  -2.189  0.00  0.00     0.035 H 
ATOM     17  H   LIG d   1       9.836   7.252  -2.386  0.00  0.00     0.035 H 
ATOM     18  H   LIG d   1       9.944  13.125  -1.251  0.00  0.00     0.034 H 
ATOM     19  H   LIG d   1      11.424  12.339  -1.901  0.00  0.00     0.034 H 
ATOM     20  H   LIG d   1       7.958  11.426  -3.812  0.00  0.00     0.053 H 
ATOM     21  H   LIG d   1       8.316  13.033  -2.855  0.00  0.00     0.053 H 
ENDROOT
BRANCH  14  22
ATOM     22  C   LIG d   1      11.265   9.911  -3.544  0.00  0.00    -0.042 C 
ATOM     23  H   LIG d   1      11.790  10.871  -3.431  0.00  0.00     0.027 H 
ATOM     24  H   LIG d   1      11.886   9.103  -3.129  0.00  0.00     0.027 H 
BRANCH  22  25
ATOM     25  C   LIG d   1      11.004   9.644  -5.028  0.00  0.00    -0.031 C 
ATOM     26  H   LIG d   1      11.841   9.066  -5.449  0.00  0.00     0.031 H 
ATOM     27  H   LIG d   1      10.070   9.074  -5.139  0.00  0.00     0.031 H 
BRANCH  25  28
ATOM     28  C   LIG d   1      10.882  10.956  -5.760  0.00  0.00    -0.071 C 
ATOM     29  C   LIG d   1       9.932  11.120  -6.677  0.00  0.00    -0.040 C 
ATOM     30  H   LIG d   1       9.166  10.345  -6.819  0.00  0.00     0.064 H 
BRANCH  29  31
ATOM     31  C   LIG d   1       9.907  12.339  -7.499  0.00  0.00     0.065 C 
ATOM     32  O   LIG d   1       9.196  13.272  -7.181  0.00  0.00    -0.545 OA
ATOM     33  O   LIG d   1      10.672  12.419  -8.606  0.00  0.00    -0.545 OA
ENDBRANCH  29  31
BRANCH  28  34
ATOM     34  C   LIG d   1      11.836  12.082  -5.453  0.00  0.00    -0.043 C 
ATOM     35  H   LIG d   1      12.065  12.631  -6.377  0.00  0.00     0.027 H 
ATOM     36  H   LIG d   1      12.764  11.670  -5.031  0.00  0.00     0.027 H 
ATOM     37  H   LIG d   1      11.374  12.765  -4.725  0.00  0.00     0.027 H 
ENDBRANCH  28  34
ENDBRANCH  25  28
ENDBRANCH  22  25
ENDBRANCH  14  22
BRANCH   6  38
ATOM     38  C   LIG d   1       8.692   9.176  -0.772  0.00  0.00    -0.058 C 
ATOM     39  H   LIG d   1       8.814   9.428   0.292  0.00  0.00     0.024 H 
ATOM     40  H   LIG d   1       8.261   8.168  -0.862  0.00  0.00     0.024 H 
ATOM     41  H   LIG d   1       8.019   9.906  -1.246  0.00  0.00     0.024 H 
ENDBRANCH   6  38
BRANCH   1  42
ATOM     42  C   LIG d   1      11.896   9.868   1.872  0.00  0.00    -0.040 C 
ATOM     43  H   LIG d   1      11.218   9.724   2.726  0.00  0.00     0.028 H 
ATOM     44  H   LIG d   1      11.979  10.942   1.647  0.00  0.00     0.028 H 
ATOM     45  H   LIG d   1      12.890   9.469   2.123  0.00  0.00     0.028 H 
ENDBRANCH   1  42
BRANCH   9  46
ATOM     46  O   LIG d   1       9.250  11.200   0.401  0.00  0.00    -0.391 OA
ATOM     47  H   LIG d   1       9.020  11.770   1.315  0.00  0.00     0.210 HD
ENDBRANCH   9  46
BRANCH   2  48
ATOM     48  O   LIG d   1      11.446   7.177   1.912  0.00  0.00    -0.503 OA
ATOM     49  H   LIG d   1      12.439   6.725   2.049  0.00  0.00     0.292 HD
ENDBRANCH   2  48
TORSDOF 9
ENDMDL
MODEL 6
REMARK VINA RESULT:      -5.0     10.190     13.766
REMARK  9 active torsions:
REMARK  status: ('A' for Active; 'I' for Inactive)
REMARK    1  A    between atoms: C_1  and  C_2 
REMARK    2  A    between atoms: C_3  and  O_27 
REMARK    3  A    between atoms: C_7  and  C_26 
REMARK    4  A    between atoms: C_10  and  O_25 
REMARK    5  A    between atoms: C_15  and  C_17 
REMARK    6  A    between atoms: C_17  and  C_18 
REMARK    7  A    between atoms: C_18  and  C_19 
REMARK    8  A    between atoms: C_19  and  C_24 
REMARK    9  A    between atoms: C_20  and  C_21 
ROOT
ATOM      1  C   LIG d   1      11.442   9.358   0.806  0.00  0.00    -0.022 C 
ATOM      2  C   LIG d   1      11.247   8.069   1.079  0.00  0.00     0.159 C 
ATOM      3  C   LIG d   1      10.742   7.155   0.043  0.00  0.00     0.198 C 
ATOM      4  O   LIG d   1      10.370   6.034   0.324  0.00  0.00    -0.289 OA
ATOM      5  C   LIG d   1      10.700   7.657  -1.385  0.00  0.00     0.020 C 
ATOM      6  C   LIG d   1      10.198   9.104  -1.346  0.00  0.00    -0.009 C 
ATOM      7  C   LIG d   1      11.178   9.955  -0.541  0.00  0.00     0.016 C 
ATOM      8  H   LIG d   1      12.144   9.977  -1.066  0.00  0.00     0.038 H 
ATOM      9  C   LIG d   1      10.631  11.377  -0.399  0.00  0.00     0.066 C 
ATOM     10  H   LIG d   1      11.247  11.978   0.287  0.00  0.00     0.060 H 
ATOM     11  C   LIG d   1      10.541  12.022  -1.786  0.00  0.00    -0.005 C 
ATOM     12  C   LIG d   1       9.730  11.121  -2.690  0.00  0.00    -0.070 C 
ATOM     13  C   LIG d   1       8.726  11.596  -3.386  0.00  0.00    -0.099 C 
ATOM     14  C   LIG d   1      10.103   9.657  -2.772  0.00  0.00    -0.013 C 
ATOM     15  H   LIG d   1       9.339   9.112  -3.347  0.00  0.00     0.035 H 
ATOM     16  H   LIG d   1      11.710   7.611  -1.820  0.00  0.00     0.035 H 
ATOM     17  H   LIG d   1      10.018   7.027  -1.976  0.00  0.00     0.035 H 
ATOM     18  H   LIG d   1      10.053  13.004  -1.704  0.00  0.00     0.034 H 
ATOM     19  H   LIG d   1      11.554  12.149  -2.198  0.00  0.00     0.034 H 
ATOM     20  H   LIG d   1       8.145  10.930  -4.038  0.00  0.00     0.053 H 
ATOM     21  H   LIG d   1       8.466  12.663  -3.316  0.00  0.00     0.053 H 
ENDROOT
BRANCH  14  22
ATOM     22  C   LIG d   1      11.455   9.507  -3.474  0.00  0.00    -0.042 C 
ATOM     23  H   LIG d   1      12.100  10.358  -3.212  0.00  0.00     0.027 H 
ATOM     24  H   LIG d   1      11.934   8.571  -3.152  0.00  0.00     0.027 H 
BRANCH  22  25
ATOM     25  C   LIG d   1      11.242   9.476  -4.989  0.00  0.00    -0.031 C 
ATOM     26  H   LIG d   1      10.702  10.383  -5.302  0.00  0.00     0.031 H 
ATOM     27  H   LIG d   1      12.218   9.436  -5.495  0.00  0.00     0.031 H 
BRANCH  25  28
ATOM     28  C   LIG d   1      10.434   8.259  -5.357  0.00  0.00    -0.071 C 
ATOM     29  C   LIG d   1      10.883   7.044  -5.050  0.00  0.00    -0.040 C 
ATOM     30  H   LIG d   1      11.783   6.932  -4.428  0.00  0.00     0.064 H 
BRANCH  29  31
ATOM     31  C   LIG d   1      10.176   5.853  -5.543  0.00  0.00     0.065 C 
ATOM     32  O   LIG d   1      10.468   5.376  -6.622  0.00  0.00    -0.545 OA
ATOM     33  O   LIG d   1       9.203   5.292  -4.798  0.00  0.00    -0.545 OA
ENDBRANCH  29  31
BRANCH  28  34
ATOM     34  C   LIG d   1       9.117   8.416  -6.073  0.00  0.00    -0.043 C 
ATOM     35  H   LIG d   1       9.300   8.655  -7.131  0.00  0.00     0.027 H 
ATOM     36  H   LIG d   1       8.543   9.231  -5.608  0.00  0.00     0.027 H 
ATOM     37  H   LIG d   1       8.547   7.479  -6.001  0.00  0.00     0.027 H 
ENDBRANCH  28  34
ENDBRANCH  25  28
ENDBRANCH  22  25
ENDBRANCH  14  22
BRANCH   6  38
ATOM     38  C   LIG d   1       8.818   9.153  -0.687  0.00  0.00    -0.058 C 
ATOM     39  H   LIG d   1       8.736  10.061  -0.072  0.00  0.00     0.024 H 
ATOM     40  H   LIG d   1       8.684   8.266  -0.050  0.00  0.00     0.024 H 
ATOM     41  H   LIG d   1       8.040   9.165  -1.465  0.00  0.00     0.024 H 
ENDBRANCH   6  38
BRANCH   1  42
ATOM     42  C   LIG d   1      11.950  10.256   1.904  0.00  0.00    -0.040 C 
ATOM     43  H   LIG d   1      11.438  11.228   1.851  0.00  0.00     0.028 H 
ATOM     44  H   LIG d   1      13.033  10.405   1.785  0.00  0.00     0.028 H 
ATOM     45  H   LIG d   1      11.750   9.791   2.881  0.00  0.00     0.028 H 
ENDBRANCH   1  42
BRANCH   9  46
ATOM     46  O   LIG d   1       9.331  11.331   0.193  0.00  0.00    -0.391 OA
ATOM     47  H   LIG d   1       9.218  11.458   1.281  0.00  0.00     0.210 HD
ENDBRANCH   9  46
BRANCH   2  48
ATOM     48  O   LIG d   1      11.519   7.594   2.324  0.00  0.00    -0.503 OA
ATOM     49  H   LIG d   1      10.792   7.737   3.137  0.00  0.00     0.292 HD
ENDBRANCH   2  48
TORSDOF 9
ENDMDL
MODEL 7
REMARK VINA RESULT:      -5.0      1.861      2.772
REMARK  9 active torsions:
REMARK  status: ('A' for Active; 'I' for Inactive)
REMARK    1  A    between atoms: C_1  and  C_2 
REMARK    2  A    between atoms: C_3  and  O_27 
REMARK    3  A    between atoms: C_7  and  C_26 
REMARK    4  A    between atoms: C_10  and  O_25 
REMARK    5  A    between atoms: C_15  and  C_17 
REMARK    6  A    between atoms: C_17  and  C_18 
REMARK    7  A    between atoms: C_18  and  C_19 
REMARK    8  A    between atoms: C_19  and  C_24 
REMARK    9  A    between atoms: C_20  and  C_21 
ROOT
ATOM      1  C   LIG d   1       1.989  -4.413 -10.102  0.00  0.00    -0.022 C 
ATOM      2  C   LIG d   1       2.731  -5.223  -9.348  0.00  0.00     0.159 C 
ATOM      3  C   LIG d   1       3.751  -4.674  -8.441  0.00  0.00     0.198 C 
ATOM      4  O   LIG d   1       4.565  -5.395  -7.904  0.00  0.00    -0.289 OA
ATOM      5  C   LIG d   1       3.752  -3.178  -8.201  0.00  0.00     0.020 C 
ATOM      6  C   LIG d   1       3.496  -2.498  -9.550  0.00  0.00    -0.009 C 
ATOM      7  C   LIG d   1       2.127  -2.923 -10.076  0.00  0.00     0.016 C 
ATOM      8  H   LIG d   1       1.352  -2.551  -9.390  0.00  0.00     0.038 H 
ATOM      9  C   LIG d   1       1.907  -2.340 -11.474  0.00  0.00     0.066 C 
ATOM     10  H   LIG d   1       0.990  -2.736 -11.934  0.00  0.00     0.060 H 
ATOM     11  C   LIG d   1       1.876  -0.811 -11.381  0.00  0.00    -0.005 C 
ATOM     12  C   LIG d   1       3.137  -0.340 -10.692  0.00  0.00    -0.070 C 
ATOM     13  C   LIG d   1       3.883   0.598 -11.223  0.00  0.00    -0.099 C 
ATOM     14  C   LIG d   1       3.519  -0.976  -9.373  0.00  0.00    -0.013 C 
ATOM     15  H   LIG d   1       4.523  -0.637  -9.076  0.00  0.00     0.035 H 
ATOM     16  H   LIG d   1       2.958  -2.922  -7.483  0.00  0.00     0.035 H 
ATOM     17  H   LIG d   1       4.727  -2.872  -7.793  0.00  0.00     0.035 H 
ATOM     18  H   LIG d   1       1.823  -0.383 -12.393  0.00  0.00     0.034 H 
ATOM     19  H   LIG d   1       0.995  -0.496 -10.803  0.00  0.00     0.034 H 
ATOM     20  H   LIG d   1       4.796   0.930 -10.711  0.00  0.00     0.053 H 
ATOM     21  H   LIG d   1       3.593   1.052 -12.183  0.00  0.00     0.053 H 
ENDROOT
BRANCH  14  22
ATOM     22  C   LIG d   1       2.515  -0.567  -8.292  0.00  0.00    -0.042 C 
ATOM     23  H   LIG d   1       1.585  -0.222  -8.768  0.00  0.00     0.027 H 
ATOM     24  H   LIG d   1       2.298  -1.432  -7.647  0.00  0.00     0.027 H 
BRANCH  22  25
ATOM     25  C   LIG d   1       3.107   0.564  -7.448  0.00  0.00    -0.031 C 
ATOM     26  H   LIG d   1       4.074   0.872  -7.874  0.00  0.00     0.031 H 
ATOM     27  H   LIG d   1       2.416   1.419  -7.446  0.00  0.00     0.031 H 
BRANCH  25  28
ATOM     28  C   LIG d   1       3.313   0.080  -6.036  0.00  0.00    -0.071 C 
ATOM     29  C   LIG d   1       4.389  -0.640  -5.729  0.00  0.00    -0.040 C 
ATOM     30  H   LIG d   1       5.184  -0.786  -6.474  0.00  0.00     0.064 H 
BRANCH  29  31
ATOM     31  C   LIG d   1       4.514  -1.242  -4.394  0.00  0.00     0.065 C 
ATOM     32  O   LIG d   1       5.128  -0.661  -3.520  0.00  0.00    -0.545 OA
ATOM     33  O   LIG d   1       3.948  -2.438  -4.139  0.00  0.00    -0.545 OA
ENDBRANCH  29  31
BRANCH  28  34
ATOM     34  C   LIG d   1       2.300   0.413  -4.970  0.00  0.00    -0.043 C 
ATOM     35  H   LIG d   1       2.419   1.463  -4.667  0.00  0.00     0.027 H 
ATOM     36  H   LIG d   1       2.457  -0.240  -4.100  0.00  0.00     0.027 H 
ATOM     37  H   LIG d   1       1.286   0.258  -5.367  0.00  0.00     0.027 H 
ENDBRANCH  28  34
ENDBRANCH  25  28
ENDBRANCH  22  25
ENDBRANCH  14  22
BRANCH   6  38
ATOM     38  C   LIG d   1       4.578  -2.913 -10.548  0.00  0.00    -0.058 C 
ATOM     39  H   LIG d   1       4.138  -3.565 -11.317  0.00  0.00     0.024 H 
ATOM     40  H   LIG d   1       5.376  -3.455 -10.021  0.00  0.00     0.024 H 
ATOM     41  H   LIG d   1       4.999  -2.015 -11.027  0.00  0.00     0.024 H 
ENDBRANCH   6  38
BRANCH   1  42
ATOM     42  C   LIG d   1       0.966  -5.026 -11.023  0.00  0.00    -0.040 C 
ATOM     43  H   LIG d   1       1.299  -6.029 -11.327  0.00  0.00     0.028 H 
ATOM     44  H   LIG d   1       0.848  -4.392 -11.914  0.00  0.00     0.028 H 
ATOM     45  H   LIG d   1       0.002  -5.104 -10.499  0.00  0.00     0.028 H 
ENDBRANCH   1  42
BRANCH   9  46
ATOM     46  O   LIG d   1       2.974  -2.747 -12.333  0.00  0.00    -0.391 OA
ATOM     47  H   LIG d   1       3.274  -3.805 -12.373  0.00  0.00     0.210 HD
ENDBRANCH   9  46
BRANCH   2  48
ATOM     48  O   LIG d   1       2.544  -6.568  -9.417  0.00  0.00    -0.503 OA
ATOM     49  H   LIG d   1       2.741  -7.103 -10.357  0.00  0.00     0.292 HD
ENDBRANCH   2  48
TORSDOF 9
ENDMDL
MODEL 8
REMARK VINA RESULT:      -4.9      3.649      5.251
REMARK  9 active torsions:
REMARK  status: ('A' for Active; 'I' for Inactive)
REMARK    1  A    between atoms: C_1  and  C_2 
REMARK    2  A    between atoms: C_3  and  O_27 
REMARK    3  A    between atoms: C_7  and  C_26 
REMARK    4  A    between atoms: C_10  and  O_25 
REMARK    5  A    between atoms: C_15  and  C_17 
REMARK    6  A    between atoms: C_17  and  C_18 
REMARK    7  A    between atoms: C_18  and  C_19 
REMARK    8  A    between atoms: C_19  and  C_24 
REMARK    9  A    between atoms: C_20  and  C_21 
ROOT
ATOM      1  C   LIG d   1       7.969  -5.639  -4.904  0.00  0.00    -0.022 C 
ATOM      2  C   LIG d   1       8.971  -5.949  -4.083  0.00  0.00     0.159 C 
ATOM      3  C   LIG d   1       9.626  -4.908  -3.276  0.00  0.00     0.198 C 
ATOM      4  O   LIG d   1      10.660  -5.133  -2.683  0.00  0.00    -0.289 OA
ATOM      5  C   LIG d   1       8.968  -3.545  -3.211  0.00  0.00     0.020 C 
ATOM      6  C   LIG d   1       8.475  -3.207  -4.623  0.00  0.00    -0.009 C 
ATOM      7  C   LIG d   1       7.441  -4.246  -5.055  0.00  0.00     0.016 C 
ATOM      8  H   LIG d   1       6.565  -4.172  -4.395  0.00  0.00     0.038 H 
ATOM      9  C   LIG d   1       7.024  -3.986  -6.504  0.00  0.00     0.066 C 
ATOM     10  H   LIG d   1       6.382  -4.793  -6.888  0.00  0.00     0.060 H 
ATOM     11  C   LIG d   1       6.326  -2.624  -6.590  0.00  0.00    -0.005 C 
ATOM     12  C   LIG d   1       7.238  -1.573  -5.997  0.00  0.00    -0.070 C 
ATOM     13  C   LIG d   1       7.513  -0.474  -6.655  0.00  0.00    -0.099 C 
ATOM     14  C   LIG d   1       7.827  -1.819  -4.624  0.00  0.00    -0.013 C 
ATOM     15  H   LIG d   1       8.575  -1.044  -4.399  0.00  0.00     0.035 H 
ATOM     16  H   LIG d   1       8.125  -3.578  -2.505  0.00  0.00     0.035 H 
ATOM     17  H   LIG d   1       9.703  -2.799  -2.871  0.00  0.00     0.035 H 
ATOM     18  H   LIG d   1       6.117  -2.384  -7.642  0.00  0.00     0.034 H 
ATOM     19  H   LIG d   1       5.382  -2.659  -6.026  0.00  0.00     0.034 H 
ATOM     20  H   LIG d   1       8.177   0.281  -6.213  0.00  0.00     0.053 H 
ATOM     21  H   LIG d   1       7.078  -0.308  -7.652  0.00  0.00     0.053 H 
ENDROOT
BRANCH  14  22
ATOM     22  C   LIG d   1       6.719  -1.765  -3.570  0.00  0.00    -0.042 C 
ATOM     23  H   LIG d   1       5.771  -2.097  -4.017  0.00  0.00     0.027 H 
ATOM     24  H   LIG d   1       6.979  -2.426  -2.730  0.00  0.00     0.027 H 
BRANCH  22  25
ATOM     25  C   LIG d   1       6.569  -0.329  -3.062  0.00  0.00    -0.031 C 
ATOM     26  H   LIG d   1       6.948  -0.263  -2.031  0.00  0.00     0.031 H 
ATOM     27  H   LIG d   1       7.142   0.350  -3.709  0.00  0.00     0.031 H 
BRANCH  25  28
ATOM     28  C   LIG d   1       5.114   0.061  -3.087  0.00  0.00    -0.071 C 
ATOM     29  C   LIG d   1       4.346  -0.298  -4.113  0.00  0.00    -0.040 C 
ATOM     30  H   LIG d   1       4.740  -0.975  -4.884  0.00  0.00     0.064 H 
BRANCH  29  31
ATOM     31  C   LIG d   1       2.970   0.212  -4.215  0.00  0.00     0.065 C 
ATOM     32  O   LIG d   1       2.042  -0.460  -3.809  0.00  0.00    -0.545 OA
ATOM     33  O   LIG d   1       2.740   1.423  -4.760  0.00  0.00    -0.545 OA
ENDBRANCH  29  31
BRANCH  28  34
ATOM     34  C   LIG d   1       4.528   0.858  -1.950  0.00  0.00    -0.043 C 
ATOM     35  H   LIG d   1       5.337   1.354  -1.394  0.00  0.00     0.027 H 
ATOM     36  H   LIG d   1       3.979   0.185  -1.276  0.00  0.00     0.027 H 
ATOM     37  H   LIG d   1       3.839   1.617  -2.351  0.00  0.00     0.027 H 
ENDBRANCH  28  34
ENDBRANCH  25  28
ENDBRANCH  22  25
ENDBRANCH  14  22
BRANCH   6  38
ATOM     38  C   LIG d   1       9.654  -3.223  -5.597  0.00  0.00    -0.058 C 
ATOM     39  H   LIG d   1      10.578  -3.463  -5.052  0.00  0.00     0.024 H 
ATOM     40  H   LIG d   1       9.753  -2.235  -6.069  0.00  0.00     0.024 H 
ATOM     41  H   LIG d   1       9.478  -3.984  -6.373  0.00  0.00     0.024 H 
ENDBRANCH   6  38
BRANCH   1  42
ATOM     42  C   LIG d   1       7.338  -6.739  -5.716  0.00  0.00    -0.040 C 
ATOM     43  H   LIG d   1       6.503  -7.180  -5.152  0.00  0.00     0.028 H 
ATOM     44  H   LIG d   1       8.088  -7.515  -5.928  0.00  0.00     0.028 H 
ATOM     45  H   LIG d   1       6.961  -6.326  -6.663  0.00  0.00     0.028 H 
ENDBRANCH   1  42
BRANCH   9  46
ATOM     46  O   LIG d   1       8.182  -3.985  -7.341  0.00  0.00    -0.391 OA
ATOM     47  H   LIG d   1       9.022  -4.660  -7.118  0.00  0.00     0.210 HD
ENDBRANCH   9  46
BRANCH   2  48
ATOM     48  O   LIG d   1       9.390  -7.239  -3.989  0.00  0.00    -0.503 OA
ATOM     49  H   LIG d   1      10.463  -7.463  -3.890  0.00  0.00     0.292 HD
ENDBRANCH   2  48
TORSDOF 9
ENDMDL
MODEL 9
REMARK VINA RESULT:      -4.9      8.337     11.936
REMARK  9 active torsions:
REMARK  status: ('A' for Active; 'I' for Inactive)
REMARK    1  A    between atoms: C_1  and  C_2 
REMARK    2  A    between atoms: C_3  and  O_27 
REMARK    3  A    between atoms: C_7  and  C_26 
REMARK    4  A    between atoms: C_10  and  O_25 
REMARK    5  A    between atoms: C_15  and  C_17 
REMARK    6  A    between atoms: C_17  and  C_18 
REMARK    7  A    between atoms: C_18  and  C_19 
REMARK    8  A    between atoms: C_19  and  C_24 
REMARK    9  A    between atoms: C_20  and  C_21 
ROOT
ATOM      1  C   LIG d   1      11.756   8.457  -0.547  0.00  0.00    -0.022 C 
ATOM      2  C   LIG d   1      11.531   7.774   0.575  0.00  0.00     0.159 C 
ATOM      3  C   LIG d   1      10.990   6.408   0.522  0.00  0.00     0.198 C 
ATOM      4  O   LIG d   1      10.592   5.852   1.525  0.00  0.00    -0.289 OA
ATOM      5  C   LIG d   1      10.945   5.716  -0.825  0.00  0.00     0.020 C 
ATOM      6  C   LIG d   1      10.481   6.752  -1.855  0.00  0.00    -0.009 C 
ATOM      7  C   LIG d   1      11.492   7.896  -1.909  0.00  0.00     0.016 C 
ATOM      8  H   LIG d   1      12.453   7.504  -2.275  0.00  0.00     0.038 H 
ATOM      9  C   LIG d   1      10.985   8.989  -2.850  0.00  0.00     0.066 C 
ATOM     10  H   LIG d   1      11.624   9.884  -2.809  0.00  0.00     0.060 H 
ATOM     11  C   LIG d   1      10.896   8.427  -4.273  0.00  0.00    -0.005 C 
ATOM     12  C   LIG d   1      10.051   7.173  -4.249  0.00  0.00    -0.070 C 
ATOM     13  C   LIG d   1       9.052   7.020  -5.083  0.00  0.00    -0.099 C 
ATOM     14  C   LIG d   1      10.385   6.097  -3.238  0.00  0.00    -0.013 C 
ATOM     15  H   LIG d   1       9.600   5.326  -3.246  0.00  0.00     0.035 H 
ATOM     16  H   LIG d   1      11.949   5.342  -1.079  0.00  0.00     0.035 H 
ATOM     17  H   LIG d   1      10.240   4.872  -0.782  0.00  0.00     0.035 H 
ATOM     18  H   LIG d   1      10.434   9.174  -4.935  0.00  0.00     0.034 H 
ATOM     19  H   LIG d   1      11.907   8.188  -4.637  0.00  0.00     0.034 H 
ATOM     20  H   LIG d   1       8.446   6.104  -5.054  0.00  0.00     0.053 H 
ATOM     21  H   LIG d   1       8.821   7.810  -5.813  0.00  0.00     0.053 H 
ENDROOT
BRANCH  14  22
ATOM     22  C   LIG d   1      11.724   5.450  -3.596  0.00  0.00    -0.042 C 
ATOM     23  H   LIG d   1      12.436   6.228  -3.909  0.00  0.00     0.027 H 
ATOM     24  H   LIG d   1      12.123   4.921  -2.718  0.00  0.00     0.027 H 
BRANCH  22  25
ATOM     25  C   LIG d   1      11.519   4.455  -4.741  0.00  0.00    -0.031 C 
ATOM     26  H   LIG d   1      10.981   4.949  -5.564  0.00  0.00     0.031 H 
ATOM     27  H   LIG d   1      12.497   4.103  -5.100  0.00  0.00     0.031 H 
BRANCH  25  28
ATOM     28  C   LIG d   1      10.714   3.281  -4.247  0.00  0.00    -0.071 C 
ATOM     29  C   LIG d   1       9.601   2.923  -4.882  0.00  0.00    -0.040 C 
ATOM     30  H   LIG d   1       9.330   3.408  -5.831  0.00  0.00     0.064 H 
BRANCH  29  31
ATOM     31  C   LIG d   1       8.733   1.881  -4.315  0.00  0.00     0.065 C 
ATOM     32  O   LIG d   1       7.896   2.173  -3.484  0.00  0.00    -0.545 OA
ATOM     33  O   LIG d   1       8.869   0.601  -4.716  0.00  0.00    -0.545 OA
ENDBRANCH  29  31
BRANCH  28  34
ATOM     34  C   LIG d   1      11.169   2.512  -3.034  0.00  0.00    -0.043 C 
ATOM     35  H   LIG d   1      10.455   1.703  -2.823  0.00  0.00     0.027 H 
ATOM     36  H   LIG d   1      11.221   3.190  -2.169  0.00  0.00     0.027 H 
ATOM     37  H   LIG d   1      12.164   2.083  -3.224  0.00  0.00     0.027 H 
ENDBRANCH  28  34
ENDBRANCH  25  28
ENDBRANCH  22  25
ENDBRANCH  14  22
BRANCH   6  38
ATOM     38  C   LIG d   1       9.111   7.300  -1.453  0.00  0.00    -0.058 C 
ATOM     39  H   LIG d   1       9.210   7.895  -0.533  0.00  0.00     0.024 H 
ATOM     40  H   LIG d   1       8.419   6.464  -1.275  0.00  0.00     0.024 H 
ATOM     41  H   LIG d   1       8.719   7.936  -2.260  0.00  0.00     0.024 H 
ENDBRANCH   6  38
BRANCH   1  42
ATOM     42  C   LIG d   1      12.300   9.858  -0.439  0.00  0.00    -0.040 C 
ATOM     43  H   LIG d   1      11.715  10.530  -1.084  0.00  0.00     0.028 H 
ATOM     44  H   LIG d   1      13.353   9.869  -0.757  0.00  0.00     0.028 H 
ATOM     45  H   LIG d   1      12.229  10.200   0.604  0.00  0.00     0.028 H 
ENDBRANCH   1  42
BRANCH   9  46
ATOM     46  O   LIG d   1       9.691   9.422  -2.425  0.00  0.00    -0.391 OA
ATOM     47  H   LIG d   1       9.273  10.365  -2.810  0.00  0.00     0.210 HD
ENDBRANCH   9  46
BRANCH   2  48
ATOM     48  O   LIG d   1      11.804   8.346   1.778  0.00  0.00    -0.503 OA
ATOM     49  H   LIG d   1      11.890   7.718   2.678  0.00  0.00     0.292 HD
ENDBRANCH   2  48
TORSDOF 9
ENDMDL
