MODEL 1
REMARK VINA RESULT:      -6.7      0.000      0.000
REMARK  5 active torsions:
REMARK  status: ('A' for Active; 'I' for Inactive)
REMARK    1  A    between atoms: C_1  and  N_42 
REMARK    2  A    between atoms: C_3  and  N_19 
REMARK    3  A    between atoms: C_6  and  C_8 
REMARK    4  A    between atoms: C_10  and  C_13 
REMARK       I    between atoms: N_19  and  C_20 
REMARK    5  A    between atoms: C_20  and  C_22 
ROOT
ATOM      1  C   LIG d   1       8.624  -0.280  -4.492  0.00  0.00    -0.012 C 
ATOM      2  C   LIG d   1       7.300   0.481  -4.267  0.00  0.00     0.069 C 
ATOM      3  H   LIG d   1       6.774   0.625  -5.211  0.00  0.00     0.055 H 
ATOM      4  C   LIG d   1       7.772   1.840  -3.685  0.00  0.00     0.023 C 
ATOM      5  C   LIG d   1       9.091   2.072  -4.464  0.00  0.00     0.061 C 
ATOM      6  H   LIG d   1       8.884   2.491  -5.449  0.00  0.00     0.095 H 
ATOM      7  H   LIG d   1       8.818  -0.944  -3.651  0.00  0.00     0.083 H 
ATOM      8  H   LIG d   1       8.568  -0.857  -5.415  0.00  0.00     0.083 H 
ATOM      9  H   LIG d   1       7.050   2.627  -3.899  0.00  0.00     0.035 H 
ATOM     10  H   LIG d   1       7.960   1.762  -2.615  0.00  0.00     0.035 H 
ATOM     11  N   LIG d   1       9.694   0.731  -4.574  0.00  0.00     0.243 N 
ATOM     12  H   LIG d   1      10.353   0.591  -3.800  0.00  0.00     0.204 HD
ENDROOT
BRANCH   5  13
ATOM     13  C   LIG d   1      10.004   2.985  -3.688  0.00  0.00     0.276 A 
ATOM     14  O   LIG d   1      11.331   3.079  -3.816  0.00  0.00    -0.332 OA
ATOM     15  N   LIG d   1      11.767   3.908  -3.045  0.00  0.00    -0.056 NA
ATOM     16  C   LIG d   1      10.790   4.430  -2.349  0.00  0.00     0.204 A 
ATOM     17  N   LIG d   1       9.645   3.843  -2.764  0.00  0.00    -0.186 NA
BRANCH  16  18
ATOM     18  C   LIG d   1      10.915   5.477  -1.305  0.00  0.00     0.041 A 
ATOM     19  C   LIG d   1      11.816   5.323  -0.254  0.00  0.00     0.038 A 
ATOM     20  N   LIG d   1      11.932   6.254   0.671  0.00  0.00    -0.263 NA
ATOM     21  H   LIG d   1      12.428   4.435  -0.199  0.00  0.00     0.084 H 
ATOM     22  C   LIG d   1      11.202   7.353   0.648  0.00  0.00     0.028 A 
ATOM     23  C   LIG d   1      10.281   7.577  -0.359  0.00  0.00    -0.043 A 
ATOM     24  H   LIG d   1      11.325   8.089   1.429  0.00  0.00     0.083 H 
ATOM     25  C   LIG d   1      10.127   6.630  -1.357  0.00  0.00    -0.048 A 
ATOM     26  H   LIG d   1       9.689   8.480  -0.367  0.00  0.00     0.063 H 
ATOM     27  H   LIG d   1       9.416   6.778  -2.157  0.00  0.00     0.063 H 
ENDBRANCH  16  18
ENDBRANCH   5  13
BRANCH  11  28
ATOM     28  C   LIG d   1      10.424   0.598  -5.862  0.00  0.00    -0.042 C 
ATOM     29  H   LIG d   1      11.442   0.259  -5.675  0.00  0.00     0.078 H 
ATOM     30  H   LIG d   1       9.910  -0.127  -6.494  0.00  0.00     0.078 H 
ATOM     31  H   LIG d   1      10.448   1.565  -6.365  0.00  0.00     0.078 H 
ENDBRANCH  11  28
BRANCH   2  32
ATOM     32  N   LIG d   1       6.453  -0.228  -3.305  0.00  0.00    -0.307 N 
ATOM     33  C   LIG d   1       5.124  -0.007  -3.287  0.00  0.00     0.216 C 
ATOM     34  O   LIG d   1       4.630   0.780  -4.066  0.00  0.00    -0.276 OA
ATOM     35  H   LIG d   1       6.849  -0.858  -2.682  0.00  0.00     0.149 HD
BRANCH  33  36
ATOM     36  C   LIG d   1       4.253  -0.736  -2.297  0.00  0.00     0.036 A 
ATOM     37  C   LIG d   1       2.839  -1.116  -2.746  0.00  0.00    -0.041 A 
ATOM     38  C   LIG d   1       3.911  -2.198  -2.599  0.00  0.00    -0.041 A 
ATOM     39  H   LIG d   1       2.540  -0.837  -3.756  0.00  0.00     0.027 H 
ATOM     40  H   LIG d   1       2.049  -1.086  -1.996  0.00  0.00     0.027 H 
ATOM     41  H   LIG d   1       3.826  -2.879  -1.753  0.00  0.00     0.027 H 
ATOM     42  H   LIG d   1       4.318  -2.630  -3.513  0.00  0.00     0.027 H 
ATOM     43  H   LIG d   1       4.391  -0.457  -1.253  0.00  0.00     0.039 H 
ENDBRANCH  33  36
ENDBRANCH   2  32
TORSDOF 5
ENDMDL
MODEL 2
REMARK VINA RESULT:      -6.4      2.170      7.970
REMARK  5 active torsions:
REMARK  status: ('A' for Active; 'I' for Inactive)
REMARK    1  A    between atoms: C_1  and  N_42 
REMARK    2  A    between atoms: C_3  and  N_19 
REMARK    3  A    between atoms: C_6  and  C_8 
REMARK    4  A    between atoms: C_10  and  C_13 
REMARK       I    between atoms: N_19  and  C_20 
REMARK    5  A    between atoms: C_20  and  C_22 
ROOT
ATOM      1  C   LIG d   1       9.491   6.028  -4.387  0.00  0.00    -0.012 C 
ATOM      2  C   LIG d   1      10.239   5.738  -3.069  0.00  0.00     0.069 C 
ATOM      3  H   LIG d   1      11.315   5.851  -3.204  0.00  0.00     0.055 H 
ATOM      4  C   LIG d   1       9.873   4.258  -2.778  0.00  0.00     0.023 C 
ATOM      5  C   LIG d   1       9.826   3.660  -4.207  0.00  0.00     0.061 C 
ATOM      6  H   LIG d   1      10.831   3.413  -4.550  0.00  0.00     0.095 H 
ATOM      7  H   LIG d   1       8.543   6.522  -4.175  0.00  0.00     0.083 H 
ATOM      8  H   LIG d   1      10.103   6.661  -5.029  0.00  0.00     0.083 H 
ATOM      9  H   LIG d   1      10.645   3.776  -2.179  0.00  0.00     0.035 H 
ATOM     10  H   LIG d   1       8.901   4.184  -2.292  0.00  0.00     0.035 H 
ATOM     11  N   LIG d   1       9.231   4.728  -5.032  0.00  0.00     0.243 N 
ATOM     12  H   LIG d   1       8.218   4.578  -5.100  0.00  0.00     0.204 HD
ENDROOT
BRANCH   5  13
ATOM     13  C   LIG d   1       8.947   2.437  -4.234  0.00  0.00     0.276 A 
ATOM     14  O   LIG d   1       9.034   1.414  -5.091  0.00  0.00    -0.332 OA
ATOM     15  N   LIG d   1       8.180   0.590  -4.844  0.00  0.00    -0.056 NA
ATOM     16  C   LIG d   1       7.461   0.981  -3.823  0.00  0.00     0.204 A 
ATOM     17  N   LIG d   1       7.955   2.173  -3.419  0.00  0.00    -0.186 NA
BRANCH  16  18
ATOM     18  C   LIG d   1       6.321   0.249  -3.218  0.00  0.00     0.041 A 
ATOM     19  C   LIG d   1       6.217  -1.134  -3.350  0.00  0.00     0.038 A 
ATOM     20  N   LIG d   1       5.208  -1.786  -2.809  0.00  0.00    -0.263 NA
ATOM     21  H   LIG d   1       6.973  -1.677  -3.898  0.00  0.00     0.084 H 
ATOM     22  C   LIG d   1       4.259  -1.164  -2.135  0.00  0.00     0.028 A 
ATOM     23  C   LIG d   1       4.288   0.208  -1.965  0.00  0.00    -0.043 A 
ATOM     24  H   LIG d   1       3.448  -1.736  -1.712  0.00  0.00     0.083 H 
ATOM     25  C   LIG d   1       5.331   0.936  -2.510  0.00  0.00    -0.048 A 
ATOM     26  H   LIG d   1       3.505   0.705  -1.411  0.00  0.00     0.063 H 
ATOM     27  H   LIG d   1       5.379   2.009  -2.392  0.00  0.00     0.063 H 
ENDBRANCH  16  18
ENDBRANCH   5  13
BRANCH  11  28
ATOM     28  C   LIG d   1       9.816   4.709  -6.397  0.00  0.00    -0.042 C 
ATOM     29  H   LIG d   1      10.516   5.537  -6.510  0.00  0.00     0.078 H 
ATOM     30  H   LIG d   1      10.342   3.766  -6.551  0.00  0.00     0.078 H 
ATOM     31  H   LIG d   1       9.019   4.804  -7.134  0.00  0.00     0.078 H 
ENDBRANCH  11  28
BRANCH   2  32
ATOM     32  N   LIG d   1       9.756   6.611  -1.997  0.00  0.00    -0.307 N 
ATOM     33  C   LIG d   1      10.485   7.680  -1.619  0.00  0.00     0.216 C 
ATOM     34  O   LIG d   1      11.541   7.918  -2.168  0.00  0.00    -0.276 OA
ATOM     35  H   LIG d   1       8.912   6.420  -1.558  0.00  0.00     0.149 HD
BRANCH  33  36
ATOM     36  C   LIG d   1       9.989   8.578  -0.517  0.00  0.00     0.036 A 
ATOM     37  C   LIG d   1      10.392  10.054  -0.571  0.00  0.00    -0.041 A 
ATOM     38  C   LIG d   1       8.952   9.643  -0.884  0.00  0.00    -0.041 A 
ATOM     39  H   LIG d   1      11.017  10.374  -1.405  0.00  0.00     0.027 H 
ATOM     40  H   LIG d   1      10.576  10.560   0.376  0.00  0.00     0.027 H 
ATOM     41  H   LIG d   1       8.189   9.879  -0.143  0.00  0.00     0.027 H 
ATOM     42  H   LIG d   1       8.630   9.692  -1.924  0.00  0.00     0.027 H 
ATOM     43  H   LIG d   1       9.907   8.115   0.467  0.00  0.00     0.039 H 
ENDBRANCH  33  36
ENDBRANCH   2  32
TORSDOF 5
ENDMDL
MODEL 3
REMARK VINA RESULT:      -6.3      5.771      8.541
REMARK  5 active torsions:
REMARK  status: ('A' for Active; 'I' for Inactive)
REMARK    1  A    between atoms: C_1  and  N_42 
REMARK    2  A    between atoms: C_3  and  N_19 
REMARK    3  A    between atoms: C_6  and  C_8 
REMARK    4  A    between atoms: C_10  and  C_13 
REMARK       I    between atoms: N_19  and  C_20 
REMARK    5  A    between atoms: C_20  and  C_22 
ROOT
ATOM      1  C   LIG d   1       7.743  -7.495  -5.769  0.00  0.00    -0.012 C 
ATOM      2  C   LIG d   1       6.203  -7.584  -5.780  0.00  0.00     0.069 C 
ATOM      3  H   LIG d   1       5.833  -7.734  -6.794  0.00  0.00     0.055 H 
ATOM      4  C   LIG d   1       5.769  -6.198  -5.234  0.00  0.00     0.023 C 
ATOM      5  C   LIG d   1       6.853  -5.270  -5.839  0.00  0.00     0.061 C 
ATOM      6  H   LIG d   1       6.605  -5.015  -6.869  0.00  0.00     0.095 H 
ATOM      7  H   LIG d   1       8.136  -7.961  -4.865  0.00  0.00     0.083 H 
ATOM      8  H   LIG d   1       8.150  -7.994  -6.649  0.00  0.00     0.083 H 
ATOM      9  H   LIG d   1       4.778  -5.928  -5.597  0.00  0.00     0.035 H 
ATOM     10  H   LIG d   1       5.803  -6.179  -4.145  0.00  0.00     0.035 H 
ATOM     11  N   LIG d   1       8.094  -6.064  -5.773  0.00  0.00     0.243 N 
ATOM     12  H   LIG d   1       8.597  -5.834  -4.908  0.00  0.00     0.204 HD
ENDROOT
BRANCH   5  13
ATOM     13  C   LIG d   1       6.995  -4.021  -5.010  0.00  0.00     0.276 A 
ATOM     14  O   LIG d   1       8.137  -3.493  -4.556  0.00  0.00    -0.332 OA
ATOM     15  N   LIG d   1       7.907  -2.486  -3.921  0.00  0.00    -0.056 NA
ATOM     16  C   LIG d   1       6.619  -2.256  -3.894  0.00  0.00     0.204 A 
ATOM     17  N   LIG d   1       6.023  -3.242  -4.602  0.00  0.00    -0.186 NA
BRANCH  16  18
ATOM     18  C   LIG d   1       5.941  -1.123  -3.219  0.00  0.00     0.041 A 
ATOM     19  C   LIG d   1       6.421   0.177  -3.365  0.00  0.00     0.038 A 
ATOM     20  N   LIG d   1       5.817   1.186  -2.770  0.00  0.00    -0.263 NA
ATOM     21  H   LIG d   1       7.293   0.360  -3.975  0.00  0.00     0.084 H 
ATOM     22  C   LIG d   1       4.752   1.010  -2.012  0.00  0.00     0.028 A 
ATOM     23  C   LIG d   1       4.219  -0.251  -1.812  0.00  0.00    -0.043 A 
ATOM     24  H   LIG d   1       4.290   1.864  -1.539  0.00  0.00     0.083 H 
ATOM     25  C   LIG d   1       4.815  -1.341  -2.421  0.00  0.00    -0.048 A 
ATOM     26  H   LIG d   1       3.346  -0.382  -1.189  0.00  0.00     0.063 H 
ATOM     27  H   LIG d   1       4.420  -2.337  -2.283  0.00  0.00     0.063 H 
ENDBRANCH  16  18
ENDBRANCH   5  13
BRANCH  11  28
ATOM     28  C   LIG d   1       8.965  -5.754  -6.936  0.00  0.00    -0.042 C 
ATOM     29  H   LIG d   1       8.473  -6.065  -7.858  0.00  0.00     0.078 H 
ATOM     30  H   LIG d   1       9.153  -4.681  -6.970  0.00  0.00     0.078 H 
ATOM     31  H   LIG d   1       9.911  -6.286  -6.832  0.00  0.00     0.078 H 
ENDBRANCH  11  28
BRANCH   2  32
ATOM     32  N   LIG d   1       5.740  -8.657  -4.896  0.00  0.00    -0.307 N 
ATOM     33  C   LIG d   1       4.733  -9.463  -5.287  0.00  0.00     0.216 C 
ATOM     34  O   LIG d   1       4.211  -9.300  -6.369  0.00  0.00    -0.276 OA
ATOM     35  H   LIG d   1       6.158  -8.787  -4.031  0.00  0.00     0.149 HD
BRANCH  33  36
ATOM     36  C   LIG d   1       4.257 -10.567  -4.378  0.00  0.00     0.036 A 
ATOM     37  C   LIG d   1       4.800 -10.588  -2.947  0.00  0.00    -0.041 A 
ATOM     38  C   LIG d   1       3.349 -10.178  -3.209  0.00  0.00    -0.041 A 
ATOM     39  H   LIG d   1       5.502  -9.804  -2.664  0.00  0.00     0.027 H 
ATOM     40  H   LIG d   1       4.973 -11.561  -2.489  0.00  0.00     0.027 H 
ATOM     41  H   LIG d   1       2.568 -10.881  -2.922  0.00  0.00     0.027 H 
ATOM     42  H   LIG d   1       3.097  -9.123  -3.098  0.00  0.00     0.027 H 
ATOM     43  H   LIG d   1       4.072 -11.527  -4.860  0.00  0.00     0.039 H 
ENDBRANCH  33  36
ENDBRANCH   2  32
TORSDOF 5
ENDMDL
MODEL 4
REMARK VINA RESULT:      -6.0      7.031      9.597
REMARK  5 active torsions:
REMARK  status: ('A' for Active; 'I' for Inactive)
REMARK    1  A    between atoms: C_1  and  N_42 
REMARK    2  A    between atoms: C_3  and  N_19 
REMARK    3  A    between atoms: C_6  and  C_8 
REMARK    4  A    between atoms: C_10  and  C_13 
REMARK       I    between atoms: N_19  and  C_20 
REMARK    5  A    between atoms: C_20  and  C_22 
ROOT
ATOM      1  C   LIG d   1       3.008  -0.438 -11.480  0.00  0.00    -0.012 C 
ATOM      2  C   LIG d   1       1.588  -0.953 -11.168  0.00  0.00     0.069 C 
ATOM      3  H   LIG d   1       0.841  -0.201 -11.424  0.00  0.00     0.055 H 
ATOM      4  C   LIG d   1       1.629  -1.188  -9.635  0.00  0.00     0.023 C 
ATOM      5  C   LIG d   1       2.539  -0.026  -9.165  0.00  0.00     0.061 C 
ATOM      6  H   LIG d   1       1.965   0.896  -9.074  0.00  0.00     0.095 H 
ATOM      7  H   LIG d   1       3.631  -1.260 -11.833  0.00  0.00     0.083 H 
ATOM      8  H   LIG d   1       2.962   0.344 -12.237  0.00  0.00     0.083 H 
ATOM      9  H   LIG d   1       0.633  -1.104  -9.200  0.00  0.00     0.035 H 
ATOM     10  H   LIG d   1       2.076  -2.153  -9.400  0.00  0.00     0.035 H 
ATOM     11  N   LIG d   1       3.563   0.089 -10.220  0.00  0.00     0.243 N 
ATOM     12  H   LIG d   1       4.387  -0.462  -9.954  0.00  0.00     0.204 HD
ENDROOT
BRANCH   5  13
ATOM     13  C   LIG d   1       3.191  -0.369  -7.850  0.00  0.00     0.276 A 
ATOM     14  O   LIG d   1       3.875  -1.482  -7.568  0.00  0.00    -0.332 OA
ATOM     15  N   LIG d   1       4.269  -1.450  -6.422  0.00  0.00    -0.056 NA
ATOM     16  C   LIG d   1       3.892  -0.336  -5.848  0.00  0.00     0.204 A 
ATOM     17  N   LIG d   1       3.198   0.372  -6.769  0.00  0.00    -0.186 NA
BRANCH  16  18
ATOM     18  C   LIG d   1       4.177   0.076  -4.452  0.00  0.00     0.041 A 
ATOM     19  C   LIG d   1       5.423  -0.177  -3.881  0.00  0.00     0.038 A 
ATOM     20  N   LIG d   1       5.679   0.193  -2.642  0.00  0.00    -0.263 NA
ATOM     21  H   LIG d   1       6.185  -0.677  -4.459  0.00  0.00     0.084 H 
ATOM     22  C   LIG d   1       4.777   0.801  -1.896  0.00  0.00     0.028 A 
ATOM     23  C   LIG d   1       3.516   1.082  -2.389  0.00  0.00    -0.043 A 
ATOM     24  H   LIG d   1       5.028   1.083  -0.885  0.00  0.00     0.083 H 
ATOM     25  C   LIG d   1       3.200   0.718  -3.687  0.00  0.00    -0.048 A 
ATOM     26  H   LIG d   1       2.786   1.581  -1.769  0.00  0.00     0.063 H 
ATOM     27  H   LIG d   1       2.223   0.925  -4.098  0.00  0.00     0.063 H 
ENDBRANCH  16  18
ENDBRANCH   5  13
BRANCH  11  28
ATOM     28  C   LIG d   1       3.965   1.509 -10.394  0.00  0.00    -0.042 C 
ATOM     29  H   LIG d   1       3.364   2.145  -9.745  0.00  0.00     0.078 H 
ATOM     30  H   LIG d   1       5.019   1.619 -10.135  0.00  0.00     0.078 H 
ATOM     31  H   LIG d   1       3.814   1.803 -11.432  0.00  0.00     0.078 H 
ENDBRANCH  11  28
BRANCH   2  32
ATOM     32  N   LIG d   1       1.323  -2.207 -11.878  0.00  0.00    -0.307 N 
ATOM     33  C   LIG d   1       0.241  -2.316 -12.673  0.00  0.00     0.216 C 
ATOM     34  O   LIG d   1      -0.515  -1.376 -12.801  0.00  0.00    -0.276 OA
ATOM     35  H   LIG d   1       1.928  -2.958 -11.775  0.00  0.00     0.149 HD
BRANCH  33  36
ATOM     36  C   LIG d   1      -0.030  -3.605 -13.403  0.00  0.00     0.036 A 
ATOM     37  C   LIG d   1       0.630  -4.876 -12.862  0.00  0.00    -0.041 A 
ATOM     38  C   LIG d   1      -0.874  -4.661 -12.684  0.00  0.00    -0.041 A 
ATOM     39  H   LIG d   1       1.261  -4.778 -11.979  0.00  0.00     0.027 H 
ATOM     40  H   LIG d   1       0.949  -5.624 -13.587  0.00  0.00     0.027 H 
ATOM     41  H   LIG d   1      -1.545  -5.268 -13.291  0.00  0.00     0.027 H 
ATOM     42  H   LIG d   1      -1.233  -4.421 -11.683  0.00  0.00     0.027 H 
ATOM     43  H   LIG d   1      -0.146  -3.520 -14.483  0.00  0.00     0.039 H 
ENDBRANCH  33  36
ENDBRANCH   2  32
TORSDOF 5
ENDMDL
MODEL 5
REMARK VINA RESULT:      -5.9      6.635      9.257
REMARK  5 active torsions:
REMARK  status: ('A' for Active; 'I' for Inactive)
REMARK    1  A    between atoms: C_1  and  N_42 
REMARK    2  A    between atoms: C_3  and  N_19 
REMARK    3  A    between atoms: C_6  and  C_8 
REMARK    4  A    between atoms: C_10  and  C_13 
REMARK       I    between atoms: N_19  and  C_20 
REMARK    5  A    between atoms: C_20  and  C_22 
ROOT
ATOM      1  C   LIG d   1       5.975  -6.927  -7.219  0.00  0.00    -0.012 C 
ATOM      2  C   LIG d   1       5.057  -7.408  -6.077  0.00  0.00     0.069 C 
ATOM      3  H   LIG d   1       4.193  -7.941  -6.475  0.00  0.00     0.055 H 
ATOM      4  C   LIG d   1       4.621  -6.082  -5.396  0.00  0.00     0.023 C 
ATOM      5  C   LIG d   1       4.508  -5.129  -6.613  0.00  0.00     0.061 C 
ATOM      6  H   LIG d   1       3.550  -5.263  -7.115  0.00  0.00     0.095 H 
ATOM      7  H   LIG d   1       7.018  -6.987  -6.907  0.00  0.00     0.083 H 
ATOM      8  H   LIG d   1       5.817  -7.541  -8.105  0.00  0.00     0.083 H 
ATOM      9  H   LIG d   1       3.657  -6.197  -4.900  0.00  0.00     0.035 H 
ATOM     10  H   LIG d   1       5.380  -5.734  -4.697  0.00  0.00     0.035 H 
ATOM     11  N   LIG d   1       5.627  -5.520  -7.490  0.00  0.00     0.243 N 
ATOM     12  H   LIG d   1       6.438  -4.924  -7.291  0.00  0.00     0.204 HD
ENDROOT
BRANCH   5  13
ATOM     13  C   LIG d   1       4.674  -3.698  -6.174  0.00  0.00     0.276 A 
ATOM     14  O   LIG d   1       5.278  -2.721  -6.858  0.00  0.00    -0.332 OA
ATOM     15  N   LIG d   1       5.241  -1.686  -6.226  0.00  0.00    -0.056 NA
ATOM     16  C   LIG d   1       4.623  -1.875  -5.089  0.00  0.00     0.204 A 
ATOM     17  N   LIG d   1       4.247  -3.174  -5.050  0.00  0.00    -0.186 NA
BRANCH  16  18
ATOM     18  C   LIG d   1       4.375  -0.855  -4.042  0.00  0.00     0.041 A 
ATOM     19  C   LIG d   1       3.752   0.350  -4.362  0.00  0.00     0.038 A 
ATOM     20  N   LIG d   1       3.526   1.256  -3.431  0.00  0.00    -0.263 NA
ATOM     21  H   LIG d   1       3.449   0.542  -5.380  0.00  0.00     0.084 H 
ATOM     22  C   LIG d   1       3.884   1.068  -2.175  0.00  0.00     0.028 A 
ATOM     23  C   LIG d   1       4.512  -0.100  -1.780  0.00  0.00    -0.043 A 
ATOM     24  H   LIG d   1       3.684   1.838  -1.446  0.00  0.00     0.083 H 
ATOM     25  C   LIG d   1       4.765  -1.084  -2.720  0.00  0.00    -0.048 A 
ATOM     26  H   LIG d   1       4.799  -0.242  -0.749  0.00  0.00     0.063 H 
ATOM     27  H   LIG d   1       5.254  -2.005  -2.439  0.00  0.00     0.063 H 
ENDBRANCH  16  18
ENDBRANCH   5  13
BRANCH  11  28
ATOM     28  C   LIG d   1       5.243  -5.356  -8.916  0.00  0.00    -0.042 C 
ATOM     29  H   LIG d   1       5.517  -4.358  -9.259  0.00  0.00     0.078 H 
ATOM     30  H   LIG d   1       5.765  -6.102  -9.518  0.00  0.00     0.078 H 
ATOM     31  H   LIG d   1       4.167  -5.493  -9.020  0.00  0.00     0.078 H 
ENDBRANCH  11  28
BRANCH   2  32
ATOM     32  N   LIG d   1       5.798  -8.253  -5.137  0.00  0.00    -0.307 N 
ATOM     33  C   LIG d   1       5.148  -9.186  -4.413  0.00  0.00     0.216 C 
ATOM     34  O   LIG d   1       3.950  -9.325  -4.540  0.00  0.00    -0.276 OA
ATOM     35  H   LIG d   1       6.756  -8.140  -5.036  0.00  0.00     0.149 HD
BRANCH  33  36
ATOM     36  C   LIG d   1       5.910 -10.055  -3.447  0.00  0.00     0.036 A 
ATOM     37  C   LIG d   1       5.129 -11.142  -2.707  0.00  0.00    -0.041 A 
ATOM     38  C   LIG d   1       6.104 -11.526  -3.821  0.00  0.00    -0.041 A 
ATOM     39  H   LIG d   1       4.063 -11.228  -2.918  0.00  0.00     0.027 H 
ATOM     40  H   LIG d   1       5.424 -11.364  -1.681  0.00  0.00     0.027 H 
ATOM     41  H   LIG d   1       7.040 -12.001  -3.529  0.00  0.00     0.027 H 
ATOM     42  H   LIG d   1       5.679 -11.865  -4.766  0.00  0.00     0.027 H 
ATOM     43  H   LIG d   1       6.720  -9.562  -2.909  0.00  0.00     0.039 H 
ENDBRANCH  33  36
ENDBRANCH   2  32
TORSDOF 5
ENDMDL
MODEL 6
REMARK VINA RESULT:      -5.9      7.343     10.201
REMARK  5 active torsions:
REMARK  status: ('A' for Active; 'I' for Inactive)
REMARK    1  A    between atoms: C_1  and  N_42 
REMARK    2  A    between atoms: C_3  and  N_19 
REMARK    3  A    between atoms: C_6  and  C_8 
REMARK    4  A    between atoms: C_10  and  C_13 
REMARK       I    between atoms: N_19  and  C_20 
REMARK    5  A    between atoms: C_20  and  C_22 
ROOT
ATOM      1  C   LIG d   1       1.778  -2.874 -10.441  0.00  0.00    -0.012 C 
ATOM      2  C   LIG d   1       1.557  -1.595 -11.276  0.00  0.00     0.069 C 
ATOM      3  H   LIG d   1       2.244  -1.563 -12.122  0.00  0.00     0.055 H 
ATOM      4  C   LIG d   1       1.873  -0.460 -10.266  0.00  0.00     0.023 C 
ATOM      5  C   LIG d   1       3.025  -1.087  -9.441  0.00  0.00     0.061 C 
ATOM      6  H   LIG d   1       3.975  -0.975  -9.965  0.00  0.00     0.095 H 
ATOM      7  H   LIG d   1       0.825  -3.235 -10.056  0.00  0.00     0.083 H 
ATOM      8  H   LIG d   1       2.244  -3.643 -11.057  0.00  0.00     0.083 H 
ATOM      9  H   LIG d   1       2.208   0.439 -10.783  0.00  0.00     0.035 H 
ATOM     10  H   LIG d   1       1.012  -0.248  -9.634  0.00  0.00     0.035 H 
ATOM     11  N   LIG d   1       2.654  -2.508  -9.314  0.00  0.00     0.243 N 
ATOM     12  H   LIG d   1       2.149  -2.648  -8.431  0.00  0.00     0.204 HD
ENDROOT
BRANCH   5  13
ATOM     13  C   LIG d   1       3.101  -0.450  -8.078  0.00  0.00     0.276 A 
ATOM     14  O   LIG d   1       2.810   0.820  -7.776  0.00  0.00    -0.332 OA
ATOM     15  N   LIG d   1       2.975   1.014  -6.591  0.00  0.00    -0.056 NA
ATOM     16  C   LIG d   1       3.381  -0.084  -6.008  0.00  0.00     0.204 A 
ATOM     17  N   LIG d   1       3.460  -1.038  -6.963  0.00  0.00    -0.186 NA
BRANCH  16  18
ATOM     18  C   LIG d   1       3.691  -0.253  -4.567  0.00  0.00     0.041 A 
ATOM     19  C   LIG d   1       4.323  -1.408  -4.110  0.00  0.00     0.038 A 
ATOM     20  N   LIG d   1       4.603  -1.557  -2.831  0.00  0.00    -0.263 NA
ATOM     21  H   LIG d   1       4.589  -2.186  -4.811  0.00  0.00     0.084 H 
ATOM     22  C   LIG d   1       4.293  -0.637  -1.938  0.00  0.00     0.028 A 
ATOM     23  C   LIG d   1       3.659   0.535  -2.312  0.00  0.00    -0.043 A 
ATOM     24  H   LIG d   1       4.537  -0.801  -0.899  0.00  0.00     0.083 H 
ATOM     25  C   LIG d   1       3.349   0.740  -3.645  0.00  0.00    -0.048 A 
ATOM     26  H   LIG d   1       3.411   1.281  -1.572  0.00  0.00     0.063 H 
ATOM     27  H   LIG d   1       2.855   1.646  -3.966  0.00  0.00     0.063 H 
ENDBRANCH  16  18
ENDBRANCH   5  13
BRANCH  11  28
ATOM     28  C   LIG d   1       3.872  -3.360  -9.316  0.00  0.00    -0.042 C 
ATOM     29  H   LIG d   1       4.042  -3.756 -10.317  0.00  0.00     0.078 H 
ATOM     30  H   LIG d   1       4.731  -2.761  -9.012  0.00  0.00     0.078 H 
ATOM     31  H   LIG d   1       3.738  -4.184  -8.617  0.00  0.00     0.078 H 
ENDBRANCH  11  28
BRANCH   2  32
ATOM     32  N   LIG d   1       0.168  -1.509 -11.733  0.00  0.00    -0.307 N 
ATOM     33  C   LIG d   1      -0.167  -1.960 -12.958  0.00  0.00     0.216 C 
ATOM     34  O   LIG d   1       0.682  -2.437 -13.682  0.00  0.00    -0.276 OA
ATOM     35  H   LIG d   1      -0.510  -1.127 -11.154  0.00  0.00     0.149 HD
BRANCH  33  36
ATOM     36  C   LIG d   1      -1.595  -1.872 -13.429  0.00  0.00     0.036 A 
ATOM     37  C   LIG d   1      -2.339  -0.556 -13.187  0.00  0.00    -0.041 A 
ATOM     38  C   LIG d   1      -1.897  -0.936 -14.602  0.00  0.00    -0.041 A 
ATOM     39  H   LIG d   1      -1.794   0.245 -12.688  0.00  0.00     0.027 H 
ATOM     40  H   LIG d   1      -3.403  -0.614 -12.960  0.00  0.00     0.027 H 
ATOM     41  H   LIG d   1      -2.670  -1.243 -15.305  0.00  0.00     0.027 H 
ATOM     42  H   LIG d   1      -1.061  -0.385 -15.032  0.00  0.00     0.027 H 
ATOM     43  H   LIG d   1      -2.171  -2.795 -13.361  0.00  0.00     0.039 H 
ENDBRANCH  33  36
ENDBRANCH   2  32
TORSDOF 5
ENDMDL
MODEL 7
REMARK VINA RESULT:      -5.8      7.387     12.489
REMARK  5 active torsions:
REMARK  status: ('A' for Active; 'I' for Inactive)
REMARK    1  A    between atoms: C_1  and  N_42 
REMARK    2  A    between atoms: C_3  and  N_19 
REMARK    3  A    between atoms: C_6  and  C_8 
REMARK    4  A    between atoms: C_10  and  C_13 
REMARK       I    between atoms: N_19  and  C_20 
REMARK    5  A    between atoms: C_20  and  C_22 
ROOT
ATOM      1  C   LIG d   1       3.060   0.715  -7.755  0.00  0.00    -0.012 C 
ATOM      2  C   LIG d   1       3.875  -0.246  -6.864  0.00  0.00     0.069 C 
ATOM      3  H   LIG d   1       4.927   0.040  -6.850  0.00  0.00     0.055 H 
ATOM      4  C   LIG d   1       3.685  -1.618  -7.564  0.00  0.00     0.023 C 
ATOM      5  C   LIG d   1       3.663  -1.206  -9.058  0.00  0.00     0.061 C 
ATOM      6  H   LIG d   1       4.679  -1.080  -9.434  0.00  0.00     0.095 H 
ATOM      7  H   LIG d   1       2.070   0.868  -7.327  0.00  0.00     0.083 H 
ATOM      8  H   LIG d   1       3.578   1.669  -7.841  0.00  0.00     0.083 H 
ATOM      9  H   LIG d   1       4.524  -2.281  -7.355  0.00  0.00     0.035 H 
ATOM     10  H   LIG d   1       2.742  -2.078  -7.272  0.00  0.00     0.035 H 
ATOM     11  N   LIG d   1       2.928   0.072  -9.075  0.00  0.00     0.243 N 
ATOM     12  H   LIG d   1       1.937  -0.110  -9.267  0.00  0.00     0.204 HD
ENDROOT
BRANCH   5  13
ATOM     13  C   LIG d   1       2.926  -2.236  -9.874  0.00  0.00     0.276 A 
ATOM     14  O   LIG d   1       3.473  -3.205 -10.614  0.00  0.00    -0.332 OA
ATOM     15  N   LIG d   1       2.605  -3.863 -11.146  0.00  0.00    -0.056 NA
ATOM     16  C   LIG d   1       1.426  -3.403 -10.816  0.00  0.00     0.204 A 
ATOM     17  N   LIG d   1       1.625  -2.353  -9.987  0.00  0.00    -0.186 NA
BRANCH  16  18
ATOM     18  C   LIG d   1       0.116  -3.938 -11.261  0.00  0.00     0.041 A 
ATOM     19  C   LIG d   1      -0.390  -3.614 -12.518  0.00  0.00     0.038 A 
ATOM     20  N   LIG d   1      -1.551  -4.092 -12.917  0.00  0.00    -0.263 NA
ATOM     21  H   LIG d   1       0.177  -2.969 -13.173  0.00  0.00     0.084 H 
ATOM     22  C   LIG d   1      -2.280  -4.880 -12.150  0.00  0.00     0.028 A 
ATOM     23  C   LIG d   1      -1.850  -5.242 -10.886  0.00  0.00    -0.043 A 
ATOM     24  H   LIG d   1      -3.229  -5.246 -12.513  0.00  0.00     0.083 H 
ATOM     25  C   LIG d   1      -0.633  -4.770 -10.424  0.00  0.00    -0.048 A 
ATOM     26  H   LIG d   1      -2.455  -5.887 -10.267  0.00  0.00     0.063 H 
ATOM     27  H   LIG d   1      -0.272  -5.037  -9.442  0.00  0.00     0.063 H 
ENDBRANCH  16  18
ENDBRANCH   5  13
BRANCH  11  28
ATOM     28  C   LIG d   1       3.472   0.963 -10.133  0.00  0.00    -0.042 C 
ATOM     29  H   LIG d   1       4.325   1.519  -9.745  0.00  0.00     0.078 H 
ATOM     30  H   LIG d   1       3.788   0.360 -10.984  0.00  0.00     0.078 H 
ATOM     31  H   LIG d   1       2.697   1.661 -10.451  0.00  0.00     0.078 H 
ENDBRANCH  11  28
BRANCH   2  32
ATOM     32  N   LIG d   1       3.330  -0.279  -5.504  0.00  0.00    -0.307 N 
ATOM     33  C   LIG d   1       4.138  -0.056  -4.449  0.00  0.00     0.216 C 
ATOM     34  O   LIG d   1       5.316   0.172  -4.626  0.00  0.00    -0.276 OA
ATOM     35  H   LIG d   1       2.387  -0.461  -5.364  0.00  0.00     0.149 HD
BRANCH  33  36
ATOM     36  C   LIG d   1       3.578  -0.089  -3.051  0.00  0.00     0.036 A 
ATOM     37  C   LIG d   1       4.565   0.054  -1.891  0.00  0.00    -0.041 A 
ATOM     38  C   LIG d   1       3.623   1.208  -2.240  0.00  0.00    -0.041 A 
ATOM     39  H   LIG d   1       5.619   0.172  -2.139  0.00  0.00     0.027 H 
ATOM     40  H   LIG d   1       4.355  -0.508  -0.981  0.00  0.00     0.027 H 
ATOM     41  H   LIG d   1       2.795   1.406  -1.560  0.00  0.00     0.027 H 
ATOM     42  H   LIG d   1       4.059   2.085  -2.719  0.00  0.00     0.027 H 
ATOM     43  H   LIG d   1       2.719  -0.744  -2.904  0.00  0.00     0.039 H 
ENDBRANCH  33  36
ENDBRANCH   2  32
TORSDOF 5
ENDMDL
MODEL 8
REMARK VINA RESULT:      -5.7      3.493      4.792
REMARK  5 active torsions:
REMARK  status: ('A' for Active; 'I' for Inactive)
REMARK    1  A    between atoms: C_1  and  N_42 
REMARK    2  A    between atoms: C_3  and  N_19 
REMARK    3  A    between atoms: C_6  and  C_8 
REMARK    4  A    between atoms: C_10  and  C_13 
REMARK       I    between atoms: N_19  and  C_20 
REMARK    5  A    between atoms: C_20  and  C_22 
ROOT
ATOM      1  C   LIG d   1       3.838   0.080  -4.496  0.00  0.00    -0.012 C 
ATOM      2  C   LIG d   1       4.210  -0.753  -5.740  0.00  0.00     0.069 C 
ATOM      3  H   LIG d   1       4.088  -1.818  -5.542  0.00  0.00     0.055 H 
ATOM      4  C   LIG d   1       5.705  -0.401  -5.962  0.00  0.00     0.023 C 
ATOM      5  C   LIG d   1       6.212  -0.257  -4.505  0.00  0.00     0.061 C 
ATOM      6  H   LIG d   1       6.437  -1.235  -4.081  0.00  0.00     0.095 H 
ATOM      7  H   LIG d   1       3.358   1.009  -4.801  0.00  0.00     0.083 H 
ATOM      8  H   LIG d   1       3.166  -0.491  -3.855  0.00  0.00     0.083 H 
ATOM      9  H   LIG d   1       6.223  -1.210  -6.477  0.00  0.00     0.035 H 
ATOM     10  H   LIG d   1       5.809   0.537  -6.507  0.00  0.00     0.035 H 
ATOM     11  N   LIG d   1       5.095   0.387  -3.790  0.00  0.00     0.243 N 
ATOM     12  H   LIG d   1       5.240   1.404  -3.781  0.00  0.00     0.204 HD
ENDROOT
BRANCH   5  13
ATOM     13  C   LIG d   1       7.431   0.627  -4.460  0.00  0.00     0.276 A 
ATOM     14  O   LIG d   1       8.688   0.264  -4.733  0.00  0.00    -0.332 OA
ATOM     15  N   LIG d   1       9.433   1.211  -4.603  0.00  0.00    -0.056 NA
ATOM     16  C   LIG d   1       8.755   2.270  -4.240  0.00  0.00     0.204 A 
ATOM     17  N   LIG d   1       7.457   1.901  -4.151  0.00  0.00    -0.186 NA
BRANCH  16  18
ATOM     18  C   LIG d   1       9.307   3.622  -3.980  0.00  0.00     0.041 A 
ATOM     19  C   LIG d   1       9.963   3.901  -2.783  0.00  0.00     0.038 A 
ATOM     20  N   LIG d   1      10.458   5.100  -2.553  0.00  0.00    -0.263 NA
ATOM     21  H   LIG d   1      10.070   3.126  -2.038  0.00  0.00     0.084 H 
ATOM     22  C   LIG d   1      10.346   6.079  -3.431  0.00  0.00     0.028 A 
ATOM     23  C   LIG d   1       9.704   5.883  -4.640  0.00  0.00    -0.043 A 
ATOM     24  H   LIG d   1      10.762   7.048  -3.201  0.00  0.00     0.083 H 
ATOM     25  C   LIG d   1       9.172   4.638  -4.930  0.00  0.00    -0.048 A 
ATOM     26  H   LIG d   1       9.619   6.692  -5.350  0.00  0.00     0.063 H 
ATOM     27  H   LIG d   1       8.666   4.457  -5.867  0.00  0.00     0.063 H 
ENDBRANCH  16  18
ENDBRANCH   5  13
BRANCH  11  28
ATOM     28  C   LIG d   1       5.028  -0.106  -2.390  0.00  0.00    -0.042 C 
ATOM     29  H   LIG d   1       4.028  -0.485  -2.180  0.00  0.00     0.078 H 
ATOM     30  H   LIG d   1       5.755  -0.907  -2.256  0.00  0.00     0.078 H 
ATOM     31  H   LIG d   1       5.258   0.711  -1.707  0.00  0.00     0.078 H 
ENDBRANCH  11  28
BRANCH   2  32
ATOM     32  N   LIG d   1       3.405  -0.347  -6.895  0.00  0.00    -0.307 N 
ATOM     33  C   LIG d   1       3.287  -1.169  -7.956  0.00  0.00     0.216 C 
ATOM     34  O   LIG d   1       3.848  -2.244  -7.956  0.00  0.00    -0.276 OA
ATOM     35  H   LIG d   1       2.957   0.514  -6.895  0.00  0.00     0.149 HD
BRANCH  33  36
ATOM     36  C   LIG d   1       2.459  -0.751  -9.144  0.00  0.00     0.036 A 
ATOM     37  C   LIG d   1       2.325   0.748  -9.419  0.00  0.00    -0.041 A 
ATOM     38  C   LIG d   1       3.192  -0.122 -10.331  0.00  0.00    -0.041 A 
ATOM     39  H   LIG d   1       2.836   1.432  -8.742  0.00  0.00     0.027 H 
ATOM     40  H   LIG d   1       1.375   1.103  -9.818  0.00  0.00     0.027 H 
ATOM     41  H   LIG d   1       2.813  -0.339 -11.329  0.00  0.00     0.027 H 
ATOM     42  H   LIG d   1       4.274  -0.011 -10.252  0.00  0.00     0.027 H 
ATOM     43  H   LIG d   1       1.597  -1.382  -9.362  0.00  0.00     0.039 H 
ENDBRANCH  33  36
ENDBRANCH   2  32
TORSDOF 5
ENDMDL
MODEL 9
REMARK VINA RESULT:      -5.7      7.149     12.167
REMARK  5 active torsions:
REMARK  status: ('A' for Active; 'I' for Inactive)
REMARK    1  A    between atoms: C_1  and  N_42 
REMARK    2  A    between atoms: C_3  and  N_19 
REMARK    3  A    between atoms: C_6  and  C_8 
REMARK    4  A    between atoms: C_10  and  C_13 
REMARK       I    between atoms: N_19  and  C_20 
REMARK    5  A    between atoms: C_20  and  C_22 
ROOT
ATOM      1  C   LIG d   1       2.751   0.213  -7.021  0.00  0.00    -0.012 C 
ATOM      2  C   LIG d   1       3.950  -0.570  -6.449  0.00  0.00     0.069 C 
ATOM      3  H   LIG d   1       4.850   0.046  -6.451  0.00  0.00     0.055 H 
ATOM      4  C   LIG d   1       4.094  -1.759  -7.437  0.00  0.00     0.023 C 
ATOM      5  C   LIG d   1       3.717  -1.093  -8.784  0.00  0.00     0.061 C 
ATOM      6  H   LIG d   1       4.572  -0.559  -9.199  0.00  0.00     0.095 H 
ATOM      7  H   LIG d   1       1.839  -0.066  -6.492  0.00  0.00     0.083 H 
ATOM      8  H   LIG d   1       2.925   1.284  -6.919  0.00  0.00     0.083 H 
ATOM      9  H   LIG d   1       5.120  -2.126  -7.458  0.00  0.00     0.035 H 
ATOM     10  H   LIG d   1       3.399  -2.559  -7.189  0.00  0.00     0.035 H 
ATOM     11  N   LIG d   1       2.626  -0.162  -8.441  0.00  0.00     0.243 N 
ATOM     12  H   LIG d   1       1.724  -0.628  -8.591  0.00  0.00     0.204 HD
ENDROOT
BRANCH   5  13
ATOM     13  C   LIG d   1       3.222  -2.129  -9.760  0.00  0.00     0.276 A 
ATOM     14  O   LIG d   1       3.197  -2.018 -11.092  0.00  0.00    -0.332 OA
ATOM     15  N   LIG d   1       2.740  -3.027 -11.585  0.00  0.00    -0.056 NA
ATOM     16  C   LIG d   1       2.426  -3.883 -10.647  0.00  0.00     0.204 A 
ATOM     17  N   LIG d   1       2.741  -3.311  -9.462  0.00  0.00    -0.186 NA
BRANCH  16  18
ATOM     18  C   LIG d   1       1.840  -5.232 -10.845  0.00  0.00     0.041 A 
ATOM     19  C   LIG d   1       2.601  -6.258 -11.401  0.00  0.00     0.038 A 
ATOM     20  N   LIG d   1       2.084  -7.458 -11.573  0.00  0.00    -0.263 NA
ATOM     21  H   LIG d   1       3.624  -6.070 -11.689  0.00  0.00     0.084 H 
ATOM     22  C   LIG d   1       0.837  -7.733 -11.241  0.00  0.00     0.028 A 
ATOM     23  C   LIG d   1       0.016  -6.766 -10.689  0.00  0.00    -0.043 A 
ATOM     24  H   LIG d   1       0.451  -8.728 -11.403  0.00  0.00     0.083 H 
ATOM     25  C   LIG d   1       0.516  -5.491 -10.483  0.00  0.00    -0.048 A 
ATOM     26  H   LIG d   1      -1.003  -7.003 -10.420  0.00  0.00     0.063 H 
ATOM     27  H   LIG d   1      -0.103  -4.717 -10.053  0.00  0.00     0.063 H 
ENDBRANCH  16  18
ENDBRANCH   5  13
BRANCH  11  28
ATOM     28  C   LIG d   1       2.695   1.050  -9.297  0.00  0.00    -0.042 C 
ATOM     29  H   LIG d   1       3.381   1.774  -8.857  0.00  0.00     0.078 H 
ATOM     30  H   LIG d   1       3.051   0.770 -10.289  0.00  0.00     0.078 H 
ATOM     31  H   LIG d   1       1.703   1.493  -9.379  0.00  0.00     0.078 H 
ENDBRANCH  11  28
BRANCH   2  32
ATOM     32  N   LIG d   1       3.658  -1.053  -5.097  0.00  0.00    -0.307 N 
ATOM     33  C   LIG d   1       3.741  -0.211  -4.049  0.00  0.00     0.216 C 
ATOM     34  O   LIG d   1       4.059   0.946  -4.224  0.00  0.00    -0.276 OA
ATOM     35  H   LIG d   1       3.403  -1.979  -4.958  0.00  0.00     0.149 HD
BRANCH  33  36
ATOM     36  C   LIG d   1       3.440  -0.708  -2.659  0.00  0.00     0.036 A 
ATOM     37  C   LIG d   1       3.761  -2.171  -2.346  0.00  0.00    -0.041 A 
ATOM     38  C   LIG d   1       4.628  -1.055  -1.758  0.00  0.00    -0.041 A 
ATOM     39  H   LIG d   1       4.191  -2.774  -3.145  0.00  0.00     0.027 H 
ATOM     40  H   LIG d   1       3.093  -2.699  -1.666  0.00  0.00     0.027 H 
ATOM     41  H   LIG d   1       4.529  -0.849  -0.693  0.00  0.00     0.027 H 
ATOM     42  H   LIG d   1       5.627  -0.923  -2.173  0.00  0.00     0.027 H 
ATOM     43  H   LIG d   1       2.559  -0.274  -2.184  0.00  0.00     0.039 H 
ENDBRANCH  33  36
ENDBRANCH   2  32
TORSDOF 5
ENDMDL
