MODEL 1
REMARK VINA RESULT:      -6.3      0.000      0.000
REMARK  4 active torsions:
REMARK  status: ('A' for Active; 'I' for Inactive)
REMARK    1  A    between atoms: C_2  and  C_3 
REMARK    2  A    between atoms: C_3  and  O_4 
REMARK    3  A    between atoms: O_4  and  C_5 
REMARK       I    between atoms: N_15  and  C_23 
REMARK    4  A    between atoms: C_23  and  C_25 
ROOT
ATOM      1  C   UNK d   2       3.419  -1.376 -13.585  0.00  0.00     0.077 C 
ATOM      2  H   UNK d   2       2.367  -1.175 -13.386  0.00  0.00     0.061 H 
ATOM      3  C   UNK d   2       4.297  -0.202 -13.104  0.00  0.00     0.002 C 
ATOM      4  C   UNK d   2       4.928  -0.671 -11.789  0.00  0.00     0.105 C 
ATOM      5  H   UNK d   2       6.013  -0.721 -11.880  0.00  0.00     0.060 H 
ATOM      6  C   UNK d   2       4.550   0.233 -10.650  0.00  0.00     0.237 C 
ATOM      7  O   UNK d   2       4.272   1.393 -10.869  0.00  0.00    -0.274 OA
ATOM      8  N   UNK d   2       4.386  -2.009 -11.497  0.00  0.00    -0.286 N 
ATOM      9  C   UNK d   2       3.903  -2.584 -12.753  0.00  0.00     0.042 C 
ATOM     10  H   UNK d   2       3.683   0.682 -12.935  0.00  0.00     0.031 H 
ATOM     11  H   UNK d   2       5.073   0.014 -13.839  0.00  0.00     0.031 H 
ATOM     12  H   UNK d   2       4.713  -3.100 -13.270  0.00  0.00     0.049 H 
ATOM     13  H   UNK d   2       3.076  -3.268 -12.563  0.00  0.00     0.049 H 
ATOM     14  N   UNK d   1       4.517  -0.240  -9.377  0.00  0.00    -0.285 N 
ATOM     15  C   UNK d   1       4.283   0.760  -8.330  0.00  0.00     0.031 C 
ATOM     16  C   UNK d   1       3.378   0.205  -7.233  0.00  0.00     0.031 C 
ATOM     17  N   UNK d   1       3.917  -1.103  -6.827  0.00  0.00    -0.297 N 
ATOM     18  C   UNK d   1       4.010  -2.146  -7.848  0.00  0.00     0.042 C 
ATOM     19  C   UNK d   1       4.738  -1.645  -9.089  0.00  0.00     0.118 C 
ATOM     20  H   UNK d   1       5.806  -1.794  -8.933  0.00  0.00     0.061 H 
ATOM     21  C   UNK d   1       4.330  -2.522 -10.255  0.00  0.00     0.238 C 
ATOM     22  O   UNK d   1       3.959  -3.662 -10.073  0.00  0.00    -0.274 OA
ATOM     23  C   UNK d   1       4.313  -1.330  -5.560  0.00  0.00     0.219 C 
ATOM     24  O   UNK d   1       4.661  -2.442  -5.224  0.00  0.00    -0.275 OA
ATOM     25  H   UNK d   1       3.812   1.637  -8.772  0.00  0.00     0.048 H 
ATOM     26  H   UNK d   1       5.239   1.049  -7.892  0.00  0.00     0.048 H 
ATOM     27  H   UNK d   1       2.364   0.084  -7.616  0.00  0.00     0.048 H 
ATOM     28  H   UNK d   1       3.371   0.883  -6.379  0.00  0.00     0.048 H 
ATOM     29  H   UNK d   1       4.550  -2.999  -7.437  0.00  0.00     0.049 H 
ATOM     30  H   UNK d   1       3.005  -2.462  -8.127  0.00  0.00     0.049 H 
ENDROOT
BRANCH  23  31
ATOM     31  C   UNK d   1       4.323  -0.204  -4.559  0.00  0.00     0.036 C 
ATOM     32  C   UNK d   1       3.275  -0.474  -3.477  0.00  0.00    -0.042 C 
ATOM     33  C   UNK d   1       3.285   0.669  -2.461  0.00  0.00    -0.052 C 
ATOM     34  H   UNK d   1       2.289  -0.546  -3.935  0.00  0.00     0.027 H 
ATOM     35  H   UNK d   1       3.509  -1.411  -2.971  0.00  0.00     0.027 H 
ATOM     36  C   UNK d   1       4.668   0.769  -1.817  0.00  0.00    -0.053 C 
ATOM     37  H   UNK d   1       3.050   1.606  -2.966  0.00  0.00     0.026 H 
ATOM     38  H   UNK d   1       2.539   0.476  -1.690  0.00  0.00     0.026 H 
ATOM     39  C   UNK d   1       5.716   1.039  -2.899  0.00  0.00    -0.052 C 
ATOM     40  H   UNK d   1       4.676   1.584  -1.094  0.00  0.00     0.026 H 
ATOM     41  H   UNK d   1       4.903  -0.168  -1.311  0.00  0.00     0.026 H 
ATOM     42  C   UNK d   1       5.707  -0.104  -3.916  0.00  0.00    -0.042 C 
ATOM     43  H   UNK d   1       5.482   1.976  -3.405  0.00  0.00     0.026 H 
ATOM     44  H   UNK d   1       6.702   1.110  -2.441  0.00  0.00     0.026 H 
ATOM     45  H   UNK d   1       5.940  -1.042  -3.410  0.00  0.00     0.027 H 
ATOM     46  H   UNK d   1       6.452   0.089  -4.687  0.00  0.00     0.027 H 
ATOM     47  H   UNK d   1       4.089   0.733  -5.064  0.00  0.00     0.039 H 
ENDBRANCH  23  31
BRANCH   1  48
ATOM     48  O   UNK d   2       3.625  -1.616 -14.979  0.00  0.00    -0.371 OA
BRANCH  48  49
ATOM     49  C   UNK d   2       4.489  -0.670 -15.611  0.00  0.00     0.066 C 
ATOM     50  H   UNK d   2       4.808   0.075 -14.882  0.00  0.00     0.060 H 
ATOM     51  H   UNK d   2       5.363  -1.185 -16.009  0.00  0.00     0.060 H 
BRANCH  49  52
ATOM     52  C   UNK d   2       3.752   0.011 -16.736  0.00  0.00    -0.066 C 
ATOM     53  C   UNK d   2       3.903   1.297 -16.933  0.00  0.00    -0.101 C 
ATOM     54  H   UNK d   2       4.556   1.870 -16.290  0.00  0.00     0.053 H 
ATOM     55  H   UNK d   2       3.375   1.785 -17.739  0.00  0.00     0.053 H 
ATOM     56  H   UNK d   2       3.100  -0.561 -17.378  0.00  0.00     0.059 H 
ENDBRANCH  49  52
ENDBRANCH  48  49
ENDBRANCH   1  48
TORSDOF 4
ENDMDL
MODEL 2
REMARK VINA RESULT:      -6.2      1.727      2.323
REMARK  4 active torsions:
REMARK  status: ('A' for Active; 'I' for Inactive)
REMARK    1  A    between atoms: C_2  and  C_3 
REMARK    2  A    between atoms: C_3  and  O_4 
REMARK    3  A    between atoms: O_4  and  C_5 
REMARK       I    between atoms: N_15  and  C_23 
REMARK    4  A    between atoms: C_23  and  C_25 
ROOT
ATOM      1  C   UNK d   2       3.789  -1.876 -13.253  0.00  0.00     0.077 C 
ATOM      2  H   UNK d   2       4.409  -0.982 -13.330  0.00  0.00     0.061 H 
ATOM      3  C   UNK d   2       4.453  -2.918 -12.330  0.00  0.00     0.002 C 
ATOM      4  C   UNK d   2       3.694  -2.834 -11.001  0.00  0.00     0.105 C 
ATOM      5  H   UNK d   2       3.192  -3.777 -10.785  0.00  0.00     0.060 H 
ATOM      6  C   UNK d   2       4.615  -2.472  -9.870  0.00  0.00     0.237 C 
ATOM      7  O   UNK d   2       5.792  -2.754  -9.938  0.00  0.00    -0.274 OA
ATOM      8  N   UNK d   2       2.701  -1.755 -11.133  0.00  0.00    -0.286 N 
ATOM      9  C   UNK d   2       2.450  -1.544 -12.559  0.00  0.00     0.042 C 
ATOM     10  H   UNK d   2       5.504  -2.674 -12.181  0.00  0.00     0.031 H 
ATOM     11  H   UNK d   2       4.355  -3.916 -12.758  0.00  0.00     0.031 H 
ATOM     12  H   UNK d   2       1.666  -2.215 -12.909  0.00  0.00     0.049 H 
ATOM     13  H   UNK d   2       2.174  -0.506 -12.745  0.00  0.00     0.049 H 
ATOM     14  N   UNK d   1       4.137  -1.830  -8.772  0.00  0.00    -0.285 N 
ATOM     15  C   UNK d   1       5.088  -1.660  -7.668  0.00  0.00     0.031 C 
ATOM     16  C   UNK d   1       4.916  -0.298  -7.001  0.00  0.00     0.031 C 
ATOM     17  N   UNK d   1       3.484  -0.120  -6.710  0.00  0.00    -0.297 N 
ATOM     18  C   UNK d   1       2.553  -0.143  -7.838  0.00  0.00     0.042 C 
ATOM     19  C   UNK d   1       2.759  -1.381  -8.701  0.00  0.00     0.118 C 
ATOM     20  H   UNK d   1       2.162  -2.187  -8.276  0.00  0.00     0.061 H 
ATOM     21  C   UNK d   1       2.199  -1.088 -10.078  0.00  0.00     0.238 C 
ATOM     22  O   UNK d   1       1.317  -0.269 -10.227  0.00  0.00    -0.274 OA
ATOM     23  C   UNK d   1       3.046   0.058  -5.448  0.00  0.00     0.219 C 
ATOM     24  O   UNK d   1       1.876   0.301  -5.241  0.00  0.00    -0.275 OA
ATOM     25  H   UNK d   1       6.103  -1.743  -8.054  0.00  0.00     0.048 H 
ATOM     26  H   UNK d   1       4.920  -2.444  -6.929  0.00  0.00     0.048 H 
ATOM     27  H   UNK d   1       5.257   0.490  -7.674  0.00  0.00     0.048 H 
ATOM     28  H   UNK d   1       5.488  -0.264  -6.073  0.00  0.00     0.048 H 
ATOM     29  H   UNK d   1       1.532  -0.139  -7.457  0.00  0.00     0.049 H 
ATOM     30  H   UNK d   1       2.709   0.747  -8.448  0.00  0.00     0.049 H 
ENDROOT
BRANCH  23  31
ATOM     31  C   UNK d   1       4.009  -0.046  -4.294  0.00  0.00     0.036 C 
ATOM     32  C   UNK d   1       3.581   0.917  -3.184  0.00  0.00    -0.042 C 
ATOM     33  C   UNK d   1       4.558   0.813  -2.013  0.00  0.00    -0.052 C 
ATOM     34  H   UNK d   1       3.580   1.937  -3.568  0.00  0.00     0.027 H 
ATOM     35  H   UNK d   1       2.578   0.657  -2.845  0.00  0.00     0.027 H 
ATOM     36  C   UNK d   1       4.559  -0.618  -1.474  0.00  0.00    -0.053 C 
ATOM     37  H   UNK d   1       5.561   1.074  -2.353  0.00  0.00     0.026 H 
ATOM     38  H   UNK d   1       4.253   1.498  -1.223  0.00  0.00     0.026 H 
ATOM     39  C   UNK d   1       4.988  -1.581  -2.583  0.00  0.00    -0.052 C 
ATOM     40  H   UNK d   1       5.256  -0.693  -0.640  0.00  0.00     0.026 H 
ATOM     41  H   UNK d   1       3.556  -0.879  -1.134  0.00  0.00     0.026 H 
ATOM     42  C   UNK d   1       4.010  -1.477  -3.755  0.00  0.00    -0.042 C 
ATOM     43  H   UNK d   1       5.990  -1.320  -2.922  0.00  0.00     0.026 H 
ATOM     44  H   UNK d   1       4.987  -2.601  -2.199  0.00  0.00     0.026 H 
ATOM     45  H   UNK d   1       3.007  -1.737  -3.416  0.00  0.00     0.027 H 
ATOM     46  H   UNK d   1       4.315  -2.162  -4.546  0.00  0.00     0.027 H 
ATOM     47  H   UNK d   1       5.012   0.215  -4.633  0.00  0.00     0.039 H 
ENDBRANCH  23  31
BRANCH   1  48
ATOM     48  O   UNK d   2       3.555  -2.432 -14.549  0.00  0.00    -0.371 OA
BRANCH  48  49
ATOM     49  C   UNK d   2       3.098  -1.483 -15.515  0.00  0.00     0.066 C 
ATOM     50  H   UNK d   2       2.987  -1.975 -16.482  0.00  0.00     0.060 H 
ATOM     51  H   UNK d   2       2.135  -1.080 -15.201  0.00  0.00     0.060 H 
BRANCH  49  52
ATOM     52  C   UNK d   2       4.098  -0.362 -15.632  0.00  0.00    -0.066 C 
ATOM     53  C   UNK d   2       5.038  -0.416 -16.542  0.00  0.00    -0.101 C 
ATOM     54  H   UNK d   2       5.097  -1.263 -17.209  0.00  0.00     0.053 H 
ATOM     55  H   UNK d   2       5.756   0.388 -16.626  0.00  0.00     0.053 H 
ATOM     56  H   UNK d   2       4.040   0.485 -14.965  0.00  0.00     0.059 H 
ENDBRANCH  49  52
ENDBRANCH  48  49
ENDBRANCH   1  48
TORSDOF 4
ENDMDL
MODEL 3
REMARK VINA RESULT:      -5.8      2.245      9.106
REMARK  4 active torsions:
REMARK  status: ('A' for Active; 'I' for Inactive)
REMARK    1  A    between atoms: C_2  and  C_3 
REMARK    2  A    between atoms: C_3  and  O_4 
REMARK    3  A    between atoms: O_4  and  C_5 
REMARK       I    between atoms: N_15  and  C_23 
REMARK    4  A    between atoms: C_23  and  C_25 
ROOT
ATOM      1  C   UNK d   2       4.442  -1.737  -4.139  0.00  0.00     0.077 C 
ATOM      2  H   UNK d   2       3.364  -1.717  -3.981  0.00  0.00     0.061 H 
ATOM      3  C   UNK d   2       4.863  -3.041  -4.849  0.00  0.00     0.002 C 
ATOM      4  C   UNK d   2       5.117  -2.652  -6.309  0.00  0.00     0.105 C 
ATOM      5  H   UNK d   2       6.159  -2.823  -6.576  0.00  0.00     0.060 H 
ATOM      6  C   UNK d   2       4.217  -3.415  -7.240  0.00  0.00     0.237 C 
ATOM      7  O   UNK d   2       3.797  -4.504  -6.914  0.00  0.00    -0.274 OA
ATOM      8  N   UNK d   2       4.791  -1.223  -6.443  0.00  0.00    -0.286 N 
ATOM      9  C   UNK d   2       4.865  -0.616  -5.114  0.00  0.00     0.042 C 
ATOM     10  H   UNK d   2       4.061  -3.777  -4.788  0.00  0.00     0.031 H 
ATOM     11  H   UNK d   2       5.773  -3.437  -4.400  0.00  0.00     0.031 H 
ATOM     12  H   UNK d   2       5.884  -0.293  -4.901  0.00  0.00     0.049 H 
ATOM     13  H   UNK d   2       4.176   0.227  -5.043  0.00  0.00     0.049 H 
ATOM     14  N   UNK d   1       3.871  -2.892  -8.446  0.00  0.00    -0.285 N 
ATOM     15  C   UNK d   1       3.115  -3.781  -9.334  0.00  0.00     0.031 C 
ATOM     16  C   UNK d   1       2.036  -3.012 -10.092  0.00  0.00     0.031 C 
ATOM     17  N   UNK d   1       2.668  -1.822 -10.684  0.00  0.00    -0.297 N 
ATOM     18  C   UNK d   1       3.294  -0.862  -9.776  0.00  0.00     0.042 C 
ATOM     19  C   UNK d   1       4.266  -1.548  -8.826  0.00  0.00     0.118 C 
ATOM     20  H   UNK d   1       5.233  -1.608  -9.323  0.00  0.00     0.061 H 
ATOM     21  C   UNK d   1       4.441  -0.657  -7.613  0.00  0.00     0.238 C 
ATOM     22  O   UNK d   1       4.269   0.540  -7.694  0.00  0.00    -0.274 OA
ATOM     23  C   UNK d   1       2.671  -1.625 -12.017  0.00  0.00     0.219 C 
ATOM     24  O   UNK d   1       3.109  -0.591 -12.476  0.00  0.00    -0.275 OA
ATOM     25  H   UNK d   1       2.646  -4.565  -8.742  0.00  0.00     0.048 H 
ATOM     26  H   UNK d   1       3.801  -4.236 -10.051  0.00  0.00     0.048 H 
ATOM     27  H   UNK d   1       1.247  -2.708  -9.405  0.00  0.00     0.048 H 
ATOM     28  H   UNK d   1       1.619  -3.639 -10.881  0.00  0.00     0.048 H 
ATOM     29  H   UNK d   1       3.832  -0.116 -10.361  0.00  0.00     0.049 H 
ATOM     30  H   UNK d   1       2.518  -0.363  -9.194  0.00  0.00     0.049 H 
ENDROOT
BRANCH  23  31
ATOM     31  C   UNK d   1       2.131  -2.688 -12.938  0.00  0.00     0.036 C 
ATOM     32  C   UNK d   1       0.736  -2.282 -13.422  0.00  0.00    -0.042 C 
ATOM     33  C   UNK d   1       0.187  -3.362 -14.356  0.00  0.00    -0.052 C 
ATOM     34  H   UNK d   1       0.072  -2.171 -12.565  0.00  0.00     0.027 H 
ATOM     35  H   UNK d   1       0.799  -1.336 -13.958  0.00  0.00     0.027 H 
ATOM     36  C   UNK d   1       1.119  -3.518 -15.559  0.00  0.00    -0.053 C 
ATOM     37  H   UNK d   1       0.124  -4.308 -13.820  0.00  0.00     0.026 H 
ATOM     38  H   UNK d   1      -0.805  -3.073 -14.701  0.00  0.00     0.026 H 
ATOM     39  C   UNK d   1       2.513  -3.923 -15.076  0.00  0.00    -0.052 C 
ATOM     40  H   UNK d   1       0.728  -4.287 -16.225  0.00  0.00     0.026 H 
ATOM     41  H   UNK d   1       1.182  -2.571 -16.096  0.00  0.00     0.026 H 
ATOM     42  C   UNK d   1       3.062  -2.844 -14.141  0.00  0.00    -0.042 C 
ATOM     43  H   UNK d   1       2.450  -4.870 -14.540  0.00  0.00     0.026 H 
ATOM     44  H   UNK d   1       3.177  -4.034 -15.933  0.00  0.00     0.026 H 
ATOM     45  H   UNK d   1       3.125  -1.896 -14.677  0.00  0.00     0.027 H 
ATOM     46  H   UNK d   1       4.055  -3.132 -13.796  0.00  0.00     0.027 H 
ATOM     47  H   UNK d   1       2.068  -3.635 -12.402  0.00  0.00     0.039 H 
ENDBRANCH  23  31
BRANCH   1  48
ATOM     48  O   UNK d   2       5.130  -1.601  -2.894  0.00  0.00    -0.371 OA
BRANCH  48  49
ATOM     49  C   UNK d   2       4.329  -1.059  -1.842  0.00  0.00     0.066 C 
ATOM     50  H   UNK d   2       3.274  -1.214  -2.072  0.00  0.00     0.060 H 
ATOM     51  H   UNK d   2       4.573  -1.560  -0.905  0.00  0.00     0.060 H 
BRANCH  49  52
ATOM     52  C   UNK d   2       4.604   0.416  -1.709  0.00  0.00    -0.066 C 
ATOM     53  C   UNK d   2       3.753   1.287  -2.193  0.00  0.00    -0.101 C 
ATOM     54  H   UNK d   2       2.854   0.947  -2.688  0.00  0.00     0.053 H 
ATOM     55  H   UNK d   2       3.950   2.345  -2.099  0.00  0.00     0.053 H 
ATOM     56  H   UNK d   2       5.502   0.756  -1.216  0.00  0.00     0.059 H 
ENDBRANCH  49  52
ENDBRANCH  48  49
ENDBRANCH   1  48
TORSDOF 4
ENDMDL
MODEL 4
REMARK VINA RESULT:      -5.8      9.077     14.185
REMARK  4 active torsions:
REMARK  status: ('A' for Active; 'I' for Inactive)
REMARK    1  A    between atoms: C_2  and  C_3 
REMARK    2  A    between atoms: C_3  and  O_4 
REMARK    3  A    between atoms: O_4  and  C_5 
REMARK       I    between atoms: N_15  and  C_23 
REMARK    4  A    between atoms: C_23  and  C_25 
ROOT
ATOM      1  C   UNK d   2      11.495   7.300   0.779  0.00  0.00     0.077 C 
ATOM      2  H   UNK d   2      12.511   7.511   0.444  0.00  0.00     0.061 H 
ATOM      3  C   UNK d   2      10.486   8.230   0.073  0.00  0.00     0.002 C 
ATOM      4  C   UNK d   2       9.820   7.371  -1.007  0.00  0.00     0.105 C 
ATOM      5  H   UNK d   2       8.751   7.273  -0.814  0.00  0.00     0.060 H 
ATOM      6  C   UNK d   2      10.043   7.948  -2.376  0.00  0.00     0.237 C 
ATOM      7  O   UNK d   2      10.228   9.140  -2.505  0.00  0.00    -0.274 OA
ATOM      8  N   UNK d   2      10.461   6.047  -0.969  0.00  0.00    -0.286 N 
ATOM      9  C   UNK d   2      11.072   5.878   0.349  0.00  0.00     0.042 C 
ATOM     10  H   UNK d   2      11.006   9.073  -0.382  0.00  0.00     0.031 H 
ATOM     11  H   UNK d   2       9.742   8.587   0.785  0.00  0.00     0.031 H 
ATOM     12  H   UNK d   2      10.346   5.470   1.054  0.00  0.00     0.049 H 
ATOM     13  H   UNK d   2      11.944   5.227   0.283  0.00  0.00     0.049 H 
ATOM     14  N   UNK d   1      10.039   7.144  -3.472  0.00  0.00    -0.285 N 
ATOM     15  C   UNK d   1      10.116   7.828  -4.766  0.00  0.00     0.031 C 
ATOM     16  C   UNK d   1      10.998   7.056  -5.744  0.00  0.00     0.031 C 
ATOM     17  N   UNK d   1      10.554   5.652  -5.732  0.00  0.00    -0.297 N 
ATOM     18  C   UNK d   1      10.620   4.929  -4.463  0.00  0.00     0.042 C 
ATOM     19  C   UNK d   1       9.929   5.702  -3.347  0.00  0.00     0.118 C 
ATOM     20  H   UNK d   1       8.871   5.442  -3.366  0.00  0.00     0.061 H 
ATOM     21  C   UNK d   1      10.487   5.215  -2.026  0.00  0.00     0.238 C 
ATOM     22  O   UNK d   1      10.947   4.098  -1.922  0.00  0.00    -0.274 OA
ATOM     23  C   UNK d   1      10.103   5.055  -6.852  0.00  0.00     0.219 C 
ATOM     24  O   UNK d   1       9.836   3.871  -6.843  0.00  0.00    -0.275 OA
ATOM     25  H   UNK d   1      10.532   8.824  -4.621  0.00  0.00     0.048 H 
ATOM     26  H   UNK d   1       9.112   7.917  -5.183  0.00  0.00     0.048 H 
ATOM     27  H   UNK d   1      12.040   7.117  -5.430  0.00  0.00     0.048 H 
ATOM     28  H   UNK d   1      10.889   7.468  -6.748  0.00  0.00     0.048 H 
ATOM     29  H   UNK d   1      10.135   3.960  -4.579  0.00  0.00     0.049 H 
ATOM     30  H   UNK d   1      11.665   4.774  -4.194  0.00  0.00     0.049 H 
ENDROOT
BRANCH  23  31
ATOM     31  C   UNK d   1       9.928   5.855  -8.117  0.00  0.00     0.036 C 
ATOM     32  C   UNK d   1      11.272   5.962  -8.842  0.00  0.00    -0.042 C 
ATOM     33  C   UNK d   1      11.095   6.775 -10.125  0.00  0.00    -0.052 C 
ATOM     34  H   UNK d   1      11.997   6.455  -8.195  0.00  0.00     0.027 H 
ATOM     35  H   UNK d   1      11.629   4.963  -9.092  0.00  0.00     0.027 H 
ATOM     36  C   UNK d   1      10.079   6.081 -11.034  0.00  0.00    -0.053 C 
ATOM     37  H   UNK d   1      10.738   7.774  -9.876  0.00  0.00     0.026 H 
ATOM     38  H   UNK d   1      12.052   6.850 -10.643  0.00  0.00     0.026 H 
ATOM     39  C   UNK d   1       8.735   5.975 -10.309  0.00  0.00    -0.052 C 
ATOM     40  H   UNK d   1       9.952   6.661 -11.948  0.00  0.00     0.026 H 
ATOM     41  H   UNK d   1      10.436   5.082 -11.283  0.00  0.00     0.026 H 
ATOM     42  C   UNK d   1       8.912   5.162  -9.025  0.00  0.00    -0.042 C 
ATOM     43  H   UNK d   1       8.378   6.974 -10.059  0.00  0.00     0.026 H 
ATOM     44  H   UNK d   1       8.011   5.480 -10.955  0.00  0.00     0.026 H 
ATOM     45  H   UNK d   1       9.270   4.163  -9.274  0.00  0.00     0.027 H 
ATOM     46  H   UNK d   1       7.955   5.086  -8.507  0.00  0.00     0.027 H 
ATOM     47  H   UNK d   1       9.571   6.854  -7.868  0.00  0.00     0.039 H 
ENDBRANCH  23  31
BRANCH   1  48
ATOM     48  O   UNK d   2      11.399   7.442   2.197  0.00  0.00    -0.371 OA
BRANCH  48  49
ATOM     49  C   UNK d   2      10.950   6.265   2.871  0.00  0.00     0.066 C 
ATOM     50  H   UNK d   2       9.923   6.047   2.577  0.00  0.00     0.060 H 
ATOM     51  H   UNK d   2      11.590   5.425   2.601  0.00  0.00     0.060 H 
BRANCH  49  52
ATOM     52  C   UNK d   2      11.011   6.484   4.361  0.00  0.00    -0.066 C 
ATOM     53  C   UNK d   2      11.517   7.594   4.839  0.00  0.00    -0.101 C 
ATOM     54  H   UNK d   2      11.891   8.351   4.165  0.00  0.00     0.053 H 
ATOM     55  H   UNK d   2      11.562   7.751   5.907  0.00  0.00     0.053 H 
ATOM     56  H   UNK d   2      10.639   5.726   5.034  0.00  0.00     0.059 H 
ENDBRANCH  49  52
ENDBRANCH  48  49
ENDBRANCH   1  48
TORSDOF 4
ENDMDL
MODEL 5
REMARK VINA RESULT:      -5.8      1.678      2.387
REMARK  4 active torsions:
REMARK  status: ('A' for Active; 'I' for Inactive)
REMARK    1  A    between atoms: C_2  and  C_3 
REMARK    2  A    between atoms: C_3  and  O_4 
REMARK    3  A    between atoms: O_4  and  C_5 
REMARK       I    between atoms: N_15  and  C_23 
REMARK    4  A    between atoms: C_23  and  C_25 
ROOT
ATOM      1  C   UNK d   2       4.734  -1.836 -14.313  0.00  0.00     0.077 C 
ATOM      2  H   UNK d   2       5.092  -2.846 -14.110  0.00  0.00     0.061 H 
ATOM      3  C   UNK d   2       3.343  -1.616 -13.683  0.00  0.00     0.002 C 
ATOM      4  C   UNK d   2       3.590  -0.783 -12.420  0.00  0.00     0.105 C 
ATOM      5  H   UNK d   2       3.097   0.186 -12.497  0.00  0.00     0.060 H 
ATOM      6  C   UNK d   2       3.114  -1.505 -11.191  0.00  0.00     0.237 C 
ATOM      7  O   UNK d   2       2.218  -2.317 -11.278  0.00  0.00    -0.274 OA
ATOM      8  N   UNK d   2       5.045  -0.599 -12.296  0.00  0.00    -0.286 N 
ATOM      9  C   UNK d   2       5.639  -0.796 -13.618  0.00  0.00     0.042 C 
ATOM     10  H   UNK d   2       2.892  -2.574 -13.423  0.00  0.00     0.031 H 
ATOM     11  H   UNK d   2       2.699  -1.073 -14.375  0.00  0.00     0.031 H 
ATOM     12  H   UNK d   2       5.638   0.141 -14.177  0.00  0.00     0.049 H 
ATOM     13  H   UNK d   2       6.655  -1.180 -13.523  0.00  0.00     0.049 H 
ATOM     14  N   UNK d   1       3.680  -1.252  -9.982  0.00  0.00    -0.285 N 
ATOM     15  C   UNK d   1       3.041  -1.897  -8.830  0.00  0.00     0.031 C 
ATOM     16  C   UNK d   1       4.082  -2.376  -7.822  0.00  0.00     0.031 C 
ATOM     17  N   UNK d   1       5.000  -1.255  -7.561  0.00  0.00    -0.297 N 
ATOM     18  C   UNK d   1       5.748  -0.712  -8.694  0.00  0.00     0.042 C 
ATOM     19  C   UNK d   1       4.824  -0.368  -9.856  0.00  0.00     0.118 C 
ATOM     20  H   UNK d   1       4.453   0.644  -9.699  0.00  0.00     0.061 H 
ATOM     21  C   UNK d   1       5.654  -0.350 -11.123  0.00  0.00     0.238 C 
ATOM     22  O   UNK d   1       6.843  -0.116 -11.081  0.00  0.00    -0.274 OA
ATOM     23  C   UNK d   1       5.145  -0.747  -6.322  0.00  0.00     0.219 C 
ATOM     24  O   UNK d   1       5.979   0.109  -6.111  0.00  0.00    -0.275 OA
ATOM     25  H   UNK d   1       2.459  -2.751  -9.175  0.00  0.00     0.048 H 
ATOM     26  H   UNK d   1       2.375  -1.183  -8.345  0.00  0.00     0.048 H 
ATOM     27  H   UNK d   1       4.636  -3.219  -8.233  0.00  0.00     0.048 H 
ATOM     28  H   UNK d   1       3.591  -2.674  -6.894  0.00  0.00     0.048 H 
ATOM     29  H   UNK d   1       6.272   0.189  -8.376  0.00  0.00     0.049 H 
ATOM     30  H   UNK d   1       6.479  -1.449  -9.026  0.00  0.00     0.049 H 
ENDROOT
BRANCH  23  31
ATOM     31  C   UNK d   1       4.274  -1.241  -5.197  0.00  0.00     0.036 C 
ATOM     32  C   UNK d   1       5.143  -1.932  -4.143  0.00  0.00    -0.042 C 
ATOM     33  C   UNK d   1       4.258  -2.434  -3.002  0.00  0.00    -0.052 C 
ATOM     34  H   UNK d   1       5.665  -2.774  -4.598  0.00  0.00     0.027 H 
ATOM     35  H   UNK d   1       5.872  -1.222  -3.753  0.00  0.00     0.027 H 
ATOM     36  C   UNK d   1       3.527  -1.252  -2.364  0.00  0.00    -0.053 C 
ATOM     37  H   UNK d   1       3.529  -3.144  -3.392  0.00  0.00     0.026 H 
ATOM     38  H   UNK d   1       4.877  -2.926  -2.251  0.00  0.00     0.026 H 
ATOM     39  C   UNK d   1       2.658  -0.561  -3.417  0.00  0.00    -0.052 C 
ATOM     40  H   UNK d   1       2.896  -1.610  -1.551  0.00  0.00     0.026 H 
ATOM     41  H   UNK d   1       4.256  -0.542  -1.973  0.00  0.00     0.026 H 
ATOM     42  C   UNK d   1       3.543  -0.059  -4.559  0.00  0.00    -0.042 C 
ATOM     43  H   UNK d   1       1.929  -1.271  -3.807  0.00  0.00     0.026 H 
ATOM     44  H   UNK d   1       2.137   0.282  -2.962  0.00  0.00     0.026 H 
ATOM     45  H   UNK d   1       4.273   0.651  -4.169  0.00  0.00     0.027 H 
ATOM     46  H   UNK d   1       2.924   0.433  -5.310  0.00  0.00     0.027 H 
ATOM     47  H   UNK d   1       3.545  -1.951  -5.587  0.00  0.00     0.039 H 
ENDBRANCH  23  31
BRANCH   1  48
ATOM     48  O   UNK d   2       4.690  -1.598 -15.721  0.00  0.00    -0.371 OA
BRANCH  48  49
ATOM     49  C   UNK d   2       5.120  -0.290 -16.104  0.00  0.00     0.066 C 
ATOM     50  H   UNK d   2       5.497   0.239 -15.228  0.00  0.00     0.060 H 
ATOM     51  H   UNK d   2       5.913  -0.372 -16.848  0.00  0.00     0.060 H 
BRANCH  49  52
ATOM     52  C   UNK d   2       3.958   0.470 -16.689  0.00  0.00    -0.066 C 
ATOM     53  C   UNK d   2       4.040   1.768 -16.852  0.00  0.00    -0.101 C 
ATOM     54  H   UNK d   2       4.941   2.292 -16.567  0.00  0.00     0.053 H 
ATOM     55  H   UNK d   2       3.207   2.313 -17.272  0.00  0.00     0.053 H 
ATOM     56  H   UNK d   2       3.058  -0.053 -16.974  0.00  0.00     0.059 H 
ENDBRANCH  49  52
ENDBRANCH  48  49
ENDBRANCH   1  48
TORSDOF 4
ENDMDL
MODEL 6
REMARK VINA RESULT:      -5.8      9.603     14.857
REMARK  4 active torsions:
REMARK  status: ('A' for Active; 'I' for Inactive)
REMARK    1  A    between atoms: C_2  and  C_3 
REMARK    2  A    between atoms: C_3  and  O_4 
REMARK    3  A    between atoms: O_4  and  C_5 
REMARK       I    between atoms: N_15  and  C_23 
REMARK    4  A    between atoms: C_23  and  C_25 
ROOT
ATOM      1  C   UNK d   2      10.979   7.245   1.365  0.00  0.00     0.077 C 
ATOM      2  H   UNK d   2       9.890   7.223   1.401  0.00  0.00     0.061 H 
ATOM      3  C   UNK d   2      11.525   5.979   0.672  0.00  0.00     0.002 C 
ATOM      4  C   UNK d   2      11.925   6.421  -0.739  0.00  0.00     0.105 C 
ATOM      5  H   UNK d   2      12.997   6.295  -0.892  0.00  0.00     0.060 H 
ATOM      6  C   UNK d   2      11.164   5.657  -1.786  0.00  0.00     0.237 C 
ATOM      7  O   UNK d   2      10.752   4.544  -1.538  0.00  0.00    -0.274 OA
ATOM      8  N   UNK d   2      11.563   7.842  -0.871  0.00  0.00    -0.286 N 
ATOM      9  C   UNK d   2      11.465   8.410   0.474  0.00  0.00     0.042 C 
ATOM     10  H   UNK d   2      10.750   5.214   0.623  0.00  0.00     0.031 H 
ATOM     11  H   UNK d   2      12.394   5.601   1.210  0.00  0.00     0.031 H 
ATOM     12  H   UNK d   2      12.441   8.761   0.809  0.00  0.00     0.049 H 
ATOM     13  H   UNK d   2      10.742   9.225   0.489  0.00  0.00     0.049 H 
ATOM     14  N   UNK d   1      10.936   6.205  -3.009  0.00  0.00    -0.285 N 
ATOM     15  C   UNK d   1      10.318   5.318  -4.000  0.00  0.00     0.031 C 
ATOM     16  C   UNK d   1       9.302   6.073  -4.853  0.00  0.00     0.031 C 
ATOM     17  N   UNK d   1       9.950   7.302  -5.338  0.00  0.00    -0.297 N 
ATOM     18  C   UNK d   1      10.434   8.254  -4.340  0.00  0.00     0.042 C 
ATOM     19  C   UNK d   1      11.319   7.573  -3.305  0.00  0.00     0.118 C 
ATOM     20  H   UNK d   1      12.337   7.561  -3.692  0.00  0.00     0.061 H 
ATOM     21  C   UNK d   1      11.324   8.431  -2.056  0.00  0.00     0.238 C 
ATOM     22  O   UNK d   1      11.118   9.624  -2.124  0.00  0.00    -0.274 OA
ATOM     23  C   UNK d   1      10.095   7.540  -6.657  0.00  0.00     0.219 C 
ATOM     24  O   UNK d   1      10.542   8.602  -7.036  0.00  0.00    -0.275 OA
ATOM     25  H   UNK d   1       9.815   4.501  -3.485  0.00  0.00     0.048 H 
ATOM     26  H   UNK d   1      11.095   4.909  -4.647  0.00  0.00     0.048 H 
ATOM     27  H   UNK d   1       8.430   6.328  -4.251  0.00  0.00     0.048 H 
ATOM     28  H   UNK d   1       8.998   5.457  -5.701  0.00  0.00     0.048 H 
ATOM     29  H   UNK d   1      11.006   9.035  -4.841  0.00  0.00     0.049 H 
ATOM     30  H   UNK d   1       9.580   8.707  -3.836  0.00  0.00     0.049 H 
ENDROOT
BRANCH  23  31
ATOM     31  C   UNK d   1       9.701   6.488  -7.661  0.00  0.00     0.036 C 
ATOM     32  C   UNK d   1       9.046   7.158  -8.871  0.00  0.00    -0.042 C 
ATOM     33  C   UNK d   1       8.646   6.090  -9.890  0.00  0.00    -0.052 C 
ATOM     34  H   UNK d   1       8.160   7.705  -8.550  0.00  0.00     0.027 H 
ATOM     35  H   UNK d   1       9.754   7.850  -9.329  0.00  0.00     0.027 H 
ATOM     36  C   UNK d   1       9.890   5.323 -10.343  0.00  0.00    -0.053 C 
ATOM     37  H   UNK d   1       7.939   5.399  -9.433  0.00  0.00     0.026 H 
ATOM     38  H   UNK d   1       8.180   6.567 -10.753  0.00  0.00     0.026 H 
ATOM     39  C   UNK d   1      10.544   4.653  -9.132  0.00  0.00    -0.052 C 
ATOM     40  H   UNK d   1       9.604   4.562 -11.068  0.00  0.00     0.026 H 
ATOM     41  H   UNK d   1      10.597   6.015 -10.800  0.00  0.00     0.026 H 
ATOM     42  C   UNK d   1      10.944   5.721  -8.112  0.00  0.00    -0.042 C 
ATOM     43  H   UNK d   1       9.837   3.961  -8.675  0.00  0.00     0.026 H 
ATOM     44  H   UNK d   1      11.430   4.107  -9.454  0.00  0.00     0.026 H 
ATOM     45  H   UNK d   1      11.651   6.414  -8.570  0.00  0.00     0.027 H 
ATOM     46  H   UNK d   1      11.410   5.244  -7.250  0.00  0.00     0.027 H 
ATOM     47  H   UNK d   1       8.993   5.796  -7.203  0.00  0.00     0.039 H 
ENDBRANCH  23  31
BRANCH   1  48
ATOM     48  O   UNK d   2      11.518   7.366   2.682  0.00  0.00    -0.371 OA
BRANCH  48  49
ATOM     49  C   UNK d   2      11.052   6.371   3.596  0.00  0.00     0.066 C 
ATOM     50  H   UNK d   2       9.987   6.203   3.438  0.00  0.00     0.060 H 
ATOM     51  H   UNK d   2      11.595   5.441   3.427  0.00  0.00     0.060 H 
BRANCH  49  52
ATOM     52  C   UNK d   2      11.284   6.838   5.010  0.00  0.00    -0.066 C 
ATOM     53  C   UNK d   2      11.817   6.026   5.888  0.00  0.00    -0.101 C 
ATOM     54  H   UNK d   2      12.090   5.021   5.599  0.00  0.00     0.053 H 
ATOM     55  H   UNK d   2      11.983   6.360   6.902  0.00  0.00     0.053 H 
ATOM     56  H   UNK d   2      11.010   7.842   5.299  0.00  0.00     0.059 H 
ENDBRANCH  49  52
ENDBRANCH  48  49
ENDBRANCH   1  48
TORSDOF 4
ENDMDL
MODEL 7
REMARK VINA RESULT:      -5.5      9.545     13.890
REMARK  4 active torsions:
REMARK  status: ('A' for Active; 'I' for Inactive)
REMARK    1  A    between atoms: C_2  and  C_3 
REMARK    2  A    between atoms: C_3  and  O_4 
REMARK    3  A    between atoms: O_4  and  C_5 
REMARK       I    between atoms: N_15  and  C_23 
REMARK    4  A    between atoms: C_23  and  C_25 
ROOT
ATOM      1  C   UNK d   2       9.353   7.127  -2.065  0.00  0.00     0.077 C 
ATOM      2  H   UNK d   2       8.290   7.224  -2.284  0.00  0.00     0.061 H 
ATOM      3  C   UNK d   2       9.949   5.907  -2.798  0.00  0.00     0.002 C 
ATOM      4  C   UNK d   2      10.716   6.481  -3.995  0.00  0.00     0.105 C 
ATOM      5  H   UNK d   2      11.779   6.254  -3.914  0.00  0.00     0.060 H 
ATOM      6  C   UNK d   2      10.176   5.951  -5.293  0.00  0.00     0.237 C 
ATOM      7  O   UNK d   2       9.628   4.869  -5.320  0.00  0.00    -0.274 OA
ATOM      8  N   UNK d   2      10.511   7.938  -3.987  0.00  0.00    -0.286 N 
ATOM      9  C   UNK d   2      10.133   8.334  -2.630  0.00  0.00     0.042 C 
ATOM     10  H   UNK d   2       9.151   5.248  -3.142  0.00  0.00     0.031 H 
ATOM     11  H   UNK d   2      10.627   5.366  -2.139  0.00  0.00     0.031 H 
ATOM     12  H   UNK d   2      11.022   8.525  -2.029  0.00  0.00     0.049 H 
ATOM     13  H   UNK d   2       9.495   9.217  -2.657  0.00  0.00     0.049 H 
ATOM     14  N   UNK d   1      10.298   6.675  -6.436  0.00  0.00    -0.285 N 
ATOM     15  C   UNK d   1       9.872   6.000  -7.667  0.00  0.00     0.031 C 
ATOM     16  C   UNK d   1       9.159   6.970  -8.606  0.00  0.00     0.031 C 
ATOM     17  N   UNK d   1      10.002   8.169  -8.734  0.00  0.00    -0.297 N 
ATOM     18  C   UNK d   1      10.301   8.923  -7.517  0.00  0.00     0.042 C 
ATOM     19  C   UNK d   1      10.849   8.017  -6.423  0.00  0.00     0.118 C 
ATOM     20  H   UNK d   1      11.927   7.940  -6.562  0.00  0.00     0.061 H 
ATOM     21  C   UNK d   1      10.617   8.699  -5.091  0.00  0.00     0.238 C 
ATOM     22  O   UNK d   1      10.529   9.907  -5.021  0.00  0.00    -0.274 OA
ATOM     23  C   UNK d   1      10.483   8.559  -9.931  0.00  0.00     0.219 C 
ATOM     24  O   UNK d   1      11.092   9.603 -10.030  0.00  0.00    -0.275 OA
ATOM     25  H   UNK d   1       9.196   5.185  -7.414  0.00  0.00     0.048 H 
ATOM     26  H   UNK d   1      10.749   5.593  -8.172  0.00  0.00     0.048 H 
ATOM     27  H   UNK d   1       8.189   7.242  -8.190  0.00  0.00     0.048 H 
ATOM     28  H   UNK d   1       9.024   6.508  -9.585  0.00  0.00     0.048 H 
ATOM     29  H   UNK d   1      11.038   9.692  -7.747  0.00  0.00     0.049 H 
ATOM     30  H   UNK d   1       9.388   9.401  -7.161  0.00  0.00     0.049 H 
ENDROOT
BRANCH  23  31
ATOM     31  C   UNK d   1      10.264   7.698 -11.149  0.00  0.00     0.036 C 
ATOM     32  C   UNK d   1       9.933   8.587 -12.349  0.00  0.00    -0.042 C 
ATOM     33  C   UNK d   1       9.710   7.713 -13.584  0.00  0.00    -0.052 C 
ATOM     34  H   UNK d   1       9.029   9.159 -12.140  0.00  0.00     0.027 H 
ATOM     35  H   UNK d   1      10.761   9.272 -12.533  0.00  0.00     0.027 H 
ATOM     36  C   UNK d   1      10.979   6.912 -13.879  0.00  0.00    -0.053 C 
ATOM     37  H   UNK d   1       8.882   7.029 -13.400  0.00  0.00     0.026 H 
ATOM     38  H   UNK d   1       9.474   8.346 -14.440  0.00  0.00     0.026 H 
ATOM     39  C   UNK d   1      11.310   6.022 -12.678  0.00  0.00    -0.052 C 
ATOM     40  H   UNK d   1      10.820   6.288 -14.758  0.00  0.00     0.026 H 
ATOM     41  H   UNK d   1      11.807   7.596 -14.063  0.00  0.00     0.026 H 
ATOM     42  C   UNK d   1      11.533   6.896 -11.442  0.00  0.00    -0.042 C 
ATOM     43  H   UNK d   1      10.482   5.338 -12.494  0.00  0.00     0.026 H 
ATOM     44  H   UNK d   1      12.215   5.451 -12.887  0.00  0.00     0.026 H 
ATOM     45  H   UNK d   1      12.361   7.581 -11.626  0.00  0.00     0.027 H 
ATOM     46  H   UNK d   1      11.768   6.263 -10.587  0.00  0.00     0.027 H 
ATOM     47  H   UNK d   1       9.436   7.013 -10.965  0.00  0.00     0.039 H 
ENDBRANCH  23  31
BRANCH   1  48
ATOM     48  O   UNK d   2       9.562   7.013  -0.656  0.00  0.00    -0.371 OA
BRANCH  48  49
ATOM     49  C   UNK d   2      10.704   7.727  -0.177  0.00  0.00     0.066 C 
ATOM     50  H   UNK d   2      11.492   7.698  -0.930  0.00  0.00     0.060 H 
ATOM     51  H   UNK d   2      10.428   8.763   0.020  0.00  0.00     0.060 H 
BRANCH  49  52
ATOM     52  C   UNK d   2      11.199   7.088   1.094  0.00  0.00    -0.066 C 
ATOM     53  C   UNK d   2      11.068   5.797   1.272  0.00  0.00    -0.101 C 
ATOM     54  H   UNK d   2      10.605   5.190   0.508  0.00  0.00     0.053 H 
ATOM     55  H   UNK d   2      11.423   5.338   2.184  0.00  0.00     0.053 H 
ATOM     56  H   UNK d   2      11.661   7.694   1.859  0.00  0.00     0.059 H 
ENDBRANCH  49  52
ENDBRANCH  48  49
ENDBRANCH   1  48
TORSDOF 4
ENDMDL
MODEL 8
REMARK VINA RESULT:      -5.5     11.118     16.086
REMARK  4 active torsions:
REMARK  status: ('A' for Active; 'I' for Inactive)
REMARK    1  A    between atoms: C_2  and  C_3 
REMARK    2  A    between atoms: C_3  and  O_4 
REMARK    3  A    between atoms: O_4  and  C_5 
REMARK       I    between atoms: N_15  and  C_23 
REMARK    4  A    between atoms: C_23  and  C_25 
ROOT
ATOM      1  C   UNK d   2      12.336   9.991   2.187  0.00  0.00     0.077 C 
ATOM      2  H   UNK d   2      13.350   9.724   1.888  0.00  0.00     0.061 H 
ATOM      3  C   UNK d   2      11.733  11.016   1.204  0.00  0.00     0.002 C 
ATOM      4  C   UNK d   2      10.771  10.220   0.316  0.00  0.00     0.105 C 
ATOM      5  H   UNK d   2       9.748  10.572   0.446  0.00  0.00     0.060 H 
ATOM      6  C   UNK d   2      11.165  10.310  -1.131  0.00  0.00     0.237 C 
ATOM      7  O   UNK d   2      11.779  11.277  -1.529  0.00  0.00    -0.274 OA
ATOM      8  N   UNK d   2      10.872   8.808   0.720  0.00  0.00    -0.286 N 
ATOM      9  C   UNK d   2      11.403   8.765   2.083  0.00  0.00     0.042 C 
ATOM     10  H   UNK d   2      12.521  11.466   0.600  0.00  0.00     0.031 H 
ATOM     11  H   UNK d   2      11.191  11.788   1.751  0.00  0.00     0.031 H 
ATOM     12  H   UNK d   2      10.593   8.843   2.808  0.00  0.00     0.049 H 
ATOM     13  H   UNK d   2      11.967   7.845   2.241  0.00  0.00     0.049 H 
ATOM     14  N   UNK d   1      10.838   9.315  -1.997  0.00  0.00    -0.285 N 
ATOM     15  C   UNK d   1      11.138   9.574  -3.409  0.00  0.00     0.031 C 
ATOM     16  C   UNK d   1      11.646   8.312  -4.102  0.00  0.00     0.031 C 
ATOM     17  N   UNK d   1      10.711   7.221  -3.786  0.00  0.00    -0.297 N 
ATOM     18  C   UNK d   1      10.528   6.869  -2.378  0.00  0.00     0.042 C 
ATOM     19  C   UNK d   1      10.200   8.095  -1.537  0.00  0.00     0.118 C 
ATOM     20  H   UNK d   1       9.121   8.245  -1.572  0.00  0.00     0.061 H 
ATOM     21  C   UNK d   1      10.563   7.787  -0.099  0.00  0.00     0.238 C 
ATOM     22  O   UNK d   1      10.574   6.644   0.305  0.00  0.00    -0.274 OA
ATOM     23  C   UNK d   1      10.045   6.569  -4.759  0.00  0.00     0.219 C 
ATOM     24  O   UNK d   1       9.356   5.609  -4.485  0.00  0.00    -0.275 OA
ATOM     25  H   UNK d   1      11.899  10.350  -3.477  0.00  0.00     0.048 H 
ATOM     26  H   UNK d   1      10.231   9.916  -3.910  0.00  0.00     0.048 H 
ATOM     27  H   UNK d   1      12.642   8.064  -3.735  0.00  0.00     0.048 H 
ATOM     28  H   UNK d   1      11.678   8.469  -5.181  0.00  0.00     0.048 H 
ATOM     29  H   UNK d   1       9.714   6.149  -2.294  0.00  0.00     0.049 H 
ATOM     30  H   UNK d   1      11.445   6.414  -2.003  0.00  0.00     0.049 H 
ENDROOT
BRANCH  23  31
ATOM     31  C   UNK d   1      10.156   7.032  -6.189  0.00  0.00     0.036 C 
ATOM     32  C   UNK d   1       9.962   5.839  -7.128  0.00  0.00    -0.042 C 
ATOM     33  C   UNK d   1      10.076   6.308  -8.579  0.00  0.00    -0.052 C 
ATOM     34  H   UNK d   1      10.728   5.089  -6.926  0.00  0.00     0.027 H 
ATOM     35  H   UNK d   1       8.977   5.403  -6.963  0.00  0.00     0.027 H 
ATOM     36  C   UNK d   1       9.000   7.358  -8.861  0.00  0.00    -0.053 C 
ATOM     37  H   UNK d   1      11.061   6.743  -8.744  0.00  0.00     0.026 H 
ATOM     38  H   UNK d   1       9.937   5.458  -9.247  0.00  0.00     0.026 H 
ATOM     39  C   UNK d   1       9.194   8.552  -7.923  0.00  0.00    -0.052 C 
ATOM     40  H   UNK d   1       9.082   7.694  -9.895  0.00  0.00     0.026 H 
ATOM     41  H   UNK d   1       8.015   6.923  -8.696  0.00  0.00     0.026 H 
ATOM     42  C   UNK d   1       9.081   8.083  -6.471  0.00  0.00    -0.042 C 
ATOM     43  H   UNK d   1      10.180   8.987  -8.088  0.00  0.00     0.026 H 
ATOM     44  H   UNK d   1       8.428   9.300  -8.124  0.00  0.00     0.026 H 
ATOM     45  H   UNK d   1       8.095   7.647  -6.306  0.00  0.00     0.027 H 
ATOM     46  H   UNK d   1       9.220   8.932  -5.802  0.00  0.00     0.027 H 
ATOM     47  H   UNK d   1      11.142   7.467  -6.354  0.00  0.00     0.039 H 
ENDBRANCH  23  31
BRANCH   1  48
ATOM     48  O   UNK d   2      12.330  10.511   3.518  0.00  0.00    -0.371 OA
BRANCH  48  49
ATOM     49  C   UNK d   2      13.024   9.695   4.464  0.00  0.00     0.066 C 
ATOM     50  H   UNK d   2      13.296   8.748   3.998  0.00  0.00     0.060 H 
ATOM     51  H   UNK d   2      13.928  10.209   4.793  0.00  0.00     0.060 H 
BRANCH  49  52
ATOM     52  C   UNK d   2      12.134   9.434   5.652  0.00  0.00    -0.066 C 
ATOM     53  C   UNK d   2      11.566   8.263   5.799  0.00  0.00    -0.101 C 
ATOM     54  H   UNK d   2      11.736   7.484   5.070  0.00  0.00     0.053 H 
ATOM     55  H   UNK d   2      10.927   8.076   6.650  0.00  0.00     0.053 H 
ATOM     56  H   UNK d   2      11.964  10.212   6.381  0.00  0.00     0.059 H 
ENDBRANCH  49  52
ENDBRANCH  48  49
ENDBRANCH   1  48
TORSDOF 4
ENDMDL
MODEL 9
REMARK VINA RESULT:      -5.4     10.094     14.759
REMARK  4 active torsions:
REMARK  status: ('A' for Active; 'I' for Inactive)
REMARK    1  A    between atoms: C_2  and  C_3 
REMARK    2  A    between atoms: C_3  and  O_4 
REMARK    3  A    between atoms: O_4  and  C_5 
REMARK       I    between atoms: N_15  and  C_23 
REMARK    4  A    between atoms: C_23  and  C_25 
ROOT
ATOM      1  C   UNK d   2      11.533  10.507   0.831  0.00  0.00     0.077 C 
ATOM      2  H   UNK d   2      12.445  10.622   0.245  0.00  0.00     0.061 H 
ATOM      3  C   UNK d   2      10.293  10.519  -0.088  0.00  0.00     0.002 C 
ATOM      4  C   UNK d   2       9.856   9.056  -0.209  0.00  0.00     0.105 C 
ATOM      5  H   UNK d   2       8.859   8.917   0.209  0.00  0.00     0.060 H 
ATOM      6  C   UNK d   2       9.881   8.597  -1.640  0.00  0.00     0.237 C 
ATOM      7  O   UNK d   2       9.734   9.403  -2.534  0.00  0.00    -0.274 OA
ATOM      8  N   UNK d   2      10.831   8.245   0.538  0.00  0.00    -0.286 N 
ATOM      9  C   UNK d   2      11.498   9.117   1.504  0.00  0.00     0.042 C 
ATOM     10  H   UNK d   2      10.555  10.918  -1.067  0.00  0.00     0.031 H 
ATOM     11  H   UNK d   2       9.499  11.115   0.362  0.00  0.00     0.031 H 
ATOM     12  H   UNK d   2      10.927   9.161   2.433  0.00  0.00     0.049 H 
ATOM     13  H   UNK d   2      12.511   8.765   1.698  0.00  0.00     0.049 H 
ATOM     14  N   UNK d   1      10.066   7.284  -1.939  0.00  0.00    -0.285 N 
ATOM     15  C   UNK d   1       9.923   6.925  -3.354  0.00  0.00     0.031 C 
ATOM     16  C   UNK d   1      10.955   5.877  -3.761  0.00  0.00     0.031 C 
ATOM     17  N   UNK d   1      10.907   4.793  -2.768  0.00  0.00    -0.297 N 
ATOM     18  C   UNK d   1      11.197   5.133  -1.375  0.00  0.00     0.042 C 
ATOM     19  C   UNK d   1      10.352   6.308  -0.903  0.00  0.00     0.118 C 
ATOM     20  H   UNK d   1       9.403   5.914  -0.541  0.00  0.00     0.061 H 
ATOM     21  C   UNK d   1      11.053   6.944   0.280  0.00  0.00     0.238 C 
ATOM     22  O   UNK d   1      11.800   6.293   0.979  0.00  0.00    -0.274 OA
ATOM     23  C   UNK d   1      10.605   3.530  -3.128  0.00  0.00     0.219 C 
ATOM     24  O   UNK d   1      10.668   2.635  -2.312  0.00  0.00    -0.275 OA
ATOM     25  H   UNK d   1      10.058   7.817  -3.964  0.00  0.00     0.048 H 
ATOM     26  H   UNK d   1       8.922   6.526  -3.521  0.00  0.00     0.048 H 
ATOM     27  H   UNK d   1      11.950   6.323  -3.774  0.00  0.00     0.048 H 
ATOM     28  H   UNK d   1      10.714   5.484  -4.749  0.00  0.00     0.048 H 
ATOM     29  H   UNK d   1      10.988   4.268  -0.746  0.00  0.00     0.049 H 
ATOM     30  H   UNK d   1      12.252   5.393  -1.284  0.00  0.00     0.049 H 
ENDROOT
BRANCH  23  31
ATOM     31  C   UNK d   1      10.189   3.229  -4.545  0.00  0.00     0.036 C 
ATOM     32  C   UNK d   1      11.263   2.373  -5.221  0.00  0.00    -0.042 C 
ATOM     33  C   UNK d   1      10.842   2.068  -6.659  0.00  0.00    -0.052 C 
ATOM     34  H   UNK d   1      12.210   2.913  -5.225  0.00  0.00     0.027 H 
ATOM     35  H   UNK d   1      11.381   1.439  -4.671  0.00  0.00     0.027 H 
ATOM     36  C   UNK d   1       9.514   1.309  -6.652  0.00  0.00    -0.053 C 
ATOM     37  H   UNK d   1      10.724   3.002  -7.208  0.00  0.00     0.026 H 
ATOM     38  H   UNK d   1      11.606   1.457  -7.140  0.00  0.00     0.026 H 
ATOM     39  C   UNK d   1       8.440   2.166  -5.977  0.00  0.00    -0.052 C 
ATOM     40  H   UNK d   1       9.213   1.092  -7.677  0.00  0.00     0.026 H 
ATOM     41  H   UNK d   1       9.631   0.375  -6.102  0.00  0.00     0.026 H 
ATOM     42  C   UNK d   1       8.861   2.471  -4.538  0.00  0.00    -0.042 C 
ATOM     43  H   UNK d   1       8.322   3.099  -6.527  0.00  0.00     0.026 H 
ATOM     44  H   UNK d   1       7.494   1.625  -5.972  0.00  0.00     0.026 H 
ATOM     45  H   UNK d   1       8.980   1.537  -3.988  0.00  0.00     0.027 H 
ATOM     46  H   UNK d   1       8.097   3.082  -4.057  0.00  0.00     0.027 H 
ATOM     47  H   UNK d   1      10.072   4.163  -5.095  0.00  0.00     0.039 H 
ENDBRANCH  23  31
BRANCH   1  48
ATOM     48  O   UNK d   2      11.438  11.540   1.813  0.00  0.00    -0.371 OA
BRANCH  48  49
ATOM     49  C   UNK d   2      12.536  12.455   1.803  0.00  0.00     0.066 C 
ATOM     50  H   UNK d   2      12.752  12.775   2.823  0.00  0.00     0.060 H 
ATOM     51  H   UNK d   2      13.414  11.964   1.384  0.00  0.00     0.060 H 
BRANCH  49  52
ATOM     52  C   UNK d   2      12.183  13.655   0.964  0.00  0.00    -0.066 C 
ATOM     53  C   UNK d   2      10.979  14.168   1.028  0.00  0.00    -0.101 C 
ATOM     54  H   UNK d   2      10.240  13.730   1.684  0.00  0.00     0.053 H 
ATOM     55  H   UNK d   2      10.725  15.028   0.426  0.00  0.00     0.053 H 
ATOM     56  H   UNK d   2      12.921  14.093   0.308  0.00  0.00     0.059 H 
ENDBRANCH  49  52
ENDBRANCH  48  49
ENDBRANCH   1  48
TORSDOF 4
ENDMDL
