MODEL 1
REMARK VINA RESULT:      -5.0      0.000      0.000
REMARK  3 active torsions:
REMARK  status: ('A' for Active; 'I' for Inactive)
REMARK    1  A    between atoms: C_2  and  C_3 
REMARK    2  A    between atoms: C_6  and  C_9 
REMARK    3  A    between atoms: C_9  and  O_10 
ROOT
ATOM      1  C   LIG d   1       4.775  -0.693  -2.569  0.00  0.00    -0.026 A 
ATOM      2  C   LIG d   1       3.923  -1.782  -2.380  0.00  0.00    -0.054 A 
ATOM      3  C   LIG d   1       4.040  -2.893  -3.189  0.00  0.00    -0.056 A 
ATOM      4  C   LIG d   1       4.999  -2.930  -4.185  0.00  0.00    -0.022 A 
ATOM      5  C   LIG d   1       5.851  -1.856  -4.373  0.00  0.00    -0.056 A 
ATOM      6  C   LIG d   1       5.740  -0.736  -3.575  0.00  0.00    -0.054 A 
ATOM      7  H   LIG d   1       3.174  -1.754  -1.603  0.00  0.00     0.062 H 
ATOM      8  H   LIG d   1       3.381  -3.738  -3.044  0.00  0.00     0.062 H 
ATOM      9  H   LIG d   1       6.601  -1.893  -5.150  0.00  0.00     0.062 H 
ATOM     10  H   LIG d   1       6.402   0.103  -3.727  0.00  0.00     0.062 H 
ENDROOT
BRANCH   1  11
ATOM     11  C   LIG d   1       4.655   0.502  -1.707  0.00  0.00    -0.062 C 
ATOM     12  C   LIG d   1       3.869   1.505  -2.071  0.00  0.00    -0.098 C 
ATOM     13  H   LIG d   1       3.316   1.450  -2.998  0.00  0.00     0.053 H 
ATOM     14  H   LIG d   1       3.780   2.378  -1.441  0.00  0.00     0.053 H 
ATOM     15  H   LIG d   1       5.206   0.557  -0.780  0.00  0.00     0.062 H 
ENDBRANCH   1  11
BRANCH   4  16
ATOM     16  C   LIG d   1       5.121  -4.148  -5.065  0.00  0.00     0.069 C 
ATOM     17  H   LIG d   1       5.371  -5.014  -4.453  0.00  0.00     0.061 H 
ATOM     18  H   LIG d   1       5.907  -3.986  -5.803  0.00  0.00     0.061 H 
BRANCH  16  19
ATOM     19  O   LIG d   1       3.880  -4.379  -5.734  0.00  0.00    -0.390 OA
ATOM     20  H   LIG d   1       3.237  -4.876  -5.209  0.00  0.00     0.210 HD
ENDBRANCH  16  19
ENDBRANCH   4  16
TORSDOF 3
ENDMDL
MODEL 2
REMARK VINA RESULT:      -4.7      1.382      2.012
REMARK  3 active torsions:
REMARK  status: ('A' for Active; 'I' for Inactive)
REMARK    1  A    between atoms: C_2  and  C_3 
REMARK    2  A    between atoms: C_6  and  C_9 
REMARK    3  A    between atoms: C_9  and  O_10 
ROOT
ATOM      1  C   LIG d   1       4.955  -0.684  -2.576  0.00  0.00    -0.026 A 
ATOM      2  C   LIG d   1       6.235  -0.671  -3.133  0.00  0.00    -0.054 A 
ATOM      3  C   LIG d   1       6.649  -1.723  -3.924  0.00  0.00    -0.056 A 
ATOM      4  C   LIG d   1       5.799  -2.788  -4.165  0.00  0.00    -0.022 A 
ATOM      5  C   LIG d   1       4.528  -2.803  -3.620  0.00  0.00    -0.056 A 
ATOM      6  C   LIG d   1       4.103  -1.760  -2.823  0.00  0.00    -0.054 A 
ATOM      7  H   LIG d   1       6.899   0.159  -2.945  0.00  0.00     0.062 H 
ATOM      8  H   LIG d   1       7.639  -1.716  -4.356  0.00  0.00     0.062 H 
ATOM      9  H   LIG d   1       3.868  -3.636  -3.816  0.00  0.00     0.062 H 
ATOM     10  H   LIG d   1       3.112  -1.775  -2.394  0.00  0.00     0.062 H 
ENDROOT
BRANCH   1  11
ATOM     11  C   LIG d   1       4.505   0.440  -1.726  0.00  0.00    -0.062 C 
ATOM     12  C   LIG d   1       3.743   1.395  -2.241  0.00  0.00    -0.098 C 
ATOM     13  H   LIG d   1       3.451   1.352  -3.280  0.00  0.00     0.053 H 
ATOM     14  H   LIG d   1       3.414   2.216  -1.621  0.00  0.00     0.053 H 
ATOM     15  H   LIG d   1       4.797   0.482  -0.688  0.00  0.00     0.062 H 
ENDBRANCH   1  11
BRANCH   4  16
ATOM     16  C   LIG d   1       6.259  -3.934  -5.029  0.00  0.00     0.069 C 
ATOM     17  H   LIG d   1       6.186  -3.649  -6.079  0.00  0.00     0.061 H 
ATOM     18  H   LIG d   1       5.628  -4.804  -4.845  0.00  0.00     0.061 H 
BRANCH  16  19
ATOM     19  O   LIG d   1       7.616  -4.254  -4.716  0.00  0.00    -0.390 OA
ATOM     20  H   LIG d   1       7.714  -4.856  -3.966  0.00  0.00     0.210 HD
ENDBRANCH  16  19
ENDBRANCH   4  16
TORSDOF 3
ENDMDL
MODEL 3
REMARK VINA RESULT:      -4.6      2.600      4.364
REMARK  3 active torsions:
REMARK  status: ('A' for Active; 'I' for Inactive)
REMARK    1  A    between atoms: C_2  and  C_3 
REMARK    2  A    between atoms: C_6  and  C_9 
REMARK    3  A    between atoms: C_9  and  O_10 
ROOT
ATOM      1  C   LIG d   1       6.579  -1.547  -3.312  0.00  0.00    -0.026 A 
ATOM      2  C   LIG d   1       5.332  -1.925  -2.813  0.00  0.00    -0.054 A 
ATOM      3  C   LIG d   1       4.403  -0.959  -2.484  0.00  0.00    -0.056 A 
ATOM      4  C   LIG d   1       4.706   0.381  -2.647  0.00  0.00    -0.022 A 
ATOM      5  C   LIG d   1       5.939   0.761  -3.147  0.00  0.00    -0.056 A 
ATOM      6  C   LIG d   1       6.878  -0.195  -3.475  0.00  0.00    -0.054 A 
ATOM      7  H   LIG d   1       5.094  -2.971  -2.685  0.00  0.00     0.062 H 
ATOM      8  H   LIG d   1       3.437  -1.250  -2.097  0.00  0.00     0.062 H 
ATOM      9  H   LIG d   1       6.168   1.809  -3.276  0.00  0.00     0.062 H 
ATOM     10  H   LIG d   1       7.842   0.104  -3.859  0.00  0.00     0.062 H 
ENDROOT
BRANCH   1  11
ATOM     11  C   LIG d   1       7.580  -2.577  -3.666  0.00  0.00    -0.062 C 
ATOM     12  C   LIG d   1       7.274  -3.523  -4.543  0.00  0.00    -0.098 C 
ATOM     13  H   LIG d   1       6.294  -3.542  -4.998  0.00  0.00     0.053 H 
ATOM     14  H   LIG d   1       8.004  -4.275  -4.802  0.00  0.00     0.053 H 
ATOM     15  H   LIG d   1       8.558  -2.557  -3.211  0.00  0.00     0.062 H 
ENDBRANCH   1  11
BRANCH   4  16
ATOM     16  C   LIG d   1       3.687   1.430  -2.285  0.00  0.00     0.069 C 
ATOM     17  H   LIG d   1       4.049   2.010  -1.436  0.00  0.00     0.061 H 
ATOM     18  H   LIG d   1       2.746   0.947  -2.020  0.00  0.00     0.061 H 
BRANCH  16  19
ATOM     19  O   LIG d   1       3.479   2.298  -3.401  0.00  0.00    -0.390 OA
ATOM     20  H   LIG d   1       2.634   2.164  -3.851  0.00  0.00     0.210 HD
ENDBRANCH  16  19
ENDBRANCH   4  16
TORSDOF 3
ENDMDL
MODEL 4
REMARK VINA RESULT:      -4.5      3.209      4.297
REMARK  3 active torsions:
REMARK  status: ('A' for Active; 'I' for Inactive)
REMARK    1  A    between atoms: C_2  and  C_3 
REMARK    2  A    between atoms: C_6  and  C_9 
REMARK    3  A    between atoms: C_9  and  O_10 
ROOT
ATOM      1  C   LIG d   1       5.434  -0.524  -2.714  0.00  0.00    -0.026 A 
ATOM      2  C   LIG d   1       6.345  -1.391  -3.319  0.00  0.00    -0.054 A 
ATOM      3  C   LIG d   1       7.423  -0.879  -4.011  0.00  0.00    -0.056 A 
ATOM      4  C   LIG d   1       7.601   0.490  -4.107  0.00  0.00    -0.022 A 
ATOM      5  C   LIG d   1       6.704   1.354  -3.504  0.00  0.00    -0.056 A 
ATOM      6  C   LIG d   1       5.619   0.854  -2.814  0.00  0.00    -0.054 A 
ATOM      7  H   LIG d   1       6.207  -2.459  -3.245  0.00  0.00     0.062 H 
ATOM      8  H   LIG d   1       8.130  -1.548  -4.480  0.00  0.00     0.062 H 
ATOM      9  H   LIG d   1       6.851   2.422  -3.579  0.00  0.00     0.062 H 
ATOM     10  H   LIG d   1       4.916   1.530  -2.349  0.00  0.00     0.062 H 
ENDROOT
BRANCH   1  11
ATOM     11  C   LIG d   1       4.276  -1.066  -1.971  0.00  0.00    -0.062 C 
ATOM     12  C   LIG d   1       3.724  -2.211  -2.349  0.00  0.00    -0.098 C 
ATOM     13  H   LIG d   1       4.119  -2.747  -3.199  0.00  0.00     0.053 H 
ATOM     14  H   LIG d   1       2.878  -2.607  -1.807  0.00  0.00     0.053 H 
ATOM     15  H   LIG d   1       3.881  -0.531  -1.121  0.00  0.00     0.062 H 
ENDBRANCH   1  11
BRANCH   4  16
ATOM     16  C   LIG d   1       8.781   1.042  -4.865  0.00  0.00     0.069 C 
ATOM     17  H   LIG d   1       8.504   1.989  -5.329  0.00  0.00     0.061 H 
ATOM     18  H   LIG d   1       9.080   0.334  -5.638  0.00  0.00     0.061 H 
BRANCH  16  19
ATOM     19  O   LIG d   1       9.870   1.254  -3.965  0.00  0.00    -0.390 OA
ATOM     20  H   LIG d   1      10.107   0.474  -3.444  0.00  0.00     0.210 HD
ENDBRANCH  16  19
ENDBRANCH   4  16
TORSDOF 3
ENDMDL
MODEL 5
REMARK VINA RESULT:      -4.5      3.546      4.175
REMARK  3 active torsions:
REMARK  status: ('A' for Active; 'I' for Inactive)
REMARK    1  A    between atoms: C_2  and  C_3 
REMARK    2  A    between atoms: C_6  and  C_9 
REMARK    3  A    between atoms: C_9  and  O_10 
ROOT
ATOM      1  C   LIG d   1       3.741  -0.647  -3.892  0.00  0.00    -0.026 A 
ATOM      2  C   LIG d   1       4.596  -1.020  -4.931  0.00  0.00    -0.054 A 
ATOM      3  C   LIG d   1       4.332  -0.602  -6.219  0.00  0.00    -0.056 A 
ATOM      4  C   LIG d   1       3.224   0.184  -6.482  0.00  0.00    -0.022 A 
ATOM      5  C   LIG d   1       2.377   0.561  -5.456  0.00  0.00    -0.056 A 
ATOM      6  C   LIG d   1       2.626   0.146  -4.164  0.00  0.00    -0.054 A 
ATOM      7  H   LIG d   1       5.460  -1.634  -4.727  0.00  0.00     0.062 H 
ATOM      8  H   LIG d   1       4.992  -0.890  -7.025  0.00  0.00     0.062 H 
ATOM      9  H   LIG d   1       1.516   1.179  -5.668  0.00  0.00     0.062 H 
ATOM     10  H   LIG d   1       1.961   0.437  -3.364  0.00  0.00     0.062 H 
ENDROOT
BRANCH   1  11
ATOM     11  C   LIG d   1       4.017  -1.092  -2.509  0.00  0.00    -0.062 C 
ATOM     12  C   LIG d   1       3.812  -2.356  -2.167  0.00  0.00    -0.098 C 
ATOM     13  H   LIG d   1       3.444  -3.061  -2.898  0.00  0.00     0.053 H 
ATOM     14  H   LIG d   1       4.014  -2.681  -1.157  0.00  0.00     0.053 H 
ATOM     15  H   LIG d   1       4.386  -0.387  -1.779  0.00  0.00     0.062 H 
ENDBRANCH   1  11
BRANCH   4  16
ATOM     16  C   LIG d   1       2.943   0.635  -7.892  0.00  0.00     0.069 C 
ATOM     17  H   LIG d   1       1.963   0.272  -8.201  0.00  0.00     0.061 H 
ATOM     18  H   LIG d   1       3.706   0.236  -8.561  0.00  0.00     0.061 H 
BRANCH  16  19
ATOM     19  O   LIG d   1       2.961   2.063  -7.948  0.00  0.00    -0.390 OA
ATOM     20  H   LIG d   1       3.849   2.445  -7.971  0.00  0.00     0.210 HD
ENDBRANCH  16  19
ENDBRANCH   4  16
TORSDOF 3
ENDMDL
MODEL 6
REMARK VINA RESULT:      -4.5      2.520      2.875
REMARK  3 active torsions:
REMARK  status: ('A' for Active; 'I' for Inactive)
REMARK    1  A    between atoms: C_2  and  C_3 
REMARK    2  A    between atoms: C_6  and  C_9 
REMARK    3  A    between atoms: C_9  and  O_10 
ROOT
ATOM      1  C   LIG d   1       5.464   0.109  -2.621  0.00  0.00    -0.026 A 
ATOM      2  C   LIG d   1       5.378  -1.282  -2.702  0.00  0.00    -0.054 A 
ATOM      3  C   LIG d   1       6.296  -1.983  -3.457  0.00  0.00    -0.056 A 
ATOM      4  C   LIG d   1       7.299  -1.310  -4.132  0.00  0.00    -0.022 A 
ATOM      5  C   LIG d   1       7.392   0.067  -4.051  0.00  0.00    -0.056 A 
ATOM      6  C   LIG d   1       6.477   0.781  -3.304  0.00  0.00    -0.054 A 
ATOM      7  H   LIG d   1       4.596  -1.808  -2.176  0.00  0.00     0.062 H 
ATOM      8  H   LIG d   1       6.232  -3.060  -3.521  0.00  0.00     0.062 H 
ATOM      9  H   LIG d   1       8.180   0.586  -4.578  0.00  0.00     0.062 H 
ATOM     10  H   LIG d   1       6.547   1.857  -3.246  0.00  0.00     0.062 H 
ENDROOT
BRANCH   1  11
ATOM     11  C   LIG d   1       4.482   0.866  -1.815  0.00  0.00    -0.062 C 
ATOM     12  C   LIG d   1       3.443   1.439  -2.405  0.00  0.00    -0.098 C 
ATOM     13  H   LIG d   1       3.312   1.353  -3.474  0.00  0.00     0.053 H 
ATOM     14  H   LIG d   1       2.725   1.992  -1.816  0.00  0.00     0.053 H 
ATOM     15  H   LIG d   1       4.613   0.952  -0.747  0.00  0.00     0.062 H 
ENDBRANCH   1  11
BRANCH   4  16
ATOM     16  C   LIG d   1       8.298  -2.083  -4.955  0.00  0.00     0.069 C 
ATOM     17  H   LIG d   1       8.203  -1.798  -6.003  0.00  0.00     0.061 H 
ATOM     18  H   LIG d   1       8.107  -3.151  -4.850  0.00  0.00     0.061 H 
BRANCH  16  19
ATOM     19  O   LIG d   1       9.620  -1.788  -4.500  0.00  0.00    -0.390 OA
ATOM     20  H   LIG d   1       9.744  -1.907  -3.548  0.00  0.00     0.210 HD
ENDBRANCH  16  19
ENDBRANCH   4  16
TORSDOF 3
ENDMDL
MODEL 7
REMARK VINA RESULT:      -4.0      7.446      8.693
REMARK  3 active torsions:
REMARK  status: ('A' for Active; 'I' for Inactive)
REMARK    1  A    between atoms: C_2  and  C_3 
REMARK    2  A    between atoms: C_6  and  C_9 
REMARK    3  A    between atoms: C_9  and  O_10 
ROOT
ATOM      1  C   LIG d   1       2.324  -0.704 -10.929  0.00  0.00    -0.026 A 
ATOM      2  C   LIG d   1       3.383  -0.094 -11.602  0.00  0.00    -0.054 A 
ATOM      3  C   LIG d   1       4.002   1.009 -11.051  0.00  0.00    -0.056 A 
ATOM      4  C   LIG d   1       3.573   1.511  -9.835  0.00  0.00    -0.022 A 
ATOM      5  C   LIG d   1       2.528   0.907  -9.160  0.00  0.00    -0.056 A 
ATOM      6  C   LIG d   1       1.898  -0.194  -9.703  0.00  0.00    -0.054 A 
ATOM      7  H   LIG d   1       3.718  -0.484 -12.552  0.00  0.00     0.062 H 
ATOM      8  H   LIG d   1       4.822   1.484 -11.571  0.00  0.00     0.062 H 
ATOM      9  H   LIG d   1       2.201   1.301  -8.209  0.00  0.00     0.062 H 
ATOM     10  H   LIG d   1       1.078  -0.662  -9.178  0.00  0.00     0.062 H 
ENDROOT
BRANCH   1  11
ATOM     11  C   LIG d   1       1.656  -1.887 -11.514  0.00  0.00    -0.062 C 
ATOM     12  C   LIG d   1       0.632  -1.728 -12.340  0.00  0.00    -0.098 C 
ATOM     13  H   LIG d   1       0.285  -0.734 -12.586  0.00  0.00     0.053 H 
ATOM     14  H   LIG d   1       0.144  -2.591 -12.768  0.00  0.00     0.053 H 
ATOM     15  H   LIG d   1       2.004  -2.879 -11.269  0.00  0.00     0.062 H 
ENDBRANCH   1  11
BRANCH   4  16
ATOM     16  C   LIG d   1       4.253   2.717  -9.240  0.00  0.00     0.069 C 
ATOM     17  H   LIG d   1       3.955   2.825  -8.197  0.00  0.00     0.061 H 
ATOM     18  H   LIG d   1       3.962   3.609  -9.794  0.00  0.00     0.061 H 
BRANCH  16  19
ATOM     19  O   LIG d   1       5.671   2.551  -9.315  0.00  0.00    -0.390 OA
ATOM     20  H   LIG d   1       5.951   1.642  -9.486  0.00  0.00     0.210 HD
ENDBRANCH  16  19
ENDBRANCH   4  16
TORSDOF 3
ENDMDL
MODEL 8
REMARK VINA RESULT:      -4.0      7.120      7.717
REMARK  3 active torsions:
REMARK  status: ('A' for Active; 'I' for Inactive)
REMARK    1  A    between atoms: C_2  and  C_3 
REMARK    2  A    between atoms: C_6  and  C_9 
REMARK    3  A    between atoms: C_9  and  O_10 
ROOT
ATOM      1  C   LIG d   1       3.289   0.625 -10.466  0.00  0.00    -0.026 A 
ATOM      2  C   LIG d   1       2.261   0.240  -9.604  0.00  0.00    -0.054 A 
ATOM      3  C   LIG d   1       1.487  -0.861  -9.907  0.00  0.00    -0.056 A 
ATOM      4  C   LIG d   1       1.727  -1.582 -11.063  0.00  0.00    -0.022 A 
ATOM      5  C   LIG d   1       2.748  -1.209 -11.919  0.00  0.00    -0.056 A 
ATOM      6  C   LIG d   1       3.526  -0.106 -11.630  0.00  0.00    -0.054 A 
ATOM      7  H   LIG d   1       2.073   0.803  -8.702  0.00  0.00     0.062 H 
ATOM      8  H   LIG d   1       0.691  -1.160  -9.240  0.00  0.00     0.062 H 
ATOM      9  H   LIG d   1       2.933  -1.779 -12.818  0.00  0.00     0.062 H 
ATOM     10  H   LIG d   1       4.319   0.187 -12.301  0.00  0.00     0.062 H 
ENDROOT
BRANCH   1  11
ATOM     11  C   LIG d   1       4.122   1.805 -10.148  0.00  0.00    -0.062 C 
ATOM     12  C   LIG d   1       3.790   2.597  -9.138  0.00  0.00    -0.098 C 
ATOM     13  H   LIG d   1       2.911   2.380  -8.548  0.00  0.00     0.053 H 
ATOM     14  H   LIG d   1       4.398   3.458  -8.905  0.00  0.00     0.053 H 
ATOM     15  H   LIG d   1       5.000   2.020 -10.737  0.00  0.00     0.062 H 
ENDBRANCH   1  11
BRANCH   4  16
ATOM     16  C   LIG d   1       0.877  -2.783 -11.388  0.00  0.00     0.069 C 
ATOM     17  H   LIG d   1       1.481  -3.524 -11.913  0.00  0.00     0.061 H 
ATOM     18  H   LIG d   1       0.044  -2.479 -12.022  0.00  0.00     0.061 H 
BRANCH  16  19
ATOM     19  O   LIG d   1       0.372  -3.351 -10.178  0.00  0.00    -0.390 OA
ATOM     20  H   LIG d   1      -0.033  -4.222 -10.291  0.00  0.00     0.210 HD
ENDBRANCH  16  19
ENDBRANCH   4  16
TORSDOF 3
ENDMDL
MODEL 9
REMARK VINA RESULT:      -4.0      7.109      7.823
REMARK  3 active torsions:
REMARK  status: ('A' for Active; 'I' for Inactive)
REMARK    1  A    between atoms: C_2  and  C_3 
REMARK    2  A    between atoms: C_6  and  C_9 
REMARK    3  A    between atoms: C_9  and  O_10 
ROOT
ATOM      1  C   LIG d   1       3.262   0.596 -10.471  0.00  0.00    -0.026 A 
ATOM      2  C   LIG d   1       3.475  -0.095 -11.665  0.00  0.00    -0.054 A 
ATOM      3  C   LIG d   1       2.723  -1.215 -11.953  0.00  0.00    -0.056 A 
ATOM      4  C   LIG d   1       1.760  -1.655 -11.061  0.00  0.00    -0.022 A 
ATOM      5  C   LIG d   1       1.540  -0.970  -9.880  0.00  0.00    -0.056 A 
ATOM      6  C   LIG d   1       2.289   0.148  -9.577  0.00  0.00    -0.054 A 
ATOM      7  H   LIG d   1       4.226   0.246 -12.361  0.00  0.00     0.062 H 
ATOM      8  H   LIG d   1       2.887  -1.752 -12.877  0.00  0.00     0.062 H 
ATOM      9  H   LIG d   1       0.784  -1.316  -9.190  0.00  0.00     0.062 H 
ATOM     10  H   LIG d   1       2.120   0.678  -8.651  0.00  0.00     0.062 H 
ENDROOT
BRANCH   1  11
ATOM     11  C   LIG d   1       4.064   1.797 -10.156  0.00  0.00    -0.062 C 
ATOM     12  C   LIG d   1       3.738   2.559  -9.122  0.00  0.00    -0.098 C 
ATOM     13  H   LIG d   1       2.886   2.302  -8.509  0.00  0.00     0.053 H 
ATOM     14  H   LIG d   1       4.324   3.436  -8.891  0.00  0.00     0.053 H 
ATOM     15  H   LIG d   1       4.916   2.053 -10.768  0.00  0.00     0.062 H 
ENDBRANCH   1  11
BRANCH   4  16
ATOM     16  C   LIG d   1       0.944  -2.879 -11.383  0.00  0.00     0.069 C 
ATOM     17  H   LIG d   1       1.598  -3.663 -11.765  0.00  0.00     0.061 H 
ATOM     18  H   LIG d   1       0.196  -2.631 -12.137  0.00  0.00     0.061 H 
BRANCH  16  19
ATOM     19  O   LIG d   1       0.290  -3.341 -10.199  0.00  0.00    -0.390 OA
ATOM     20  H   LIG d   1      -0.675  -3.314 -10.247  0.00  0.00     0.210 HD
ENDBRANCH  16  19
ENDBRANCH   4  16
TORSDOF 3
ENDMDL
MODEL 10
REMARK VINA RESULT:      -3.8      9.112     10.345
REMARK  3 active torsions:
REMARK  status: ('A' for Active; 'I' for Inactive)
REMARK    1  A    between atoms: C_2  and  C_3 
REMARK    2  A    between atoms: C_6  and  C_9 
REMARK    3  A    between atoms: C_9  and  O_10 
ROOT
ATOM      1  C   LIG d   1       9.778   5.985  -3.050  0.00  0.00    -0.026 A 
ATOM      2  C   LIG d   1      10.553   4.945  -2.534  0.00  0.00    -0.054 A 
ATOM      3  C   LIG d   1      11.005   5.007  -1.232  0.00  0.00    -0.056 A 
ATOM      4  C   LIG d   1      10.692   6.097  -0.439  0.00  0.00    -0.022 A 
ATOM      5  C   LIG d   1       9.920   7.128  -0.943  0.00  0.00    -0.056 A 
ATOM      6  C   LIG d   1       9.466   7.080  -2.245  0.00  0.00    -0.054 A 
ATOM      7  H   LIG d   1      10.798   4.094  -3.152  0.00  0.00     0.062 H 
ATOM      8  H   LIG d   1      11.605   4.203  -0.831  0.00  0.00     0.062 H 
ATOM      9  H   LIG d   1       9.676   7.974  -0.317  0.00  0.00     0.062 H 
ATOM     10  H   LIG d   1       8.868   7.888  -2.640  0.00  0.00     0.062 H 
ENDROOT
BRANCH   1  11
ATOM     11  C   LIG d   1       9.291   5.925  -4.445  0.00  0.00    -0.062 C 
ATOM     12  C   LIG d   1       9.555   4.864  -5.194  0.00  0.00    -0.098 C 
ATOM     13  H   LIG d   1      10.126   4.042  -4.785  0.00  0.00     0.053 H 
ATOM     14  H   LIG d   1       9.200   4.819  -6.213  0.00  0.00     0.053 H 
ATOM     15  H   LIG d   1       8.720   6.745  -4.853  0.00  0.00     0.062 H 
ENDBRANCH   1  11
BRANCH   4  16
ATOM     16  C   LIG d   1      11.190   6.158   0.982  0.00  0.00     0.069 C 
ATOM     17  H   LIG d   1      10.953   7.133   1.409  0.00  0.00     0.061 H 
ATOM     18  H   LIG d   1      12.270   6.009   0.996  0.00  0.00     0.061 H 
BRANCH  16  19
ATOM     19  O   LIG d   1      10.558   5.134   1.753  0.00  0.00    -0.390 OA
ATOM     20  H   LIG d   1       9.661   4.922   1.464  0.00  0.00     0.210 HD
ENDBRANCH  16  19
ENDBRANCH   4  16
TORSDOF 3
ENDMDL
