MODEL 1
REMARK VINA RESULT:      -5.0      0.000      0.000
REMARK  15 active torsions:
REMARK  status: ('A' for Active; 'I' for Inactive)
REMARK    1  A    between atoms: C_1  and  C_2 
REMARK    2  A    between atoms: C_2  and  C_3 
REMARK    3  A    between atoms: C_2  and  C_4 
REMARK    4  A    between atoms: C_4  and  C_6 
REMARK    5  A    between atoms: C_4  and  C_19 
REMARK    6  A    between atoms: C_6  and  C_7 
REMARK    7  A    between atoms: C_7  and  N_62 
REMARK    8  A    between atoms: C_8  and  C_9 
REMARK    9  A    between atoms: C_8  and  N_62 
REMARK   10  A    between atoms: C_12  and  O_17 
REMARK   11  A    between atoms: C_13  and  O_15 
REMARK   12  A    between atoms: O_15  and  C_16 
REMARK   13  A    between atoms: O_17  and  C_18 
REMARK   14  A    between atoms: C_24  and  C_26 
REMARK   15  A    between atoms: C_24  and  C_27 
ROOT
ATOM      1  C   LIG d   1       6.725  -1.634  -4.699  0.00  0.00    -0.031 C 
ATOM      2  H   LIG d   1       6.438  -1.674  -5.750  0.00  0.00     0.031 H 
ENDROOT
BRANCH   1   3
ATOM      3  C   LIG d   1       6.911  -3.056  -4.166  0.00  0.00    -0.043 C 
ATOM      4  H   LIG d   1       6.285  -3.199  -3.286  0.00  0.00     0.030 H 
BRANCH   3   5
ATOM      5  C   LIG d   1       6.507  -4.061  -5.247  0.00  0.00    -0.062 C 
ATOM      6  H   LIG d   1       6.976  -5.024  -5.042  0.00  0.00     0.023 H 
ATOM      7  H   LIG d   1       5.423  -4.178  -5.247  0.00  0.00     0.023 H 
ATOM      8  H   LIG d   1       6.833  -3.699  -6.221  0.00  0.00     0.023 H 
ENDBRANCH   3   5
BRANCH   3   9
ATOM      9  C   LIG d   1       8.378  -3.273  -3.791  0.00  0.00    -0.062 C 
ATOM     10  H   LIG d   1       8.492  -4.250  -3.321  0.00  0.00     0.023 H 
ATOM     11  H   LIG d   1       8.993  -3.228  -4.689  0.00  0.00     0.023 H 
ATOM     12  H   LIG d   1       8.694  -2.496  -3.095  0.00  0.00     0.023 H 
ENDBRANCH   3   9
ENDBRANCH   1   3
BRANCH   1  13
ATOM     13  C   LIG d   1       8.036  -0.860  -4.557  0.00  0.00    -0.009 C 
ATOM     14  H   LIG d   1       8.813  -1.526  -4.180  0.00  0.00     0.032 H 
ATOM     15  H   LIG d   1       7.897  -0.034  -3.860  0.00  0.00     0.032 H 
BRANCH  13  16
ATOM     16  C   LIG d   1       8.454  -0.311  -5.922  0.00  0.00    -0.033 C 
ATOM     17  H   LIG d   1       9.498  -0.002  -5.885  0.00  0.00     0.081 H 
ATOM     18  H   LIG d   1       7.830   0.546  -6.176  0.00  0.00     0.081 H 
BRANCH  16  19
ATOM     19  N   LIG d   1       8.285  -1.366  -6.939  0.00  0.00     0.230 N 
ATOM     20  H   LIG d   1       7.567  -2.028  -6.624  0.00  0.00     0.202 HD
ATOM     21  H   LIG d   1       9.176  -1.861  -7.066  0.00  0.00     0.202 HD
BRANCH  19  22
ATOM     22  C   LIG d   1       7.870  -0.775  -8.226  0.00  0.00    -0.008 C 
ATOM     23  H   LIG d   1       8.226  -1.398  -9.047  0.00  0.00     0.087 H 
ATOM     24  H   LIG d   1       8.289   0.227  -8.322  0.00  0.00     0.087 H 
BRANCH  22  25
ATOM     25  C   LIG d   1       6.366  -0.696  -8.271  0.00  0.00     0.001 A 
ATOM     26  C   LIG d   1       5.740   0.537  -8.273  0.00  0.00    -0.008 A 
ATOM     27  C   LIG d   1       4.357   0.612  -8.313  0.00  0.00     0.162 A 
ATOM     28  H   LIG d   1       6.329   1.442  -8.242  0.00  0.00     0.066 H 
ATOM     29  C   LIG d   1       3.601  -0.556  -8.353  0.00  0.00     0.162 A 
ATOM     30  C   LIG d   1       4.234  -1.788  -8.352  0.00  0.00    -0.016 A 
ATOM     31  C   LIG d   1       5.614  -1.856  -8.305  0.00  0.00    -0.050 A 
ATOM     32  H   LIG d   1       3.650  -2.695  -8.382  0.00  0.00     0.066 H 
ATOM     33  H   LIG d   1       6.107  -2.817  -8.298  0.00  0.00     0.062 H 
BRANCH  27  34
ATOM     34  O   LIG d   1       3.740   1.824  -8.315  0.00  0.00    -0.491 OA
BRANCH  34  35
ATOM     35  C   LIG d   1       3.717   2.538  -9.552  0.00  0.00     0.079 C 
ATOM     36  H   LIG d   1       4.229   1.955 -10.318  0.00  0.00     0.066 H 
ATOM     37  H   LIG d   1       2.683   2.706  -9.855  0.00  0.00     0.066 H 
ATOM     38  H   LIG d   1       4.219   3.497  -9.427  0.00  0.00     0.066 H 
ENDBRANCH  34  35
ENDBRANCH  27  34
BRANCH  29  39
ATOM     39  O   LIG d   1       2.244  -0.488  -8.394  0.00  0.00    -0.491 OA
BRANCH  39  40
ATOM     40  C   LIG d   1       1.617  -0.751  -9.651  0.00  0.00     0.079 C 
ATOM     41  H   LIG d   1       0.799  -0.049  -9.804  0.00  0.00     0.066 H 
ATOM     42  H   LIG d   1       2.349  -0.638 -10.451  0.00  0.00     0.066 H 
ATOM     43  H   LIG d   1       1.229  -1.770  -9.657  0.00  0.00     0.066 H 
ENDBRANCH  39  40
ENDBRANCH  29  39
ENDBRANCH  22  25
ENDBRANCH  19  22
ENDBRANCH  16  19
ENDBRANCH  13  16
ENDBRANCH   1  13
BRANCH   1  44
ATOM     44  C   LIG d   1       5.627  -0.929  -3.897  0.00  0.00    -0.033 C 
ATOM     45  H   LIG d   1       5.259  -1.597  -3.118  0.00  0.00     0.030 H 
ATOM     46  C   LIG d   1       4.475  -0.548  -4.832  0.00  0.00    -0.021 C 
ATOM     47  C   LIG d   1       3.418   0.225  -4.038  0.00  0.00     0.064 C 
ATOM     48  H   LIG d   1       4.853   0.078  -5.640  0.00  0.00     0.029 H 
ATOM     49  H   LIG d   1       4.030  -1.451  -5.249  0.00  0.00     0.029 H 
ATOM     50  O   LIG d   1       4.019   1.378  -3.446  0.00  0.00    -0.374 OA
ATOM     51  C   LIG d   1       5.073   1.081  -2.527  0.00  0.00     0.049 C 
ATOM     52  C   LIG d   1       6.195   0.342  -3.260  0.00  0.00    -0.026 C 
ATOM     53  H   LIG d   1       5.461   2.009  -2.106  0.00  0.00     0.056 H 
ATOM     54  H   LIG d   1       4.687   0.452  -1.723  0.00  0.00     0.056 H 
ATOM     55  H   LIG d   1       6.979   0.076  -2.551  0.00  0.00     0.029 H 
ATOM     56  H   LIG d   1       6.607   0.986  -4.036  0.00  0.00     0.029 H 
BRANCH  47  57
ATOM     57  C   LIG d   1       2.293   0.661  -4.977  0.00  0.00    -0.036 C 
ATOM     58  H   LIG d   1       2.543   1.625  -5.421  0.00  0.00     0.026 H 
ATOM     59  H   LIG d   1       2.171  -0.081  -5.767  0.00  0.00     0.026 H 
ATOM     60  H   LIG d   1       1.364   0.750  -4.416  0.00  0.00     0.026 H 
ENDBRANCH  47  57
BRANCH  47  61
ATOM     61  C   LIG d   1       2.848  -0.673  -2.938  0.00  0.00    -0.036 C 
ATOM     62  H   LIG d   1       3.369  -0.477  -2.002  0.00  0.00     0.026 H 
ATOM     63  H   LIG d   1       1.786  -0.467  -2.816  0.00  0.00     0.026 H 
ATOM     64  H   LIG d   1       2.984  -1.719  -3.217  0.00  0.00     0.026 H 
ENDBRANCH  47  61
ENDBRANCH   1  44
TORSDOF 15
ENDMDL
MODEL 2
REMARK VINA RESULT:      -5.0      2.450      3.722
REMARK  15 active torsions:
REMARK  status: ('A' for Active; 'I' for Inactive)
REMARK    1  A    between atoms: C_1  and  C_2 
REMARK    2  A    between atoms: C_2  and  C_3 
REMARK    3  A    between atoms: C_2  and  C_4 
REMARK    4  A    between atoms: C_4  and  C_6 
REMARK    5  A    between atoms: C_4  and  C_19 
REMARK    6  A    between atoms: C_6  and  C_7 
REMARK    7  A    between atoms: C_7  and  N_62 
REMARK    8  A    between atoms: C_8  and  C_9 
REMARK    9  A    between atoms: C_8  and  N_62 
REMARK   10  A    between atoms: C_12  and  O_17 
REMARK   11  A    between atoms: C_13  and  O_15 
REMARK   12  A    between atoms: O_15  and  C_16 
REMARK   13  A    between atoms: O_17  and  C_18 
REMARK   14  A    between atoms: C_24  and  C_26 
REMARK   15  A    between atoms: C_24  and  C_27 
ROOT
ATOM      1  C   LIG d   1       4.837  -0.789  -7.106  0.00  0.00    -0.031 C 
ATOM      2  H   LIG d   1       4.133  -0.460  -7.871  0.00  0.00     0.031 H 
ENDROOT
BRANCH   1   3
ATOM      3  C   LIG d   1       4.938  -2.316  -7.129  0.00  0.00    -0.043 C 
ATOM      4  H   LIG d   1       4.693  -2.711  -6.143  0.00  0.00     0.030 H 
BRANCH   3   5
ATOM      5  C   LIG d   1       3.956  -2.875  -8.161  0.00  0.00    -0.062 C 
ATOM      6  H   LIG d   1       3.811  -2.146  -8.957  0.00  0.00     0.023 H 
ATOM      7  H   LIG d   1       4.357  -3.797  -8.581  0.00  0.00     0.023 H 
ATOM      8  H   LIG d   1       3.000  -3.081  -7.679  0.00  0.00     0.023 H 
ENDBRANCH   3   5
BRANCH   3   9
ATOM      9  C   LIG d   1       6.362  -2.727  -7.505  0.00  0.00    -0.062 C 
ATOM     10  H   LIG d   1       6.415  -2.913  -8.579  0.00  0.00     0.023 H 
ATOM     11  H   LIG d   1       7.054  -1.928  -7.240  0.00  0.00     0.023 H 
ATOM     12  H   LIG d   1       6.633  -3.635  -6.967  0.00  0.00     0.023 H 
ENDBRANCH   3   9
ENDBRANCH   1   3
BRANCH   1  13
ATOM     13  C   LIG d   1       6.213  -0.182  -7.384  0.00  0.00    -0.009 C 
ATOM     14  H   LIG d   1       6.928  -0.980  -7.588  0.00  0.00     0.032 H 
ATOM     15  H   LIG d   1       6.543   0.386  -6.513  0.00  0.00     0.032 H 
BRANCH  13  16
ATOM     16  C   LIG d   1       6.125   0.746  -8.596  0.00  0.00    -0.033 C 
ATOM     17  H   LIG d   1       5.995   0.152  -9.500  0.00  0.00     0.081 H 
ATOM     18  H   LIG d   1       7.043   1.330  -8.674  0.00  0.00     0.081 H 
BRANCH  16  19
ATOM     19  N   LIG d   1       4.974   1.653  -8.428  0.00  0.00     0.230 N 
ATOM     20  H   LIG d   1       5.283   2.510  -7.955  0.00  0.00     0.202 HD
ATOM     21  H   LIG d   1       4.257   1.188  -7.859  0.00  0.00     0.202 HD
BRANCH  19  22
ATOM     22  C   LIG d   1       4.401   2.002  -9.742  0.00  0.00    -0.008 C 
ATOM     23  H   LIG d   1       5.204   2.133 -10.469  0.00  0.00     0.087 H 
ATOM     24  H   LIG d   1       3.832   2.928  -9.660  0.00  0.00     0.087 H 
BRANCH  22  25
ATOM     25  C   LIG d   1       3.490   0.891 -10.196  0.00  0.00     0.001 A 
ATOM     26  C   LIG d   1       3.722   0.258 -11.403  0.00  0.00    -0.008 A 
ATOM     27  C   LIG d   1       2.885  -0.763 -11.823  0.00  0.00     0.162 A 
ATOM     28  H   LIG d   1       4.556   0.561 -12.020  0.00  0.00     0.066 H 
ATOM     29  C   LIG d   1       1.811  -1.150 -11.026  0.00  0.00     0.162 A 
ATOM     30  C   LIG d   1       1.584  -0.512  -9.817  0.00  0.00    -0.016 A 
ATOM     31  C   LIG d   1       2.420   0.510  -9.407  0.00  0.00    -0.050 A 
ATOM     32  H   LIG d   1       0.752  -0.809  -9.197  0.00  0.00     0.066 H 
ATOM     33  H   LIG d   1       2.239   1.010  -8.467  0.00  0.00     0.062 H 
BRANCH  27  34
ATOM     34  O   LIG d   1       3.112  -1.386 -13.010  0.00  0.00    -0.491 OA
BRANCH  34  35
ATOM     35  C   LIG d   1       4.131  -0.837 -13.847  0.00  0.00     0.079 C 
ATOM     36  H   LIG d   1       3.924   0.219 -14.026  0.00  0.00     0.066 H 
ATOM     37  H   LIG d   1       5.098  -0.938 -13.355  0.00  0.00     0.066 H 
ATOM     38  H   LIG d   1       4.147  -1.370 -14.796  0.00  0.00     0.066 H 
ENDBRANCH  34  35
ENDBRANCH  27  34
BRANCH  29  39
ATOM     39  O   LIG d   1       0.987  -2.151 -11.432  0.00  0.00    -0.491 OA
BRANCH  39  40
ATOM     40  C   LIG d   1       0.971  -3.341 -10.640  0.00  0.00     0.079 C 
ATOM     41  H   LIG d   1      -0.037  -3.754 -10.626  0.00  0.00     0.066 H 
ATOM     42  H   LIG d   1       1.658  -4.071 -11.068  0.00  0.00     0.066 H 
ATOM     43  H   LIG d   1       1.282  -3.104  -9.622  0.00  0.00     0.066 H 
ENDBRANCH  39  40
ENDBRANCH  29  39
ENDBRANCH  22  25
ENDBRANCH  19  22
ENDBRANCH  16  19
ENDBRANCH  13  16
ENDBRANCH   1  13
BRANCH   1  44
ATOM     44  C   LIG d   1       4.346  -0.332  -5.730  0.00  0.00    -0.033 C 
ATOM     45  H   LIG d   1       4.976   0.481  -5.370  0.00  0.00     0.030 H 
ATOM     46  C   LIG d   1       4.409  -1.504  -4.747  0.00  0.00    -0.021 C 
ATOM     47  C   LIG d   1       3.843  -1.059  -3.396  0.00  0.00     0.064 C 
ATOM     48  H   LIG d   1       3.820  -2.336  -5.133  0.00  0.00     0.029 H 
ATOM     49  H   LIG d   1       5.446  -1.819  -4.622  0.00  0.00     0.029 H 
ATOM     50  O   LIG d   1       2.504  -0.594  -3.573  0.00  0.00    -0.374 OA
ATOM     51  C   LIG d   1       2.387   0.532  -4.446  0.00  0.00     0.049 C 
ATOM     52  C   LIG d   1       2.896   0.151  -5.839  0.00  0.00    -0.026 C 
ATOM     53  H   LIG d   1       1.342   0.836  -4.511  0.00  0.00     0.056 H 
ATOM     54  H   LIG d   1       2.982   1.358  -4.055  0.00  0.00     0.056 H 
ATOM     55  H   LIG d   1       2.849   1.021  -6.494  0.00  0.00     0.029 H 
ATOM     56  H   LIG d   1       2.276  -0.648  -6.246  0.00  0.00     0.029 H 
BRANCH  47  57
ATOM     57  C   LIG d   1       3.848  -2.242  -2.426  0.00  0.00    -0.036 C 
ATOM     58  H   LIG d   1       2.846  -2.384  -2.021  0.00  0.00     0.026 H 
ATOM     59  H   LIG d   1       4.157  -3.145  -2.956  0.00  0.00     0.026 H 
ATOM     60  H   LIG d   1       4.544  -2.043  -1.613  0.00  0.00     0.026 H 
ENDBRANCH  47  57
BRANCH  47  61
ATOM     61  C   LIG d   1       4.704   0.071  -2.828  0.00  0.00    -0.036 C 
ATOM     62  H   LIG d   1       4.795   0.865  -3.569  0.00  0.00     0.026 H 
ATOM     63  H   LIG d   1       4.237   0.465  -1.927  0.00  0.00     0.026 H 
ATOM     64  H   LIG d   1       5.695  -0.315  -2.586  0.00  0.00     0.026 H 
ENDBRANCH  47  61
ENDBRANCH   1  44
TORSDOF 15
ENDMDL
MODEL 3
REMARK VINA RESULT:      -4.9      1.809      5.679
REMARK  15 active torsions:
REMARK  status: ('A' for Active; 'I' for Inactive)
REMARK    1  A    between atoms: C_1  and  C_2 
REMARK    2  A    between atoms: C_2  and  C_3 
REMARK    3  A    between atoms: C_2  and  C_4 
REMARK    4  A    between atoms: C_4  and  C_6 
REMARK    5  A    between atoms: C_4  and  C_19 
REMARK    6  A    between atoms: C_6  and  C_7 
REMARK    7  A    between atoms: C_7  and  N_62 
REMARK    8  A    between atoms: C_8  and  C_9 
REMARK    9  A    between atoms: C_8  and  N_62 
REMARK   10  A    between atoms: C_12  and  O_17 
REMARK   11  A    between atoms: C_13  and  O_15 
REMARK   12  A    between atoms: O_15  and  C_16 
REMARK   13  A    between atoms: O_17  and  C_18 
REMARK   14  A    between atoms: C_24  and  C_26 
REMARK   15  A    between atoms: C_24  and  C_27 
ROOT
ATOM      1  C   LIG d   1       4.599  -2.559  -8.124  0.00  0.00    -0.031 C 
ATOM      2  H   LIG d   1       4.578  -2.176  -7.104  0.00  0.00     0.031 H 
ENDROOT
BRANCH   1   3
ATOM      3  C   LIG d   1       6.050  -2.780  -8.556  0.00  0.00    -0.043 C 
ATOM      4  H   LIG d   1       6.314  -3.828  -8.418  0.00  0.00     0.030 H 
BRANCH   3   5
ATOM      5  C   LIG d   1       6.204  -2.405 -10.032  0.00  0.00    -0.062 C 
ATOM      6  H   LIG d   1       5.249  -2.531 -10.541  0.00  0.00     0.023 H 
ATOM      7  H   LIG d   1       6.524  -1.366 -10.111  0.00  0.00     0.023 H 
ATOM      8  H   LIG d   1       6.950  -3.051 -10.495  0.00  0.00     0.023 H 
ENDBRANCH   3   5
BRANCH   3   9
ATOM      9  C   LIG d   1       6.974  -1.904  -7.708  0.00  0.00    -0.062 C 
ATOM     10  H   LIG d   1       8.012  -2.120  -7.961  0.00  0.00     0.023 H 
ATOM     11  H   LIG d   1       6.762  -0.854  -7.907  0.00  0.00     0.023 H 
ATOM     12  H   LIG d   1       6.807  -2.115  -6.652  0.00  0.00     0.023 H 
ENDBRANCH   3   9
ENDBRANCH   1   3
BRANCH   1  13
ATOM     13  C   LIG d   1       3.840  -3.886  -8.186  0.00  0.00    -0.009 C 
ATOM     14  H   LIG d   1       4.117  -4.421  -9.094  0.00  0.00     0.032 H 
ATOM     15  H   LIG d   1       2.767  -3.691  -8.194  0.00  0.00     0.032 H 
BRANCH  13  16
ATOM     16  C   LIG d   1       4.196  -4.734  -6.965  0.00  0.00    -0.033 C 
ATOM     17  H   LIG d   1       5.266  -4.939  -6.964  0.00  0.00     0.081 H 
ATOM     18  H   LIG d   1       3.646  -5.675  -7.003  0.00  0.00     0.081 H 
BRANCH  16  19
ATOM     19  N   LIG d   1       3.832  -3.996  -5.741  0.00  0.00     0.230 N 
ATOM     20  H   LIG d   1       3.021  -4.448  -5.301  0.00  0.00     0.202 HD
ATOM     21  H   LIG d   1       3.593  -3.029  -5.987  0.00  0.00     0.202 HD
BRANCH  19  22
ATOM     22  C   LIG d   1       4.960  -3.993  -4.790  0.00  0.00    -0.008 C 
ATOM     23  H   LIG d   1       5.818  -4.498  -5.237  0.00  0.00     0.087 H 
ATOM     24  H   LIG d   1       4.671  -4.510  -3.875  0.00  0.00     0.087 H 
BRANCH  22  25
ATOM     25  C   LIG d   1       5.329  -2.568  -4.466  0.00  0.00     0.001 A 
ATOM     26  C   LIG d   1       4.411  -1.555  -4.670  0.00  0.00    -0.008 A 
ATOM     27  C   LIG d   1       4.748  -0.244  -4.374  0.00  0.00     0.162 A 
ATOM     28  H   LIG d   1       3.430  -1.785  -5.060  0.00  0.00     0.066 H 
ATOM     29  C   LIG d   1       6.013   0.050  -3.871  0.00  0.00     0.162 A 
ATOM     30  C   LIG d   1       6.928  -0.971  -3.670  0.00  0.00    -0.016 A 
ATOM     31  C   LIG d   1       6.587  -2.276  -3.973  0.00  0.00    -0.050 A 
ATOM     32  H   LIG d   1       7.910  -0.746  -3.281  0.00  0.00     0.066 H 
ATOM     33  H   LIG d   1       7.304  -3.069  -3.820  0.00  0.00     0.062 H 
BRANCH  27  34
ATOM     34  O   LIG d   1       3.846   0.754  -4.573  0.00  0.00    -0.491 OA
BRANCH  34  35
ATOM     35  C   LIG d   1       2.497   0.365  -4.835  0.00  0.00     0.079 C 
ATOM     36  H   LIG d   1       2.446  -0.718  -4.949  0.00  0.00     0.066 H 
ATOM     37  H   LIG d   1       1.862   0.673  -4.004  0.00  0.00     0.066 H 
ATOM     38  H   LIG d   1       2.152   0.844  -5.751  0.00  0.00     0.066 H 
ENDBRANCH  34  35
ENDBRANCH  27  34
BRANCH  29  39
ATOM     39  O   LIG d   1       6.349   1.334  -3.579  0.00  0.00    -0.491 OA
BRANCH  39  40
ATOM     40  C   LIG d   1       7.693   1.733  -3.856  0.00  0.00     0.079 C 
ATOM     41  H   LIG d   1       8.246   0.888  -4.263  0.00  0.00     0.066 H 
ATOM     42  H   LIG d   1       7.687   2.548  -4.580  0.00  0.00     0.066 H 
ATOM     43  H   LIG d   1       8.169   2.070  -2.935  0.00  0.00     0.066 H 
ENDBRANCH  39  40
ENDBRANCH  29  39
ENDBRANCH  22  25
ENDBRANCH  19  22
ENDBRANCH  16  19
ENDBRANCH  13  16
ENDBRANCH   1  13
BRANCH   1  44
ATOM     44  C   LIG d   1       3.936  -1.547  -9.063  0.00  0.00    -0.033 C 
ATOM     45  H   LIG d   1       4.549  -1.422  -9.954  0.00  0.00     0.030 H 
ATOM     46  C   LIG d   1       3.791  -0.202  -8.346  0.00  0.00    -0.021 C 
ATOM     47  C   LIG d   1       3.057   0.780  -9.263  0.00  0.00     0.064 C 
ATOM     48  H   LIG d   1       3.221  -0.338  -7.427  0.00  0.00     0.029 H 
ATOM     49  H   LIG d   1       4.780   0.192  -8.106  0.00  0.00     0.029 H 
ATOM     50  O   LIG d   1       1.786   0.236  -9.620  0.00  0.00    -0.374 OA
ATOM     51  C   LIG d   1       1.860  -1.000 -10.335  0.00  0.00     0.049 C 
ATOM     52  C   LIG d   1       2.546  -2.053  -9.461  0.00  0.00    -0.026 C 
ATOM     53  H   LIG d   1       0.854  -1.336 -10.587  0.00  0.00     0.056 H 
ATOM     54  H   LIG d   1       2.434  -0.856 -11.250  0.00  0.00     0.056 H 
ATOM     55  H   LIG d   1       2.643  -2.984 -10.021  0.00  0.00     0.029 H 
ATOM     56  H   LIG d   1       1.951  -2.226  -8.565  0.00  0.00     0.029 H 
BRANCH  47  57
ATOM     57  C   LIG d   1       2.856   2.108  -8.531  0.00  0.00    -0.036 C 
ATOM     58  H   LIG d   1       1.807   2.214  -8.253  0.00  0.00     0.026 H 
ATOM     59  H   LIG d   1       3.474   2.125  -7.632  0.00  0.00     0.026 H 
ATOM     60  H   LIG d   1       3.144   2.931  -9.184  0.00  0.00     0.026 H 
ENDBRANCH  47  57
BRANCH  47  61
ATOM     61  C   LIG d   1       3.886   1.014 -10.528  0.00  0.00    -0.036 C 
ATOM     62  H   LIG d   1       4.713   0.306 -10.556  0.00  0.00     0.026 H 
ATOM     63  H   LIG d   1       3.256   0.875 -11.405  0.00  0.00     0.026 H 
ATOM     64  H   LIG d   1       4.279   2.031 -10.521  0.00  0.00     0.026 H 
ENDBRANCH  47  61
ENDBRANCH   1  44
TORSDOF 15
ENDMDL
MODEL 4
REMARK VINA RESULT:      -4.9      5.124      7.498
REMARK  15 active torsions:
REMARK  status: ('A' for Active; 'I' for Inactive)
REMARK    1  A    between atoms: C_1  and  C_2 
REMARK    2  A    between atoms: C_2  and  C_3 
REMARK    3  A    between atoms: C_2  and  C_4 
REMARK    4  A    between atoms: C_4  and  C_6 
REMARK    5  A    between atoms: C_4  and  C_19 
REMARK    6  A    between atoms: C_6  and  C_7 
REMARK    7  A    between atoms: C_7  and  N_62 
REMARK    8  A    between atoms: C_8  and  C_9 
REMARK    9  A    between atoms: C_8  and  N_62 
REMARK   10  A    between atoms: C_12  and  O_17 
REMARK   11  A    between atoms: C_13  and  O_15 
REMARK   12  A    between atoms: O_15  and  C_16 
REMARK   13  A    between atoms: O_17  and  C_18 
REMARK   14  A    between atoms: C_24  and  C_26 
REMARK   15  A    between atoms: C_24  and  C_27 
ROOT
ATOM      1  C   LIG d   1       6.970   0.210  -4.497  0.00  0.00    -0.031 C 
ATOM      2  H   LIG d   1       6.622   0.520  -5.483  0.00  0.00     0.031 H 
ENDROOT
BRANCH   1   3
ATOM      3  C   LIG d   1       7.768  -1.090  -4.624  0.00  0.00    -0.043 C 
ATOM      4  H   LIG d   1       8.830  -0.877  -4.503  0.00  0.00     0.030 H 
BRANCH   3   5
ATOM      5  C   LIG d   1       7.317  -2.071  -3.540  0.00  0.00    -0.062 C 
ATOM      6  H   LIG d   1       6.340  -1.772  -3.162  0.00  0.00     0.023 H 
ATOM      7  H   LIG d   1       7.252  -3.074  -3.963  0.00  0.00     0.023 H 
ATOM      8  H   LIG d   1       8.039  -2.068  -2.724  0.00  0.00     0.023 H 
ENDBRANCH   3   5
BRANCH   3   9
ATOM      9  C   LIG d   1       7.524  -1.705  -6.003  0.00  0.00    -0.062 C 
ATOM     10  H   LIG d   1       8.481  -1.917  -6.481  0.00  0.00     0.023 H 
ATOM     11  H   LIG d   1       6.961  -2.632  -5.893  0.00  0.00     0.023 H 
ATOM     12  H   LIG d   1       6.957  -1.007  -6.619  0.00  0.00     0.023 H 
ENDBRANCH   3   9
ENDBRANCH   1   3
BRANCH   1  13
ATOM     13  C   LIG d   1       7.864   1.302  -3.906  0.00  0.00    -0.009 C 
ATOM     14  H   LIG d   1       8.727   0.843  -3.424  0.00  0.00     0.032 H 
ATOM     15  H   LIG d   1       7.299   1.874  -3.170  0.00  0.00     0.032 H 
BRANCH  13  16
ATOM     16  C   LIG d   1       8.338   2.233  -5.023  0.00  0.00    -0.033 C 
ATOM     17  H   LIG d   1       7.563   2.967  -5.238  0.00  0.00     0.081 H 
ATOM     18  H   LIG d   1       8.545   1.648  -5.920  0.00  0.00     0.081 H 
BRANCH  16  19
ATOM     19  N   LIG d   1       9.566   2.923  -4.587  0.00  0.00     0.230 N 
ATOM     20  H   LIG d   1      10.344   2.649  -5.198  0.00  0.00     0.202 HD
ATOM     21  H   LIG d   1       9.781   2.655  -3.619  0.00  0.00     0.202 HD
BRANCH  19  22
ATOM     22  C   LIG d   1       9.385   4.386  -4.657  0.00  0.00    -0.008 C 
ATOM     23  H   LIG d   1       8.335   4.616  -4.845  0.00  0.00     0.087 H 
ATOM     24  H   LIG d   1       9.995   4.793  -5.463  0.00  0.00     0.087 H 
BRANCH  22  25
ATOM     25  C   LIG d   1       9.807   5.000  -3.348  0.00  0.00     0.001 A 
ATOM     26  C   LIG d   1       9.382   6.273  -3.015  0.00  0.00    -0.008 A 
ATOM     27  C   LIG d   1       9.770   6.840  -1.812  0.00  0.00     0.162 A 
ATOM     28  H   LIG d   1       8.748   6.825  -3.693  0.00  0.00     0.066 H 
ATOM     29  C   LIG d   1      10.587   6.126  -0.940  0.00  0.00     0.162 A 
ATOM     30  C   LIG d   1      11.009   4.850  -1.280  0.00  0.00    -0.016 A 
ATOM     31  C   LIG d   1      10.623   4.293  -2.485  0.00  0.00    -0.050 A 
ATOM     32  H   LIG d   1      11.643   4.294  -0.607  0.00  0.00     0.066 H 
ATOM     33  H   LIG d   1      10.957   3.301  -2.751  0.00  0.00     0.062 H 
BRANCH  27  34
ATOM     34  O   LIG d   1       9.353   8.092  -1.482  0.00  0.00    -0.491 OA
BRANCH  34  35
ATOM     35  C   LIG d   1      10.004   9.185  -2.132  0.00  0.00     0.079 C 
ATOM     36  H   LIG d   1       9.639  10.124  -1.716  0.00  0.00     0.066 H 
ATOM     37  H   LIG d   1      11.080   9.112  -1.973  0.00  0.00     0.066 H 
ATOM     38  H   LIG d   1       9.791   9.152  -3.200  0.00  0.00     0.066 H 
ENDBRANCH  34  35
ENDBRANCH  27  34
BRANCH  29  39
ATOM     39  O   LIG d   1      10.970   6.677   0.242  0.00  0.00    -0.491 OA
BRANCH  39  40
ATOM     40  C   LIG d   1      11.058   5.803   1.368  0.00  0.00     0.079 C 
ATOM     41  H   LIG d   1      11.903   6.095   1.990  0.00  0.00     0.066 H 
ATOM     42  H   LIG d   1      10.139   5.866   1.950  0.00  0.00     0.066 H 
ATOM     43  H   LIG d   1      11.199   4.778   1.023  0.00  0.00     0.066 H 
ENDBRANCH  39  40
ENDBRANCH  29  39
ENDBRANCH  22  25
ENDBRANCH  19  22
ENDBRANCH  16  19
ENDBRANCH  13  16
ENDBRANCH   1  13
BRANCH   1  44
ATOM     44  C   LIG d   1       5.767  -0.018  -3.579  0.00  0.00    -0.033 C 
ATOM     45  H   LIG d   1       5.894  -0.956  -3.039  0.00  0.00     0.030 H 
ATOM     46  C   LIG d   1       4.486  -0.078  -4.418  0.00  0.00    -0.021 C 
ATOM     47  C   LIG d   1       3.282  -0.227  -3.485  0.00  0.00     0.064 C 
ATOM     48  H   LIG d   1       4.387   0.840  -4.997  0.00  0.00     0.029 H 
ATOM     49  H   LIG d   1       4.533  -0.932  -5.094  0.00  0.00     0.029 H 
ATOM     50  O   LIG d   1       3.256   0.865  -2.564  0.00  0.00    -0.374 OA
ATOM     51  C   LIG d   1       4.407   0.944  -1.721  0.00  0.00     0.049 C 
ATOM     52  C   LIG d   1       5.657   1.140  -2.582  0.00  0.00    -0.026 C 
ATOM     53  H   LIG d   1       4.301   1.787  -1.037  0.00  0.00     0.056 H 
ATOM     54  H   LIG d   1       4.501   0.021  -1.147  0.00  0.00     0.056 H 
ATOM     55  H   LIG d   1       6.541   1.156  -1.944  0.00  0.00     0.029 H 
ATOM     56  H   LIG d   1       5.581   2.082  -3.125  0.00  0.00     0.029 H 
BRANCH  47  57
ATOM     57  C   LIG d   1       1.994  -0.228  -4.312  0.00  0.00    -0.036 C 
ATOM     58  H   LIG d   1       1.445  -1.151  -4.128  0.00  0.00     0.026 H 
ATOM     59  H   LIG d   1       1.378   0.626  -4.025  0.00  0.00     0.026 H 
ATOM     60  H   LIG d   1       2.242  -0.157  -5.370  0.00  0.00     0.026 H 
ENDBRANCH  47  57
BRANCH  47  61
ATOM     61  C   LIG d   1       3.394  -1.543  -2.712  0.00  0.00    -0.036 C 
ATOM     62  H   LIG d   1       2.454  -1.745  -2.200  0.00  0.00     0.026 H 
ATOM     63  H   LIG d   1       3.613  -2.354  -3.406  0.00  0.00     0.026 H 
ATOM     64  H   LIG d   1       4.197  -1.466  -1.979  0.00  0.00     0.026 H 
ENDBRANCH  47  61
ENDBRANCH   1  44
TORSDOF 15
ENDMDL
MODEL 5
REMARK VINA RESULT:      -4.8      4.744      7.344
REMARK  15 active torsions:
REMARK  status: ('A' for Active; 'I' for Inactive)
REMARK    1  A    between atoms: C_1  and  C_2 
REMARK    2  A    between atoms: C_2  and  C_3 
REMARK    3  A    between atoms: C_2  and  C_4 
REMARK    4  A    between atoms: C_4  and  C_6 
REMARK    5  A    between atoms: C_4  and  C_19 
REMARK    6  A    between atoms: C_6  and  C_7 
REMARK    7  A    between atoms: C_7  and  N_62 
REMARK    8  A    between atoms: C_8  and  C_9 
REMARK    9  A    between atoms: C_8  and  N_62 
REMARK   10  A    between atoms: C_12  and  O_17 
REMARK   11  A    between atoms: C_13  and  O_15 
REMARK   12  A    between atoms: O_15  and  C_16 
REMARK   13  A    between atoms: O_17  and  C_18 
REMARK   14  A    between atoms: C_24  and  C_26 
REMARK   15  A    between atoms: C_24  and  C_27 
ROOT
ATOM      1  C   LIG d   1       5.918  -0.467  -3.436  0.00  0.00    -0.031 C 
ATOM      2  H   LIG d   1       6.487  -1.271  -2.968  0.00  0.00     0.031 H 
ENDROOT
BRANCH   1   3
ATOM      3  C   LIG d   1       4.549  -0.352  -2.762  0.00  0.00    -0.043 C 
ATOM      4  H   LIG d   1       3.780  -0.221  -3.523  0.00  0.00     0.030 H 
BRANCH   3   5
ATOM      5  C   LIG d   1       4.266  -1.626  -1.964  0.00  0.00    -0.062 C 
ATOM      6  H   LIG d   1       5.166  -2.239  -1.926  0.00  0.00     0.023 H 
ATOM      7  H   LIG d   1       3.965  -1.360  -0.950  0.00  0.00     0.023 H 
ATOM      8  H   LIG d   1       3.465  -2.186  -2.445  0.00  0.00     0.023 H 
ENDBRANCH   3   5
BRANCH   3   9
ATOM      9  C   LIG d   1       4.545   0.853  -1.819  0.00  0.00    -0.062 C 
ATOM     10  H   LIG d   1       5.541   1.297  -1.792  0.00  0.00     0.023 H 
ATOM     11  H   LIG d   1       3.828   1.591  -2.176  0.00  0.00     0.023 H 
ATOM     12  H   LIG d   1       4.265   0.529  -0.817  0.00  0.00     0.023 H 
ENDBRANCH   3   9
ENDBRANCH   1   3
BRANCH   1  13
ATOM     13  C   LIG d   1       6.677   0.852  -3.282  0.00  0.00    -0.009 C 
ATOM     14  H   LIG d   1       7.004   0.964  -2.248  0.00  0.00     0.032 H 
ATOM     15  H   LIG d   1       6.021   1.681  -3.547  0.00  0.00     0.032 H 
BRANCH  13  16
ATOM     16  C   LIG d   1       7.897   0.849  -4.205  0.00  0.00    -0.033 C 
ATOM     17  H   LIG d   1       7.618   1.256  -5.176  0.00  0.00     0.081 H 
ATOM     18  H   LIG d   1       8.257  -0.172  -4.328  0.00  0.00     0.081 H 
BRANCH  16  19
ATOM     19  N   LIG d   1       8.957   1.681  -3.605  0.00  0.00     0.230 N 
ATOM     20  H   LIG d   1       9.701   1.072  -3.243  0.00  0.00     0.202 HD
ATOM     21  H   LIG d   1       8.561   2.233  -2.836  0.00  0.00     0.202 HD
BRANCH  19  22
ATOM     22  C   LIG d   1       9.526   2.593  -4.616  0.00  0.00    -0.008 C 
ATOM     23  H   LIG d   1       8.887   2.605  -5.500  0.00  0.00     0.087 H 
ATOM     24  H   LIG d   1      10.524   2.255  -4.895  0.00  0.00     0.087 H 
BRANCH  22  25
ATOM     25  C   LIG d   1       9.609   3.982  -4.038  0.00  0.00     0.001 A 
ATOM     26  C   LIG d   1      10.014   4.160  -2.727  0.00  0.00    -0.008 A 
ATOM     27  C   LIG d   1      10.089   5.436  -2.193  0.00  0.00     0.162 A 
ATOM     28  H   LIG d   1      10.270   3.304  -2.120  0.00  0.00     0.066 H 
ATOM     29  C   LIG d   1       9.757   6.537  -2.978  0.00  0.00     0.162 A 
ATOM     30  C   LIG d   1       9.353   6.351  -4.290  0.00  0.00    -0.016 A 
ATOM     31  C   LIG d   1       9.274   5.075  -4.815  0.00  0.00    -0.050 A 
ATOM     32  H   LIG d   1       9.095   7.202  -4.901  0.00  0.00     0.066 H 
ATOM     33  H   LIG d   1       8.953   4.931  -5.836  0.00  0.00     0.062 H 
BRANCH  27  34
ATOM     34  O   LIG d   1      10.487   5.613  -0.905  0.00  0.00    -0.491 OA
BRANCH  34  35
ATOM     35  C   LIG d   1      11.869   5.393  -0.617  0.00  0.00     0.079 C 
ATOM     36  H   LIG d   1      12.283   4.689  -1.339  0.00  0.00     0.066 H 
ATOM     37  H   LIG d   1      12.409   6.339  -0.681  0.00  0.00     0.066 H 
ATOM     38  H   LIG d   1      11.970   4.985   0.388  0.00  0.00     0.066 H 
ENDBRANCH  34  35
ENDBRANCH  27  34
BRANCH  29  39
ATOM     39  O   LIG d   1       9.831   7.791  -2.459  0.00  0.00    -0.491 OA
BRANCH  39  40
ATOM     40  C   LIG d   1      10.918   8.611  -2.893  0.00  0.00     0.079 C 
ATOM     41  H   LIG d   1      10.543   9.391  -3.554  0.00  0.00     0.066 H 
ATOM     42  H   LIG d   1      11.396   9.067  -2.026  0.00  0.00     0.066 H 
ATOM     43  H   LIG d   1      11.644   7.998  -3.427  0.00  0.00     0.066 H 
ENDBRANCH  39  40
ENDBRANCH  29  39
ENDBRANCH  22  25
ENDBRANCH  19  22
ENDBRANCH  16  19
ENDBRANCH  13  16
ENDBRANCH   1  13
BRANCH   1  44
ATOM     44  C   LIG d   1       5.729  -0.777  -4.924  0.00  0.00    -0.033 C 
ATOM     45  H   LIG d   1       6.533  -0.316  -5.496  0.00  0.00     0.030 H 
ATOM     46  C   LIG d   1       4.381  -0.225  -5.395  0.00  0.00    -0.021 C 
ATOM     47  C   LIG d   1       4.166  -0.608  -6.862  0.00  0.00     0.064 C 
ATOM     48  H   LIG d   1       3.581  -0.648  -4.787  0.00  0.00     0.029 H 
ATOM     49  H   LIG d   1       4.377   0.861  -5.296  0.00  0.00     0.029 H 
ATOM     50  O   LIG d   1       4.228  -2.029  -6.995  0.00  0.00    -0.374 OA
ATOM     51  C   LIG d   1       5.482  -2.597  -6.613  0.00  0.00     0.049 C 
ATOM     52  C   LIG d   1       5.750  -2.294  -5.137  0.00  0.00    -0.026 C 
ATOM     53  H   LIG d   1       5.454  -3.677  -6.764  0.00  0.00     0.056 H 
ATOM     54  H   LIG d   1       6.277  -2.166  -7.223  0.00  0.00     0.056 H 
ATOM     55  H   LIG d   1       6.727  -2.689  -4.856  0.00  0.00     0.029 H 
ATOM     56  H   LIG d   1       4.978  -2.759  -4.525  0.00  0.00     0.029 H 
BRANCH  47  57
ATOM     57  C   LIG d   1       2.794  -0.111  -7.322  0.00  0.00    -0.036 C 
ATOM     58  H   LIG d   1       2.312   0.432  -6.508  0.00  0.00     0.026 H 
ATOM     59  H   LIG d   1       2.917   0.553  -8.179  0.00  0.00     0.026 H 
ATOM     60  H   LIG d   1       2.177  -0.961  -7.608  0.00  0.00     0.026 H 
ENDBRANCH  47  57
BRANCH  47  61
ATOM     61  C   LIG d   1       5.257   0.033  -7.722  0.00  0.00    -0.036 C 
ATOM     62  H   LIG d   1       4.975  -0.029  -8.772  0.00  0.00     0.026 H 
ATOM     63  H   LIG d   1       5.378   1.077  -7.437  0.00  0.00     0.026 H 
ATOM     64  H   LIG d   1       6.198  -0.496  -7.567  0.00  0.00     0.026 H 
ENDBRANCH  47  61
ENDBRANCH   1  44
TORSDOF 15
ENDMDL
MODEL 6
REMARK VINA RESULT:      -4.8      2.418      4.452
REMARK  15 active torsions:
REMARK  status: ('A' for Active; 'I' for Inactive)
REMARK    1  A    between atoms: C_1  and  C_2 
REMARK    2  A    between atoms: C_2  and  C_3 
REMARK    3  A    between atoms: C_2  and  C_4 
REMARK    4  A    between atoms: C_4  and  C_6 
REMARK    5  A    between atoms: C_4  and  C_19 
REMARK    6  A    between atoms: C_6  and  C_7 
REMARK    7  A    between atoms: C_7  and  N_62 
REMARK    8  A    between atoms: C_8  and  C_9 
REMARK    9  A    between atoms: C_8  and  N_62 
REMARK   10  A    between atoms: C_12  and  O_17 
REMARK   11  A    between atoms: C_13  and  O_15 
REMARK   12  A    between atoms: O_15  and  C_16 
REMARK   13  A    between atoms: O_17  and  C_18 
REMARK   14  A    between atoms: C_24  and  C_26 
REMARK   15  A    between atoms: C_24  and  C_27 
ROOT
ATOM      1  C   LIG d   1       4.752  -0.323  -3.901  0.00  0.00    -0.031 C 
ATOM      2  H   LIG d   1       5.085   0.695  -4.107  0.00  0.00     0.031 H 
ENDROOT
BRANCH   1   3
ATOM      3  C   LIG d   1       4.889  -0.611  -2.404  0.00  0.00    -0.043 C 
ATOM      4  H   LIG d   1       5.902  -0.950  -2.191  0.00  0.00     0.030 H 
BRANCH   3   5
ATOM      5  C   LIG d   1       4.602   0.667  -1.612  0.00  0.00    -0.062 C 
ATOM      6  H   LIG d   1       4.199   1.427  -2.281  0.00  0.00     0.023 H 
ATOM      7  H   LIG d   1       3.877   0.451  -0.827  0.00  0.00     0.023 H 
ATOM      8  H   LIG d   1       5.525   1.031  -1.162  0.00  0.00     0.023 H 
ENDBRANCH   3   5
BRANCH   3   9
ATOM      9  C   LIG d   1       3.891  -1.697  -2.000  0.00  0.00    -0.062 C 
ATOM     10  H   LIG d   1       3.915  -1.828  -0.917  0.00  0.00     0.023 H 
ATOM     11  H   LIG d   1       2.888  -1.401  -2.307  0.00  0.00     0.023 H 
ATOM     12  H   LIG d   1       4.157  -2.636  -2.485  0.00  0.00     0.023 H 
ENDBRANCH   3   9
ENDBRANCH   1   3
BRANCH   1  13
ATOM     13  C   LIG d   1       3.289  -0.476  -4.319  0.00  0.00    -0.009 C 
ATOM     14  H   LIG d   1       2.715  -0.889  -3.489  0.00  0.00     0.032 H 
ATOM     15  H   LIG d   1       3.223  -1.148  -5.175  0.00  0.00     0.032 H 
BRANCH  13  16
ATOM     16  C   LIG d   1       2.722   0.893  -4.699  0.00  0.00    -0.033 C 
ATOM     17  H   LIG d   1       3.243   1.670  -4.141  0.00  0.00     0.081 H 
ATOM     18  H   LIG d   1       1.658   0.924  -4.459  0.00  0.00     0.081 H 
BRANCH  16  19
ATOM     19  N   LIG d   1       2.911   1.110  -6.145  0.00  0.00     0.230 N 
ATOM     20  H   LIG d   1       3.905   1.285  -6.334  0.00  0.00     0.202 HD
ATOM     21  H   LIG d   1       2.358   1.922  -6.442  0.00  0.00     0.202 HD
BRANCH  19  22
ATOM     22  C   LIG d   1       2.475  -0.079  -6.903  0.00  0.00    -0.008 C 
ATOM     23  H   LIG d   1       1.386  -0.136  -6.900  0.00  0.00     0.087 H 
ATOM     24  H   LIG d   1       2.886  -0.978  -6.444  0.00  0.00     0.087 H 
BRANCH  22  25
ATOM     25  C   LIG d   1       2.968   0.031  -8.322  0.00  0.00     0.001 A 
ATOM     26  C   LIG d   1       4.199   0.607  -8.582  0.00  0.00    -0.008 A 
ATOM     27  C   LIG d   1       4.654   0.710  -9.886  0.00  0.00     0.162 A 
ATOM     28  H   LIG d   1       4.804   0.976  -7.768  0.00  0.00     0.066 H 
ATOM     29  C   LIG d   1       3.870   0.233 -10.934  0.00  0.00     0.162 A 
ATOM     30  C   LIG d   1       2.638  -0.343 -10.666  0.00  0.00    -0.016 A 
ATOM     31  C   LIG d   1       2.188  -0.437  -9.363  0.00  0.00    -0.050 A 
ATOM     32  H   LIG d   1       2.028  -0.713 -11.476  0.00  0.00     0.066 H 
ATOM     33  H   LIG d   1       1.225  -0.881  -9.156  0.00  0.00     0.062 H 
BRANCH  27  34
ATOM     34  O   LIG d   1       5.863   1.275 -10.144  0.00  0.00    -0.491 OA
BRANCH  34  35
ATOM     35  C   LIG d   1       7.022   0.508  -9.811  0.00  0.00     0.079 C 
ATOM     36  H   LIG d   1       6.810  -0.551  -9.959  0.00  0.00     0.066 H 
ATOM     37  H   LIG d   1       7.851   0.806 -10.453  0.00  0.00     0.066 H 
ATOM     38  H   LIG d   1       7.287   0.684  -8.769  0.00  0.00     0.066 H 
ENDBRANCH  34  35
ENDBRANCH  27  34
BRANCH  29  39
ATOM     39  O   LIG d   1       4.312   0.331 -12.215  0.00  0.00    -0.491 OA
BRANCH  39  40
ATOM     40  C   LIG d   1       4.017  -0.760 -13.089  0.00  0.00     0.079 C 
ATOM     41  H   LIG d   1       2.944  -0.948 -13.088  0.00  0.00     0.066 H 
ATOM     42  H   LIG d   1       4.342  -0.513 -14.100  0.00  0.00     0.066 H 
ATOM     43  H   LIG d   1       4.543  -1.652 -12.747  0.00  0.00     0.066 H 
ENDBRANCH  39  40
ENDBRANCH  29  39
ENDBRANCH  22  25
ENDBRANCH  19  22
ENDBRANCH  16  19
ENDBRANCH  13  16
ENDBRANCH   1  13
BRANCH   1  44
ATOM     44  C   LIG d   1       5.615  -1.311  -4.691  0.00  0.00    -0.033 C 
ATOM     45  H   LIG d   1       4.984  -2.102  -5.096  0.00  0.00     0.030 H 
ATOM     46  C   LIG d   1       6.673  -1.921  -3.766  0.00  0.00    -0.021 C 
ATOM     47  C   LIG d   1       7.579  -2.847  -4.582  0.00  0.00     0.064 C 
ATOM     48  H   LIG d   1       7.270  -1.125  -3.322  0.00  0.00     0.029 H 
ATOM     49  H   LIG d   1       6.182  -2.492  -2.978  0.00  0.00     0.029 H 
ATOM     50  O   LIG d   1       8.176  -2.107  -5.649  0.00  0.00    -0.374 OA
ATOM     51  C   LIG d   1       7.237  -1.552  -6.572  0.00  0.00     0.049 C 
ATOM     52  C   LIG d   1       6.316  -0.575  -5.836  0.00  0.00    -0.026 C 
ATOM     53  H   LIG d   1       7.771  -1.024  -7.362  0.00  0.00     0.056 H 
ATOM     54  H   LIG d   1       6.641  -2.354  -7.010  0.00  0.00     0.056 H 
ATOM     55  H   LIG d   1       5.571  -0.184  -6.530  0.00  0.00     0.029 H 
ATOM     56  H   LIG d   1       6.907   0.247  -5.433  0.00  0.00     0.029 H 
BRANCH  47  57
ATOM     57  C   LIG d   1       8.675  -3.413  -3.678  0.00  0.00    -0.036 C 
ATOM     58  H   LIG d   1       8.273  -4.243  -3.096  0.00  0.00     0.026 H 
ATOM     59  H   LIG d   1       9.505  -3.767  -4.291  0.00  0.00     0.026 H 
ATOM     60  H   LIG d   1       9.029  -2.634  -3.004  0.00  0.00     0.026 H 
ENDBRANCH  47  57
BRANCH  47  61
ATOM     61  C   LIG d   1       6.749  -3.995  -5.160  0.00  0.00    -0.036 C 
ATOM     62  H   LIG d   1       7.190  -4.325  -6.099  0.00  0.00     0.026 H 
ATOM     63  H   LIG d   1       6.732  -4.822  -4.453  0.00  0.00     0.026 H 
ATOM     64  H   LIG d   1       5.730  -3.650  -5.340  0.00  0.00     0.026 H 
ENDBRANCH  47  61
ENDBRANCH   1  44
TORSDOF 15
ENDMDL
MODEL 7
REMARK VINA RESULT:      -4.7      4.749      7.464
REMARK  15 active torsions:
REMARK  status: ('A' for Active; 'I' for Inactive)
REMARK    1  A    between atoms: C_1  and  C_2 
REMARK    2  A    between atoms: C_2  and  C_3 
REMARK    3  A    between atoms: C_2  and  C_4 
REMARK    4  A    between atoms: C_4  and  C_6 
REMARK    5  A    between atoms: C_4  and  C_19 
REMARK    6  A    between atoms: C_6  and  C_7 
REMARK    7  A    between atoms: C_7  and  N_62 
REMARK    8  A    between atoms: C_8  and  C_9 
REMARK    9  A    between atoms: C_8  and  N_62 
REMARK   10  A    between atoms: C_12  and  O_17 
REMARK   11  A    between atoms: C_13  and  O_15 
REMARK   12  A    between atoms: O_15  and  C_16 
REMARK   13  A    between atoms: O_17  and  C_18 
REMARK   14  A    between atoms: C_24  and  C_26 
REMARK   15  A    between atoms: C_24  and  C_27 
ROOT
ATOM      1  C   LIG d   1       5.824  -0.522  -2.961  0.00  0.00    -0.031 C 
ATOM      2  H   LIG d   1       6.712  -0.861  -2.427  0.00  0.00     0.031 H 
ENDROOT
BRANCH   1   3
ATOM      3  C   LIG d   1       4.653  -0.408  -1.982  0.00  0.00    -0.043 C 
ATOM      4  H   LIG d   1       4.998  -0.642  -0.975  0.00  0.00     0.030 H 
BRANCH   3   5
ATOM      5  C   LIG d   1       4.102   1.020  -2.012  0.00  0.00    -0.062 C 
ATOM      6  H   LIG d   1       3.856   1.293  -3.038  0.00  0.00     0.023 H 
ATOM      7  H   LIG d   1       3.204   1.074  -1.397  0.00  0.00     0.023 H 
ATOM      8  H   LIG d   1       4.851   1.708  -1.622  0.00  0.00     0.023 H 
ENDBRANCH   3   5
BRANCH   3   9
ATOM      9  C   LIG d   1       3.552  -1.389  -2.387  0.00  0.00    -0.062 C 
ATOM     10  H   LIG d   1       2.981  -1.679  -1.504  0.00  0.00     0.023 H 
ATOM     11  H   LIG d   1       2.888  -0.912  -3.108  0.00  0.00     0.023 H 
ATOM     12  H   LIG d   1       4.000  -2.274  -2.836  0.00  0.00     0.023 H 
ENDBRANCH   3   9
ENDBRANCH   1   3
BRANCH   1  13
ATOM     13  C   LIG d   1       6.098   0.845  -3.591  0.00  0.00    -0.009 C 
ATOM     14  H   LIG d   1       5.629   1.623  -2.989  0.00  0.00     0.032 H 
ATOM     15  H   LIG d   1       5.686   0.869  -4.600  0.00  0.00     0.032 H 
BRANCH  13  16
ATOM     16  C   LIG d   1       7.607   1.086  -3.650  0.00  0.00    -0.033 C 
ATOM     17  H   LIG d   1       8.105   0.184  -4.002  0.00  0.00     0.081 H 
ATOM     18  H   LIG d   1       7.973   1.339  -2.654  0.00  0.00     0.081 H 
BRANCH  16  19
ATOM     19  N   LIG d   1       7.883   2.199  -4.577  0.00  0.00     0.230 N 
ATOM     20  H   LIG d   1       7.335   3.020  -4.294  0.00  0.00     0.202 HD
ATOM     21  H   LIG d   1       7.615   1.921  -5.529  0.00  0.00     0.202 HD
BRANCH  19  22
ATOM     22  C   LIG d   1       9.318   2.540  -4.556  0.00  0.00    -0.008 C 
ATOM     23  H   LIG d   1       9.729   2.459  -5.562  0.00  0.00     0.087 H 
ATOM     24  H   LIG d   1       9.848   1.857  -3.892  0.00  0.00     0.087 H 
BRANCH  22  25
ATOM     25  C   LIG d   1       9.482   3.953  -4.058  0.00  0.00     0.001 A 
ATOM     26  C   LIG d   1       9.892   4.183  -2.758  0.00  0.00    -0.008 A 
ATOM     27  C   LIG d   1      10.043   5.481  -2.298  0.00  0.00     0.162 A 
ATOM     28  H   LIG d   1      10.093   3.350  -2.100  0.00  0.00     0.066 H 
ATOM     29  C   LIG d   1       9.782   6.552  -3.148  0.00  0.00     0.162 A 
ATOM     30  C   LIG d   1       9.372   6.315  -4.450  0.00  0.00    -0.016 A 
ATOM     31  C   LIG d   1       9.218   5.017  -4.901  0.00  0.00    -0.050 A 
ATOM     32  H   LIG d   1       9.168   7.143  -5.112  0.00  0.00     0.066 H 
ATOM     33  H   LIG d   1       8.893   4.833  -5.914  0.00  0.00     0.062 H 
BRANCH  27  34
ATOM     34  O   LIG d   1      10.445   5.709  -1.019  0.00  0.00    -0.491 OA
BRANCH  34  35
ATOM     35  C   LIG d   1      11.747   5.245  -0.657  0.00  0.00     0.079 C 
ATOM     36  H   LIG d   1      11.655   4.438   0.071  0.00  0.00     0.066 H 
ATOM     37  H   LIG d   1      12.262   4.877  -1.544  0.00  0.00     0.066 H 
ATOM     38  H   LIG d   1      12.316   6.065  -0.220  0.00  0.00     0.066 H 
ENDBRANCH  34  35
ENDBRANCH  27  34
BRANCH  29  39
ATOM     39  O   LIG d   1       9.929   7.828  -2.702  0.00  0.00    -0.491 OA
BRANCH  39  40
ATOM     40  C   LIG d   1      10.308   8.813  -3.666  0.00  0.00     0.079 C 
ATOM     41  H   LIG d   1      11.160   9.378  -3.291  0.00  0.00     0.066 H 
ATOM     42  H   LIG d   1      10.579   8.321  -4.600  0.00  0.00     0.066 H 
ATOM     43  H   LIG d   1       9.471   9.490  -3.842  0.00  0.00     0.066 H 
ENDBRANCH  39  40
ENDBRANCH  29  39
ENDBRANCH  22  25
ENDBRANCH  19  22
ENDBRANCH  16  19
ENDBRANCH  13  16
ENDBRANCH   1  13
BRANCH   1  44
ATOM     44  C   LIG d   1       5.474  -1.530  -4.059  0.00  0.00    -0.033 C 
ATOM     45  H   LIG d   1       4.537  -2.028  -3.810  0.00  0.00     0.030 H 
ATOM     46  C   LIG d   1       6.593  -2.568  -4.177  0.00  0.00    -0.021 C 
ATOM     47  C   LIG d   1       6.271  -3.524  -5.329  0.00  0.00     0.064 C 
ATOM     48  H   LIG d   1       7.538  -2.064  -4.375  0.00  0.00     0.029 H 
ATOM     49  H   LIG d   1       6.668  -3.131  -3.246  0.00  0.00     0.029 H 
ATOM     50  O   LIG d   1       6.118  -2.777  -6.537  0.00  0.00    -0.374 OA
ATOM     51  C   LIG d   1       5.056  -1.822  -6.502  0.00  0.00     0.049 C 
ATOM     52  C   LIG d   1       5.327  -0.798  -5.396  0.00  0.00    -0.026 C 
ATOM     53  H   LIG d   1       4.992  -1.312  -7.463  0.00  0.00     0.056 H 
ATOM     54  H   LIG d   1       4.114  -2.334  -6.300  0.00  0.00     0.056 H 
ATOM     55  H   LIG d   1       4.496  -0.095  -5.339  0.00  0.00     0.029 H 
ATOM     56  H   LIG d   1       6.248  -0.259  -5.620  0.00  0.00     0.029 H 
BRANCH  47  57
ATOM     57  C   LIG d   1       7.414  -4.529  -5.491  0.00  0.00    -0.036 C 
ATOM     58  H   LIG d   1       7.264  -5.105  -6.404  0.00  0.00     0.026 H 
ATOM     59  H   LIG d   1       8.363  -3.993  -5.551  0.00  0.00     0.026 H 
ATOM     60  H   LIG d   1       7.432  -5.202  -4.635  0.00  0.00     0.026 H 
ENDBRANCH  47  57
BRANCH  47  61
ATOM     61  C   LIG d   1       4.972  -4.273  -5.024  0.00  0.00    -0.036 C 
ATOM     62  H   LIG d   1       4.163  -3.853  -5.620  0.00  0.00     0.026 H 
ATOM     63  H   LIG d   1       5.095  -5.327  -5.266  0.00  0.00     0.026 H 
ATOM     64  H   LIG d   1       4.734  -4.169  -3.965  0.00  0.00     0.026 H 
ENDBRANCH  47  61
ENDBRANCH   1  44
TORSDOF 15
ENDMDL
MODEL 8
REMARK VINA RESULT:      -4.7      5.094      7.390
REMARK  15 active torsions:
REMARK  status: ('A' for Active; 'I' for Inactive)
REMARK    1  A    between atoms: C_1  and  C_2 
REMARK    2  A    between atoms: C_2  and  C_3 
REMARK    3  A    between atoms: C_2  and  C_4 
REMARK    4  A    between atoms: C_4  and  C_6 
REMARK    5  A    between atoms: C_4  and  C_19 
REMARK    6  A    between atoms: C_6  and  C_7 
REMARK    7  A    between atoms: C_7  and  N_62 
REMARK    8  A    between atoms: C_8  and  C_9 
REMARK    9  A    between atoms: C_8  and  N_62 
REMARK   10  A    between atoms: C_12  and  O_17 
REMARK   11  A    between atoms: C_13  and  O_15 
REMARK   12  A    between atoms: O_15  and  C_16 
REMARK   13  A    between atoms: O_17  and  C_18 
REMARK   14  A    between atoms: C_24  and  C_26 
REMARK   15  A    between atoms: C_24  and  C_27 
ROOT
ATOM      1  C   LIG d   1       6.882   0.279  -4.575  0.00  0.00    -0.031 C 
ATOM      2  H   LIG d   1       6.479   0.464  -5.572  0.00  0.00     0.031 H 
ENDROOT
BRANCH   1   3
ATOM      3  C   LIG d   1       7.826  -0.925  -4.622  0.00  0.00    -0.043 C 
ATOM      4  H   LIG d   1       8.840  -0.600  -4.391  0.00  0.00     0.030 H 
BRANCH   3   5
ATOM      5  C   LIG d   1       7.376  -1.964  -3.592  0.00  0.00    -0.062 C 
ATOM      6  H   LIG d   1       8.180  -2.139  -2.878  0.00  0.00     0.023 H 
ATOM      7  H   LIG d   1       6.495  -1.595  -3.066  0.00  0.00     0.023 H 
ATOM      8  H   LIG d   1       7.131  -2.897  -4.100  0.00  0.00     0.023 H 
ENDBRANCH   3   5
BRANCH   3   9
ATOM      9  C   LIG d   1       7.794  -1.545  -6.020  0.00  0.00    -0.062 C 
ATOM     10  H   LIG d   1       8.814  -1.704  -6.370  0.00  0.00     0.023 H 
ATOM     11  H   LIG d   1       7.269  -2.499  -5.982  0.00  0.00     0.023 H 
ATOM     12  H   LIG d   1       7.276  -0.873  -6.704  0.00  0.00     0.023 H 
ENDBRANCH   3   9
ENDBRANCH   1   3
BRANCH   1  13
ATOM     13  C   LIG d   1       7.652   1.513  -4.100  0.00  0.00    -0.009 C 
ATOM     14  H   LIG d   1       7.394   1.724  -3.062  0.00  0.00     0.032 H 
ATOM     15  H   LIG d   1       7.385   2.369  -4.720  0.00  0.00     0.032 H 
BRANCH  13  16
ATOM     16  C   LIG d   1       9.154   1.250  -4.210  0.00  0.00    -0.033 C 
ATOM     17  H   LIG d   1       9.433   1.169  -5.260  0.00  0.00     0.081 H 
ATOM     18  H   LIG d   1       9.399   0.321  -3.695  0.00  0.00     0.081 H 
BRANCH  16  19
ATOM     19  N   LIG d   1       9.887   2.369  -3.588  0.00  0.00     0.230 N 
ATOM     20  H   LIG d   1      10.839   2.063  -3.354  0.00  0.00     0.202 HD
ATOM     21  H   LIG d   1       9.400   2.659  -2.732  0.00  0.00     0.202 HD
BRANCH  19  22
ATOM     22  C   LIG d   1       9.959   3.513  -4.517  0.00  0.00    -0.008 C 
ATOM     23  H   LIG d   1       9.106   3.488  -5.196  0.00  0.00     0.087 H 
ATOM     24  H   LIG d   1      10.883   3.460  -5.093  0.00  0.00     0.087 H 
BRANCH  22  25
ATOM     25  C   LIG d   1       9.933   4.795  -3.726  0.00  0.00     0.001 A 
ATOM     26  C   LIG d   1      10.139   4.765  -2.358  0.00  0.00    -0.008 A 
ATOM     27  C   LIG d   1      10.114   5.942  -1.628  0.00  0.00     0.162 A 
ATOM     28  H   LIG d   1      10.317   3.824  -1.859  0.00  0.00     0.066 H 
ATOM     29  C   LIG d   1       9.884   7.154  -2.274  0.00  0.00     0.162 A 
ATOM     30  C   LIG d   1       9.680   7.177  -3.645  0.00  0.00    -0.016 A 
ATOM     31  C   LIG d   1       9.699   5.998  -4.366  0.00  0.00    -0.050 A 
ATOM     32  H   LIG d   1       9.500   8.114  -4.148  0.00  0.00     0.066 H 
ATOM     33  H   LIG d   1       9.534   6.016  -5.433  0.00  0.00     0.062 H 
BRANCH  27  34
ATOM     34  O   LIG d   1      10.316   5.915  -0.284  0.00  0.00    -0.491 OA
BRANCH  34  35
ATOM     35  C   LIG d   1      11.663   5.767   0.168  0.00  0.00     0.079 C 
ATOM     36  H   LIG d   1      11.666   5.318   1.161  0.00  0.00     0.066 H 
ATOM     37  H   LIG d   1      12.209   5.124  -0.523  0.00  0.00     0.066 H 
ATOM     38  H   LIG d   1      12.142   6.745   0.209  0.00  0.00     0.066 H 
ENDBRANCH  34  35
ENDBRANCH  27  34
BRANCH  29  39
ATOM     39  O   LIG d   1       9.860   8.312  -1.563  0.00  0.00    -0.491 OA
BRANCH  39  40
ATOM     40  C   LIG d   1       9.985   9.530  -2.300  0.00  0.00     0.079 C 
ATOM     41  H   LIG d   1       9.433   9.448  -3.235  0.00  0.00     0.066 H 
ATOM     42  H   LIG d   1       9.583  10.354  -1.710  0.00  0.00     0.066 H 
ATOM     43  H   LIG d   1      11.038   9.718  -2.515  0.00  0.00     0.066 H 
ENDBRANCH  39  40
ENDBRANCH  29  39
ENDBRANCH  22  25
ENDBRANCH  19  22
ENDBRANCH  16  19
ENDBRANCH  13  16
ENDBRANCH   1  13
BRANCH   1  44
ATOM     44  C   LIG d   1       5.733  -0.011  -3.606  0.00  0.00    -0.033 C 
ATOM     45  H   LIG d   1       5.926  -0.947  -3.083  0.00  0.00     0.030 H 
ATOM     46  C   LIG d   1       4.420  -0.119  -4.387  0.00  0.00    -0.021 C 
ATOM     47  C   LIG d   1       3.267  -0.331  -3.402  0.00  0.00     0.064 C 
ATOM     48  H   LIG d   1       4.254   0.798  -4.950  0.00  0.00     0.029 H 
ATOM     49  H   LIG d   1       4.473  -0.964  -5.074  0.00  0.00     0.029 H 
ATOM     50  O   LIG d   1       3.235   0.750  -2.469  0.00  0.00    -0.374 OA
ATOM     51  C   LIG d   1       4.419   0.872  -1.677  0.00  0.00     0.049 C 
ATOM     52  C   LIG d   1       5.619   1.131  -2.592  0.00  0.00    -0.026 C 
ATOM     53  H   LIG d   1       4.307   1.702  -0.980  0.00  0.00     0.056 H 
ATOM     54  H   LIG d   1       4.580  -0.051  -1.119  0.00  0.00     0.056 H 
ATOM     55  H   LIG d   1       6.529   1.181  -1.994  0.00  0.00     0.029 H 
ATOM     56  H   LIG d   1       5.476   2.074  -3.119  0.00  0.00     0.029 H 
BRANCH  47  57
ATOM     57  C   LIG d   1       1.944  -0.381  -4.170  0.00  0.00    -0.036 C 
ATOM     58  H   LIG d   1       1.115  -0.253  -3.473  0.00  0.00     0.026 H 
ATOM     59  H   LIG d   1       1.923   0.421  -4.910  0.00  0.00     0.026 H 
ATOM     60  H   LIG d   1       1.852  -1.342  -4.673  0.00  0.00     0.026 H 
ENDBRANCH  47  57
BRANCH  47  61
ATOM     61  C   LIG d   1       3.472  -1.648  -2.651  0.00  0.00    -0.036 C 
ATOM     62  H   LIG d   1       2.638  -2.318  -2.858  0.00  0.00     0.026 H 
ATOM     63  H   LIG d   1       4.402  -2.111  -2.977  0.00  0.00     0.026 H 
ATOM     64  H   LIG d   1       3.520  -1.450  -1.579  0.00  0.00     0.026 H 
ENDBRANCH  47  61
ENDBRANCH   1  44
TORSDOF 15
ENDMDL
MODEL 9
REMARK VINA RESULT:      -4.7      2.409      4.369
REMARK  15 active torsions:
REMARK  status: ('A' for Active; 'I' for Inactive)
REMARK    1  A    between atoms: C_1  and  C_2 
REMARK    2  A    between atoms: C_2  and  C_3 
REMARK    3  A    between atoms: C_2  and  C_4 
REMARK    4  A    between atoms: C_4  and  C_6 
REMARK    5  A    between atoms: C_4  and  C_19 
REMARK    6  A    between atoms: C_6  and  C_7 
REMARK    7  A    between atoms: C_7  and  N_62 
REMARK    8  A    between atoms: C_8  and  C_9 
REMARK    9  A    between atoms: C_8  and  N_62 
REMARK   10  A    between atoms: C_12  and  O_17 
REMARK   11  A    between atoms: C_13  and  O_15 
REMARK   12  A    between atoms: O_15  and  C_16 
REMARK   13  A    between atoms: O_17  and  C_18 
REMARK   14  A    between atoms: C_24  and  C_26 
REMARK   15  A    between atoms: C_24  and  C_27 
ROOT
ATOM      1  C   LIG d   1       4.812  -0.162  -3.972  0.00  0.00    -0.031 C 
ATOM      2  H   LIG d   1       4.841   0.918  -4.120  0.00  0.00     0.031 H 
ENDROOT
BRANCH   1   3
ATOM      3  C   LIG d   1       4.922  -0.475  -2.478  0.00  0.00    -0.043 C 
ATOM      4  H   LIG d   1       5.939  -0.791  -2.248  0.00  0.00     0.030 H 
BRANCH   3   5
ATOM      5  C   LIG d   1       4.582   0.779  -1.668  0.00  0.00    -0.062 C 
ATOM      6  H   LIG d   1       5.455   1.430  -1.624  0.00  0.00     0.023 H 
ATOM      7  H   LIG d   1       3.758   1.307  -2.147  0.00  0.00     0.023 H 
ATOM      8  H   LIG d   1       4.291   0.492  -0.658  0.00  0.00     0.023 H 
ENDBRANCH   3   5
BRANCH   3   9
ATOM      9  C   LIG d   1       3.945  -1.595  -2.117  0.00  0.00    -0.062 C 
ATOM     10  H   LIG d   1       4.144  -1.938  -1.101  0.00  0.00     0.023 H 
ATOM     11  H   LIG d   1       2.923  -1.221  -2.181  0.00  0.00     0.023 H 
ATOM     12  H   LIG d   1       4.071  -2.426  -2.811  0.00  0.00     0.023 H 
ENDBRANCH   3   9
ENDBRANCH   1   3
BRANCH   1  13
ATOM     13  C   LIG d   1       3.492  -0.715  -4.513  0.00  0.00    -0.009 C 
ATOM     14  H   LIG d   1       2.985  -1.278  -3.729  0.00  0.00     0.032 H 
ATOM     15  H   LIG d   1       3.694  -1.372  -5.359  0.00  0.00     0.032 H 
BRANCH  13  16
ATOM     16  C   LIG d   1       2.602   0.443  -4.966  0.00  0.00    -0.033 C 
ATOM     17  H   LIG d   1       2.651   1.247  -4.233  0.00  0.00     0.081 H 
ATOM     18  H   LIG d   1       1.572   0.095  -5.056  0.00  0.00     0.081 H 
BRANCH  16  19
ATOM     19  N   LIG d   1       3.076   0.935  -6.273  0.00  0.00     0.230 N 
ATOM     20  H   LIG d   1       4.099   1.020  -6.252  0.00  0.00     0.202 HD
ATOM     21  H   LIG d   1       2.659   1.854  -6.461  0.00  0.00     0.202 HD
BRANCH  19  22
ATOM     22  C   LIG d   1       2.688  -0.003  -7.344  0.00  0.00    -0.008 C 
ATOM     23  H   LIG d   1       1.780   0.354  -7.832  0.00  0.00     0.087 H 
ATOM     24  H   LIG d   1       2.508  -0.991  -6.920  0.00  0.00     0.087 H 
BRANCH  22  25
ATOM     25  C   LIG d   1       3.802  -0.086  -8.355  0.00  0.00     0.001 A 
ATOM     26  C   LIG d   1       4.680   0.972  -8.502  0.00  0.00    -0.008 A 
ATOM     27  C   LIG d   1       5.705   0.898  -9.432  0.00  0.00     0.162 A 
ATOM     28  H   LIG d   1       4.567   1.857  -7.893  0.00  0.00     0.066 H 
ATOM     29  C   LIG d   1       5.848  -0.243 -10.216  0.00  0.00     0.162 A 
ATOM     30  C   LIG d   1       4.965  -1.300 -10.063  0.00  0.00    -0.016 A 
ATOM     31  C   LIG d   1       3.942  -1.218  -9.137  0.00  0.00    -0.050 A 
ATOM     32  H   LIG d   1       5.074  -2.187 -10.669  0.00  0.00     0.066 H 
ATOM     33  H   LIG d   1       3.251  -2.040  -9.023  0.00  0.00     0.062 H 
BRANCH  27  34
ATOM     34  O   LIG d   1       6.569   1.938  -9.578  0.00  0.00    -0.491 OA
BRANCH  34  35
ATOM     35  C   LIG d   1       7.605   2.062  -8.603  0.00  0.00     0.079 C 
ATOM     36  H   LIG d   1       8.195   2.956  -8.811  0.00  0.00     0.066 H 
ATOM     37  H   LIG d   1       7.162   2.144  -7.610  0.00  0.00     0.066 H 
ATOM     38  H   LIG d   1       8.249   1.184  -8.642  0.00  0.00     0.066 H 
ENDBRANCH  34  35
ENDBRANCH  27  34
BRANCH  29  39
ATOM     39  O   LIG d   1       6.852  -0.321 -11.129  0.00  0.00    -0.491 OA
BRANCH  39  40
ATOM     40  C   LIG d   1       7.985  -1.121 -10.782  0.00  0.00     0.079 C 
ATOM     41  H   LIG d   1       8.887  -0.512 -10.824  0.00  0.00     0.066 H 
ATOM     42  H   LIG d   1       7.857  -1.513  -9.773  0.00  0.00     0.066 H 
ATOM     43  H   LIG d   1       8.073  -1.951 -11.485  0.00  0.00     0.066 H 
ENDBRANCH  39  40
ENDBRANCH  29  39
ENDBRANCH  22  25
ENDBRANCH  19  22
ENDBRANCH  16  19
ENDBRANCH  13  16
ENDBRANCH   1  13
BRANCH   1  44
ATOM     44  C   LIG d   1       5.981  -0.811  -4.716  0.00  0.00    -0.033 C 
ATOM     45  H   LIG d   1       6.485  -0.061  -5.326  0.00  0.00     0.030 H 
ATOM     46  C   LIG d   1       5.457  -1.935  -5.614  0.00  0.00    -0.021 C 
ATOM     47  C   LIG d   1       6.641  -2.629  -6.293  0.00  0.00     0.064 C 
ATOM     48  H   LIG d   1       4.909  -2.658  -5.010  0.00  0.00     0.029 H 
ATOM     49  H   LIG d   1       4.795  -1.517  -6.372  0.00  0.00     0.029 H 
ATOM     50  O   LIG d   1       7.536  -3.126  -5.297  0.00  0.00    -0.374 OA
ATOM     51  C   LIG d   1       8.094  -2.113  -4.456  0.00  0.00     0.049 C 
ATOM     52  C   LIG d   1       6.969  -1.399  -3.704  0.00  0.00    -0.026 C 
ATOM     53  H   LIG d   1       8.778  -2.570  -3.741  0.00  0.00     0.056 H 
ATOM     54  H   LIG d   1       8.638  -1.393  -5.068  0.00  0.00     0.056 H 
ATOM     55  H   LIG d   1       7.389  -0.597  -3.096  0.00  0.00     0.029 H 
ATOM     56  H   LIG d   1       6.452  -2.111  -3.062  0.00  0.00     0.029 H 
BRANCH  47  57
ATOM     57  C   LIG d   1       6.130  -3.792  -7.145  0.00  0.00    -0.036 C 
ATOM     58  H   LIG d   1       6.673  -4.700  -6.884  0.00  0.00     0.026 H 
ATOM     59  H   LIG d   1       5.065  -3.939  -6.958  0.00  0.00     0.026 H 
ATOM     60  H   LIG d   1       6.284  -3.566  -8.200  0.00  0.00     0.026 H 
ENDBRANCH  47  57
BRANCH  47  61
ATOM     61  C   LIG d   1       7.377  -1.627  -7.185  0.00  0.00    -0.036 C 
ATOM     62  H   LIG d   1       8.093  -2.156  -7.812  0.00  0.00     0.026 H 
ATOM     63  H   LIG d   1       6.658  -1.103  -7.813  0.00  0.00     0.026 H 
ATOM     64  H   LIG d   1       7.906  -0.906  -6.560  0.00  0.00     0.026 H 
ENDBRANCH  47  61
ENDBRANCH   1  44
TORSDOF 15
ENDMDL
