MODEL 1
REMARK VINA RESULT:      -6.7      0.000      0.000
REMARK  5 active torsions:
REMARK  status: ('A' for Active; 'I' for Inactive)
REMARK    1  A    between atoms: C_1  and  C_2 
REMARK    2  A    between atoms: C_2  and  C_3 
REMARK    3  A    between atoms: C_2  and  N_4 
REMARK    4  A    between atoms: C_6  and  C_15 
REMARK       I    between atoms: C_15  and  N_17 
REMARK    5  A    between atoms: C_20  and  O_28 
ROOT
ATOM      1  C   LIG d   1       5.481  -3.120  -6.400  0.00  0.00     0.249 C 
ATOM      2  O   LIG d   1       4.947  -4.197  -6.586  0.00  0.00    -0.270 OA
ATOM      3  N   LIG d   1       6.822  -3.010  -6.485  0.00  0.00    -0.297 N 
ATOM      4  C   LIG d   1       7.493  -1.747  -6.147  0.00  0.00     0.018 C 
ATOM      5  C   LIG d   1       8.578  -2.032  -5.103  0.00  0.00    -0.008 C 
ATOM      6  C   LIG d   1       9.519  -3.117  -5.632  0.00  0.00     0.072 C 
ATOM      7  C   LIG d   1      10.613  -3.384  -4.594  0.00  0.00    -0.024 C 
ATOM      8  C   LIG d   1       9.968  -3.835  -3.282  0.00  0.00    -0.050 C 
ATOM      9  C   LIG d   1       9.168  -5.118  -3.520  0.00  0.00    -0.053 C 
ATOM     10  C   LIG d   1       8.079  -4.855  -4.562  0.00  0.00    -0.046 C 
ATOM     11  C   LIG d   1       8.727  -4.405  -5.872  0.00  0.00     0.004 C 
ATOM     12  H   LIG d   1       9.402  -5.184  -6.231  0.00  0.00     0.034 H 
ATOM     13  C   LIG d   1       7.642  -4.150  -6.915  0.00  0.00     0.020 C 
ATOM     14  H   LIG d   1       7.949  -1.323  -7.041  0.00  0.00     0.046 H 
ATOM     15  H   LIG d   1       6.767  -1.045  -5.737  0.00  0.00     0.046 H 
ATOM     16  H   LIG d   1       9.145  -1.120  -4.911  0.00  0.00     0.031 H 
ATOM     17  H   LIG d   1       8.112  -2.372  -4.178  0.00  0.00     0.031 H 
ATOM     18  H   LIG d   1      11.278  -4.166  -4.961  0.00  0.00     0.029 H 
ATOM     19  H   LIG d   1      11.183  -2.472  -4.425  0.00  0.00     0.029 H 
ATOM     20  H   LIG d   1      10.746  -4.025  -2.541  0.00  0.00     0.027 H 
ATOM     21  H   LIG d   1       9.302  -3.053  -2.918  0.00  0.00     0.027 H 
ATOM     22  H   LIG d   1       9.835  -5.901  -3.880  0.00  0.00     0.026 H 
ATOM     23  H   LIG d   1       8.707  -5.437  -2.585  0.00  0.00     0.026 H 
ATOM     24  H   LIG d   1       7.511  -5.770  -4.733  0.00  0.00     0.027 H 
ATOM     25  H   LIG d   1       7.410  -4.074  -4.200  0.00  0.00     0.027 H 
ATOM     26  H   LIG d   1       7.014  -5.036  -7.009  0.00  0.00     0.047 H 
ATOM     27  H   LIG d   1       8.106  -3.925  -7.875  0.00  0.00     0.047 H 
ENDROOT
BRANCH   1  28
ATOM     28  C   LIG d   1       4.665  -1.939  -6.079  0.00  0.00     0.061 A 
ATOM     29  C   LIG d   1       4.129  -1.179  -7.075  0.00  0.00     0.021 A 
ATOM     30  N   LIG d   1       3.372  -0.085  -6.821  0.00  0.00    -0.311 N 
ATOM     31  H   LIG d   1       4.315  -1.458  -8.101  0.00  0.00     0.082 H 
ATOM     32  C   LIG d   1       3.099   0.333  -5.569  0.00  0.00     0.259 A 
ATOM     33  C   LIG d   1       3.625  -0.420  -4.424  0.00  0.00     0.047 A 
ATOM     34  O   LIG d   1       2.418   1.326  -5.390  0.00  0.00    -0.267 OA
ATOM     35  C   LIG d   1       4.415  -1.562  -4.677  0.00  0.00     0.001 A 
ATOM     36  C   LIG d   1       3.368  -0.035  -3.108  0.00  0.00    -0.049 A 
ATOM     37  C   LIG d   1       4.933  -2.296  -3.613  0.00  0.00    -0.053 A 
ATOM     38  C   LIG d   1       4.668  -1.897  -2.320  0.00  0.00    -0.061 A 
ATOM     39  H   LIG d   1       5.538  -3.170  -3.799  0.00  0.00     0.062 H 
ATOM     40  C   LIG d   1       3.891  -0.774  -2.070  0.00  0.00    -0.061 A 
ATOM     41  H   LIG d   1       5.069  -2.465  -1.493  0.00  0.00     0.062 H 
ATOM     42  H   LIG d   1       3.694  -0.478  -1.050  0.00  0.00     0.062 H 
ATOM     43  H   LIG d   1       2.764   0.836  -2.904  0.00  0.00     0.062 H 
BRANCH  30  44
ATOM     44  C   LIG d   1       2.834   0.678  -7.950  0.00  0.00     0.032 C 
ATOM     45  H   LIG d   1       2.121   1.416  -7.582  0.00  0.00     0.052 H 
BRANCH  44  46
ATOM     46  C   LIG d   1       3.978   1.390  -8.674  0.00  0.00    -0.044 C 
ATOM     47  H   LIG d   1       4.659   0.650  -9.094  0.00  0.00     0.025 H 
ATOM     48  H   LIG d   1       3.571   2.006  -9.477  0.00  0.00     0.025 H 
ATOM     49  H   LIG d   1       4.517   2.022  -7.969  0.00  0.00     0.025 H 
ENDBRANCH  44  46
BRANCH  44  50
ATOM     50  C   LIG d   1       2.129  -0.273  -8.919  0.00  0.00    -0.044 C 
ATOM     51  H   LIG d   1       2.254   0.089  -9.939  0.00  0.00     0.025 H 
ATOM     52  H   LIG d   1       2.565  -1.269  -8.831  0.00  0.00     0.025 H 
ATOM     53  H   LIG d   1       1.068  -0.318  -8.676  0.00  0.00     0.025 H 
ENDBRANCH  44  50
ENDBRANCH  30  44
ENDBRANCH   1  28
BRANCH   6  54
ATOM     54  O   LIG d   1      10.109  -2.683  -6.858  0.00  0.00    -0.388 OA
ATOM     55  H   LIG d   1      11.061  -2.848  -6.916  0.00  0.00     0.210 HD
ENDBRANCH   6  54
TORSDOF 5
ENDMDL
MODEL 2
REMARK VINA RESULT:      -6.6      2.435      7.023
REMARK  5 active torsions:
REMARK  status: ('A' for Active; 'I' for Inactive)
REMARK    1  A    between atoms: C_1  and  C_2 
REMARK    2  A    between atoms: C_2  and  C_3 
REMARK    3  A    between atoms: C_2  and  N_4 
REMARK    4  A    between atoms: C_6  and  C_15 
REMARK       I    between atoms: C_15  and  N_17 
REMARK    5  A    between atoms: C_20  and  O_28 
ROOT
ATOM      1  C   LIG d   1       6.426  -2.879  -5.817  0.00  0.00     0.249 C 
ATOM      2  O   LIG d   1       6.950  -2.250  -6.717  0.00  0.00    -0.270 OA
ATOM      3  N   LIG d   1       5.308  -2.409  -5.230  0.00  0.00    -0.297 N 
ATOM      4  C   LIG d   1       4.729  -3.092  -4.064  0.00  0.00     0.018 C 
ATOM      5  C   LIG d   1       4.559  -2.073  -2.932  0.00  0.00    -0.008 C 
ATOM      6  C   LIG d   1       3.732  -0.889  -3.436  0.00  0.00     0.072 C 
ATOM      7  C   LIG d   1       3.547   0.118  -2.296  0.00  0.00    -0.024 C 
ATOM      8  C   LIG d   1       4.919   0.596  -1.815  0.00  0.00    -0.050 C 
ATOM      9  C   LIG d   1       5.661   1.268  -2.972  0.00  0.00    -0.053 C 
ATOM     10  C   LIG d   1       5.840   0.267  -4.115  0.00  0.00    -0.046 C 
ATOM     11  C   LIG d   1       4.467  -0.208  -4.594  0.00  0.00     0.004 C 
ATOM     12  H   LIG d   1       3.886   0.647  -4.939  0.00  0.00     0.034 H 
ATOM     13  C   LIG d   1       4.644  -1.201  -5.739  0.00  0.00     0.020 C 
ATOM     14  H   LIG d   1       3.759  -3.509  -4.329  0.00  0.00     0.046 H 
ATOM     15  H   LIG d   1       5.397  -3.890  -3.740  0.00  0.00     0.046 H 
ATOM     16  H   LIG d   1       4.047  -2.545  -2.093  0.00  0.00     0.031 H 
ATOM     17  H   LIG d   1       5.540  -1.722  -2.609  0.00  0.00     0.031 H 
ATOM     18  H   LIG d   1       2.970   0.969  -2.653  0.00  0.00     0.029 H 
ATOM     19  H   LIG d   1       3.019  -0.360  -1.472  0.00  0.00     0.029 H 
ATOM     20  H   LIG d   1       4.789   1.311  -1.002  0.00  0.00     0.027 H 
ATOM     21  H   LIG d   1       5.496  -0.258  -1.459  0.00  0.00     0.027 H 
ATOM     22  H   LIG d   1       5.085   2.124  -3.324  0.00  0.00     0.026 H 
ATOM     23  H   LIG d   1       6.639   1.606  -2.628  0.00  0.00     0.026 H 
ATOM     24  H   LIG d   1       6.366   0.747  -4.940  0.00  0.00     0.027 H 
ATOM     25  H   LIG d   1       6.418  -0.588  -3.763  0.00  0.00     0.027 H 
ATOM     26  H   LIG d   1       5.257  -0.750  -6.520  0.00  0.00     0.047 H 
ATOM     27  H   LIG d   1       3.668  -1.465  -6.146  0.00  0.00     0.047 H 
ENDROOT
BRANCH   1  28
ATOM     28  C   LIG d   1       7.014  -4.150  -5.369  0.00  0.00     0.061 A 
ATOM     29  C   LIG d   1       8.127  -4.158  -4.583  0.00  0.00     0.021 A 
ATOM     30  N   LIG d   1       8.697  -5.308  -4.150  0.00  0.00    -0.311 N 
ATOM     31  H   LIG d   1       8.569  -3.215  -4.297  0.00  0.00     0.082 H 
ATOM     32  C   LIG d   1       8.210  -6.523  -4.467  0.00  0.00     0.259 A 
ATOM     33  C   LIG d   1       7.009  -6.625  -5.306  0.00  0.00     0.047 A 
ATOM     34  O   LIG d   1       8.761  -7.529  -4.059  0.00  0.00    -0.267 OA
ATOM     35  C   LIG d   1       6.406  -5.434  -5.763  0.00  0.00     0.001 A 
ATOM     36  C   LIG d   1       6.460  -7.858  -5.659  0.00  0.00    -0.049 A 
ATOM     37  C   LIG d   1       5.269  -5.496  -6.563  0.00  0.00    -0.053 A 
ATOM     38  C   LIG d   1       4.743  -6.725  -6.903  0.00  0.00    -0.061 A 
ATOM     39  H   LIG d   1       4.803  -4.588  -6.917  0.00  0.00     0.062 H 
ATOM     40  C   LIG d   1       5.335  -7.897  -6.453  0.00  0.00    -0.061 A 
ATOM     41  H   LIG d   1       3.861  -6.775  -7.523  0.00  0.00     0.062 H 
ATOM     42  H   LIG d   1       4.909  -8.851  -6.729  0.00  0.00     0.062 H 
ATOM     43  H   LIG d   1       6.914  -8.775  -5.314  0.00  0.00     0.062 H 
BRANCH  30  44
ATOM     44  C   LIG d   1       9.894  -5.227  -3.308  0.00  0.00     0.032 C 
ATOM     45  H   LIG d   1      10.153  -6.224  -2.950  0.00  0.00     0.052 H 
BRANCH  44  46
ATOM     46  C   LIG d   1      11.056  -4.663  -4.128  0.00  0.00    -0.044 C 
ATOM     47  H   LIG d   1      10.813  -4.717  -5.189  0.00  0.00     0.025 H 
ATOM     48  H   LIG d   1      11.227  -3.623  -3.847  0.00  0.00     0.025 H 
ATOM     49  H   LIG d   1      11.956  -5.245  -3.931  0.00  0.00     0.025 H 
ENDBRANCH  44  46
BRANCH  44  50
ATOM     50  C   LIG d   1       9.619  -4.311  -2.115  0.00  0.00    -0.044 C 
ATOM     51  H   LIG d   1      10.133  -3.361  -2.260  0.00  0.00     0.025 H 
ATOM     52  H   LIG d   1       8.546  -4.135  -2.034  0.00  0.00     0.025 H 
ATOM     53  H   LIG d   1       9.979  -4.785  -1.203  0.00  0.00     0.025 H 
ENDBRANCH  44  50
ENDBRANCH  30  44
ENDBRANCH   1  28
BRANCH   6  54
ATOM     54  O   LIG d   1       2.457  -1.351  -3.885  0.00  0.00    -0.388 OA
ATOM     55  H   LIG d   1       2.385  -2.315  -3.941  0.00  0.00     0.210 HD
ENDBRANCH   6  54
TORSDOF 5
ENDMDL
MODEL 3
REMARK VINA RESULT:      -6.6      2.342      6.568
REMARK  5 active torsions:
REMARK  status: ('A' for Active; 'I' for Inactive)
REMARK    1  A    between atoms: C_1  and  C_2 
REMARK    2  A    between atoms: C_2  and  C_3 
REMARK    3  A    between atoms: C_2  and  N_4 
REMARK    4  A    between atoms: C_6  and  C_15 
REMARK       I    between atoms: C_15  and  N_17 
REMARK    5  A    between atoms: C_20  and  O_28 
ROOT
ATOM      1  C   LIG d   1       6.489  -2.855  -5.971  0.00  0.00     0.249 C 
ATOM      2  O   LIG d   1       7.117  -2.171  -6.756  0.00  0.00    -0.270 OA
ATOM      3  N   LIG d   1       5.353  -2.380  -5.422  0.00  0.00    -0.297 N 
ATOM      4  C   LIG d   1       4.646  -3.142  -4.383  0.00  0.00     0.018 C 
ATOM      5  C   LIG d   1       4.440  -2.237  -3.165  0.00  0.00    -0.008 C 
ATOM      6  C   LIG d   1       3.720  -0.958  -3.599  0.00  0.00     0.072 C 
ATOM      7  C   LIG d   1       3.498  -0.065  -2.374  0.00  0.00    -0.024 C 
ATOM      8  C   LIG d   1       4.849   0.275  -1.743  0.00  0.00    -0.050 C 
ATOM      9  C   LIG d   1       5.718   1.016  -2.762  0.00  0.00    -0.053 C 
ATOM     10  C   LIG d   1       5.935   0.129  -3.989  0.00  0.00    -0.046 C 
ATOM     11  C   LIG d   1       4.582  -0.208  -4.618  0.00  0.00     0.004 C 
ATOM     12  H   LIG d   1       4.078   0.712  -4.912  0.00  0.00     0.034 H 
ATOM     13  C   LIG d   1       4.798  -1.087  -5.848  0.00  0.00     0.020 C 
ATOM     14  H   LIG d   1       3.679  -3.469  -4.764  0.00  0.00     0.046 H 
ATOM     15  H   LIG d   1       5.242  -4.009  -4.098  0.00  0.00     0.046 H 
ATOM     16  H   LIG d   1       3.836  -2.760  -2.422  0.00  0.00     0.031 H 
ATOM     17  H   LIG d   1       5.408  -1.982  -2.732  0.00  0.00     0.031 H 
ATOM     18  H   LIG d   1       2.998   0.853  -2.680  0.00  0.00     0.029 H 
ATOM     19  H   LIG d   1       2.879  -0.591  -1.648  0.00  0.00     0.029 H 
ATOM     20  H   LIG d   1       4.693   0.910  -0.870  0.00  0.00     0.027 H 
ATOM     21  H   LIG d   1       5.350  -0.644  -1.439  0.00  0.00     0.027 H 
ATOM     22  H   LIG d   1       5.219   1.938  -3.063  0.00  0.00     0.026 H 
ATOM     23  H   LIG d   1       6.681   1.256  -2.312  0.00  0.00     0.026 H 
ATOM     24  H   LIG d   1       6.551   0.658  -4.716  0.00  0.00     0.027 H 
ATOM     25  H   LIG d   1       6.436  -0.791  -3.689  0.00  0.00     0.027 H 
ATOM     26  H   LIG d   1       5.496  -0.597  -6.526  0.00  0.00     0.047 H 
ATOM     27  H   LIG d   1       3.846  -1.247  -6.352  0.00  0.00     0.047 H 
ENDROOT
BRANCH   1  28
ATOM     28  C   LIG d   1       6.969  -4.200  -5.619  0.00  0.00     0.061 A 
ATOM     29  C   LIG d   1       6.498  -5.295  -6.276  0.00  0.00     0.021 A 
ATOM     30  N   LIG d   1       6.916  -6.550  -5.981  0.00  0.00    -0.311 N 
ATOM     31  H   LIG d   1       5.765  -5.160  -7.058  0.00  0.00     0.082 H 
ATOM     32  C   LIG d   1       7.821  -6.804  -5.017  0.00  0.00     0.259 A 
ATOM     33  C   LIG d   1       8.396  -5.691  -4.251  0.00  0.00     0.047 A 
ATOM     34  O   LIG d   1       8.162  -7.949  -4.784  0.00  0.00    -0.267 OA
ATOM     35  C   LIG d   1       7.968  -4.380  -4.550  0.00  0.00     0.001 A 
ATOM     36  C   LIG d   1       9.342  -5.898  -3.246  0.00  0.00    -0.049 A 
ATOM     37  C   LIG d   1       8.491  -3.302  -3.841  0.00  0.00    -0.053 A 
ATOM     38  C   LIG d   1       9.423  -3.528  -2.850  0.00  0.00    -0.061 A 
ATOM     39  H   LIG d   1       8.167  -2.296  -4.064  0.00  0.00     0.062 H 
ATOM     40  C   LIG d   1       9.845  -4.818  -2.556  0.00  0.00    -0.061 A 
ATOM     41  H   LIG d   1       9.829  -2.694  -2.298  0.00  0.00     0.062 H 
ATOM     42  H   LIG d   1      10.576  -4.975  -1.776  0.00  0.00     0.062 H 
ATOM     43  H   LIG d   1       9.675  -6.897  -3.012  0.00  0.00     0.062 H 
BRANCH  30  44
ATOM     44  C   LIG d   1       6.357  -7.675  -6.736  0.00  0.00     0.032 C 
ATOM     45  H   LIG d   1       6.974  -8.560  -6.577  0.00  0.00     0.052 H 
BRANCH  44  46
ATOM     46  C   LIG d   1       4.932  -7.954  -6.254  0.00  0.00    -0.044 C 
ATOM     47  H   LIG d   1       4.650  -7.214  -5.506  0.00  0.00     0.025 H 
ATOM     48  H   LIG d   1       4.245  -7.897  -7.098  0.00  0.00     0.025 H 
ATOM     49  H   LIG d   1       4.886  -8.951  -5.815  0.00  0.00     0.025 H 
ENDBRANCH  44  46
BRANCH  44  50
ATOM     50  C   LIG d   1       6.333  -7.329  -8.225  0.00  0.00    -0.044 C 
ATOM     51  H   LIG d   1       7.196  -6.709  -8.468  0.00  0.00     0.025 H 
ATOM     52  H   LIG d   1       6.369  -8.247  -8.812  0.00  0.00     0.025 H 
ATOM     53  H   LIG d   1       5.418  -6.785  -8.457  0.00  0.00     0.025 H 
ENDBRANCH  44  50
ENDBRANCH  30  44
ENDBRANCH   1  28
BRANCH   6  54
ATOM     54  O   LIG d   1       2.463  -1.292  -4.189  0.00  0.00    -0.388 OA
ATOM     55  H   LIG d   1       2.131  -0.628  -4.810  0.00  0.00     0.210 HD
ENDBRANCH   6  54
TORSDOF 5
ENDMDL
MODEL 4
REMARK VINA RESULT:      -6.6      2.930      5.734
REMARK  5 active torsions:
REMARK  status: ('A' for Active; 'I' for Inactive)
REMARK    1  A    between atoms: C_1  and  C_2 
REMARK    2  A    between atoms: C_2  and  C_3 
REMARK    3  A    between atoms: C_2  and  N_4 
REMARK    4  A    between atoms: C_6  and  C_15 
REMARK       I    between atoms: C_15  and  N_17 
REMARK    5  A    between atoms: C_20  and  O_28 
ROOT
ATOM      1  C   LIG d   1       5.276  -2.119  -6.805  0.00  0.00     0.249 C 
ATOM      2  O   LIG d   1       5.804  -3.210  -6.906  0.00  0.00    -0.270 OA
ATOM      3  N   LIG d   1       4.228  -1.802  -7.590  0.00  0.00    -0.297 N 
ATOM      4  C   LIG d   1       3.654  -0.449  -7.565  0.00  0.00     0.018 C 
ATOM      5  C   LIG d   1       3.619   0.096  -8.997  0.00  0.00    -0.008 C 
ATOM      6  C   LIG d   1       2.864  -0.886  -9.895  0.00  0.00     0.072 C 
ATOM      7  C   LIG d   1       2.813  -0.329 -11.321  0.00  0.00    -0.024 C 
ATOM      8  C   LIG d   1       4.240  -0.128 -11.837  0.00  0.00    -0.050 C 
ATOM      9  C   LIG d   1       4.976  -1.470 -11.841  0.00  0.00    -0.053 C 
ATOM     10  C   LIG d   1       5.021  -2.032 -10.419  0.00  0.00    -0.046 C 
ATOM     11  C   LIG d   1       3.593  -2.232  -9.907  0.00  0.00     0.004 C 
ATOM     12  H   LIG d   1       3.065  -2.926 -10.562  0.00  0.00     0.034 H 
ATOM     13  C   LIG d   1       3.637  -2.801  -8.491  0.00  0.00     0.020 C 
ATOM     14  H   LIG d   1       2.642  -0.487  -7.164  0.00  0.00     0.046 H 
ATOM     15  H   LIG d   1       4.273   0.198  -6.943  0.00  0.00     0.046 H 
ATOM     16  H   LIG d   1       3.112   1.061  -9.006  0.00  0.00     0.031 H 
ATOM     17  H   LIG d   1       4.639   0.217  -9.365  0.00  0.00     0.031 H 
ATOM     18  H   LIG d   1       2.288  -1.031 -11.967  0.00  0.00     0.029 H 
ATOM     19  H   LIG d   1       2.289   0.626 -11.319  0.00  0.00     0.029 H 
ATOM     20  H   LIG d   1       4.206   0.271 -12.852  0.00  0.00     0.027 H 
ATOM     21  H   LIG d   1       4.765   0.573 -11.189  0.00  0.00     0.027 H 
ATOM     22  H   LIG d   1       4.452  -2.169 -12.493  0.00  0.00     0.026 H 
ATOM     23  H   LIG d   1       5.992  -1.325 -12.207  0.00  0.00     0.026 H 
ATOM     24  H   LIG d   1       5.542  -2.989 -10.423  0.00  0.00     0.027 H 
ATOM     25  H   LIG d   1       5.546  -1.334  -9.768  0.00  0.00     0.027 H 
ATOM     26  H   LIG d   1       4.245  -3.705  -8.481  0.00  0.00     0.047 H 
ATOM     27  H   LIG d   1       2.625  -3.036  -8.162  0.00  0.00     0.047 H 
ENDROOT
BRANCH   1  28
ATOM     28  C   LIG d   1       5.784  -1.144  -5.827  0.00  0.00     0.061 A 
ATOM     29  C   LIG d   1       6.781  -0.282  -6.165  0.00  0.00     0.021 A 
ATOM     30  N   LIG d   1       7.275   0.630  -5.293  0.00  0.00    -0.311 N 
ATOM     31  H   LIG d   1       7.193  -0.326  -7.163  0.00  0.00     0.082 H 
ATOM     32  C   LIG d   1       6.821   0.745  -4.030  0.00  0.00     0.259 A 
ATOM     33  C   LIG d   1       5.741  -0.136  -3.566  0.00  0.00     0.047 A 
ATOM     34  O   LIG d   1       7.300   1.576  -3.280  0.00  0.00    -0.267 OA
ATOM     35  C   LIG d   1       5.219  -1.089  -4.466  0.00  0.00     0.001 A 
ATOM     36  C   LIG d   1       5.230  -0.054  -2.270  0.00  0.00    -0.049 A 
ATOM     37  C   LIG d   1       4.199  -1.942  -4.057  0.00  0.00    -0.053 A 
ATOM     38  C   LIG d   1       3.708  -1.847  -2.771  0.00  0.00    -0.061 A 
ATOM     39  H   LIG d   1       3.794  -2.674  -4.740  0.00  0.00     0.062 H 
ATOM     40  C   LIG d   1       4.221  -0.909  -1.886  0.00  0.00    -0.061 A 
ATOM     41  H   LIG d   1       2.916  -2.508  -2.452  0.00  0.00     0.062 H 
ATOM     42  H   LIG d   1       3.823  -0.849  -0.882  0.00  0.00     0.062 H 
ATOM     43  H   LIG d   1       5.622   0.672  -1.575  0.00  0.00     0.062 H 
BRANCH  30  44
ATOM     44  C   LIG d   1       8.350   1.521  -5.738  0.00  0.00     0.032 C 
ATOM     45  H   LIG d   1       8.351   2.422  -5.124  0.00  0.00     0.052 H 
BRANCH  44  46
ATOM     46  C   LIG d   1       9.695   0.807  -5.596  0.00  0.00    -0.044 C 
ATOM     47  H   LIG d   1      10.194   0.776  -6.564  0.00  0.00     0.025 H 
ATOM     48  H   LIG d   1      10.319   1.346  -4.883  0.00  0.00     0.025 H 
ATOM     49  H   LIG d   1       9.531  -0.210  -5.238  0.00  0.00     0.025 H 
ENDBRANCH  44  46
BRANCH  44  50
ATOM     50  C   LIG d   1       8.125   1.901  -7.202  0.00  0.00    -0.044 C 
ATOM     51  H   LIG d   1       8.140   1.001  -7.817  0.00  0.00     0.025 H 
ATOM     52  H   LIG d   1       7.158   2.394  -7.305  0.00  0.00     0.025 H 
ATOM     53  H   LIG d   1       8.915   2.577  -7.528  0.00  0.00     0.025 H 
ENDBRANCH  44  50
ENDBRANCH  30  44
ENDBRANCH   1  28
BRANCH   6  54
ATOM     54  O   LIG d   1       1.536  -1.066  -9.398  0.00  0.00    -0.388 OA
ATOM     55  H   LIG d   1       1.187  -0.299  -8.922  0.00  0.00     0.210 HD
ENDBRANCH   6  54
TORSDOF 5
ENDMDL
MODEL 5
REMARK VINA RESULT:      -6.4      2.873      5.423
REMARK  5 active torsions:
REMARK  status: ('A' for Active; 'I' for Inactive)
REMARK    1  A    between atoms: C_1  and  C_2 
REMARK    2  A    between atoms: C_2  and  C_3 
REMARK    3  A    between atoms: C_2  and  N_4 
REMARK    4  A    between atoms: C_6  and  C_15 
REMARK       I    between atoms: C_15  and  N_17 
REMARK    5  A    between atoms: C_20  and  O_28 
ROOT
ATOM      1  C   LIG d   1       4.871  -2.565  -6.793  0.00  0.00     0.249 C 
ATOM      2  O   LIG d   1       4.105  -3.508  -6.734  0.00  0.00    -0.270 OA
ATOM      3  N   LIG d   1       5.463  -2.107  -5.672  0.00  0.00    -0.297 N 
ATOM      4  C   LIG d   1       6.296  -0.897  -5.705  0.00  0.00     0.018 C 
ATOM      5  C   LIG d   1       5.783   0.082  -4.644  0.00  0.00    -0.008 C 
ATOM      6  C   LIG d   1       5.750  -0.616  -3.283  0.00  0.00     0.072 C 
ATOM      7  C   LIG d   1       5.255   0.372  -2.222  0.00  0.00    -0.024 C 
ATOM      8  C   LIG d   1       3.856   0.863  -2.600  0.00  0.00    -0.050 C 
ATOM      9  C   LIG d   1       2.898  -0.328  -2.672  0.00  0.00    -0.053 C 
ATOM     10  C   LIG d   1       3.394  -1.320  -3.726  0.00  0.00    -0.046 C 
ATOM     11  C   LIG d   1       4.793  -1.809  -3.344  0.00  0.00     0.004 C 
ATOM     12  H   LIG d   1       4.755  -2.295  -2.369  0.00  0.00     0.034 H 
ATOM     13  C   LIG d   1       5.285  -2.805  -4.391  0.00  0.00     0.020 C 
ATOM     14  H   LIG d   1       7.332  -1.159  -5.490  0.00  0.00     0.046 H 
ATOM     15  H   LIG d   1       6.231  -0.435  -6.690  0.00  0.00     0.046 H 
ATOM     16  H   LIG d   1       6.448   0.945  -4.594  0.00  0.00     0.031 H 
ATOM     17  H   LIG d   1       4.778   0.412  -4.910  0.00  0.00     0.031 H 
ATOM     18  H   LIG d   1       5.217  -0.125  -1.253  0.00  0.00     0.029 H 
ATOM     19  H   LIG d   1       5.937   1.220  -2.170  0.00  0.00     0.029 H 
ATOM     20  H   LIG d   1       3.503   1.568  -1.846  0.00  0.00     0.027 H 
ATOM     21  H   LIG d   1       3.895   1.358  -3.570  0.00  0.00     0.027 H 
ATOM     22  H   LIG d   1       2.856  -0.820  -1.700  0.00  0.00     0.026 H 
ATOM     23  H   LIG d   1       1.903   0.023  -2.944  0.00  0.00     0.026 H 
ATOM     24  H   LIG d   1       2.713  -2.169  -3.775  0.00  0.00     0.027 H 
ATOM     25  H   LIG d   1       3.434  -0.829  -4.698  0.00  0.00     0.027 H 
ATOM     26  H   LIG d   1       4.551  -3.602  -4.509  0.00  0.00     0.047 H 
ATOM     27  H   LIG d   1       6.237  -3.228  -4.071  0.00  0.00     0.047 H 
ENDROOT
BRANCH   1  28
ATOM     28  C   LIG d   1       5.150  -1.924  -8.087  0.00  0.00     0.061 A 
ATOM     29  C   LIG d   1       6.089  -2.442  -8.926  0.00  0.00     0.021 A 
ATOM     30  N   LIG d   1       6.374  -1.881 -10.126  0.00  0.00    -0.311 N 
ATOM     31  H   LIG d   1       6.624  -3.330  -8.625  0.00  0.00     0.082 H 
ATOM     32  C   LIG d   1       5.755  -0.770 -10.572  0.00  0.00     0.259 A 
ATOM     33  C   LIG d   1       4.722  -0.135  -9.744  0.00  0.00     0.047 A 
ATOM     34  O   LIG d   1       6.049  -0.298 -11.655  0.00  0.00    -0.267 OA
ATOM     35  C   LIG d   1       4.416  -0.711  -8.493  0.00  0.00     0.001 A 
ATOM     36  C   LIG d   1       4.046   1.013 -10.161  0.00  0.00    -0.049 A 
ATOM     37  C   LIG d   1       3.445  -0.132  -7.682  0.00  0.00    -0.053 A 
ATOM     38  C   LIG d   1       2.790   1.003  -8.111  0.00  0.00    -0.061 A 
ATOM     39  H   LIG d   1       3.206  -0.567  -6.723  0.00  0.00     0.062 H 
ATOM     40  C   LIG d   1       3.089   1.570  -9.342  0.00  0.00    -0.061 A 
ATOM     41  H   LIG d   1       2.036   1.455  -7.484  0.00  0.00     0.062 H 
ATOM     42  H   LIG d   1       2.565   2.460  -9.662  0.00  0.00     0.062 H 
ATOM     43  H   LIG d   1       4.272   1.460 -11.116  0.00  0.00     0.062 H 
BRANCH  30  44
ATOM     44  C   LIG d   1       7.399  -2.501 -10.969  0.00  0.00     0.032 C 
ATOM     45  H   LIG d   1       7.526  -1.912 -11.878  0.00  0.00     0.052 H 
BRANCH  44  46
ATOM     46  C   LIG d   1       8.724  -2.552 -10.205  0.00  0.00    -0.044 C 
ATOM     47  H   LIG d   1       9.186  -1.566 -10.214  0.00  0.00     0.025 H 
ATOM     48  H   LIG d   1       8.538  -2.858  -9.175  0.00  0.00     0.025 H 
ATOM     49  H   LIG d   1       9.390  -3.271 -10.683  0.00  0.00     0.025 H 
ENDBRANCH  44  46
BRANCH  44  50
ATOM     50  C   LIG d   1       6.967  -3.921 -11.336  0.00  0.00    -0.044 C 
ATOM     51  H   LIG d   1       7.570  -4.281 -12.169  0.00  0.00     0.025 H 
ATOM     52  H   LIG d   1       7.107  -4.577 -10.477  0.00  0.00     0.025 H 
ATOM     53  H   LIG d   1       5.916  -3.918 -11.623  0.00  0.00     0.025 H 
ENDBRANCH  44  50
ENDBRANCH  30  44
ENDBRANCH   1  28
BRANCH   6  54
ATOM     54  O   LIG d   1       7.061  -1.072  -2.946  0.00  0.00    -0.388 OA
ATOM     55  H   LIG d   1       7.131  -2.032  -2.848  0.00  0.00     0.210 HD
ENDBRANCH   6  54
TORSDOF 5
ENDMDL
MODEL 6
REMARK VINA RESULT:      -6.3      2.912      6.425
REMARK  5 active torsions:
REMARK  status: ('A' for Active; 'I' for Inactive)
REMARK    1  A    between atoms: C_1  and  C_2 
REMARK    2  A    between atoms: C_2  and  C_3 
REMARK    3  A    between atoms: C_2  and  N_4 
REMARK    4  A    between atoms: C_6  and  C_15 
REMARK       I    between atoms: C_15  and  N_17 
REMARK    5  A    between atoms: C_20  and  O_28 
ROOT
ATOM      1  C   LIG d   1       6.867  -0.050  -6.448  0.00  0.00     0.249 C 
ATOM      2  O   LIG d   1       6.287   0.780  -7.122  0.00  0.00    -0.270 OA
ATOM      3  N   LIG d   1       6.163  -0.979  -5.771  0.00  0.00    -0.297 N 
ATOM      4  C   LIG d   1       6.838  -1.913  -4.859  0.00  0.00     0.018 C 
ATOM      5  C   LIG d   1       6.161  -1.836  -3.487  0.00  0.00    -0.008 C 
ATOM      6  C   LIG d   1       4.661  -2.093  -3.646  0.00  0.00     0.072 C 
ATOM      7  C   LIG d   1       3.991  -2.034  -2.270  0.00  0.00    -0.024 C 
ATOM      8  C   LIG d   1       4.230  -0.656  -1.648  0.00  0.00    -0.050 C 
ATOM      9  C   LIG d   1       3.631   0.423  -2.552  0.00  0.00    -0.053 C 
ATOM     10  C   LIG d   1       4.293   0.362  -3.930  0.00  0.00    -0.046 C 
ATOM     11  C   LIG d   1       4.052  -1.016  -4.548  0.00  0.00     0.004 C 
ATOM     12  H   LIG d   1       2.980  -1.189  -4.646  0.00  0.00     0.034 H 
ATOM     13  C   LIG d   1       4.705  -1.076  -5.926  0.00  0.00     0.020 C 
ATOM     14  H   LIG d   1       6.759  -2.927  -5.249  0.00  0.00     0.046 H 
ATOM     15  H   LIG d   1       7.889  -1.636  -4.764  0.00  0.00     0.046 H 
ATOM     16  H   LIG d   1       6.592  -2.589  -2.826  0.00  0.00     0.031 H 
ATOM     17  H   LIG d   1       6.318  -0.845  -3.059  0.00  0.00     0.031 H 
ATOM     18  H   LIG d   1       2.921  -2.203  -2.379  0.00  0.00     0.029 H 
ATOM     19  H   LIG d   1       4.417  -2.803  -1.625  0.00  0.00     0.029 H 
ATOM     20  H   LIG d   1       3.755  -0.613  -0.667  0.00  0.00     0.027 H 
ATOM     21  H   LIG d   1       5.301  -0.487  -1.541  0.00  0.00     0.027 H 
ATOM     22  H   LIG d   1       2.559   0.256  -2.656  0.00  0.00     0.026 H 
ATOM     23  H   LIG d   1       3.804   1.404  -2.109  0.00  0.00     0.026 H 
ATOM     24  H   LIG d   1       3.864   1.129  -4.574  0.00  0.00     0.027 H 
ATOM     25  H   LIG d   1       5.365   0.531  -3.826  0.00  0.00     0.027 H 
ATOM     26  H   LIG d   1       4.348  -0.246  -6.535  0.00  0.00     0.047 H 
ATOM     27  H   LIG d   1       4.452  -2.020  -6.408  0.00  0.00     0.047 H 
ENDROOT
BRANCH   1  28
ATOM     28  C   LIG d   1       8.336  -0.039  -6.371  0.00  0.00     0.061 A 
ATOM     29  C   LIG d   1       9.078  -0.795  -7.226  0.00  0.00     0.021 A 
ATOM     30  N   LIG d   1      10.432  -0.811  -7.187  0.00  0.00    -0.311 N 
ATOM     31  H   LIG d   1       8.570  -1.403  -7.960  0.00  0.00     0.082 H 
ATOM     32  C   LIG d   1      11.140  -0.087  -6.299  0.00  0.00     0.259 A 
ATOM     33  C   LIG d   1      10.435   0.767  -5.335  0.00  0.00     0.047 A 
ATOM     34  O   LIG d   1      12.356  -0.139  -6.298  0.00  0.00    -0.267 OA
ATOM     35  C   LIG d   1       9.024   0.792  -5.367  0.00  0.00     0.001 A 
ATOM     36  C   LIG d   1      11.120   1.541  -4.398  0.00  0.00    -0.049 A 
ATOM     37  C   LIG d   1       8.325   1.587  -4.464  0.00  0.00    -0.053 A 
ATOM     38  C   LIG d   1       9.020   2.344  -3.544  0.00  0.00    -0.061 A 
ATOM     39  H   LIG d   1       7.245   1.611  -4.482  0.00  0.00     0.062 H 
ATOM     40  C   LIG d   1      10.408   2.321  -3.513  0.00  0.00    -0.061 A 
ATOM     41  H   LIG d   1       8.480   2.962  -2.843  0.00  0.00     0.062 H 
ATOM     42  H   LIG d   1      10.935   2.921  -2.785  0.00  0.00     0.062 H 
ATOM     43  H   LIG d   1      12.198   1.529  -4.366  0.00  0.00     0.062 H 
BRANCH  30  44
ATOM     44  C   LIG d   1      11.155  -1.654  -8.143  0.00  0.00     0.032 C 
ATOM     45  H   LIG d   1      12.228  -1.507  -8.017  0.00  0.00     0.052 H 
BRANCH  44  46
ATOM     46  C   LIG d   1      10.809  -3.123  -7.891  0.00  0.00    -0.044 C 
ATOM     47  H   LIG d   1      10.791  -3.660  -8.839  0.00  0.00     0.025 H 
ATOM     48  H   LIG d   1      11.561  -3.566  -7.237  0.00  0.00     0.025 H 
ATOM     49  H   LIG d   1       9.830  -3.189  -7.416  0.00  0.00     0.025 H 
ENDBRANCH  44  46
BRANCH  44  50
ATOM     50  C   LIG d   1      10.751  -1.272  -9.568  0.00  0.00    -0.044 C 
ATOM     51  H   LIG d   1       9.678  -1.083  -9.603  0.00  0.00     0.025 H 
ATOM     52  H   LIG d   1      11.288  -0.372  -9.868  0.00  0.00     0.025 H 
ATOM     53  H   LIG d   1      10.999  -2.087 -10.247  0.00  0.00     0.025 H 
ENDBRANCH  44  50
ENDBRANCH  30  44
ENDBRANCH   1  28
BRANCH   6  54
ATOM     54  O   LIG d   1       4.455  -3.380  -4.230  0.00  0.00    -0.388 OA
ATOM     55  H   LIG d   1       5.197  -3.691  -4.768  0.00  0.00     0.210 HD
ENDBRANCH   6  54
TORSDOF 5
ENDMDL
MODEL 7
REMARK VINA RESULT:      -6.2      2.791      5.311
REMARK  5 active torsions:
REMARK  status: ('A' for Active; 'I' for Inactive)
REMARK    1  A    between atoms: C_1  and  C_2 
REMARK    2  A    between atoms: C_2  and  C_3 
REMARK    3  A    between atoms: C_2  and  N_4 
REMARK    4  A    between atoms: C_6  and  C_15 
REMARK       I    between atoms: C_15  and  N_17 
REMARK    5  A    between atoms: C_20  and  O_28 
ROOT
ATOM      1  C   LIG d   1       4.822  -2.820  -6.591  0.00  0.00     0.249 C 
ATOM      2  O   LIG d   1       4.214  -3.853  -6.384  0.00  0.00    -0.270 OA
ATOM      3  N   LIG d   1       5.459  -2.198  -5.579  0.00  0.00    -0.297 N 
ATOM      4  C   LIG d   1       6.096  -0.890  -5.785  0.00  0.00     0.018 C 
ATOM      5  C   LIG d   1       5.563   0.088  -4.733  0.00  0.00    -0.008 C 
ATOM      6  C   LIG d   1       5.782  -0.500  -3.337  0.00  0.00     0.072 C 
ATOM      7  C   LIG d   1       5.266   0.488  -2.287  0.00  0.00    -0.024 C 
ATOM      8  C   LIG d   1       3.778   0.750  -2.525  0.00  0.00    -0.050 C 
ATOM      9  C   LIG d   1       3.003  -0.565  -2.410  0.00  0.00    -0.053 C 
ATOM     10  C   LIG d   1       3.521  -1.557  -3.453  0.00  0.00    -0.046 C 
ATOM     11  C   LIG d   1       5.010  -1.816  -3.211  0.00  0.00     0.004 C 
ATOM     12  H   LIG d   1       5.150  -2.225  -2.210  0.00  0.00     0.034 H 
ATOM     13  C   LIG d   1       5.526  -2.812  -4.246  0.00  0.00     0.020 C 
ATOM     14  H   LIG d   1       7.176  -0.989  -5.679  0.00  0.00     0.046 H 
ATOM     15  H   LIG d   1       5.857  -0.520  -6.782  0.00  0.00     0.046 H 
ATOM     16  H   LIG d   1       6.095   1.036  -4.816  0.00  0.00     0.031 H 
ATOM     17  H   LIG d   1       4.498   0.253  -4.896  0.00  0.00     0.031 H 
ATOM     18  H   LIG d   1       5.408   0.069  -1.292  0.00  0.00     0.029 H 
ATOM     19  H   LIG d   1       5.818   1.425  -2.369  0.00  0.00     0.029 H 
ATOM     20  H   LIG d   1       3.409   1.455  -1.780  0.00  0.00     0.027 H 
ATOM     21  H   LIG d   1       3.637   1.168  -3.522  0.00  0.00     0.027 H 
ATOM     22  H   LIG d   1       3.140  -0.981  -1.412  0.00  0.00     0.026 H 
ATOM     23  H   LIG d   1       1.943  -0.378  -2.582  0.00  0.00     0.026 H 
ATOM     24  H   LIG d   1       2.971  -2.494  -3.367  0.00  0.00     0.027 H 
ATOM     25  H   LIG d   1       3.382  -1.142  -4.450  0.00  0.00     0.027 H 
ATOM     26  H   LIG d   1       4.909  -3.710  -4.226  0.00  0.00     0.047 H 
ATOM     27  H   LIG d   1       6.559  -3.073  -4.016  0.00  0.00     0.047 H 
ENDROOT
BRANCH   1  28
ATOM     28  C   LIG d   1       4.860  -2.248  -7.946  0.00  0.00     0.061 A 
ATOM     29  C   LIG d   1       3.891  -1.386  -8.359  0.00  0.00     0.021 A 
ATOM     30  N   LIG d   1       3.892  -0.838  -9.598  0.00  0.00    -0.311 N 
ATOM     31  H   LIG d   1       3.095  -1.129  -7.676  0.00  0.00     0.082 H 
ATOM     32  C   LIG d   1       4.845  -1.111 -10.510  0.00  0.00     0.259 A 
ATOM     33  C   LIG d   1       5.939  -2.026 -10.163  0.00  0.00     0.047 A 
ATOM     34  O   LIG d   1       4.800  -0.599 -11.614  0.00  0.00    -0.267 OA
ATOM     35  C   LIG d   1       5.949  -2.602  -8.875  0.00  0.00     0.001 A 
ATOM     36  C   LIG d   1       6.954  -2.338 -11.068  0.00  0.00    -0.049 A 
ATOM     37  C   LIG d   1       6.969  -3.477  -8.515  0.00  0.00    -0.053 A 
ATOM     38  C   LIG d   1       7.963  -3.774  -9.424  0.00  0.00    -0.061 A 
ATOM     39  H   LIG d   1       6.983  -3.922  -7.531  0.00  0.00     0.062 H 
ATOM     40  C   LIG d   1       7.954  -3.207 -10.691  0.00  0.00    -0.061 A 
ATOM     41  H   LIG d   1       8.756  -4.452  -9.147  0.00  0.00     0.062 H 
ATOM     42  H   LIG d   1       8.741  -3.451 -11.390  0.00  0.00     0.062 H 
ATOM     43  H   LIG d   1       6.956  -1.902 -12.055  0.00  0.00     0.062 H 
BRANCH  30  44
ATOM     44  C   LIG d   1       2.811   0.081  -9.964  0.00  0.00     0.032 C 
ATOM     45  H   LIG d   1       3.021   0.517 -10.941  0.00  0.00     0.052 H 
BRANCH  44  46
ATOM     46  C   LIG d   1       1.488  -0.685 -10.021  0.00  0.00    -0.044 C 
ATOM     47  H   LIG d   1       1.153  -0.907  -9.009  0.00  0.00     0.025 H 
ATOM     48  H   LIG d   1       0.738  -0.077 -10.528  0.00  0.00     0.025 H 
ATOM     49  H   LIG d   1       1.632  -1.616 -10.569  0.00  0.00     0.025 H 
ENDBRANCH  44  46
BRANCH  44  50
ATOM     50  C   LIG d   1       2.712   1.193  -8.919  0.00  0.00    -0.044 C 
ATOM     51  H   LIG d   1       3.596   1.827  -8.977  0.00  0.00     0.025 H 
ATOM     52  H   LIG d   1       1.822   1.794  -9.112  0.00  0.00     0.025 H 
ATOM     53  H   LIG d   1       2.644   0.753  -7.925  0.00  0.00     0.025 H 
ENDBRANCH  44  50
ENDBRANCH  30  44
ENDBRANCH   1  28
BRANCH   6  54
ATOM     54  O   LIG d   1       7.175  -0.742  -3.132  0.00  0.00    -0.388 OA
ATOM     55  H   LIG d   1       7.712   0.062  -3.093  0.00  0.00     0.210 HD
ENDBRANCH   6  54
TORSDOF 5
ENDMDL
MODEL 8
REMARK VINA RESULT:      -6.1      0.872      3.353
REMARK  5 active torsions:
REMARK  status: ('A' for Active; 'I' for Inactive)
REMARK    1  A    between atoms: C_1  and  C_2 
REMARK    2  A    between atoms: C_2  and  C_3 
REMARK    3  A    between atoms: C_2  and  N_4 
REMARK    4  A    between atoms: C_6  and  C_15 
REMARK       I    between atoms: C_15  and  N_17 
REMARK    5  A    between atoms: C_20  and  O_28 
ROOT
ATOM      1  C   LIG d   1       5.768  -3.063  -6.514  0.00  0.00     0.249 C 
ATOM      2  O   LIG d   1       5.294  -4.120  -6.885  0.00  0.00    -0.270 OA
ATOM      3  N   LIG d   1       7.105  -2.907  -6.459  0.00  0.00    -0.297 N 
ATOM      4  C   LIG d   1       7.694  -1.682  -5.900  0.00  0.00     0.018 C 
ATOM      5  C   LIG d   1       8.692  -2.071  -4.805  0.00  0.00    -0.008 C 
ATOM      6  C   LIG d   1       9.717  -3.052  -5.378  0.00  0.00     0.072 C 
ATOM      7  C   LIG d   1      10.724  -3.424  -4.285  0.00  0.00    -0.024 C 
ATOM      8  C   LIG d   1       9.983  -4.060  -3.107  0.00  0.00    -0.050 C 
ATOM      9  C   LIG d   1       9.257  -5.321  -3.581  0.00  0.00    -0.053 C 
ATOM     10  C   LIG d   1       8.256  -4.954  -4.678  0.00  0.00    -0.046 C 
ATOM     11  C   LIG d   1       9.001  -4.319  -5.854  0.00  0.00     0.004 C 
ATOM     12  H   LIG d   1       9.734  -5.025  -6.244  0.00  0.00     0.034 H 
ATOM     13  C   LIG d   1       8.004  -3.959  -6.952  0.00  0.00     0.020 C 
ATOM     14  H   LIG d   1       8.211  -1.133  -6.687  0.00  0.00     0.046 H 
ATOM     15  H   LIG d   1       6.907  -1.060  -5.474  0.00  0.00     0.046 H 
ATOM     16  H   LIG d   1       9.204  -1.178  -4.445  0.00  0.00     0.031 H 
ATOM     17  H   LIG d   1       8.158  -2.542  -3.978  0.00  0.00     0.031 H 
ATOM     18  H   LIG d   1      11.449  -4.132  -4.684  0.00  0.00     0.029 H 
ATOM     19  H   LIG d   1      11.241  -2.526  -3.947  0.00  0.00     0.029 H 
ATOM     20  H   LIG d   1      10.698  -4.323  -2.327  0.00  0.00     0.027 H 
ATOM     21  H   LIG d   1       9.256  -3.350  -2.710  0.00  0.00     0.027 H 
ATOM     22  H   LIG d   1       9.984  -6.032  -3.975  0.00  0.00     0.026 H 
ATOM     23  H   LIG d   1       8.727  -5.772  -2.742  0.00  0.00     0.026 H 
ATOM     24  H   LIG d   1       7.742  -5.853  -5.017  0.00  0.00     0.027 H 
ATOM     25  H   LIG d   1       7.528  -4.245  -4.284  0.00  0.00     0.027 H 
ATOM     26  H   LIG d   1       7.422  -4.841  -7.217  0.00  0.00     0.047 H 
ATOM     27  H   LIG d   1       8.543  -3.598  -7.828  0.00  0.00     0.047 H 
ENDROOT
BRANCH   1  28
ATOM     28  C   LIG d   1       4.881  -1.957  -6.123  0.00  0.00     0.061 A 
ATOM     29  C   LIG d   1       4.573  -1.749  -4.813  0.00  0.00     0.021 A 
ATOM     30  N   LIG d   1       3.761  -0.741  -4.413  0.00  0.00    -0.311 N 
ATOM     31  H   LIG d   1       4.990  -2.409  -4.067  0.00  0.00     0.082 H 
ATOM     32  C   LIG d   1       3.196   0.122  -5.280  0.00  0.00     0.259 A 
ATOM     33  C   LIG d   1       3.468  -0.012  -6.716  0.00  0.00     0.047 A 
ATOM     34  O   LIG d   1       2.468   1.009  -4.874  0.00  0.00    -0.267 OA
ATOM     35  C   LIG d   1       4.313  -1.058  -7.144  0.00  0.00     0.001 A 
ATOM     36  C   LIG d   1       2.914   0.858  -7.656  0.00  0.00    -0.049 A 
ATOM     37  C   LIG d   1       4.588  -1.217  -8.500  0.00  0.00    -0.053 A 
ATOM     38  C   LIG d   1       4.029  -0.347  -9.412  0.00  0.00    -0.061 A 
ATOM     39  H   LIG d   1       5.234  -2.015  -8.834  0.00  0.00     0.062 H 
ATOM     40  C   LIG d   1       3.198   0.683  -8.992  0.00  0.00    -0.061 A 
ATOM     41  H   LIG d   1       4.241  -0.468 -10.464  0.00  0.00     0.062 H 
ATOM     42  H   LIG d   1       2.770   1.354  -9.722  0.00  0.00     0.062 H 
ATOM     43  H   LIG d   1       2.267   1.661  -7.338  0.00  0.00     0.062 H 
BRANCH  30  44
ATOM     44  C   LIG d   1       3.479  -0.587  -2.983  0.00  0.00     0.032 C 
ATOM     45  H   LIG d   1       2.449  -0.255  -2.850  0.00  0.00     0.052 H 
BRANCH  44  46
ATOM     46  C   LIG d   1       3.678  -1.929  -2.278  0.00  0.00    -0.044 C 
ATOM     47  H   LIG d   1       3.429  -1.825  -1.222  0.00  0.00     0.025 H 
ATOM     48  H   LIG d   1       3.028  -2.678  -2.732  0.00  0.00     0.025 H 
ATOM     49  H   LIG d   1       4.717  -2.242  -2.377  0.00  0.00     0.025 H 
ENDBRANCH  44  46
BRANCH  44  50
ATOM     50  C   LIG d   1       4.431   0.450  -2.385  0.00  0.00    -0.044 C 
ATOM     51  H   LIG d   1       4.265   0.518  -1.310  0.00  0.00     0.025 H 
ATOM     52  H   LIG d   1       5.462   0.148  -2.574  0.00  0.00     0.025 H 
ATOM     53  H   LIG d   1       4.246   1.420  -2.844  0.00  0.00     0.025 H 
ENDBRANCH  44  50
ENDBRANCH  30  44
ENDBRANCH   1  28
BRANCH   6  54
ATOM     54  O   LIG d   1      10.398  -2.446  -6.478  0.00  0.00    -0.388 OA
ATOM     55  H   LIG d   1      11.246  -2.043  -6.242  0.00  0.00     0.210 HD
ENDBRANCH   6  54
TORSDOF 5
ENDMDL
MODEL 9
REMARK VINA RESULT:      -6.0      2.330      6.456
REMARK  5 active torsions:
REMARK  status: ('A' for Active; 'I' for Inactive)
REMARK    1  A    between atoms: C_1  and  C_2 
REMARK    2  A    between atoms: C_2  and  C_3 
REMARK    3  A    between atoms: C_2  and  N_4 
REMARK    4  A    between atoms: C_6  and  C_15 
REMARK       I    between atoms: C_15  and  N_17 
REMARK    5  A    between atoms: C_20  and  O_28 
ROOT
ATOM      1  C   LIG d   1       6.867  -2.491  -5.212  0.00  0.00     0.249 C 
ATOM      2  O   LIG d   1       6.363  -3.200  -6.063  0.00  0.00    -0.270 OA
ATOM      3  N   LIG d   1       6.149  -2.117  -4.135  0.00  0.00    -0.297 N 
ATOM      4  C   LIG d   1       6.700  -1.166  -3.160  0.00  0.00     0.018 C 
ATOM      5  C   LIG d   1       5.709  -0.011  -2.985  0.00  0.00    -0.008 C 
ATOM      6  C   LIG d   1       4.338  -0.573  -2.602  0.00  0.00     0.072 C 
ATOM      7  C   LIG d   1       3.355   0.585  -2.408  0.00  0.00    -0.024 C 
ATOM      8  C   LIG d   1       3.255   1.388  -3.707  0.00  0.00    -0.050 C 
ATOM      9  C   LIG d   1       2.755   0.479  -4.833  0.00  0.00    -0.053 C 
ATOM     10  C   LIG d   1       3.732  -0.683  -5.023  0.00  0.00    -0.046 C 
ATOM     11  C   LIG d   1       3.828  -1.483  -3.723  0.00  0.00     0.004 C 
ATOM     12  H   LIG d   1       2.843  -1.868  -3.459  0.00  0.00     0.034 H 
ATOM     13  C   LIG d   1       4.796  -2.648  -3.914  0.00  0.00     0.020 C 
ATOM     14  H   LIG d   1       6.850  -1.668  -2.204  0.00  0.00     0.046 H 
ATOM     15  H   LIG d   1       7.652  -0.779  -3.525  0.00  0.00     0.046 H 
ATOM     16  H   LIG d   1       6.062   0.654  -2.196  0.00  0.00     0.031 H 
ATOM     17  H   LIG d   1       5.628   0.543  -3.920  0.00  0.00     0.031 H 
ATOM     18  H   LIG d   1       2.373   0.189  -2.149  0.00  0.00     0.029 H 
ATOM     19  H   LIG d   1       3.710   1.232  -1.607  0.00  0.00     0.029 H 
ATOM     20  H   LIG d   1       2.556   2.214  -3.570  0.00  0.00     0.027 H 
ATOM     21  H   LIG d   1       4.238   1.782  -3.967  0.00  0.00     0.027 H 
ATOM     22  H   LIG d   1       1.771   0.089  -4.575  0.00  0.00     0.026 H 
ATOM     23  H   LIG d   1       2.687   1.052  -5.758  0.00  0.00     0.026 H 
ATOM     24  H   LIG d   1       3.374  -1.331  -5.823  0.00  0.00     0.027 H 
ATOM     25  H   LIG d   1       4.716  -0.293  -5.283  0.00  0.00     0.027 H 
ATOM     26  H   LIG d   1       4.491  -3.237  -4.779  0.00  0.00     0.047 H 
ATOM     27  H   LIG d   1       4.792  -3.275  -3.023  0.00  0.00     0.047 H 
ENDROOT
BRANCH   1  28
ATOM     28  C   LIG d   1       8.260  -2.042  -5.360  0.00  0.00     0.061 A 
ATOM     29  C   LIG d   1       8.561  -0.978  -6.155  0.00  0.00     0.021 A 
ATOM     30  N   LIG d   1       9.831  -0.533  -6.317  0.00  0.00    -0.311 N 
ATOM     31  H   LIG d   1       7.761  -0.472  -6.675  0.00  0.00     0.082 H 
ATOM     32  C   LIG d   1      10.884  -1.113  -5.710  0.00  0.00     0.259 A 
ATOM     33  C   LIG d   1      10.667  -2.265  -4.826  0.00  0.00     0.047 A 
ATOM     34  O   LIG d   1      12.008  -0.682  -5.890  0.00  0.00    -0.267 OA
ATOM     35  C   LIG d   1       9.348  -2.736  -4.650  0.00  0.00     0.001 A 
ATOM     36  C   LIG d   1      11.722  -2.898  -4.168  0.00  0.00    -0.049 A 
ATOM     37  C   LIG d   1       9.108  -3.830  -3.822  0.00  0.00    -0.053 A 
ATOM     38  C   LIG d   1      10.165  -4.442  -3.182  0.00  0.00    -0.061 A 
ATOM     39  H   LIG d   1       8.102  -4.196  -3.683  0.00  0.00     0.062 H 
ATOM     40  C   LIG d   1      11.462  -3.979  -3.354  0.00  0.00    -0.061 A 
ATOM     41  H   LIG d   1       9.980  -5.290  -2.539  0.00  0.00     0.062 H 
ATOM     42  H   LIG d   1      12.277  -4.472  -2.844  0.00  0.00     0.062 H 
ATOM     43  H   LIG d   1      12.733  -2.545  -4.296  0.00  0.00     0.062 H 
BRANCH  30  44
ATOM     44  C   LIG d   1      10.069   0.617  -7.192  0.00  0.00     0.032 C 
ATOM     45  H   LIG d   1      11.117   0.910  -7.129  0.00  0.00     0.052 H 
BRANCH  44  46
ATOM     46  C   LIG d   1       9.731   0.239  -8.635  0.00  0.00    -0.044 C 
ATOM     47  H   LIG d   1       8.649   0.185  -8.752  0.00  0.00     0.025 H 
ATOM     48  H   LIG d   1      10.132   0.994  -9.312  0.00  0.00     0.025 H 
ATOM     49  H   LIG d   1      10.171  -0.730  -8.869  0.00  0.00     0.025 H 
ENDBRANCH  44  46
BRANCH  44  50
ATOM     50  C   LIG d   1       9.186   1.785  -6.750  0.00  0.00    -0.044 C 
ATOM     51  H   LIG d   1       9.692   2.726  -6.966  0.00  0.00     0.025 H 
ATOM     52  H   LIG d   1       8.240   1.750  -7.291  0.00  0.00     0.025 H 
ATOM     53  H   LIG d   1       8.995   1.713  -5.680  0.00  0.00     0.025 H 
ENDBRANCH  44  50
ENDBRANCH  30  44
ENDBRANCH   1  28
BRANCH   6  54
ATOM     54  O   LIG d   1       4.448  -1.323  -1.391  0.00  0.00    -0.388 OA
ATOM     55  H   LIG d   1       3.614  -1.417  -0.909  0.00  0.00     0.210 HD
ENDBRANCH   6  54
TORSDOF 5
ENDMDL
