MODEL 1
REMARK VINA RESULT:      -5.7      0.000      0.000
REMARK  4 active torsions:
REMARK  status: ('A' for Active; 'I' for Inactive)
REMARK    1  A    between atoms: C_1  and  C_2 
REMARK    2  A    between atoms: C_4  and  C_19 
REMARK    3  A    between atoms: C_8  and  C_12 
REMARK    4  A    between atoms: C_15  and  O_18 
ROOT
ATOM      1  C   LIG d   1       3.449  -0.371 -10.722  0.00  0.00     0.022 C 
ATOM      2  C   LIG d   1       3.810   1.119 -10.711  0.00  0.00    -0.030 C 
ATOM      3  C   LIG d   1       3.985   1.569  -9.255  0.00  0.00     0.022 C 
ATOM      4  C   LIG d   1       2.676   1.315  -8.500  0.00  0.00    -0.023 C 
ATOM      5  N   LIG d   1       2.374  -0.125  -8.540  0.00  0.00     0.253 N 
ATOM      6  C   LIG d   1       2.155  -0.570  -9.924  0.00  0.00    -0.023 C 
ATOM      7  C   LIG d   1       3.451  -0.900  -7.908  0.00  0.00     0.062 C 
ATOM      8  N   LIG d   1       4.704  -0.688  -8.648  0.00  0.00    -0.256 N 
ATOM      9  C   LIG d   1       4.575  -1.155 -10.036  0.00  0.00     0.014 C 
ATOM     10  C   LIG d   1       5.096   0.730  -8.612  0.00  0.00     0.014 C 
ATOM     11  H   LIG d   1       4.747   1.273 -11.266  0.00  0.00     0.028 H 
ATOM     12  H   LIG d   1       3.003   1.696 -11.187  0.00  0.00     0.028 H 
ATOM     13  H   LIG d   1       2.786   1.642  -7.456  0.00  0.00     0.082 H 
ATOM     14  H   LIG d   1       1.861   1.879  -8.977  0.00  0.00     0.082 H 
ATOM     15  H   LIG d   1       1.347   0.021 -10.382  0.00  0.00     0.082 H 
ATOM     16  H   LIG d   1       1.878  -1.635  -9.933  0.00  0.00     0.082 H 
ATOM     17  H   LIG d   1       3.192  -1.968  -7.951  0.00  0.00     0.109 H 
ATOM     18  H   LIG d   1       4.333  -2.229 -10.046  0.00  0.00     0.044 H 
ATOM     19  H   LIG d   1       5.519  -0.988 -10.575  0.00  0.00     0.044 H 
ATOM     20  H   LIG d   1       6.033   0.871  -9.170  0.00  0.00     0.044 H 
ATOM     21  H   LIG d   1       5.240   1.050  -7.569  0.00  0.00     0.044 H 
ATOM     22  H   LIG d   1       1.448  -0.298  -7.971  0.00  0.00     0.205 HD
ENDROOT
BRANCH   7  23
ATOM     23  C   LIG d   1       3.627  -0.447  -6.482  0.00  0.00     0.016 A 
ATOM     24  C   LIG d   1       4.815  -0.697  -5.820  0.00  0.00    -0.048 A 
ATOM     25  C   LIG d   1       4.979  -0.284  -4.512  0.00  0.00    -0.020 A 
ATOM     26  H   LIG d   1       5.615  -1.217  -6.326  0.00  0.00     0.062 H 
ATOM     27  C   LIG d   1       3.951   0.384  -3.863  0.00  0.00     0.117 A 
ATOM     28  H   LIG d   1       5.906  -0.479  -3.995  0.00  0.00     0.065 H 
ATOM     29  C   LIG d   1       2.759   0.634  -4.530  0.00  0.00    -0.020 A 
ATOM     30  C   LIG d   1       2.601   0.219  -5.837  0.00  0.00    -0.048 A 
ATOM     31  H   LIG d   1       1.959   1.158  -4.028  0.00  0.00     0.065 H 
ATOM     32  H   LIG d   1       1.674   0.413  -6.356  0.00  0.00     0.062 H 
BRANCH  27  33
ATOM     33  O   LIG d   1       4.109   0.792  -2.576  0.00  0.00    -0.507 OA
ATOM     34  H   LIG d   1       5.049   0.581  -2.045  0.00  0.00     0.292 HD
ENDBRANCH  27  33
ENDBRANCH   7  23
BRANCH   3  35
ATOM     35  C   LIG d   1       4.339   3.057  -9.206  0.00  0.00    -0.053 C 
ATOM     36  H   LIG d   1       3.830   3.526  -8.350  0.00  0.00     0.024 H 
ATOM     37  H   LIG d   1       4.013   3.542 -10.137  0.00  0.00     0.024 H 
ATOM     38  H   LIG d   1       5.427   3.172  -9.093  0.00  0.00     0.024 H 
ENDBRANCH   3  35
BRANCH   1  39
ATOM     39  C   LIG d   1       3.274  -0.858 -12.161  0.00  0.00    -0.053 C 
ATOM     40  H   LIG d   1       4.082  -1.560 -12.412  0.00  0.00     0.024 H 
ATOM     41  H   LIG d   1       3.311   0.003 -12.847  0.00  0.00     0.024 H 
ATOM     42  H   LIG d   1       2.303  -1.366 -12.262  0.00  0.00     0.024 H 
ENDBRANCH   1  39
TORSDOF 4
ENDMDL
MODEL 2
REMARK VINA RESULT:      -5.4      3.476      4.899
REMARK  4 active torsions:
REMARK  status: ('A' for Active; 'I' for Inactive)
REMARK    1  A    between atoms: C_1  and  C_2 
REMARK    2  A    between atoms: C_4  and  C_19 
REMARK    3  A    between atoms: C_8  and  C_12 
REMARK    4  A    between atoms: C_15  and  O_18 
ROOT
ATOM      1  C   LIG d   1       6.229  -4.654  -6.272  0.00  0.00     0.022 C 
ATOM      2  C   LIG d   1       6.432  -3.534  -7.300  0.00  0.00    -0.030 C 
ATOM      3  C   LIG d   1       5.953  -2.213  -6.685  0.00  0.00     0.022 C 
ATOM      4  C   LIG d   1       4.473  -2.352  -6.309  0.00  0.00    -0.023 C 
ATOM      5  N   LIG d   1       4.331  -3.436  -5.325  0.00  0.00     0.253 N 
ATOM      6  C   LIG d   1       4.740  -4.723  -5.908  0.00  0.00    -0.023 C 
ATOM      7  C   LIG d   1       5.109  -3.143  -4.113  0.00  0.00     0.062 C 
ATOM      8  N   LIG d   1       6.535  -3.042  -4.459  0.00  0.00    -0.256 N 
ATOM      9  C   LIG d   1       7.028  -4.314  -5.008  0.00  0.00     0.014 C 
ATOM     10  C   LIG d   1       6.761  -1.943  -5.410  0.00  0.00     0.014 C 
ATOM     11  H   LIG d   1       7.499  -3.462  -7.557  0.00  0.00     0.028 H 
ATOM     12  H   LIG d   1       5.851  -3.758  -8.206  0.00  0.00     0.028 H 
ATOM     13  H   LIG d   1       4.115  -1.407  -5.875  0.00  0.00     0.082 H 
ATOM     14  H   LIG d   1       3.887  -2.588  -7.209  0.00  0.00     0.082 H 
ATOM     15  H   LIG d   1       4.150  -4.925  -6.815  0.00  0.00     0.082 H 
ATOM     16  H   LIG d   1       4.578  -5.530  -5.178  0.00  0.00     0.082 H 
ATOM     17  H   LIG d   1       4.976  -3.969  -3.398  0.00  0.00     0.109 H 
ATOM     18  H   LIG d   1       6.899  -5.115  -4.266  0.00  0.00     0.044 H 
ATOM     19  H   LIG d   1       8.095  -4.220  -5.264  0.00  0.00     0.044 H 
ATOM     20  H   LIG d   1       7.831  -1.882  -5.659  0.00  0.00     0.044 H 
ATOM     21  H   LIG d   1       6.435  -0.991  -4.964  0.00  0.00     0.044 H 
ATOM     22  H   LIG d   1       3.270  -3.507  -5.042  0.00  0.00     0.205 HD
ENDROOT
BRANCH   7  23
ATOM     23  C   LIG d   1       4.643  -1.839  -3.518  0.00  0.00     0.016 A 
ATOM     24  C   LIG d   1       3.301  -1.508  -3.550  0.00  0.00    -0.048 A 
ATOM     25  C   LIG d   1       2.870  -0.314  -3.007  0.00  0.00    -0.020 A 
ATOM     26  H   LIG d   1       2.588  -2.183  -4.000  0.00  0.00     0.062 H 
ATOM     27  C   LIG d   1       3.785   0.554  -2.428  0.00  0.00     0.117 A 
ATOM     28  H   LIG d   1       1.822  -0.054  -3.031  0.00  0.00     0.065 H 
ATOM     29  C   LIG d   1       5.132   0.219  -2.398  0.00  0.00    -0.020 A 
ATOM     30  C   LIG d   1       5.557  -0.977  -2.942  0.00  0.00    -0.048 A 
ATOM     31  H   LIG d   1       5.845   0.891  -1.944  0.00  0.00     0.065 H 
ATOM     32  H   LIG d   1       6.604  -1.238  -2.919  0.00  0.00     0.062 H 
BRANCH  27  33
ATOM     33  O   LIG d   1       3.365   1.730  -1.893  0.00  0.00    -0.507 OA
ATOM     34  H   LIG d   1       3.801   2.679  -2.238  0.00  0.00     0.292 HD
ENDBRANCH  27  33
ENDBRANCH   7  23
BRANCH   3  35
ATOM     35  C   LIG d   1       6.134  -1.072  -7.688  0.00  0.00    -0.053 C 
ATOM     36  H   LIG d   1       7.185  -0.745  -7.685  0.00  0.00     0.024 H 
ATOM     37  H   LIG d   1       5.487  -0.229  -7.405  0.00  0.00     0.024 H 
ATOM     38  H   LIG d   1       5.862  -1.422  -8.695  0.00  0.00     0.024 H 
ENDBRANCH   3  35
BRANCH   1  39
ATOM     39  C   LIG d   1       6.703  -5.988  -6.849  0.00  0.00    -0.053 C 
ATOM     40  H   LIG d   1       5.836  -6.567  -7.197  0.00  0.00     0.024 H 
ATOM     41  H   LIG d   1       7.234  -6.557  -6.070  0.00  0.00     0.024 H 
ATOM     42  H   LIG d   1       7.383  -5.802  -7.694  0.00  0.00     0.024 H 
ENDBRANCH   1  39
TORSDOF 4
ENDMDL
MODEL 3
REMARK VINA RESULT:      -5.1      4.227      6.370
REMARK  4 active torsions:
REMARK  status: ('A' for Active; 'I' for Inactive)
REMARK    1  A    between atoms: C_1  and  C_2 
REMARK    2  A    between atoms: C_4  and  C_19 
REMARK    3  A    between atoms: C_8  and  C_12 
REMARK    4  A    between atoms: C_15  and  O_18 
ROOT
ATOM      1  C   LIG d   1       4.530   0.212  -2.900  0.00  0.00     0.022 C 
ATOM      2  C   LIG d   1       5.972   0.608  -3.238  0.00  0.00    -0.030 C 
ATOM      3  C   LIG d   1       6.550  -0.430  -4.209  0.00  0.00     0.022 C 
ATOM      4  C   LIG d   1       6.499  -1.810  -3.542  0.00  0.00    -0.023 C 
ATOM      5  N   LIG d   1       5.099  -2.142  -3.238  0.00  0.00     0.253 N 
ATOM      6  C   LIG d   1       4.537  -1.187  -2.271  0.00  0.00    -0.023 C 
ATOM      7  C   LIG d   1       4.293  -2.172  -4.467  0.00  0.00     0.062 C 
ATOM      8  N   LIG d   1       4.308  -0.842  -5.095  0.00  0.00    -0.256 N 
ATOM      9  C   LIG d   1       3.716   0.162  -4.199  0.00  0.00     0.014 C 
ATOM     10  C   LIG d   1       5.678  -0.460  -5.470  0.00  0.00     0.014 C 
ATOM     11  H   LIG d   1       5.979   1.603  -3.705  0.00  0.00     0.028 H 
ATOM     12  H   LIG d   1       6.572   0.632  -2.316  0.00  0.00     0.028 H 
ATOM     13  H   LIG d   1       6.920  -2.562  -4.226  0.00  0.00     0.082 H 
ATOM     14  H   LIG d   1       7.087  -1.790  -2.613  0.00  0.00     0.082 H 
ATOM     15  H   LIG d   1       5.153  -1.176  -1.359  0.00  0.00     0.082 H 
ATOM     16  H   LIG d   1       3.509  -1.479  -2.014  0.00  0.00     0.082 H 
ATOM     17  H   LIG d   1       3.256  -2.428  -4.205  0.00  0.00     0.109 H 
ATOM     18  H   LIG d   1       2.675  -0.111  -3.970  0.00  0.00     0.044 H 
ATOM     19  H   LIG d   1       3.737   1.151  -4.682  0.00  0.00     0.044 H 
ATOM     20  H   LIG d   1       5.672   0.536  -5.936  0.00  0.00     0.044 H 
ATOM     21  H   LIG d   1       6.087  -1.193  -6.181  0.00  0.00     0.044 H 
ATOM     22  H   LIG d   1       5.073  -3.146  -2.788  0.00  0.00     0.205 HD
ENDROOT
BRANCH   7  23
ATOM     23  C   LIG d   1       4.870  -3.185  -5.423  0.00  0.00     0.016 A 
ATOM     24  C   LIG d   1       5.601  -4.254  -4.937  0.00  0.00    -0.048 A 
ATOM     25  C   LIG d   1       6.131  -5.183  -5.810  0.00  0.00    -0.020 A 
ATOM     26  H   LIG d   1       5.757  -4.362  -3.874  0.00  0.00     0.062 H 
ATOM     27  C   LIG d   1       5.930  -5.044  -7.176  0.00  0.00     0.117 A 
ATOM     28  H   LIG d   1       6.702  -6.017  -5.431  0.00  0.00     0.065 H 
ATOM     29  C   LIG d   1       5.196  -3.970  -7.661  0.00  0.00    -0.020 A 
ATOM     30  C   LIG d   1       4.668  -3.044  -6.783  0.00  0.00    -0.048 A 
ATOM     31  H   LIG d   1       5.035  -3.863  -8.723  0.00  0.00     0.065 H 
ATOM     32  H   LIG d   1       4.097  -2.209  -7.160  0.00  0.00     0.062 H 
BRANCH  27  33
ATOM     33  O   LIG d   1       6.451  -5.957  -8.037  0.00  0.00    -0.507 OA
ATOM     34  H   LIG d   1       6.319  -5.827  -9.122  0.00  0.00     0.292 HD
ENDBRANCH  27  33
ENDBRANCH   7  23
BRANCH   3  35
ATOM     35  C   LIG d   1       7.994  -0.070  -4.562  0.00  0.00    -0.053 C 
ATOM     36  H   LIG d   1       8.034   0.964  -4.935  0.00  0.00     0.024 H 
ATOM     37  H   LIG d   1       8.363  -0.756  -5.339  0.00  0.00     0.024 H 
ATOM     38  H   LIG d   1       8.625  -0.160  -3.665  0.00  0.00     0.024 H 
ENDBRANCH   3  35
BRANCH   1  39
ATOM     39  C   LIG d   1       3.918   1.231  -1.937  0.00  0.00    -0.053 C 
ATOM     40  H   LIG d   1       2.954   1.579  -2.336  0.00  0.00     0.024 H 
ATOM     41  H   LIG d   1       4.600   2.087  -1.827  0.00  0.00     0.024 H 
ATOM     42  H   LIG d   1       3.760   0.760  -0.955  0.00  0.00     0.024 H 
ENDBRANCH   1  39
TORSDOF 4
ENDMDL
MODEL 4
REMARK VINA RESULT:      -5.0      4.030      6.612
REMARK  4 active torsions:
REMARK  status: ('A' for Active; 'I' for Inactive)
REMARK    1  A    between atoms: C_1  and  C_2 
REMARK    2  A    between atoms: C_4  and  C_19 
REMARK    3  A    between atoms: C_8  and  C_12 
REMARK    4  A    between atoms: C_15  and  O_18 
ROOT
ATOM      1  C   LIG d   1       4.655   0.200  -2.928  0.00  0.00     0.022 C 
ATOM      2  C   LIG d   1       3.961   0.164  -4.295  0.00  0.00    -0.030 C 
ATOM      3  C   LIG d   1       4.751  -0.771  -5.220  0.00  0.00     0.022 C 
ATOM      4  C   LIG d   1       6.185  -0.244  -5.345  0.00  0.00    -0.023 C 
ATOM      5  N   LIG d   1       6.806  -0.228  -4.011  0.00  0.00     0.253 N 
ATOM      6  C   LIG d   1       6.093   0.699  -3.119  0.00  0.00    -0.023 C 
ATOM      7  C   LIG d   1       6.838  -1.581  -3.436  0.00  0.00     0.062 C 
ATOM      8  N   LIG d   1       5.464  -2.080  -3.281  0.00  0.00    -0.256 N 
ATOM      9  C   LIG d   1       4.700  -1.224  -2.361  0.00  0.00     0.014 C 
ATOM     10  C   LIG d   1       4.792  -2.167  -4.587  0.00  0.00     0.014 C 
ATOM     11  H   LIG d   1       2.934  -0.208  -4.174  0.00  0.00     0.028 H 
ATOM     12  H   LIG d   1       3.936   1.178  -4.721  0.00  0.00     0.028 H 
ATOM     13  H   LIG d   1       6.760  -0.902  -6.013  0.00  0.00     0.082 H 
ATOM     14  H   LIG d   1       6.168   0.775  -5.758  0.00  0.00     0.082 H 
ATOM     15  H   LIG d   1       6.076   1.705  -3.564  0.00  0.00     0.082 H 
ATOM     16  H   LIG d   1       6.600   0.740  -2.143  0.00  0.00     0.082 H 
ATOM     17  H   LIG d   1       7.312  -1.534  -2.445  0.00  0.00     0.109 H 
ATOM     18  H   LIG d   1       5.187  -1.211  -1.375  0.00  0.00     0.044 H 
ATOM     19  H   LIG d   1       3.675  -1.610  -2.258  0.00  0.00     0.044 H 
ATOM     20  H   LIG d   1       3.766  -2.540  -4.453  0.00  0.00     0.044 H 
ATOM     21  H   LIG d   1       5.347  -2.852  -5.246  0.00  0.00     0.044 H 
ATOM     22  H   LIG d   1       7.843   0.124  -4.117  0.00  0.00     0.205 HD
ENDROOT
BRANCH   7  23
ATOM     23  C   LIG d   1       7.605  -2.498  -4.353  0.00  0.00     0.016 A 
ATOM     24  C   LIG d   1       8.769  -2.057  -4.955  0.00  0.00    -0.048 A 
ATOM     25  C   LIG d   1       9.474  -2.895  -5.797  0.00  0.00    -0.020 A 
ATOM     26  H   LIG d   1       9.128  -1.056  -4.768  0.00  0.00     0.062 H 
ATOM     27  C   LIG d   1       9.014  -4.182  -6.037  0.00  0.00     0.117 A 
ATOM     28  H   LIG d   1      10.383  -2.551  -6.267  0.00  0.00     0.065 H 
ATOM     29  C   LIG d   1       7.845  -4.622  -5.432  0.00  0.00    -0.020 A 
ATOM     30  C   LIG d   1       7.144  -3.780  -4.592  0.00  0.00    -0.048 A 
ATOM     31  H   LIG d   1       7.487  -5.625  -5.614  0.00  0.00     0.065 H 
ATOM     32  H   LIG d   1       6.235  -4.123  -4.120  0.00  0.00     0.062 H 
BRANCH  27  33
ATOM     33  O   LIG d   1       9.705  -5.009  -6.865  0.00  0.00    -0.507 OA
ATOM     34  H   LIG d   1      10.329  -5.811  -6.445  0.00  0.00     0.292 HD
ENDBRANCH  27  33
ENDBRANCH   7  23
BRANCH   3  35
ATOM     35  C   LIG d   1       4.090  -0.824  -6.599  0.00  0.00    -0.053 C 
ATOM     36  H   LIG d   1       4.702  -1.439  -7.275  0.00  0.00     0.024 H 
ATOM     37  H   LIG d   1       4.006   0.194  -7.004  0.00  0.00     0.024 H 
ATOM     38  H   LIG d   1       3.087  -1.267  -6.508  0.00  0.00     0.024 H 
ENDBRANCH   3  35
BRANCH   1  39
ATOM     39  C   LIG d   1       3.890   1.119  -1.975  0.00  0.00    -0.053 C 
ATOM     40  H   LIG d   1       3.730   0.604  -1.017  0.00  0.00     0.024 H 
ATOM     41  H   LIG d   1       2.916   1.378  -2.418  0.00  0.00     0.024 H 
ATOM     42  H   LIG d   1       4.470   2.038  -1.804  0.00  0.00     0.024 H 
ENDBRANCH   1  39
TORSDOF 4
ENDMDL
MODEL 5
REMARK VINA RESULT:      -4.8      2.805      5.796
REMARK  4 active torsions:
REMARK  status: ('A' for Active; 'I' for Inactive)
REMARK    1  A    between atoms: C_1  and  C_2 
REMARK    2  A    between atoms: C_4  and  C_19 
REMARK    3  A    between atoms: C_8  and  C_12 
REMARK    4  A    between atoms: C_15  and  O_18 
ROOT
ATOM      1  C   LIG d   1       7.372  -2.418  -4.213  0.00  0.00     0.022 C 
ATOM      2  C   LIG d   1       6.918  -1.380  -3.179  0.00  0.00    -0.030 C 
ATOM      3  C   LIG d   1       5.964  -0.393  -3.863  0.00  0.00     0.022 C 
ATOM      4  C   LIG d   1       6.701   0.278  -5.028  0.00  0.00    -0.023 C 
ATOM      5  N   LIG d   1       7.115  -0.757  -5.989  0.00  0.00     0.253 N 
ATOM      6  C   LIG d   1       8.068  -1.689  -5.369  0.00  0.00    -0.023 C 
ATOM      7  C   LIG d   1       5.946  -1.479  -6.512  0.00  0.00     0.062 C 
ATOM      8  N   LIG d   1       5.252  -2.153  -5.404  0.00  0.00    -0.256 N 
ATOM      9  C   LIG d   1       6.134  -3.139  -4.762  0.00  0.00     0.014 C 
ATOM     10  C   LIG d   1       4.767  -1.173  -4.421  0.00  0.00     0.014 C 
ATOM     11  H   LIG d   1       6.401  -1.889  -2.352  0.00  0.00     0.028 H 
ATOM     12  H   LIG d   1       7.795  -0.843  -2.788  0.00  0.00     0.028 H 
ATOM     13  H   LIG d   1       6.029   0.996  -5.522  0.00  0.00     0.082 H 
ATOM     14  H   LIG d   1       7.586   0.806  -4.647  0.00  0.00     0.082 H 
ATOM     15  H   LIG d   1       8.935  -1.132  -4.982  0.00  0.00     0.082 H 
ATOM     16  H   LIG d   1       8.408  -2.424  -6.114  0.00  0.00     0.082 H 
ATOM     17  H   LIG d   1       6.290  -2.239  -7.229  0.00  0.00     0.109 H 
ATOM     18  H   LIG d   1       6.446  -3.895  -5.498  0.00  0.00     0.044 H 
ATOM     19  H   LIG d   1       5.601  -3.632  -3.935  0.00  0.00     0.044 H 
ATOM     20  H   LIG d   1       4.253  -1.693  -3.599  0.00  0.00     0.044 H 
ATOM     21  H   LIG d   1       4.068  -0.474  -4.905  0.00  0.00     0.044 H 
ATOM     22  H   LIG d   1       7.616  -0.261  -6.834  0.00  0.00     0.205 HD
ENDROOT
BRANCH   7  23
ATOM     23  C   LIG d   1       5.006  -0.503  -7.173  0.00  0.00     0.016 A 
ATOM     24  C   LIG d   1       3.657  -0.533  -6.871  0.00  0.00    -0.048 A 
ATOM     25  C   LIG d   1       2.793   0.359  -7.476  0.00  0.00    -0.020 A 
ATOM     26  H   LIG d   1       3.278  -1.255  -6.162  0.00  0.00     0.062 H 
ATOM     27  C   LIG d   1       3.280   1.286  -8.386  0.00  0.00     0.117 A 
ATOM     28  H   LIG d   1       1.740   0.336  -7.241  0.00  0.00     0.065 H 
ATOM     29  C   LIG d   1       4.635   1.314  -8.687  0.00  0.00    -0.020 A 
ATOM     30  C   LIG d   1       5.494   0.419  -8.079  0.00  0.00    -0.048 A 
ATOM     31  H   LIG d   1       5.017   2.037  -9.392  0.00  0.00     0.065 H 
ATOM     32  H   LIG d   1       6.548   0.441  -8.313  0.00  0.00     0.062 H 
BRANCH  27  33
ATOM     33  O   LIG d   1       2.432   2.165  -8.983  0.00  0.00    -0.507 OA
ATOM     34  H   LIG d   1       2.834   3.015  -9.552  0.00  0.00     0.292 HD
ENDBRANCH  27  33
ENDBRANCH   7  23
BRANCH   3  35
ATOM     35  C   LIG d   1       5.497   0.665  -2.860  0.00  0.00    -0.053 C 
ATOM     36  H   LIG d   1       5.361   1.626  -3.378  0.00  0.00     0.024 H 
ATOM     37  H   LIG d   1       6.252   0.778  -2.069  0.00  0.00     0.024 H 
ATOM     38  H   LIG d   1       4.542   0.350  -2.414  0.00  0.00     0.024 H 
ENDBRANCH   3  35
BRANCH   1  39
ATOM     39  C   LIG d   1       8.321  -3.426  -3.563  0.00  0.00    -0.053 C 
ATOM     40  H   LIG d   1       8.973  -3.864  -4.333  0.00  0.00     0.024 H 
ATOM     41  H   LIG d   1       7.735  -4.224  -3.082  0.00  0.00     0.024 H 
ATOM     42  H   LIG d   1       8.937  -2.916  -2.807  0.00  0.00     0.024 H 
ENDBRANCH   1  39
TORSDOF 4
ENDMDL
MODEL 6
REMARK VINA RESULT:      -4.8      9.619     11.089
REMARK  4 active torsions:
REMARK  status: ('A' for Active; 'I' for Inactive)
REMARK    1  A    between atoms: C_1  and  C_2 
REMARK    2  A    between atoms: C_4  and  C_19 
REMARK    3  A    between atoms: C_8  and  C_12 
REMARK    4  A    between atoms: C_15  and  O_18 
ROOT
ATOM      1  C   LIG d   1      10.134   4.869  -4.739  0.00  0.00     0.022 C 
ATOM      2  C   LIG d   1      11.660   4.960  -4.852  0.00  0.00    -0.030 C 
ATOM      3  C   LIG d   1      12.205   5.639  -3.588  0.00  0.00     0.022 C 
ATOM      4  C   LIG d   1      11.578   7.033  -3.470  0.00  0.00    -0.023 C 
ATOM      5  N   LIG d   1      10.117   6.892  -3.365  0.00  0.00     0.253 N 
ATOM      6  C   LIG d   1       9.566   6.286  -4.587  0.00  0.00    -0.023 C 
ATOM      7  C   LIG d   1       9.754   6.099  -2.182  0.00  0.00     0.062 C 
ATOM      8  N   LIG d   1      10.323   4.749  -2.304  0.00  0.00    -0.256 N 
ATOM      9  C   LIG d   1       9.780   4.061  -3.485  0.00  0.00     0.014 C 
ATOM     10  C   LIG d   1      11.792   4.808  -2.368  0.00  0.00     0.014 C 
ATOM     11  H   LIG d   1      12.082   3.949  -4.945  0.00  0.00     0.028 H 
ATOM     12  H   LIG d   1      11.928   5.552  -5.740  0.00  0.00     0.028 H 
ATOM     13  H   LIG d   1      11.967   7.534  -2.571  0.00  0.00     0.082 H 
ATOM     14  H   LIG d   1      11.831   7.627  -4.360  0.00  0.00     0.082 H 
ATOM     15  H   LIG d   1       9.849   6.890  -5.462  0.00  0.00     0.082 H 
ATOM     16  H   LIG d   1       8.469   6.235  -4.515  0.00  0.00     0.082 H 
ATOM     17  H   LIG d   1       8.659   6.018  -2.131  0.00  0.00     0.109 H 
ATOM     18  H   LIG d   1       8.687   3.978  -3.397  0.00  0.00     0.044 H 
ATOM     19  H   LIG d   1      10.218   3.054  -3.563  0.00  0.00     0.044 H 
ATOM     20  H   LIG d   1      12.201   3.791  -2.461  0.00  0.00     0.044 H 
ATOM     21  H   LIG d   1      12.186   5.278  -1.454  0.00  0.00     0.044 H 
ATOM     22  H   LIG d   1       9.681   7.896  -3.251  0.00  0.00     0.205 HD
ENDROOT
BRANCH   7  23
ATOM     23  C   LIG d   1      10.300   6.764  -0.944  0.00  0.00     0.016 A 
ATOM     24  C   LIG d   1      10.726   5.993   0.122  0.00  0.00    -0.048 A 
ATOM     25  C   LIG d   1      11.226   6.599   1.258  0.00  0.00    -0.020 A 
ATOM     26  H   LIG d   1      10.667   4.916   0.067  0.00  0.00     0.062 H 
ATOM     27  C   LIG d   1      11.302   7.983   1.328  0.00  0.00     0.117 A 
ATOM     28  H   LIG d   1      11.559   5.998   2.090  0.00  0.00     0.065 H 
ATOM     29  C   LIG d   1      10.874   8.754   0.256  0.00  0.00    -0.020 A 
ATOM     30  C   LIG d   1      10.375   8.143  -0.877  0.00  0.00    -0.048 A 
ATOM     31  H   LIG d   1      10.936   9.831   0.307  0.00  0.00     0.065 H 
ATOM     32  H   LIG d   1      10.042   8.743  -1.711  0.00  0.00     0.062 H 
BRANCH  27  33
ATOM     33  O   LIG d   1      11.794   8.582   2.444  0.00  0.00    -0.507 OA
ATOM     34  H   LIG d   1      12.644   8.135   2.979  0.00  0.00     0.292 HD
ENDBRANCH  27  33
ENDBRANCH   7  23
BRANCH   3  35
ATOM     35  C   LIG d   1      13.728   5.755  -3.670  0.00  0.00    -0.053 C 
ATOM     36  H   LIG d   1      14.010   6.813  -3.778  0.00  0.00     0.024 H 
ATOM     37  H   LIG d   1      14.092   5.187  -4.539  0.00  0.00     0.024 H 
ATOM     38  H   LIG d   1      14.177   5.348  -2.752  0.00  0.00     0.024 H 
ENDBRANCH   3  35
BRANCH   1  39
ATOM     39  C   LIG d   1       9.556   4.189  -5.981  0.00  0.00    -0.053 C 
ATOM     40  H   LIG d   1       9.276   3.154  -5.736  0.00  0.00     0.024 H 
ATOM     41  H   LIG d   1      10.311   4.184  -6.782  0.00  0.00     0.024 H 
ATOM     42  H   LIG d   1       8.665   4.739  -6.320  0.00  0.00     0.024 H 
ENDBRANCH   1  39
TORSDOF 4
ENDMDL
MODEL 7
REMARK VINA RESULT:      -4.7      3.379      6.267
REMARK  4 active torsions:
REMARK  status: ('A' for Active; 'I' for Inactive)
REMARK    1  A    between atoms: C_1  and  C_2 
REMARK    2  A    between atoms: C_4  and  C_19 
REMARK    3  A    between atoms: C_8  and  C_12 
REMARK    4  A    between atoms: C_15  and  O_18 
ROOT
ATOM      1  C   LIG d   1       4.835  -0.929  -3.113  0.00  0.00     0.022 C 
ATOM      2  C   LIG d   1       5.952  -1.977  -3.044  0.00  0.00    -0.030 C 
ATOM      3  C   LIG d   1       6.272  -2.445  -4.469  0.00  0.00     0.022 C 
ATOM      4  C   LIG d   1       5.001  -3.035  -5.092  0.00  0.00    -0.023 C 
ATOM      5  N   LIG d   1       3.964  -1.993  -5.135  0.00  0.00     0.253 N 
ATOM      6  C   LIG d   1       3.605  -1.562  -3.775  0.00  0.00    -0.023 C 
ATOM      7  C   LIG d   1       4.409  -0.848  -5.943  0.00  0.00     0.062 C 
ATOM      8  N   LIG d   1       5.608  -0.256  -5.333  0.00  0.00    -0.256 N 
ATOM      9  C   LIG d   1       5.313   0.242  -3.981  0.00  0.00     0.014 C 
ATOM     10  C   LIG d   1       6.709  -1.231  -5.298  0.00  0.00     0.014 C 
ATOM     11  H   LIG d   1       6.846  -1.531  -2.586  0.00  0.00     0.028 H 
ATOM     12  H   LIG d   1       5.616  -2.831  -2.436  0.00  0.00     0.028 H 
ATOM     13  H   LIG d   1       5.221  -3.382  -6.112  0.00  0.00     0.082 H 
ATOM     14  H   LIG d   1       4.653  -3.881  -4.483  0.00  0.00     0.082 H 
ATOM     15  H   LIG d   1       3.277  -2.430  -3.184  0.00  0.00     0.082 H 
ATOM     16  H   LIG d   1       2.792  -0.822  -3.822  0.00  0.00     0.082 H 
ATOM     17  H   LIG d   1       3.610  -0.093  -5.958  0.00  0.00     0.109 H 
ATOM     18  H   LIG d   1       4.524   1.008  -4.031  0.00  0.00     0.044 H 
ATOM     19  H   LIG d   1       6.221   0.680  -3.539  0.00  0.00     0.044 H 
ATOM     20  H   LIG d   1       7.597  -0.773  -4.838  0.00  0.00     0.044 H 
ATOM     21  H   LIG d   1       6.953  -1.554  -6.321  0.00  0.00     0.044 H 
ATOM     22  H   LIG d   1       3.067  -2.419  -5.610  0.00  0.00     0.205 HD
ENDROOT
BRANCH   7  23
ATOM     23  C   LIG d   1       4.733  -1.314  -7.339  0.00  0.00     0.016 A 
ATOM     24  C   LIG d   1       5.700  -0.658  -8.078  0.00  0.00    -0.048 A 
ATOM     25  C   LIG d   1       5.999  -1.082  -9.358  0.00  0.00    -0.020 A 
ATOM     26  H   LIG d   1       6.222   0.187  -7.654  0.00  0.00     0.062 H 
ATOM     27  C   LIG d   1       5.329  -2.168  -9.902  0.00  0.00     0.117 A 
ATOM     28  H   LIG d   1       6.754  -0.570  -9.935  0.00  0.00     0.065 H 
ATOM     29  C   LIG d   1       4.359  -2.825  -9.158  0.00  0.00    -0.020 A 
ATOM     30  C   LIG d   1       4.063  -2.397  -7.879  0.00  0.00    -0.048 A 
ATOM     31  H   LIG d   1       3.839  -3.673  -9.578  0.00  0.00     0.065 H 
ATOM     32  H   LIG d   1       3.309  -2.908  -7.300  0.00  0.00     0.062 H 
BRANCH  27  33
ATOM     33  O   LIG d   1       5.621  -2.587 -11.161  0.00  0.00    -0.507 OA
ATOM     34  H   LIG d   1       4.962  -3.309 -11.667  0.00  0.00     0.292 HD
ENDBRANCH  27  33
ENDBRANCH   7  23
BRANCH   3  35
ATOM     35  C   LIG d   1       7.379  -3.501  -4.438  0.00  0.00    -0.053 C 
ATOM     36  H   LIG d   1       7.162  -4.282  -5.182  0.00  0.00     0.024 H 
ATOM     37  H   LIG d   1       7.427  -3.952  -3.436  0.00  0.00     0.024 H 
ATOM     38  H   LIG d   1       8.344  -3.028  -4.674  0.00  0.00     0.024 H 
ENDBRANCH   3  35
BRANCH   1  39
ATOM     39  C   LIG d   1       4.494  -0.433  -1.707  0.00  0.00    -0.053 C 
ATOM     40  H   LIG d   1       4.400  -1.292  -1.028  0.00  0.00     0.024 H 
ATOM     41  H   LIG d   1       3.540   0.118  -1.734  0.00  0.00     0.024 H 
ATOM     42  H   LIG d   1       5.292   0.234  -1.348  0.00  0.00     0.024 H 
ENDBRANCH   1  39
TORSDOF 4
ENDMDL
MODEL 8
REMARK VINA RESULT:      -4.7      9.803     12.127
REMARK  4 active torsions:
REMARK  status: ('A' for Active; 'I' for Inactive)
REMARK    1  A    between atoms: C_1  and  C_2 
REMARK    2  A    between atoms: C_4  and  C_19 
REMARK    3  A    between atoms: C_8  and  C_12 
REMARK    4  A    between atoms: C_15  and  O_18 
ROOT
ATOM      1  C   LIG d   1      11.480   7.645   0.488  0.00  0.00     0.022 C 
ATOM      2  C   LIG d   1      12.865   7.553  -0.162  0.00  0.00    -0.030 C 
ATOM      3  C   LIG d   1      12.735   6.788  -1.486  0.00  0.00     0.022 C 
ATOM      4  C   LIG d   1      12.170   5.393  -1.194  0.00  0.00    -0.023 C 
ATOM      5  N   LIG d   1      10.844   5.535  -0.572  0.00  0.00     0.253 N 
ATOM      6  C   LIG d   1      10.950   6.225   0.722  0.00  0.00    -0.023 C 
ATOM      7  C   LIG d   1       9.923   6.249  -1.468  0.00  0.00     0.062 C 
ATOM      8  N   LIG d   1      10.441   7.602  -1.725  0.00  0.00    -0.256 N 
ATOM      9  C   LIG d   1      10.531   8.370  -0.475  0.00  0.00     0.014 C 
ATOM     10  C   LIG d   1      11.751   7.538  -2.391  0.00  0.00     0.014 C 
ATOM     11  H   LIG d   1      13.249   8.566  -0.352  0.00  0.00     0.028 H 
ATOM     12  H   LIG d   1      13.552   7.020   0.512  0.00  0.00     0.028 H 
ATOM     13  H   LIG d   1      12.080   4.830  -2.135  0.00  0.00     0.082 H 
ATOM     14  H   LIG d   1      12.845   4.858  -0.511  0.00  0.00     0.082 H 
ATOM     15  H   LIG d   1      11.644   5.679   1.379  0.00  0.00     0.082 H 
ATOM     16  H   LIG d   1       9.960   6.277   1.199  0.00  0.00     0.082 H 
ATOM     17  H   LIG d   1       8.943   6.334  -0.976  0.00  0.00     0.109 H 
ATOM     18  H   LIG d   1       9.535   8.453  -0.016  0.00  0.00     0.044 H 
ATOM     19  H   LIG d   1      10.922   9.378  -0.685  0.00  0.00     0.044 H 
ATOM     20  H   LIG d   1      12.124   8.557  -2.575  0.00  0.00     0.044 H 
ATOM     21  H   LIG d   1      11.656   7.006  -3.350  0.00  0.00     0.044 H 
ATOM     22  H   LIG d   1      10.437   4.528  -0.394  0.00  0.00     0.205 HD
ENDROOT
BRANCH   7  23
ATOM     23  C   LIG d   1       9.806   5.500  -2.771  0.00  0.00     0.016 A 
ATOM     24  C   LIG d   1       9.957   4.126  -2.792  0.00  0.00    -0.048 A 
ATOM     25  C   LIG d   1       9.852   3.437  -3.984  0.00  0.00    -0.020 A 
ATOM     26  H   LIG d   1      10.159   3.591  -1.876  0.00  0.00     0.062 H 
ATOM     27  C   LIG d   1       9.593   4.124  -5.161  0.00  0.00     0.117 A 
ATOM     28  H   LIG d   1       9.970   2.364  -4.001  0.00  0.00     0.065 H 
ATOM     29  C   LIG d   1       9.442   5.504  -5.137  0.00  0.00    -0.020 A 
ATOM     30  C   LIG d   1       9.548   6.188  -3.942  0.00  0.00    -0.048 A 
ATOM     31  H   LIG d   1       9.235   6.040  -6.051  0.00  0.00     0.065 H 
ATOM     32  H   LIG d   1       9.431   7.261  -3.923  0.00  0.00     0.062 H 
BRANCH  27  33
ATOM     33  O   LIG d   1       9.488   3.449  -6.335  0.00  0.00    -0.507 OA
ATOM     34  H   LIG d   1       9.871   3.897  -7.264  0.00  0.00     0.292 HD
ENDBRANCH  27  33
ENDBRANCH   7  23
BRANCH   3  35
ATOM     35  C   LIG d   1      14.103   6.669  -2.159  0.00  0.00    -0.053 C 
ATOM     36  H   LIG d   1      14.272   7.545  -2.803  0.00  0.00     0.024 H 
ATOM     37  H   LIG d   1      14.133   5.754  -2.770  0.00  0.00     0.024 H 
ATOM     38  H   LIG d   1      14.888   6.623  -1.390  0.00  0.00     0.024 H 
ENDBRANCH   3  35
BRANCH   1  39
ATOM     39  C   LIG d   1      11.570   8.410   1.809  0.00  0.00    -0.053 C 
ATOM     40  H   LIG d   1      10.860   7.981   2.531  0.00  0.00     0.024 H 
ATOM     41  H   LIG d   1      11.322   9.469   1.638  0.00  0.00     0.024 H 
ATOM     42  H   LIG d   1      12.592   8.333   2.210  0.00  0.00     0.024 H 
ENDBRANCH   1  39
TORSDOF 4
ENDMDL
MODEL 9
REMARK VINA RESULT:      -4.7      4.118      6.204
REMARK  4 active torsions:
REMARK  status: ('A' for Active; 'I' for Inactive)
REMARK    1  A    between atoms: C_1  and  C_2 
REMARK    2  A    between atoms: C_4  and  C_19 
REMARK    3  A    between atoms: C_8  and  C_12 
REMARK    4  A    between atoms: C_15  and  O_18 
ROOT
ATOM      1  C   LIG d   1       6.446   0.250  -3.957  0.00  0.00     0.022 C 
ATOM      2  C   LIG d   1       4.999   0.306  -3.451  0.00  0.00    -0.030 C 
ATOM      3  C   LIG d   1       4.246  -0.919  -3.985  0.00  0.00     0.022 C 
ATOM      4  C   LIG d   1       4.294  -0.897  -5.518  0.00  0.00    -0.023 C 
ATOM      5  N   LIG d   1       5.699  -0.952  -5.952  0.00  0.00     0.253 N 
ATOM      6  C   LIG d   1       6.431   0.237  -5.491  0.00  0.00    -0.023 C 
ATOM      7  C   LIG d   1       6.345  -2.181  -5.468  0.00  0.00     0.062 C 
ATOM      8  N   LIG d   1       6.333  -2.193  -3.997  0.00  0.00    -0.256 N 
ATOM      9  C   LIG d   1       7.090  -1.051  -3.462  0.00  0.00     0.014 C 
ATOM     10  C   LIG d   1       4.953  -2.185  -3.488  0.00  0.00     0.014 C 
ATOM     11  H   LIG d   1       4.995   0.299  -2.352  0.00  0.00     0.028 H 
ATOM     12  H   LIG d   1       4.520   1.228  -3.813  0.00  0.00     0.028 H 
ATOM     13  H   LIG d   1       3.749  -1.766  -5.913  0.00  0.00     0.082 H 
ATOM     14  H   LIG d   1       3.827   0.028  -5.887  0.00  0.00     0.082 H 
ATOM     15  H   LIG d   1       5.933   1.147  -5.860  0.00  0.00     0.082 H 
ATOM     16  H   LIG d   1       7.464   0.207  -5.867  0.00  0.00     0.082 H 
ATOM     17  H   LIG d   1       7.389  -2.192  -5.813  0.00  0.00     0.109 H 
ATOM     18  H   LIG d   1       8.132  -1.100  -3.809  0.00  0.00     0.044 H 
ATOM     19  H   LIG d   1       7.069  -1.074  -2.362  0.00  0.00     0.044 H 
ATOM     20  H   LIG d   1       4.962  -2.193  -2.388  0.00  0.00     0.044 H 
ATOM     21  H   LIG d   1       4.416  -3.073  -3.855  0.00  0.00     0.044 H 
ATOM     22  H   LIG d   1       5.719  -0.965  -7.052  0.00  0.00     0.205 HD
ENDROOT
BRANCH   7  23
ATOM     23  C   LIG d   1       5.595  -3.381  -5.986  0.00  0.00     0.016 A 
ATOM     24  C   LIG d   1       5.670  -4.585  -5.310  0.00  0.00    -0.048 A 
ATOM     25  C   LIG d   1       4.984  -5.687  -5.783  0.00  0.00    -0.020 A 
ATOM     26  H   LIG d   1       6.265  -4.665  -4.413  0.00  0.00     0.062 H 
ATOM     27  C   LIG d   1       4.219  -5.585  -6.936  0.00  0.00     0.117 A 
ATOM     28  H   LIG d   1       5.043  -6.628  -5.256  0.00  0.00     0.065 H 
ATOM     29  C   LIG d   1       4.145  -4.375  -7.611  0.00  0.00    -0.020 A 
ATOM     30  C   LIG d   1       4.833  -3.276  -7.135  0.00  0.00    -0.048 A 
ATOM     31  H   LIG d   1       3.546  -4.292  -8.506  0.00  0.00     0.065 H 
ATOM     32  H   LIG d   1       4.776  -2.335  -7.660  0.00  0.00     0.062 H 
BRANCH  27  33
ATOM     33  O   LIG d   1       3.544  -6.668  -7.403  0.00  0.00    -0.507 OA
ATOM     34  H   LIG d   1       3.357  -6.776  -8.481  0.00  0.00     0.292 HD
ENDBRANCH  27  33
ENDBRANCH   7  23
BRANCH   3  35
ATOM     35  C   LIG d   1       2.793  -0.890  -3.506  0.00  0.00    -0.053 C 
ATOM     36  H   LIG d   1       2.122  -1.065  -4.360  0.00  0.00     0.024 H 
ATOM     37  H   LIG d   1       2.573   0.091  -3.061  0.00  0.00     0.024 H 
ATOM     38  H   LIG d   1       2.640  -1.677  -2.752  0.00  0.00     0.024 H 
ENDBRANCH   3  35
BRANCH   1  39
ATOM     39  C   LIG d   1       7.231   1.454  -3.437  0.00  0.00    -0.053 C 
ATOM     40  H   LIG d   1       8.261   1.148  -3.203  0.00  0.00     0.024 H 
ATOM     41  H   LIG d   1       6.749   1.842  -2.527  0.00  0.00     0.024 H 
ATOM     42  H   LIG d   1       7.249   2.242  -4.206  0.00  0.00     0.024 H 
ENDBRANCH   1  39
TORSDOF 4
ENDMDL
MODEL 10
REMARK VINA RESULT:      -4.6      8.756     11.150
REMARK  4 active torsions:
REMARK  status: ('A' for Active; 'I' for Inactive)
REMARK    1  A    between atoms: C_1  and  C_2 
REMARK    2  A    between atoms: C_4  and  C_19 
REMARK    3  A    between atoms: C_8  and  C_12 
REMARK    4  A    between atoms: C_15  and  O_18 
ROOT
ATOM      1  C   LIG d   1      10.676   5.986  -2.192  0.00  0.00     0.022 C 
ATOM      2  C   LIG d   1      10.089   4.711  -2.808  0.00  0.00    -0.030 C 
ATOM      3  C   LIG d   1       9.825   4.964  -4.298  0.00  0.00     0.022 C 
ATOM      4  C   LIG d   1       8.850   6.139  -4.432  0.00  0.00    -0.023 C 
ATOM      5  N   LIG d   1       9.457   7.335  -3.827  0.00  0.00     0.253 N 
ATOM      6  C   LIG d   1       9.676   7.133  -2.387  0.00  0.00    -0.023 C 
ATOM      7  C   LIG d   1      10.717   7.677  -4.502  0.00  0.00     0.062 C 
ATOM      8  N   LIG d   1      11.671   6.568  -4.348  0.00  0.00    -0.256 N 
ATOM      9  C   LIG d   1      11.975   6.336  -2.928  0.00  0.00     0.014 C 
ATOM     10  C   LIG d   1      11.149   5.343  -4.974  0.00  0.00     0.014 C 
ATOM     11  H   LIG d   1      10.805   3.884  -2.690  0.00  0.00     0.028 H 
ATOM     12  H   LIG d   1       9.148   4.457  -2.299  0.00  0.00     0.028 H 
ATOM     13  H   LIG d   1       8.645   6.325  -5.497  0.00  0.00     0.082 H 
ATOM     14  H   LIG d   1       7.910   5.898  -3.915  0.00  0.00     0.082 H 
ATOM     15  H   LIG d   1       8.724   6.876  -1.898  0.00  0.00     0.082 H 
ATOM     16  H   LIG d   1      10.081   8.053  -1.939  0.00  0.00     0.082 H 
ATOM     17  H   LIG d   1      11.141   8.575  -4.030  0.00  0.00     0.109 H 
ATOM     18  H   LIG d   1      12.413   7.245  -2.489  0.00  0.00     0.044 H 
ATOM     19  H   LIG d   1      12.687   5.503  -2.831  0.00  0.00     0.044 H 
ATOM     20  H   LIG d   1      11.873   4.524  -4.848  0.00  0.00     0.044 H 
ATOM     21  H   LIG d   1      10.976   5.517  -6.046  0.00  0.00     0.044 H 
ATOM     22  H   LIG d   1       8.761   8.178  -3.955  0.00  0.00     0.205 HD
ENDROOT
BRANCH   7  23
ATOM     23  C   LIG d   1      10.455   7.914  -5.967  0.00  0.00     0.016 A 
ATOM     24  C   LIG d   1       9.209   8.344  -6.384  0.00  0.00    -0.048 A 
ATOM     25  C   LIG d   1       8.965   8.562  -7.726  0.00  0.00    -0.020 A 
ATOM     26  H   LIG d   1       8.425   8.510  -5.660  0.00  0.00     0.062 H 
ATOM     27  C   LIG d   1       9.973   8.350  -8.656  0.00  0.00     0.117 A 
ATOM     28  H   LIG d   1       7.992   8.897  -8.052  0.00  0.00     0.065 H 
ATOM     29  C   LIG d   1      11.223   7.918  -8.235  0.00  0.00    -0.020 A 
ATOM     30  C   LIG d   1      11.461   7.702  -6.892  0.00  0.00    -0.048 A 
ATOM     31  H   LIG d   1      12.010   7.757  -8.957  0.00  0.00     0.065 H 
ATOM     32  H   LIG d   1      12.434   7.366  -6.564  0.00  0.00     0.062 H 
BRANCH  27  33
ATOM     33  O   LIG d   1       9.736   8.563  -9.977  0.00  0.00    -0.507 OA
ATOM     34  H   LIG d   1       9.939   7.766 -10.708  0.00  0.00     0.292 HD
ENDBRANCH  27  33
ENDBRANCH   7  23
BRANCH   3  35
ATOM     35  C   LIG d   1       9.230   3.712  -4.945  0.00  0.00    -0.053 C 
ATOM     36  H   LIG d   1       8.193   3.580  -4.602  0.00  0.00     0.024 H 
ATOM     37  H   LIG d   1       9.826   2.833  -4.659  0.00  0.00     0.024 H 
ATOM     38  H   LIG d   1       9.243   3.823  -6.040  0.00  0.00     0.024 H 
ENDBRANCH   3  35
BRANCH   1  39
ATOM     39  C   LIG d   1      10.960   5.768  -0.705  0.00  0.00    -0.053 C 
ATOM     40  H   LIG d   1      12.041   5.641  -0.552  0.00  0.00     0.024 H 
ATOM     41  H   LIG d   1      10.433   4.865  -0.360  0.00  0.00     0.024 H 
ATOM     42  H   LIG d   1      10.608   6.638  -0.131  0.00  0.00     0.024 H 
ENDBRANCH   1  39
TORSDOF 4
ENDMDL
