MODEL 1
REMARK VINA RESULT:      -7.0      0.000      0.000
REMARK  9 active torsions:
REMARK  status: ('A' for Active; 'I' for Inactive)
REMARK    1  A    between atoms: C_1  and  C_2 
REMARK    2  A    between atoms: C_2  and  C_3 
REMARK       I    between atoms: C_3  and  N_5 
REMARK    3  A    between atoms: C_15  and  C_17 
REMARK    4  A    between atoms: C_20  and  C_23 
REMARK    5  A    between atoms: C_23  and  O_25 
REMARK    6  A    between atoms: O_25  and  C_26 
REMARK    7  A    between atoms: C_30  and  C_33 
REMARK    8  A    between atoms: C_36  and  O_39 
REMARK    9  A    between atoms: O_39  and  C_40 
ROOT
ATOM      1  C   LIG d   1       4.775  -0.389  -6.631  0.00  0.00     0.220 C 
ATOM      2  O   LIG d   1       5.192  -0.557  -7.757  0.00  0.00    -0.275 OA
ATOM      3  N   LIG d   1       5.637  -0.326  -5.596  0.00  0.00    -0.258 N 
ATOM      4  C   LIG d   1       5.146  -0.133  -4.304  0.00  0.00     0.058 A 
ATOM      5  C   LIG d   1       4.502   1.039  -3.940  0.00  0.00    -0.038 A 
ATOM      6  C   LIG d   1       4.077   1.203  -2.634  0.00  0.00    -0.060 A 
ATOM      7  C   LIG d   1       4.293   0.210  -1.696  0.00  0.00    -0.060 A 
ATOM      8  C   LIG d   1       4.922  -0.969  -2.059  0.00  0.00    -0.039 A 
ATOM      9  C   LIG d   1       5.327  -1.144  -3.371  0.00  0.00     0.053 A 
ATOM     10  N   LIG d   1       5.857  -2.343  -3.831  0.00  0.00    -0.316 N 
ATOM     11  C   LIG d   1       7.112  -2.501  -4.324  0.00  0.00     0.017 C 
ATOM     12  C   LIG d   1       7.687  -1.685  -5.226  0.00  0.00     0.037 C 
ATOM     13  C   LIG d   1       7.057  -0.460  -5.840  0.00  0.00     0.086 C 
ATOM     14  H   LIG d   1       7.219  -0.495  -6.918  0.00  0.00     0.061 H 
ATOM     15  C   LIG d   1       9.004  -1.941  -5.678  0.00  0.00     0.163 C 
ATOM     16  O   LIG d   1       9.493  -1.198  -6.507  0.00  0.00    -0.292 OA
ATOM     17  C   LIG d   1       9.815  -3.095  -5.172  0.00  0.00     0.017 C 
ATOM     18  C   LIG d   1       9.358  -3.424  -3.746  0.00  0.00    -0.004 C 
ATOM     19  H   LIG d   1       9.550  -2.576  -3.091  0.00  0.00     0.036 H 
ATOM     20  C   LIG d   1       7.857  -3.714  -3.794  0.00  0.00    -0.007 C 
ATOM     21  H   LIG d   1       4.334   1.817  -4.670  0.00  0.00     0.064 H 
ATOM     22  H   LIG d   1       3.571   2.113  -2.345  0.00  0.00     0.062 H 
ATOM     23  H   LIG d   1       3.973   0.355  -0.674  0.00  0.00     0.062 H 
ATOM     24  H   LIG d   1       5.093  -1.744  -1.327  0.00  0.00     0.064 H 
ATOM     25  H   LIG d   1       5.287  -3.127  -3.796  0.00  0.00     0.152 HD
ATOM     26  H   LIG d   1       9.677  -3.886  -5.769  0.00  0.00     0.035 H 
ATOM     27  H   LIG d   1      10.871  -2.825  -5.164  0.00  0.00     0.035 H 
ATOM     28  H   LIG d   1       7.501  -3.947  -2.790  0.00  0.00     0.033 H 
ATOM     29  H   LIG d   1       7.674  -4.566  -4.448  0.00  0.00     0.033 H 
ENDROOT
BRANCH  13  30
ATOM     30  C   LIG d   1       7.752   0.760  -5.294  0.00  0.00    -0.022 A 
ATOM     31  C   LIG d   1       8.041   0.841  -3.943  0.00  0.00    -0.056 A 
ATOM     32  C   LIG d   1       8.682   1.952  -3.437  0.00  0.00    -0.047 A 
ATOM     33  H   LIG d   1       7.768   0.030  -3.285  0.00  0.00     0.062 H 
ATOM     34  C   LIG d   1       9.030   3.002  -4.290  0.00  0.00     0.059 A 
ATOM     35  H   LIG d   1       8.911   2.012  -2.383  0.00  0.00     0.063 H 
ATOM     36  C   LIG d   1       8.735   2.915  -5.652  0.00  0.00    -0.047 A 
ATOM     37  C   LIG d   1       8.099   1.795  -6.146  0.00  0.00    -0.056 A 
ATOM     38  H   LIG d   1       9.005   3.721  -6.317  0.00  0.00     0.063 H 
ATOM     39  H   LIG d   1       7.870   1.725  -7.198  0.00  0.00     0.062 H 
BRANCH  34  40
ATOM     40  C   LIG d   1       9.712   4.198  -3.754  0.00  0.00     0.339 C 
ATOM     41  O   LIG d   1       9.920   5.152  -4.476  0.00  0.00    -0.245 OA
BRANCH  40  42
ATOM     42  O   LIG d   1      10.102   4.230  -2.465  0.00  0.00    -0.465 OA
BRANCH  42  43
ATOM     43  C   LIG d   1      10.359   5.537  -1.886  0.00  0.00     0.082 C 
ATOM     44  H   LIG d   1      10.052   6.312  -2.589  0.00  0.00     0.066 H 
ATOM     45  H   LIG d   1       9.796   5.642  -0.960  0.00  0.00     0.066 H 
ATOM     46  H   LIG d   1      11.425   5.638  -1.677  0.00  0.00     0.066 H 
ENDBRANCH  42  43
ENDBRANCH  40  42
ENDBRANCH  34  40
ENDBRANCH  13  30
BRANCH   1  47
ATOM     47  C   LIG d   1       3.294  -0.252  -6.388  0.00  0.00     0.022 C 
ATOM     48  H   LIG d   1       2.924  -1.145  -5.883  0.00  0.00     0.036 H 
ATOM     49  H   LIG d   1       3.108   0.621  -5.762  0.00  0.00     0.036 H 
BRANCH  47  50
ATOM     50  C   LIG d   1       2.571  -0.085  -7.725  0.00  0.00    -0.057 C 
ATOM     51  H   LIG d   1       1.974   0.826  -7.704  0.00  0.00     0.023 H 
ATOM     52  H   LIG d   1       3.305  -0.021  -8.529  0.00  0.00     0.023 H 
ATOM     53  H   LIG d   1       1.920  -0.943  -7.896  0.00  0.00     0.023 H 
ENDBRANCH  47  50
ENDBRANCH   1  47
BRANCH  18  54
ATOM     54  C   LIG d   1      10.096  -4.637  -3.240  0.00  0.00    -0.043 A 
ATOM     55  C   LIG d   1      11.271  -5.036  -3.852  0.00  0.00    -0.055 A 
ATOM     56  C   LIG d   1      11.948  -6.147  -3.390  0.00  0.00    -0.020 A 
ATOM     57  H   LIG d   1      11.657  -4.478  -4.692  0.00  0.00     0.062 H 
ATOM     58  C   LIG d   1      11.451  -6.863  -2.310  0.00  0.00     0.120 A 
ATOM     59  H   LIG d   1      12.866  -6.458  -3.868  0.00  0.00     0.065 H 
ATOM     60  C   LIG d   1      10.272  -6.461  -1.698  0.00  0.00    -0.020 A 
ATOM     61  C   LIG d   1       9.600  -5.346  -2.161  0.00  0.00    -0.055 A 
ATOM     62  H   LIG d   1       9.882  -7.017  -0.859  0.00  0.00     0.065 H 
ATOM     63  H   LIG d   1       8.686  -5.030  -1.682  0.00  0.00     0.062 H 
BRANCH  58  64
ATOM     64  O   LIG d   1      12.116  -7.957  -1.854  0.00  0.00    -0.495 OA
BRANCH  64  65
ATOM     65  C   LIG d   1      12.059  -8.212  -0.449  0.00  0.00     0.079 C 
ATOM     66  H   LIG d   1      13.023  -8.592  -0.110  0.00  0.00     0.066 H 
ATOM     67  H   LIG d   1      11.827  -7.287   0.079  0.00  0.00     0.066 H 
ATOM     68  H   LIG d   1      11.284  -8.951  -0.245  0.00  0.00     0.066 H 
ENDBRANCH  64  65
ENDBRANCH  58  64
ENDBRANCH  18  54
TORSDOF 9
ENDMDL
MODEL 2
REMARK VINA RESULT:      -6.9      2.732      7.732
REMARK  9 active torsions:
REMARK  status: ('A' for Active; 'I' for Inactive)
REMARK    1  A    between atoms: C_1  and  C_2 
REMARK    2  A    between atoms: C_2  and  C_3 
REMARK       I    between atoms: C_3  and  N_5 
REMARK    3  A    between atoms: C_15  and  C_17 
REMARK    4  A    between atoms: C_20  and  C_23 
REMARK    5  A    between atoms: C_23  and  O_25 
REMARK    6  A    between atoms: O_25  and  C_26 
REMARK    7  A    between atoms: C_30  and  C_33 
REMARK    8  A    between atoms: C_36  and  O_39 
REMARK    9  A    between atoms: O_39  and  C_40 
ROOT
ATOM      1  C   LIG d   1       8.203  -3.708  -5.571  0.00  0.00     0.220 C 
ATOM      2  O   LIG d   1       9.100  -3.833  -6.376  0.00  0.00    -0.275 OA
ATOM      3  N   LIG d   1       7.476  -2.573  -5.542  0.00  0.00    -0.258 N 
ATOM      4  C   LIG d   1       6.446  -2.439  -4.611  0.00  0.00     0.058 A 
ATOM      5  C   LIG d   1       5.322  -3.249  -4.651  0.00  0.00    -0.038 A 
ATOM      6  C   LIG d   1       4.304  -3.046  -3.737  0.00  0.00    -0.060 A 
ATOM      7  C   LIG d   1       4.403  -2.043  -2.789  0.00  0.00    -0.060 A 
ATOM      8  C   LIG d   1       5.532  -1.243  -2.735  0.00  0.00    -0.039 A 
ATOM      9  C   LIG d   1       6.560  -1.460  -3.635  0.00  0.00     0.053 A 
ATOM     10  N   LIG d   1       7.766  -0.773  -3.564  0.00  0.00    -0.316 N 
ATOM     11  C   LIG d   1       8.249   0.053  -4.526  0.00  0.00     0.017 C 
ATOM     12  C   LIG d   1       8.276  -0.236  -5.840  0.00  0.00     0.037 C 
ATOM     13  C   LIG d   1       7.777  -1.509  -6.477  0.00  0.00     0.086 C 
ATOM     14  H   LIG d   1       8.537  -1.866  -7.172  0.00  0.00     0.061 H 
ATOM     15  C   LIG d   1       8.805   0.698  -6.763  0.00  0.00     0.163 C 
ATOM     16  O   LIG d   1       8.834   0.403  -7.942  0.00  0.00    -0.292 OA
ATOM     17  C   LIG d   1       9.329   2.036  -6.338  0.00  0.00     0.017 C 
ATOM     18  C   LIG d   1       8.593   2.466  -5.064  0.00  0.00    -0.004 C 
ATOM     19  H   LIG d   1       7.530   2.583  -5.274  0.00  0.00     0.036 H 
ATOM     20  C   LIG d   1       8.799   1.374  -4.015  0.00  0.00    -0.007 C 
ATOM     21  H   LIG d   1       5.242  -4.032  -5.392  0.00  0.00     0.064 H 
ATOM     22  H   LIG d   1       3.427  -3.676  -3.761  0.00  0.00     0.062 H 
ATOM     23  H   LIG d   1       3.595  -1.881  -2.090  0.00  0.00     0.062 H 
ATOM     24  H   LIG d   1       5.609  -0.458  -1.997  0.00  0.00     0.064 H 
ATOM     25  H   LIG d   1       8.304  -0.894  -2.766  0.00  0.00     0.152 HD
ATOM     26  H   LIG d   1      10.312   1.967  -6.160  0.00  0.00     0.035 H 
ATOM     27  H   LIG d   1       9.153   2.767  -7.128  0.00  0.00     0.035 H 
ATOM     28  H   LIG d   1       8.281   1.651  -3.097  0.00  0.00     0.033 H 
ATOM     29  H   LIG d   1       9.864   1.267  -3.810  0.00  0.00     0.033 H 
ENDROOT
BRANCH  13  30
ATOM     30  C   LIG d   1       6.528  -1.195  -7.259  0.00  0.00    -0.022 A 
ATOM     31  C   LIG d   1       5.676  -0.196  -6.822  0.00  0.00    -0.056 A 
ATOM     32  C   LIG d   1       4.533   0.101  -7.537  0.00  0.00    -0.047 A 
ATOM     33  H   LIG d   1       5.907   0.356  -5.924  0.00  0.00     0.062 H 
ATOM     34  C   LIG d   1       4.233  -0.617  -8.696  0.00  0.00     0.059 A 
ATOM     35  H   LIG d   1       3.871   0.885  -7.198  0.00  0.00     0.063 H 
ATOM     36  C   LIG d   1       5.097  -1.624  -9.131  0.00  0.00    -0.047 A 
ATOM     37  C   LIG d   1       6.239  -1.907  -8.410  0.00  0.00    -0.056 A 
ATOM     38  H   LIG d   1       4.872  -2.180 -10.029  0.00  0.00     0.063 H 
ATOM     39  H   LIG d   1       6.908  -2.685  -8.744  0.00  0.00     0.062 H 
BRANCH  34  40
ATOM     40  C   LIG d   1       3.009  -0.308  -9.464  0.00  0.00     0.339 C 
ATOM     41  O   LIG d   1       1.917  -0.521  -8.977  0.00  0.00    -0.245 OA
BRANCH  40  42
ATOM     42  O   LIG d   1       3.104   0.210 -10.704  0.00  0.00    -0.465 OA
BRANCH  42  43
ATOM     43  C   LIG d   1       3.909   1.409 -10.857  0.00  0.00     0.082 C 
ATOM     44  H   LIG d   1       3.259   2.284 -10.864  0.00  0.00     0.066 H 
ATOM     45  H   LIG d   1       4.611   1.483 -10.028  0.00  0.00     0.066 H 
ATOM     46  H   LIG d   1       4.461   1.358 -11.796  0.00  0.00     0.066 H 
ENDBRANCH  42  43
ENDBRANCH  40  42
ENDBRANCH  34  40
ENDBRANCH  13  30
BRANCH   1  47
ATOM     47  C   LIG d   1       7.899  -4.821  -4.601  0.00  0.00     0.022 C 
ATOM     48  H   LIG d   1       8.744  -4.957  -3.927  0.00  0.00     0.036 H 
ATOM     49  H   LIG d   1       7.011  -4.567  -4.022  0.00  0.00     0.036 H 
BRANCH  47  50
ATOM     50  C   LIG d   1       7.650  -6.117  -5.375  0.00  0.00    -0.057 C 
ATOM     51  H   LIG d   1       8.530  -6.756  -5.307  0.00  0.00     0.023 H 
ATOM     52  H   LIG d   1       6.791  -6.636  -4.947  0.00  0.00     0.023 H 
ATOM     53  H   LIG d   1       7.449  -5.883  -6.421  0.00  0.00     0.023 H 
ENDBRANCH  47  50
ENDBRANCH   1  47
BRANCH  18  54
ATOM     54  C   LIG d   1       9.159   3.770  -4.562  0.00  0.00    -0.043 A 
ATOM     55  C   LIG d   1       9.540   3.894  -3.238  0.00  0.00    -0.055 A 
ATOM     56  C   LIG d   1      10.059   5.087  -2.777  0.00  0.00    -0.020 A 
ATOM     57  H   LIG d   1       9.430   3.056  -2.565  0.00  0.00     0.062 H 
ATOM     58  C   LIG d   1      10.199   6.163  -3.642  0.00  0.00     0.120 A 
ATOM     59  H   LIG d   1      10.356   5.183  -1.743  0.00  0.00     0.065 H 
ATOM     60  C   LIG d   1       9.817   6.036  -4.970  0.00  0.00    -0.020 A 
ATOM     61  C   LIG d   1       9.303   4.839  -5.429  0.00  0.00    -0.055 A 
ATOM     62  H   LIG d   1       9.925   6.872  -5.645  0.00  0.00     0.065 H 
ATOM     63  H   LIG d   1       9.010   4.738  -6.463  0.00  0.00     0.062 H 
BRANCH  58  64
ATOM     64  O   LIG d   1      10.710   7.338  -3.190  0.00  0.00    -0.495 OA
BRANCH  64  65
ATOM     65  C   LIG d   1      10.018   7.974  -2.113  0.00  0.00     0.079 C 
ATOM     66  H   LIG d   1      10.679   8.698  -1.634  0.00  0.00     0.066 H 
ATOM     67  H   LIG d   1       9.137   8.487  -2.500  0.00  0.00     0.066 H 
ATOM     68  H   LIG d   1       9.712   7.224  -1.384  0.00  0.00     0.066 H 
ENDBRANCH  64  65
ENDBRANCH  58  64
ENDBRANCH  18  54
TORSDOF 9
ENDMDL
MODEL 3
REMARK VINA RESULT:      -6.9      3.321      8.966
REMARK  9 active torsions:
REMARK  status: ('A' for Active; 'I' for Inactive)
REMARK    1  A    between atoms: C_1  and  C_2 
REMARK    2  A    between atoms: C_2  and  C_3 
REMARK       I    between atoms: C_3  and  N_5 
REMARK    3  A    between atoms: C_15  and  C_17 
REMARK    4  A    between atoms: C_20  and  C_23 
REMARK    5  A    between atoms: C_23  and  O_25 
REMARK    6  A    between atoms: O_25  and  C_26 
REMARK    7  A    between atoms: C_30  and  C_33 
REMARK    8  A    between atoms: C_36  and  O_39 
REMARK    9  A    between atoms: O_39  and  C_40 
ROOT
ATOM      1  C   LIG d   1       7.367   0.475  -5.111  0.00  0.00     0.220 C 
ATOM      2  O   LIG d   1       8.222   0.739  -5.928  0.00  0.00    -0.275 OA
ATOM      3  N   LIG d   1       6.560  -0.588  -5.298  0.00  0.00    -0.258 N 
ATOM      4  C   LIG d   1       5.579  -0.883  -4.351  0.00  0.00     0.058 A 
ATOM      5  C   LIG d   1       5.909  -1.263  -3.059  0.00  0.00    -0.038 A 
ATOM      6  C   LIG d   1       4.902  -1.592  -2.170  0.00  0.00    -0.060 A 
ATOM      7  C   LIG d   1       3.577  -1.547  -2.563  0.00  0.00    -0.060 A 
ATOM      8  C   LIG d   1       3.242  -1.152  -3.848  0.00  0.00    -0.039 A 
ATOM      9  C   LIG d   1       4.248  -0.800  -4.731  0.00  0.00     0.053 A 
ATOM     10  N   LIG d   1       3.980  -0.285  -5.993  0.00  0.00    -0.316 N 
ATOM     11  C   LIG d   1       4.333  -0.872  -7.165  0.00  0.00     0.017 C 
ATOM     12  C   LIG d   1       5.549  -1.386  -7.427  0.00  0.00     0.037 C 
ATOM     13  C   LIG d   1       6.723  -1.408  -6.480  0.00  0.00     0.086 C 
ATOM     14  H   LIG d   1       7.606  -1.063  -7.020  0.00  0.00     0.061 H 
ATOM     15  C   LIG d   1       5.815  -1.976  -8.685  0.00  0.00     0.163 C 
ATOM     16  O   LIG d   1       6.928  -2.416  -8.902  0.00  0.00    -0.292 OA
ATOM     17  C   LIG d   1       4.775  -2.079  -9.759  0.00  0.00     0.017 C 
ATOM     18  C   LIG d   1       3.395  -2.146  -9.095  0.00  0.00    -0.004 C 
ATOM     19  H   LIG d   1       3.322  -3.044  -8.482  0.00  0.00     0.036 H 
ATOM     20  C   LIG d   1       3.238  -0.904  -8.218  0.00  0.00    -0.007 C 
ATOM     21  H   LIG d   1       6.943  -1.301  -2.751  0.00  0.00     0.064 H 
ATOM     22  H   LIG d   1       5.152  -1.886  -1.161  0.00  0.00     0.062 H 
ATOM     23  H   LIG d   1       2.798  -1.823  -1.867  0.00  0.00     0.062 H 
ATOM     24  H   LIG d   1       2.208  -1.118  -4.156  0.00  0.00     0.064 H 
ATOM     25  H   LIG d   1       3.504   0.559  -6.042  0.00  0.00     0.152 HD
ATOM     26  H   LIG d   1       4.831  -1.277 -10.355  0.00  0.00     0.035 H 
ATOM     27  H   LIG d   1       4.943  -2.982 -10.347  0.00  0.00     0.035 H 
ATOM     28  H   LIG d   1       2.266  -0.927  -7.728  0.00  0.00     0.033 H 
ATOM     29  H   LIG d   1       3.308  -0.012  -8.839  0.00  0.00     0.033 H 
ENDROOT
BRANCH  13  30
ATOM     30  C   LIG d   1       6.959  -2.831  -6.045  0.00  0.00    -0.022 A 
ATOM     31  C   LIG d   1       8.234  -3.243  -5.699  0.00  0.00    -0.056 A 
ATOM     32  C   LIG d   1       8.455  -4.543  -5.294  0.00  0.00    -0.047 A 
ATOM     33  H   LIG d   1       9.055  -2.545  -5.741  0.00  0.00     0.062 H 
ATOM     34  C   LIG d   1       7.392  -5.447  -5.244  0.00  0.00     0.059 A 
ATOM     35  H   LIG d   1       9.450  -4.862  -5.019  0.00  0.00     0.063 H 
ATOM     36  C   LIG d   1       6.108  -5.025  -5.595  0.00  0.00    -0.047 A 
ATOM     37  C   LIG d   1       5.899  -3.720  -5.993  0.00  0.00    -0.056 A 
ATOM     38  H   LIG d   1       5.280  -5.717  -5.555  0.00  0.00     0.063 H 
ATOM     39  H   LIG d   1       4.908  -3.392  -6.265  0.00  0.00     0.062 H 
BRANCH  34  40
ATOM     40  C   LIG d   1       7.622  -6.842  -4.816  0.00  0.00     0.339 C 
ATOM     41  O   LIG d   1       8.679  -7.154  -4.306  0.00  0.00    -0.245 OA
BRANCH  40  42
ATOM     42  O   LIG d   1       6.659  -7.768  -4.992  0.00  0.00    -0.465 OA
BRANCH  42  43
ATOM     43  C   LIG d   1       6.786  -9.002  -4.237  0.00  0.00     0.082 C 
ATOM     44  H   LIG d   1       7.520  -8.867  -3.443  0.00  0.00     0.066 H 
ATOM     45  H   LIG d   1       5.822  -9.262  -3.802  0.00  0.00     0.066 H 
ATOM     46  H   LIG d   1       7.112  -9.802  -4.902  0.00  0.00     0.066 H 
ENDBRANCH  42  43
ENDBRANCH  40  42
ENDBRANCH  34  40
ENDBRANCH  13  30
BRANCH   1  47
ATOM     47  C   LIG d   1       7.205   1.336  -3.884  0.00  0.00     0.022 C 
ATOM     48  H   LIG d   1       6.311   1.951  -3.987  0.00  0.00     0.036 H 
ATOM     49  H   LIG d   1       7.109   0.700  -3.004  0.00  0.00     0.036 H 
BRANCH  47  50
ATOM     50  C   LIG d   1       8.430   2.239  -3.730  0.00  0.00    -0.057 C 
ATOM     51  H   LIG d   1       8.268   3.169  -4.275  0.00  0.00     0.023 H 
ATOM     52  H   LIG d   1       8.587   2.461  -2.674  0.00  0.00     0.023 H 
ATOM     53  H   LIG d   1       9.309   1.731  -4.129  0.00  0.00     0.023 H 
ENDBRANCH  47  50
ENDBRANCH   1  47
BRANCH  18  54
ATOM     54  C   LIG d   1       2.320  -2.163 -10.152  0.00  0.00    -0.043 A 
ATOM     55  C   LIG d   1       1.653  -3.339 -10.442  0.00  0.00    -0.055 A 
ATOM     56  C   LIG d   1       0.668  -3.357 -11.409  0.00  0.00    -0.020 A 
ATOM     57  H   LIG d   1       1.904  -4.246  -9.910  0.00  0.00     0.062 H 
ATOM     58  C   LIG d   1       0.347  -2.192 -12.092  0.00  0.00     0.120 A 
ATOM     59  H   LIG d   1       0.148  -4.276 -11.635  0.00  0.00     0.065 H 
ATOM     60  C   LIG d   1       1.017  -1.013 -11.800  0.00  0.00    -0.020 A 
ATOM     61  C   LIG d   1       1.998  -0.999 -10.827  0.00  0.00    -0.055 A 
ATOM     62  H   LIG d   1       0.770  -0.105 -12.330  0.00  0.00     0.065 H 
ATOM     63  H   LIG d   1       2.517  -0.081 -10.597  0.00  0.00     0.062 H 
BRANCH  58  64
ATOM     64  O   LIG d   1      -0.621  -2.207 -13.045  0.00  0.00    -0.495 OA
BRANCH  64  65
ATOM     65  C   LIG d   1      -1.531  -3.309 -13.029  0.00  0.00     0.079 C 
ATOM     66  H   LIG d   1      -1.263  -4.012 -13.819  0.00  0.00     0.066 H 
ATOM     67  H   LIG d   1      -1.477  -3.811 -12.063  0.00  0.00     0.066 H 
ATOM     68  H   LIG d   1      -2.545  -2.946 -13.194  0.00  0.00     0.066 H 
ENDBRANCH  64  65
ENDBRANCH  58  64
ENDBRANCH  18  54
TORSDOF 9
ENDMDL
MODEL 4
REMARK VINA RESULT:      -6.9      3.272      3.954
REMARK  9 active torsions:
REMARK  status: ('A' for Active; 'I' for Inactive)
REMARK    1  A    between atoms: C_1  and  C_2 
REMARK    2  A    between atoms: C_2  and  C_3 
REMARK       I    between atoms: C_3  and  N_5 
REMARK    3  A    between atoms: C_15  and  C_17 
REMARK    4  A    between atoms: C_20  and  C_23 
REMARK    5  A    between atoms: C_23  and  O_25 
REMARK    6  A    between atoms: O_25  and  C_26 
REMARK    7  A    between atoms: C_30  and  C_33 
REMARK    8  A    between atoms: C_36  and  O_39 
REMARK    9  A    between atoms: O_39  and  C_40 
ROOT
ATOM      1  C   LIG d   1       3.380   0.164  -6.220  0.00  0.00     0.220 C 
ATOM      2  O   LIG d   1       3.313   0.163  -7.430  0.00  0.00    -0.275 OA
ATOM      3  N   LIG d   1       4.368  -0.511  -5.599  0.00  0.00    -0.258 N 
ATOM      4  C   LIG d   1       4.436  -0.504  -4.206  0.00  0.00     0.058 A 
ATOM      5  C   LIG d   1       4.683   0.663  -3.498  0.00  0.00    -0.038 A 
ATOM      6  C   LIG d   1       4.790   0.611  -2.120  0.00  0.00    -0.060 A 
ATOM      7  C   LIG d   1       4.655  -0.591  -1.450  0.00  0.00    -0.060 A 
ATOM      8  C   LIG d   1       4.391  -1.756  -2.152  0.00  0.00    -0.039 A 
ATOM      9  C   LIG d   1       4.261  -1.702  -3.529  0.00  0.00     0.053 A 
ATOM     10  N   LIG d   1       3.883  -2.806  -4.283  0.00  0.00    -0.316 N 
ATOM     11  C   LIG d   1       4.647  -3.395  -5.238  0.00  0.00     0.017 C 
ATOM     12  C   LIG d   1       5.315  -2.732  -6.199  0.00  0.00     0.037 C 
ATOM     13  C   LIG d   1       5.342  -1.235  -6.388  0.00  0.00     0.086 C 
ATOM     14  H   LIG d   1       5.162  -1.019  -7.441  0.00  0.00     0.061 H 
ATOM     15  C   LIG d   1       6.084  -3.444  -7.151  0.00  0.00     0.163 C 
ATOM     16  O   LIG d   1       6.662  -2.821  -8.021  0.00  0.00    -0.292 OA
ATOM     17  C   LIG d   1       6.210  -4.937  -7.125  0.00  0.00     0.017 C 
ATOM     18  C   LIG d   1       6.047  -5.414  -5.677  0.00  0.00    -0.004 C 
ATOM     19  H   LIG d   1       6.848  -5.007  -5.061  0.00  0.00     0.036 H 
ATOM     20  C   LIG d   1       4.695  -4.912  -5.170  0.00  0.00    -0.007 C 
ATOM     21  H   LIG d   1       4.792   1.603  -4.019  0.00  0.00     0.064 H 
ATOM     22  H   LIG d   1       4.980   1.517  -1.562  0.00  0.00     0.062 H 
ATOM     23  H   LIG d   1       4.757  -0.624  -0.375  0.00  0.00     0.062 H 
ATOM     24  H   LIG d   1       4.287  -2.695  -1.631  0.00  0.00     0.064 H 
ATOM     25  H   LIG d   1       3.006  -3.185  -4.114  0.00  0.00     0.152 HD
ATOM     26  H   LIG d   1       5.500  -5.341  -7.702  0.00  0.00     0.035 H 
ATOM     27  H   LIG d   1       7.192  -5.228  -7.498  0.00  0.00     0.035 H 
ATOM     28  H   LIG d   1       4.553  -5.232  -4.138  0.00  0.00     0.033 H 
ATOM     29  H   LIG d   1       3.900  -5.327  -5.789  0.00  0.00     0.033 H 
ENDROOT
BRANCH  13  30
ATOM     30  C   LIG d   1       6.716  -0.733  -6.027  0.00  0.00    -0.022 A 
ATOM     31  C   LIG d   1       7.194   0.433  -6.597  0.00  0.00    -0.056 A 
ATOM     32  C   LIG d   1       8.449   0.901  -6.266  0.00  0.00    -0.047 A 
ATOM     33  H   LIG d   1       6.583   0.980  -7.298  0.00  0.00     0.062 H 
ATOM     34  C   LIG d   1       9.241   0.189  -5.363  0.00  0.00     0.059 A 
ATOM     35  H   LIG d   1       8.820   1.815  -6.708  0.00  0.00     0.063 H 
ATOM     36  C   LIG d   1       8.752  -0.987  -4.791  0.00  0.00    -0.047 A 
ATOM     37  C   LIG d   1       7.493  -1.441  -5.126  0.00  0.00    -0.056 A 
ATOM     38  H   LIG d   1       9.358  -1.540  -4.089  0.00  0.00     0.063 H 
ATOM     39  H   LIG d   1       7.114  -2.351  -4.686  0.00  0.00     0.062 H 
BRANCH  34  40
ATOM     40  C   LIG d   1      10.588   0.682  -5.008  0.00  0.00     0.339 C 
ATOM     41  O   LIG d   1      11.529  -0.085  -4.987  0.00  0.00    -0.245 OA
BRANCH  40  42
ATOM     42  O   LIG d   1      10.772   1.983  -4.707  0.00  0.00    -0.465 OA
BRANCH  42  43
ATOM     43  C   LIG d   1      10.354   2.419  -3.387  0.00  0.00     0.082 C 
ATOM     44  H   LIG d   1       9.371   2.885  -3.452  0.00  0.00     0.066 H 
ATOM     45  H   LIG d   1      10.306   1.560  -2.719  0.00  0.00     0.066 H 
ATOM     46  H   LIG d   1      11.074   3.141  -2.999  0.00  0.00     0.066 H 
ENDBRANCH  42  43
ENDBRANCH  40  42
ENDBRANCH  34  40
ENDBRANCH  13  30
BRANCH   1  47
ATOM     47  C   LIG d   1       2.360   0.921  -5.409  0.00  0.00     0.022 C 
ATOM     48  H   LIG d   1       2.860   1.454  -4.601  0.00  0.00     0.036 H 
ATOM     49  H   LIG d   1       1.844   1.636  -6.050  0.00  0.00     0.036 H 
BRANCH  47  50
ATOM     50  C   LIG d   1       1.345  -0.061  -4.821  0.00  0.00    -0.057 C 
ATOM     51  H   LIG d   1       0.711  -0.449  -5.618  0.00  0.00     0.023 H 
ATOM     52  H   LIG d   1       1.873  -0.886  -4.343  0.00  0.00     0.023 H 
ATOM     53  H   LIG d   1       0.728   0.452  -4.082  0.00  0.00     0.023 H 
ENDBRANCH  47  50
ENDBRANCH   1  47
BRANCH  18  54
ATOM     54  C   LIG d   1       6.083  -6.920  -5.629  0.00  0.00    -0.043 A 
ATOM     55  C   LIG d   1       7.234  -7.572  -5.225  0.00  0.00    -0.055 A 
ATOM     56  C   LIG d   1       7.268  -8.951  -5.179  0.00  0.00    -0.020 A 
ATOM     57  H   LIG d   1       8.107  -7.000  -4.944  0.00  0.00     0.062 H 
ATOM     58  C   LIG d   1       6.147  -9.685  -5.540  0.00  0.00     0.120 A 
ATOM     59  H   LIG d   1       8.168  -9.460  -4.864  0.00  0.00     0.065 H 
ATOM     60  C   LIG d   1       4.993  -9.030  -5.945  0.00  0.00    -0.020 A 
ATOM     61  C   LIG d   1       4.961  -7.649  -5.983  0.00  0.00    -0.055 A 
ATOM     62  H   LIG d   1       4.119  -9.598  -6.227  0.00  0.00     0.065 H 
ATOM     63  H   LIG d   1       4.062  -7.138  -6.294  0.00  0.00     0.062 H 
BRANCH  58  64
ATOM     64  O   LIG d   1       6.179 -11.043  -5.497  0.00  0.00    -0.495 OA
BRANCH  64  65
ATOM     65  C   LIG d   1       6.468 -11.645  -4.233  0.00  0.00     0.079 C 
ATOM     66  H   LIG d   1       6.729 -12.694  -4.382  0.00  0.00     0.066 H 
ATOM     67  H   LIG d   1       7.305 -11.126  -3.766  0.00  0.00     0.066 H 
ATOM     68  H   LIG d   1       5.592 -11.577  -3.589  0.00  0.00     0.066 H 
ENDBRANCH  64  65
ENDBRANCH  58  64
ENDBRANCH  18  54
TORSDOF 9
ENDMDL
MODEL 5
REMARK VINA RESULT:      -6.4      4.426      7.786
REMARK  9 active torsions:
REMARK  status: ('A' for Active; 'I' for Inactive)
REMARK    1  A    between atoms: C_1  and  C_2 
REMARK    2  A    between atoms: C_2  and  C_3 
REMARK       I    between atoms: C_3  and  N_5 
REMARK    3  A    between atoms: C_15  and  C_17 
REMARK    4  A    between atoms: C_20  and  C_23 
REMARK    5  A    between atoms: C_23  and  O_25 
REMARK    6  A    between atoms: O_25  and  C_26 
REMARK    7  A    between atoms: C_30  and  C_33 
REMARK    8  A    between atoms: C_36  and  O_39 
REMARK    9  A    between atoms: O_39  and  C_40 
ROOT
ATOM      1  C   LIG d   1      12.865   4.071  -7.883  0.00  0.00     0.220 C 
ATOM      2  O   LIG d   1      13.746   3.713  -7.131  0.00  0.00    -0.275 OA
ATOM      3  N   LIG d   1      11.664   4.434  -7.391  0.00  0.00    -0.258 N 
ATOM      4  C   LIG d   1      10.658   4.845  -8.266  0.00  0.00     0.058 A 
ATOM      5  C   LIG d   1      10.783   5.998  -9.025  0.00  0.00    -0.038 A 
ATOM      6  C   LIG d   1       9.738   6.391  -9.841  0.00  0.00    -0.060 A 
ATOM      7  C   LIG d   1       8.576   5.643  -9.901  0.00  0.00    -0.060 A 
ATOM      8  C   LIG d   1       8.454   4.481  -9.157  0.00  0.00    -0.039 A 
ATOM      9  C   LIG d   1       9.508   4.075  -8.357  0.00  0.00     0.053 A 
ATOM     10  N   LIG d   1       9.500   2.865  -7.676  0.00  0.00    -0.316 N 
ATOM     11  C   LIG d   1       9.547   2.731  -6.326  0.00  0.00     0.017 C 
ATOM     12  C   LIG d   1      10.398   3.392  -5.521  0.00  0.00     0.037 C 
ATOM     13  C   LIG d   1      11.437   4.393  -5.962  0.00  0.00     0.086 C 
ATOM     14  H   LIG d   1      12.379   4.149  -5.470  0.00  0.00     0.061 H 
ATOM     15  C   LIG d   1      10.366   3.177  -4.122  0.00  0.00     0.163 C 
ATOM     16  O   LIG d   1      11.159   3.774  -3.420  0.00  0.00    -0.292 OA
ATOM     17  C   LIG d   1       9.389   2.241  -3.477  0.00  0.00     0.017 C 
ATOM     18  C   LIG d   1       8.130   2.175  -4.348  0.00  0.00    -0.004 C 
ATOM     19  H   LIG d   1       7.660   3.157  -4.394  0.00  0.00     0.036 H 
ATOM     20  C   LIG d   1       8.554   1.736  -5.749  0.00  0.00    -0.007 C 
ATOM     21  H   LIG d   1      11.688   6.585  -8.978  0.00  0.00     0.064 H 
ATOM     22  H   LIG d   1       9.829   7.286 -10.438  0.00  0.00     0.062 H 
ATOM     23  H   LIG d   1       7.758   5.967 -10.528  0.00  0.00     0.062 H 
ATOM     24  H   LIG d   1       7.546   3.898  -9.201  0.00  0.00     0.064 H 
ATOM     25  H   LIG d   1       9.457   2.053  -8.205  0.00  0.00     0.152 HD
ATOM     26  H   LIG d   1       9.801   1.332  -3.399  0.00  0.00     0.035 H 
ATOM     27  H   LIG d   1       9.130   2.609  -2.484  0.00  0.00     0.035 H 
ATOM     28  H   LIG d   1       7.677   1.684  -6.394  0.00  0.00     0.033 H 
ATOM     29  H   LIG d   1       9.019   0.752  -5.694  0.00  0.00     0.033 H 
ENDROOT
BRANCH  13  30
ATOM     30  C   LIG d   1      11.004   5.762  -5.507  0.00  0.00    -0.022 A 
ATOM     31  C   LIG d   1       9.657   6.072  -5.440  0.00  0.00    -0.056 A 
ATOM     32  C   LIG d   1       9.254   7.322  -5.020  0.00  0.00    -0.047 A 
ATOM     33  H   LIG d   1       8.920   5.331  -5.712  0.00  0.00     0.062 H 
ATOM     34  C   LIG d   1      10.209   8.280  -4.673  0.00  0.00     0.059 A 
ATOM     35  H   LIG d   1       8.202   7.561  -4.963  0.00  0.00     0.063 H 
ATOM     36  C   LIG d   1      11.566   7.962  -4.743  0.00  0.00    -0.047 A 
ATOM     37  C   LIG d   1      11.956   6.706  -5.160  0.00  0.00    -0.056 A 
ATOM     38  H   LIG d   1      12.310   8.697  -4.473  0.00  0.00     0.063 H 
ATOM     39  H   LIG d   1      13.005   6.458  -5.216  0.00  0.00     0.062 H 
BRANCH  34  40
ATOM     40  C   LIG d   1       9.785   9.623  -4.227  0.00  0.00     0.339 C 
ATOM     41  O   LIG d   1      10.035   9.996  -3.098  0.00  0.00    -0.245 OA
BRANCH  40  42
ATOM     42  O   LIG d   1       9.120  10.435  -5.073  0.00  0.00    -0.465 OA
BRANCH  42  43
ATOM     43  C   LIG d   1       9.863  10.954  -6.208  0.00  0.00     0.082 C 
ATOM     44  H   LIG d   1       9.447  11.917  -6.504  0.00  0.00     0.066 H 
ATOM     45  H   LIG d   1      10.909  11.079  -5.930  0.00  0.00     0.066 H 
ATOM     46  H   LIG d   1       9.789  10.254  -7.040  0.00  0.00     0.066 H 
ENDBRANCH  42  43
ENDBRANCH  40  42
ENDBRANCH  34  40
ENDBRANCH  13  30
BRANCH   1  47
ATOM     47  C   LIG d   1      13.113   4.110  -9.369  0.00  0.00     0.022 C 
ATOM     48  H   LIG d   1      12.341   4.708  -9.851  0.00  0.00     0.036 H 
ATOM     49  H   LIG d   1      14.090   4.554  -9.564  0.00  0.00     0.036 H 
BRANCH  47  50
ATOM     50  C   LIG d   1      13.080   2.687  -9.930  0.00  0.00    -0.057 C 
ATOM     51  H   LIG d   1      13.049   1.973  -9.107  0.00  0.00     0.023 H 
ATOM     52  H   LIG d   1      12.194   2.563 -10.553  0.00  0.00     0.023 H 
ATOM     53  H   LIG d   1      13.973   2.512 -10.530  0.00  0.00     0.023 H 
ENDBRANCH  47  50
ENDBRANCH   1  47
BRANCH  18  54
ATOM     54  C   LIG d   1       7.162   1.174  -3.770  0.00  0.00    -0.043 A 
ATOM     55  C   LIG d   1       7.414  -0.181  -3.892  0.00  0.00    -0.055 A 
ATOM     56  C   LIG d   1       6.528  -1.099  -3.364  0.00  0.00    -0.020 A 
ATOM     57  H   LIG d   1       8.304  -0.520  -4.402  0.00  0.00     0.062 H 
ATOM     58  C   LIG d   1       5.385  -0.663  -2.709  0.00  0.00     0.120 A 
ATOM     59  H   LIG d   1       6.725  -2.157  -3.460  0.00  0.00     0.065 H 
ATOM     60  C   LIG d   1       5.134   0.696  -2.588  0.00  0.00    -0.020 A 
ATOM     61  C   LIG d   1       6.026   1.612  -3.113  0.00  0.00    -0.055 A 
ATOM     62  H   LIG d   1       4.245   1.039  -2.080  0.00  0.00     0.065 H 
ATOM     63  H   LIG d   1       5.834   2.670  -3.015  0.00  0.00     0.062 H 
BRANCH  58  64
ATOM     64  O   LIG d   1       4.512  -1.565  -2.189  0.00  0.00    -0.495 OA
BRANCH  64  65
ATOM     65  C   LIG d   1       3.185  -1.564  -2.719  0.00  0.00     0.079 C 
ATOM     66  H   LIG d   1       3.202  -1.178  -3.739  0.00  0.00     0.066 H 
ATOM     67  H   LIG d   1       2.795  -2.582  -2.722  0.00  0.00     0.066 H 
ATOM     68  H   LIG d   1       2.547  -0.932  -2.101  0.00  0.00     0.066 H 
ENDBRANCH  64  65
ENDBRANCH  58  64
ENDBRANCH  18  54
TORSDOF 9
ENDMDL
MODEL 6
REMARK VINA RESULT:      -6.0      4.659      8.436
REMARK  9 active torsions:
REMARK  status: ('A' for Active; 'I' for Inactive)
REMARK    1  A    between atoms: C_1  and  C_2 
REMARK    2  A    between atoms: C_2  and  C_3 
REMARK       I    between atoms: C_3  and  N_5 
REMARK    3  A    between atoms: C_15  and  C_17 
REMARK    4  A    between atoms: C_20  and  C_23 
REMARK    5  A    between atoms: C_23  and  O_25 
REMARK    6  A    between atoms: O_25  and  C_26 
REMARK    7  A    between atoms: C_30  and  C_33 
REMARK    8  A    between atoms: C_36  and  O_39 
REMARK    9  A    between atoms: O_39  and  C_40 
ROOT
ATOM      1  C   LIG d   1      13.470   5.887  -5.973  0.00  0.00     0.220 C 
ATOM      2  O   LIG d   1      14.274   5.217  -5.362  0.00  0.00    -0.275 OA
ATOM      3  N   LIG d   1      12.197   5.976  -5.540  0.00  0.00    -0.258 N 
ATOM      4  C   LIG d   1      11.280   6.751  -6.251  0.00  0.00     0.058 A 
ATOM      5  C   LIG d   1      11.422   8.125  -6.359  0.00  0.00    -0.038 A 
ATOM      6  C   LIG d   1      10.461   8.856  -7.033  0.00  0.00    -0.060 A 
ATOM      7  C   LIG d   1       9.365   8.225  -7.595  0.00  0.00    -0.060 A 
ATOM      8  C   LIG d   1       9.230   6.850  -7.504  0.00  0.00    -0.039 A 
ATOM      9  C   LIG d   1      10.202   6.115  -6.849  0.00  0.00     0.053 A 
ATOM     10  N   LIG d   1      10.190   4.726  -6.820  0.00  0.00    -0.316 N 
ATOM     11  C   LIG d   1      10.080   3.972  -5.697  0.00  0.00     0.017 C 
ATOM     12  C   LIG d   1      10.782   4.175  -4.568  0.00  0.00     0.037 C 
ATOM     13  C   LIG d   1      11.800   5.266  -4.342  0.00  0.00     0.086 C 
ATOM     14  H   LIG d   1      12.689   4.819  -3.896  0.00  0.00     0.061 H 
ATOM     15  C   LIG d   1      10.594   3.327  -3.450  0.00  0.00     0.163 C 
ATOM     16  O   LIG d   1      11.255   3.522  -2.449  0.00  0.00    -0.292 OA
ATOM     17  C   LIG d   1       9.609   2.197  -3.458  0.00  0.00     0.017 C 
ATOM     18  C   LIG d   1       8.472   2.549  -4.424  0.00  0.00    -0.004 C 
ATOM     19  H   LIG d   1       7.948   3.438  -4.071  0.00  0.00     0.036 H 
ATOM     20  C   LIG d   1       9.091   2.823  -5.795  0.00  0.00    -0.007 C 
ATOM     21  H   LIG d   1      12.275   8.621  -5.919  0.00  0.00     0.064 H 
ATOM     22  H   LIG d   1      10.566   9.927  -7.123  0.00  0.00     0.062 H 
ATOM     23  H   LIG d   1       8.611   8.807  -8.105  0.00  0.00     0.062 H 
ATOM     24  H   LIG d   1       8.374   6.356  -7.940  0.00  0.00     0.064 H 
ATOM     25  H   LIG d   1      10.265   4.260  -7.667  0.00  0.00     0.152 HD
ATOM     26  H   LIG d   1      10.066   1.359  -3.757  0.00  0.00     0.035 H 
ATOM     27  H   LIG d   1       9.207   2.055  -2.455  0.00  0.00     0.035 H 
ATOM     28  H   LIG d   1       8.305   3.081  -6.503  0.00  0.00     0.033 H 
ATOM     29  H   LIG d   1       9.609   1.929  -6.141  0.00  0.00     0.033 H 
ENDROOT
BRANCH  13  30
ATOM     30  C   LIG d   1      11.227   6.260  -3.366  0.00  0.00    -0.022 A 
ATOM     31  C   LIG d   1       9.856   6.361  -3.211  0.00  0.00    -0.056 A 
ATOM     32  C   LIG d   1       9.325   7.265  -2.315  0.00  0.00    -0.047 A 
ATOM     33  H   LIG d   1       9.200   5.728  -3.790  0.00  0.00     0.062 H 
ATOM     34  C   LIG d   1      10.174   8.087  -1.571  0.00  0.00     0.059 A 
ATOM     35  H   LIG d   1       8.254   7.340  -2.191  0.00  0.00     0.063 H 
ATOM     36  C   LIG d   1      11.557   7.981  -1.732  0.00  0.00    -0.047 A 
ATOM     37  C   LIG d   1      12.075   7.068  -2.628  0.00  0.00    -0.056 A 
ATOM     38  H   LIG d   1      12.219   8.610  -1.158  0.00  0.00     0.063 H 
ATOM     39  H   LIG d   1      13.143   6.984  -2.754  0.00  0.00     0.062 H 
BRANCH  34  40
ATOM     40  C   LIG d   1       9.613   9.062  -0.613  0.00  0.00     0.339 C 
ATOM     41  O   LIG d   1       8.444   9.383  -0.688  0.00  0.00    -0.245 OA
BRANCH  40  42
ATOM     42  O   LIG d   1      10.398   9.594   0.344  0.00  0.00    -0.465 OA
BRANCH  42  43
ATOM     43  C   LIG d   1      10.430  11.043   0.440  0.00  0.00     0.082 C 
ATOM     44  H   LIG d   1      11.333  11.352   0.965  0.00  0.00     0.066 H 
ATOM     45  H   LIG d   1      10.427  11.473  -0.561  0.00  0.00     0.066 H 
ATOM     46  H   LIG d   1       9.554  11.390   0.987  0.00  0.00     0.066 H 
ENDBRANCH  42  43
ENDBRANCH  40  42
ENDBRANCH  34  40
ENDBRANCH  13  30
BRANCH   1  47
ATOM     47  C   LIG d   1      13.894   6.622  -7.219  0.00  0.00     0.022 C 
ATOM     48  H   LIG d   1      14.174   5.902  -7.988  0.00  0.00     0.036 H 
ATOM     49  H   LIG d   1      13.068   7.235  -7.579  0.00  0.00     0.036 H 
BRANCH  47  50
ATOM     50  C   LIG d   1      15.093   7.518  -6.900  0.00  0.00    -0.057 C 
ATOM     51  H   LIG d   1      16.013   6.943  -7.000  0.00  0.00     0.023 H 
ATOM     52  H   LIG d   1      15.112   8.358  -7.594  0.00  0.00     0.023 H 
ATOM     53  H   LIG d   1      15.005   7.892  -5.880  0.00  0.00     0.023 H 
ENDBRANCH  47  50
ENDBRANCH   1  47
BRANCH  18  54
ATOM     54  C   LIG d   1       7.508   1.395  -4.521  0.00  0.00    -0.043 A 
ATOM     55  C   LIG d   1       7.452   0.636  -5.676  0.00  0.00    -0.055 A 
ATOM     56  C   LIG d   1       6.570  -0.423  -5.766  0.00  0.00    -0.020 A 
ATOM     57  H   LIG d   1       8.099   0.872  -6.508  0.00  0.00     0.062 H 
ATOM     58  C   LIG d   1       5.738  -0.725  -4.697  0.00  0.00     0.120 A 
ATOM     59  H   LIG d   1       6.526  -1.015  -6.669  0.00  0.00     0.065 H 
ATOM     60  C   LIG d   1       5.796   0.037  -3.539  0.00  0.00    -0.020 A 
ATOM     61  C   LIG d   1       6.684   1.092  -3.451  0.00  0.00    -0.055 A 
ATOM     62  H   LIG d   1       5.150  -0.196  -2.706  0.00  0.00     0.065 H 
ATOM     63  H   LIG d   1       6.733   1.683  -2.549  0.00  0.00     0.062 H 
BRANCH  58  64
ATOM     64  O   LIG d   1       4.869  -1.766  -4.784  0.00  0.00    -0.495 OA
BRANCH  64  65
ATOM     65  C   LIG d   1       4.350  -2.283  -3.556  0.00  0.00     0.079 C 
ATOM     66  H   LIG d   1       4.397  -3.372  -3.572  0.00  0.00     0.066 H 
ATOM     67  H   LIG d   1       4.944  -1.905  -2.724  0.00  0.00     0.066 H 
ATOM     68  H   LIG d   1       3.314  -1.965  -3.437  0.00  0.00     0.066 H 
ENDBRANCH  64  65
ENDBRANCH  58  64
ENDBRANCH  18  54
TORSDOF 9
ENDMDL
MODEL 7
REMARK VINA RESULT:      -6.0      4.486     10.216
REMARK  9 active torsions:
REMARK  status: ('A' for Active; 'I' for Inactive)
REMARK    1  A    between atoms: C_1  and  C_2 
REMARK    2  A    between atoms: C_2  and  C_3 
REMARK       I    between atoms: C_3  and  N_5 
REMARK    3  A    between atoms: C_15  and  C_17 
REMARK    4  A    between atoms: C_20  and  C_23 
REMARK    5  A    between atoms: C_23  and  O_25 
REMARK    6  A    between atoms: O_25  and  C_26 
REMARK    7  A    between atoms: C_30  and  C_33 
REMARK    8  A    between atoms: C_36  and  O_39 
REMARK    9  A    between atoms: O_39  and  C_40 
ROOT
ATOM      1  C   LIG d   1      10.900  -7.192  -6.500  0.00  0.00     0.220 C 
ATOM      2  O   LIG d   1      10.747  -7.069  -7.696  0.00  0.00    -0.275 OA
ATOM      3  N   LIG d   1       9.830  -7.187  -5.680  0.00  0.00    -0.258 N 
ATOM      4  C   LIG d   1      10.017  -7.330  -4.304  0.00  0.00     0.058 A 
ATOM      5  C   LIG d   1      10.528  -8.498  -3.760  0.00  0.00    -0.038 A 
ATOM      6  C   LIG d   1      10.650  -8.610  -2.386  0.00  0.00    -0.060 A 
ATOM      7  C   LIG d   1      10.264  -7.570  -1.561  0.00  0.00    -0.060 A 
ATOM      8  C   LIG d   1       9.769  -6.395  -2.102  0.00  0.00    -0.039 A 
ATOM      9  C   LIG d   1       9.668  -6.273  -3.477  0.00  0.00     0.053 A 
ATOM     10  N   LIG d   1       9.291  -5.086  -4.091  0.00  0.00    -0.316 N 
ATOM     11  C   LIG d   1       8.182  -4.923  -4.856  0.00  0.00     0.017 C 
ATOM     12  C   LIG d   1       7.793  -5.768  -5.829  0.00  0.00     0.037 C 
ATOM     13  C   LIG d   1       8.503  -7.034  -6.238  0.00  0.00     0.086 C 
ATOM     14  H   LIG d   1       8.584  -7.046  -7.326  0.00  0.00     0.061 H 
ATOM     15  C   LIG d   1       6.617  -5.504  -6.572  0.00  0.00     0.163 C 
ATOM     16  O   LIG d   1       6.299  -6.274  -7.457  0.00  0.00    -0.292 OA
ATOM     17  C   LIG d   1       5.751  -4.310  -6.306  0.00  0.00     0.017 C 
ATOM     18  C   LIG d   1       5.894  -3.924  -4.829  0.00  0.00    -0.004 C 
ATOM     19  H   LIG d   1       5.535  -4.737  -4.198  0.00  0.00     0.036 H 
ATOM     20  C   LIG d   1       7.377  -3.670  -4.554  0.00  0.00    -0.007 C 
ATOM     21  H   LIG d   1      10.828  -9.313  -4.402  0.00  0.00     0.064 H 
ATOM     22  H   LIG d   1      11.049  -9.516  -1.955  0.00  0.00     0.062 H 
ATOM     23  H   LIG d   1      10.346  -7.674  -0.488  0.00  0.00     0.062 H 
ATOM     24  H   LIG d   1       9.465  -5.583  -1.459  0.00  0.00     0.064 H 
ATOM     25  H   LIG d   1       9.864  -4.313  -3.964  0.00  0.00     0.152 HD
ATOM     26  H   LIG d   1       6.043  -3.551  -6.889  0.00  0.00     0.035 H 
ATOM     27  H   LIG d   1       4.711  -4.556  -6.521  0.00  0.00     0.035 H 
ATOM     28  H   LIG d   1       7.510  -3.398  -3.508  0.00  0.00     0.033 H 
ATOM     29  H   LIG d   1       7.726  -2.855  -5.186  0.00  0.00     0.033 H 
ENDROOT
BRANCH  13  30
ATOM     30  C   LIG d   1       7.666  -8.211  -5.810  0.00  0.00    -0.022 A 
ATOM     31  C   LIG d   1       6.891  -8.125  -4.667  0.00  0.00    -0.056 A 
ATOM     32  C   LIG d   1       6.118  -9.197  -4.272  0.00  0.00    -0.047 A 
ATOM     33  H   LIG d   1       6.887  -7.215  -4.086  0.00  0.00     0.062 H 
ATOM     34  C   LIG d   1       6.128 -10.375  -5.022  0.00  0.00     0.059 A 
ATOM     35  H   LIG d   1       5.509  -9.127  -3.383  0.00  0.00     0.063 H 
ATOM     36  C   LIG d   1       6.913 -10.456  -6.174  0.00  0.00    -0.047 A 
ATOM     37  C   LIG d   1       7.677  -9.374  -6.561  0.00  0.00    -0.056 A 
ATOM     38  H   LIG d   1       6.923 -11.362  -6.761  0.00  0.00     0.063 H 
ATOM     39  H   LIG d   1       8.285  -9.434  -7.451  0.00  0.00     0.062 H 
BRANCH  34  40
ATOM     40  C   LIG d   1       5.307 -11.529  -4.603  0.00  0.00     0.339 C 
ATOM     41  O   LIG d   1       5.320 -12.553  -5.255  0.00  0.00    -0.245 OA
BRANCH  40  42
ATOM     42  O   LIG d   1       4.544 -11.446  -3.495  0.00  0.00    -0.465 OA
BRANCH  42  43
ATOM     43  C   LIG d   1       3.149 -11.088  -3.682  0.00  0.00     0.082 C 
ATOM     44  H   LIG d   1       2.718 -10.796  -2.725  0.00  0.00     0.066 H 
ATOM     45  H   LIG d   1       3.078 -10.256  -4.382  0.00  0.00     0.066 H 
ATOM     46  H   LIG d   1       2.604 -11.945  -4.080  0.00  0.00     0.066 H 
ENDBRANCH  42  43
ENDBRANCH  40  42
ENDBRANCH  34  40
ENDBRANCH  13  30
BRANCH   1  47
ATOM     47  C   LIG d   1      12.286  -7.351  -5.929  0.00  0.00     0.022 C 
ATOM     48  H   LIG d   1      12.224  -7.826  -4.951  0.00  0.00     0.036 H 
ATOM     49  H   LIG d   1      12.885  -7.971  -6.597  0.00  0.00     0.036 H 
BRANCH  47  50
ATOM     50  C   LIG d   1      12.940  -5.975  -5.788  0.00  0.00    -0.057 C 
ATOM     51  H   LIG d   1      13.287  -5.841  -4.764  0.00  0.00     0.023 H 
ATOM     52  H   LIG d   1      13.787  -5.904  -6.471  0.00  0.00     0.023 H 
ATOM     53  H   LIG d   1      12.212  -5.200  -6.031  0.00  0.00     0.023 H 
ENDBRANCH  47  50
ENDBRANCH   1  47
BRANCH  18  54
ATOM     54  C   LIG d   1       5.102  -2.673  -4.549  0.00  0.00    -0.043 A 
ATOM     55  C   LIG d   1       4.505  -2.494  -3.314  0.00  0.00    -0.055 A 
ATOM     56  C   LIG d   1       3.780  -1.349  -3.055  0.00  0.00    -0.020 A 
ATOM     57  H   LIG d   1       4.608  -3.252  -2.551  0.00  0.00     0.062 H 
ATOM     58  C   LIG d   1       3.648  -0.375  -4.035  0.00  0.00     0.120 A 
ATOM     59  H   LIG d   1       3.314  -1.210  -2.090  0.00  0.00     0.065 H 
ATOM     60  C   LIG d   1       4.247  -0.556  -5.274  0.00  0.00    -0.020 A 
ATOM     61  C   LIG d   1       4.978  -1.702  -5.526  0.00  0.00    -0.055 A 
ATOM     62  H   LIG d   1       4.146   0.199  -6.039  0.00  0.00     0.065 H 
ATOM     63  H   LIG d   1       5.448  -1.841  -6.488  0.00  0.00     0.062 H 
BRANCH  58  64
ATOM     64  O   LIG d   1       2.934   0.753  -3.784  0.00  0.00    -0.495 OA
BRANCH  64  65
ATOM     65  C   LIG d   1       3.448   1.638  -2.786  0.00  0.00     0.079 C 
ATOM     66  H   LIG d   1       2.811   2.521  -2.721  0.00  0.00     0.066 H 
ATOM     67  H   LIG d   1       3.464   1.128  -1.822  0.00  0.00     0.066 H 
ATOM     68  H   LIG d   1       4.461   1.939  -3.055  0.00  0.00     0.066 H 
ENDBRANCH  64  65
ENDBRANCH  58  64
ENDBRANCH  18  54
TORSDOF 9
ENDMDL
MODEL 8
REMARK VINA RESULT:      -5.8      3.219      7.542
REMARK  9 active torsions:
REMARK  status: ('A' for Active; 'I' for Inactive)
REMARK    1  A    between atoms: C_1  and  C_2 
REMARK    2  A    between atoms: C_2  and  C_3 
REMARK       I    between atoms: C_3  and  N_5 
REMARK    3  A    between atoms: C_15  and  C_17 
REMARK    4  A    between atoms: C_20  and  C_23 
REMARK    5  A    between atoms: C_23  and  O_25 
REMARK    6  A    between atoms: O_25  and  C_26 
REMARK    7  A    between atoms: C_30  and  C_33 
REMARK    8  A    between atoms: C_36  and  O_39 
REMARK    9  A    between atoms: O_39  and  C_40 
ROOT
ATOM      1  C   LIG d   1       3.314  -0.078  -7.283  0.00  0.00     0.220 C 
ATOM      2  O   LIG d   1       2.650   0.139  -6.293  0.00  0.00    -0.275 OA
ATOM      3  N   LIG d   1       4.575  -0.539  -7.162  0.00  0.00    -0.258 N 
ATOM      4  C   LIG d   1       5.331  -0.785  -8.309  0.00  0.00     0.058 A 
ATOM      5  C   LIG d   1       4.974  -1.771  -9.215  0.00  0.00    -0.038 A 
ATOM      6  C   LIG d   1       5.782  -2.011 -10.312  0.00  0.00    -0.060 A 
ATOM      7  C   LIG d   1       6.938  -1.276 -10.505  0.00  0.00    -0.060 A 
ATOM      8  C   LIG d   1       7.289  -0.278  -9.611  0.00  0.00    -0.039 A 
ATOM      9  C   LIG d   1       6.469  -0.022  -8.525  0.00  0.00     0.053 A 
ATOM     10  N   LIG d   1       6.698   1.036  -7.656  0.00  0.00    -0.316 N 
ATOM     11  C   LIG d   1       6.969   0.911  -6.332  0.00  0.00     0.017 C 
ATOM     12  C   LIG d   1       6.290   0.117  -5.484  0.00  0.00     0.037 C 
ATOM     13  C   LIG d   1       5.126  -0.772  -5.844  0.00  0.00     0.086 C 
ATOM     14  H   LIG d   1       4.336  -0.618  -5.108  0.00  0.00     0.061 H 
ATOM     15  C   LIG d   1       6.653   0.061  -4.117  0.00  0.00     0.163 C 
ATOM     16  O   LIG d   1       6.012  -0.651  -3.369  0.00  0.00    -0.292 OA
ATOM     17  C   LIG d   1       7.800   0.849  -3.559  0.00  0.00     0.017 C 
ATOM     18  C   LIG d   1       8.829   1.068  -4.675  0.00  0.00    -0.004 C 
ATOM     19  H   LIG d   1       9.222   0.108  -5.009  0.00  0.00     0.036 H 
ATOM     20  C   LIG d   1       8.119   1.770  -5.833  0.00  0.00    -0.007 C 
ATOM     21  H   LIG d   1       4.073  -2.348  -9.065  0.00  0.00     0.064 H 
ATOM     22  H   LIG d   1       5.508  -2.776 -11.023  0.00  0.00     0.062 H 
ATOM     23  H   LIG d   1       7.571  -1.482 -11.355  0.00  0.00     0.062 H 
ATOM     24  H   LIG d   1       8.192   0.294  -9.760  0.00  0.00     0.064 H 
ATOM     25  H   LIG d   1       6.661   1.934  -8.023  0.00  0.00     0.152 HD
ATOM     26  H   LIG d   1       7.466   1.729  -3.222  0.00  0.00     0.035 H 
ATOM     27  H   LIG d   1       8.260   0.296  -2.740  0.00  0.00     0.035 H 
ATOM     28  H   LIG d   1       8.826   1.934  -6.645  0.00  0.00     0.033 H 
ATOM     29  H   LIG d   1       7.732   2.729  -5.490  0.00  0.00     0.033 H 
ENDROOT
BRANCH  13  30
ATOM     30  C   LIG d   1       5.577  -2.207  -5.762  0.00  0.00    -0.022 A 
ATOM     31  C   LIG d   1       4.675  -3.194  -5.406  0.00  0.00    -0.056 A 
ATOM     32  C   LIG d   1       5.080  -4.510  -5.335  0.00  0.00    -0.047 A 
ATOM     33  H   LIG d   1       3.650  -2.933  -5.188  0.00  0.00     0.062 H 
ATOM     34  C   LIG d   1       6.408  -4.845  -5.613  0.00  0.00     0.059 A 
ATOM     35  H   LIG d   1       4.374  -5.280  -5.062  0.00  0.00     0.063 H 
ATOM     36  C   LIG d   1       7.313  -3.844  -5.971  0.00  0.00    -0.047 A 
ATOM     37  C   LIG d   1       6.893  -2.532  -6.044  0.00  0.00    -0.056 A 
ATOM     38  H   LIG d   1       8.340  -4.097  -6.191  0.00  0.00     0.063 H 
ATOM     39  H   LIG d   1       7.592  -1.758  -6.320  0.00  0.00     0.062 H 
BRANCH  34  40
ATOM     40  C   LIG d   1       6.850  -6.252  -5.534  0.00  0.00     0.339 C 
ATOM     41  O   LIG d   1       8.025  -6.528  -5.672  0.00  0.00    -0.245 OA
BRANCH  40  42
ATOM     42  O   LIG d   1       5.951  -7.229  -5.308  0.00  0.00    -0.465 OA
BRANCH  42  43
ATOM     43  C   LIG d   1       6.473  -8.539  -4.961  0.00  0.00     0.082 C 
ATOM     44  H   LIG d   1       7.154  -8.877  -5.742  0.00  0.00     0.066 H 
ATOM     45  H   LIG d   1       7.008  -8.477  -4.014  0.00  0.00     0.066 H 
ATOM     46  H   LIG d   1       5.649  -9.246  -4.866  0.00  0.00     0.066 H 
ENDBRANCH  42  43
ENDBRANCH  40  42
ENDBRANCH  34  40
ENDBRANCH  13  30
BRANCH   1  47
ATOM     47  C   LIG d   1       2.731   0.169  -8.651  0.00  0.00     0.022 C 
ATOM     48  H   LIG d   1       3.342  -0.330  -9.403  0.00  0.00     0.036 H 
ATOM     49  H   LIG d   1       1.715  -0.224  -8.689  0.00  0.00     0.036 H 
BRANCH  47  50
ATOM     50  C   LIG d   1       2.706   1.673  -8.931  0.00  0.00    -0.057 C 
ATOM     51  H   LIG d   1       2.725   1.843 -10.008  0.00  0.00     0.023 H 
ATOM     52  H   LIG d   1       1.797   2.106  -8.511  0.00  0.00     0.023 H 
ATOM     53  H   LIG d   1       3.577   2.143  -8.473  0.00  0.00     0.023 H 
ENDBRANCH  47  50
ENDBRANCH   1  47
BRANCH  18  54
ATOM     54  C   LIG d   1       9.955   1.932  -4.168  0.00  0.00    -0.043 A 
ATOM     55  C   LIG d   1      11.256   1.671  -4.560  0.00  0.00    -0.055 A 
ATOM     56  C   LIG d   1      12.289   2.462  -4.097  0.00  0.00    -0.020 A 
ATOM     57  H   LIG d   1      11.463   0.848  -5.228  0.00  0.00     0.062 H 
ATOM     58  C   LIG d   1      12.023   3.518  -3.238  0.00  0.00     0.120 A 
ATOM     59  H   LIG d   1      13.305   2.257  -4.403  0.00  0.00     0.065 H 
ATOM     60  C   LIG d   1      10.717   3.778  -2.846  0.00  0.00    -0.020 A 
ATOM     61  C   LIG d   1       9.686   2.988  -3.316  0.00  0.00    -0.055 A 
ATOM     62  H   LIG d   1      10.506   4.599  -2.177  0.00  0.00     0.065 H 
ATOM     63  H   LIG d   1       8.669   3.192  -3.016  0.00  0.00     0.062 H 
BRANCH  58  64
ATOM     64  O   LIG d   1      13.038   4.297  -2.781  0.00  0.00    -0.495 OA
BRANCH  64  65
ATOM     65  C   LIG d   1      12.701   5.312  -1.832  0.00  0.00     0.079 C 
ATOM     66  H   LIG d   1      13.530   5.448  -1.136  0.00  0.00     0.066 H 
ATOM     67  H   LIG d   1      12.508   6.248  -2.355  0.00  0.00     0.066 H 
ATOM     68  H   LIG d   1      11.809   5.012  -1.281  0.00  0.00     0.066 H 
ENDBRANCH  64  65
ENDBRANCH  58  64
ENDBRANCH  18  54
TORSDOF 9
ENDMDL
MODEL 9
REMARK VINA RESULT:      -5.6      5.202      9.650
REMARK  9 active torsions:
REMARK  status: ('A' for Active; 'I' for Inactive)
REMARK    1  A    between atoms: C_1  and  C_2 
REMARK    2  A    between atoms: C_2  and  C_3 
REMARK       I    between atoms: C_3  and  N_5 
REMARK    3  A    between atoms: C_15  and  C_17 
REMARK    4  A    between atoms: C_20  and  C_23 
REMARK    5  A    between atoms: C_23  and  O_25 
REMARK    6  A    between atoms: O_25  and  C_26 
REMARK    7  A    between atoms: C_30  and  C_33 
REMARK    8  A    between atoms: C_36  and  O_39 
REMARK    9  A    between atoms: O_39  and  C_40 
ROOT
ATOM      1  C   LIG d   1       4.347  -7.643  -9.078  0.00  0.00     0.220 C 
ATOM      2  O   LIG d   1       3.174  -7.495  -8.811  0.00  0.00    -0.275 OA
ATOM      3  N   LIG d   1       5.288  -7.396  -8.146  0.00  0.00    -0.258 N 
ATOM      4  C   LIG d   1       6.635  -7.570  -8.465  0.00  0.00     0.058 A 
ATOM      5  C   LIG d   1       7.152  -8.820  -8.768  0.00  0.00    -0.038 A 
ATOM      6  C   LIG d   1       8.505  -8.950  -9.030  0.00  0.00    -0.060 A 
ATOM      7  C   LIG d   1       9.336  -7.845  -8.988  0.00  0.00    -0.060 A 
ATOM      8  C   LIG d   1       8.820  -6.592  -8.703  0.00  0.00    -0.039 A 
ATOM      9  C   LIG d   1       7.463  -6.458  -8.463  0.00  0.00     0.053 A 
ATOM     10  N   LIG d   1       6.860  -5.219  -8.285  0.00  0.00    -0.316 N 
ATOM     11  C   LIG d   1       6.228  -4.816  -7.153  0.00  0.00     0.017 C 
ATOM     12  C   LIG d   1       5.337  -5.557  -6.471  0.00  0.00     0.037 C 
ATOM     13  C   LIG d   1       4.887  -6.952  -6.827  0.00  0.00     0.086 C 
ATOM     14  H   LIG d   1       3.798  -6.988  -6.768  0.00  0.00     0.061 H 
ATOM     15  C   LIG d   1       4.731  -5.041  -5.300  0.00  0.00     0.163 C 
ATOM     16  O   LIG d   1       3.915  -5.725  -4.713  0.00  0.00    -0.292 OA
ATOM     17  C   LIG d   1       5.059  -3.683  -4.759  0.00  0.00     0.017 C 
ATOM     18  C   LIG d   1       6.496  -3.331  -5.165  0.00  0.00    -0.004 C 
ATOM     19  H   LIG d   1       7.191  -4.040  -4.715  0.00  0.00     0.036 H 
ATOM     20  C   LIG d   1       6.583  -3.414  -6.689  0.00  0.00    -0.007 C 
ATOM     21  H   LIG d   1       6.506  -9.684  -8.799  0.00  0.00     0.064 H 
ATOM     22  H   LIG d   1       8.914  -9.920  -9.270  0.00  0.00     0.062 H 
ATOM     23  H   LIG d   1      10.394  -7.960  -9.177  0.00  0.00     0.062 H 
ATOM     24  H   LIG d   1       9.468  -5.730  -8.668  0.00  0.00     0.064 H 
ATOM     25  H   LIG d   1       6.894  -4.593  -9.025  0.00  0.00     0.152 HD
ATOM     26  H   LIG d   1       4.422  -3.011  -5.137  0.00  0.00     0.035 H 
ATOM     27  H   LIG d   1       4.977  -3.691  -3.672  0.00  0.00     0.035 H 
ATOM     28  H   LIG d   1       7.597  -3.174  -7.007  0.00  0.00     0.033 H 
ATOM     29  H   LIG d   1       5.888  -2.700  -7.130  0.00  0.00     0.033 H 
ENDROOT
BRANCH  13  30
ATOM     30  C   LIG d   1       5.449  -7.911  -5.810  0.00  0.00    -0.022 A 
ATOM     31  C   LIG d   1       6.696  -7.674  -5.258  0.00  0.00    -0.056 A 
ATOM     32  C   LIG d   1       7.214  -8.545  -4.321  0.00  0.00    -0.047 A 
ATOM     33  H   LIG d   1       7.261  -6.805  -5.556  0.00  0.00     0.062 H 
ATOM     34  C   LIG d   1       6.484  -9.673  -3.941  0.00  0.00     0.059 A 
ATOM     35  H   LIG d   1       8.185  -8.357  -3.887  0.00  0.00     0.063 H 
ATOM     36  C   LIG d   1       5.227  -9.905  -4.503  0.00  0.00    -0.047 A 
ATOM     37  C   LIG d   1       4.717  -9.024  -5.434  0.00  0.00    -0.056 A 
ATOM     38  H   LIG d   1       4.655 -10.773  -4.210  0.00  0.00     0.063 H 
ATOM     39  H   LIG d   1       3.746  -9.202  -5.869  0.00  0.00     0.062 H 
BRANCH  34  40
ATOM     40  C   LIG d   1       7.035 -10.612  -2.943  0.00  0.00     0.339 C 
ATOM     41  O   LIG d   1       8.223 -10.606  -2.694  0.00  0.00    -0.245 OA
BRANCH  40  42
ATOM     42  O   LIG d   1       6.218 -11.476  -2.308  0.00  0.00    -0.465 OA
BRANCH  42  43
ATOM     43  C   LIG d   1       6.318 -11.534  -0.860  0.00  0.00     0.082 C 
ATOM     44  H   LIG d   1       5.418 -11.995  -0.453  0.00  0.00     0.066 H 
ATOM     45  H   LIG d   1       7.188 -12.126  -0.580  0.00  0.00     0.066 H 
ATOM     46  H   LIG d   1       6.421 -10.524  -0.462  0.00  0.00     0.066 H 
ENDBRANCH  42  43
ENDBRANCH  40  42
ENDBRANCH  34  40
ENDBRANCH  13  30
BRANCH   1  47
ATOM     47  C   LIG d   1       4.753  -8.104 -10.455  0.00  0.00     0.022 C 
ATOM     48  H   LIG d   1       5.610  -7.524 -10.795  0.00  0.00     0.036 H 
ATOM     49  H   LIG d   1       5.021  -9.161 -10.420  0.00  0.00     0.036 H 
BRANCH  47  50
ATOM     50  C   LIG d   1       3.586  -7.906 -11.425  0.00  0.00    -0.057 C 
ATOM     51  H   LIG d   1       3.006  -7.035 -11.121  0.00  0.00     0.023 H 
ATOM     52  H   LIG d   1       3.974  -7.752 -12.432  0.00  0.00     0.023 H 
ATOM     53  H   LIG d   1       2.949  -8.791 -11.412  0.00  0.00     0.023 H 
ENDBRANCH  47  50
ENDBRANCH   1  47
BRANCH  18  54
ATOM     54  C   LIG d   1       6.827  -1.934  -4.709  0.00  0.00    -0.043 A 
ATOM     55  C   LIG d   1       7.728  -1.168  -5.428  0.00  0.00    -0.055 A 
ATOM     56  C   LIG d   1       8.032   0.113  -5.013  0.00  0.00    -0.020 A 
ATOM     57  H   LIG d   1       8.192  -1.573  -6.315  0.00  0.00     0.062 H 
ATOM     58  C   LIG d   1       7.435   0.633  -3.873  0.00  0.00     0.120 A 
ATOM     59  H   LIG d   1       8.736   0.710  -5.574  0.00  0.00     0.065 H 
ATOM     60  C   LIG d   1       6.532  -0.136  -3.154  0.00  0.00    -0.020 A 
ATOM     61  C   LIG d   1       6.226  -1.416  -3.576  0.00  0.00    -0.055 A 
ATOM     62  H   LIG d   1       6.066   0.265  -2.266  0.00  0.00     0.065 H 
ATOM     63  H   LIG d   1       5.520  -2.014  -3.019  0.00  0.00     0.062 H 
BRANCH  58  64
ATOM     64  O   LIG d   1       7.734   1.893  -3.462  0.00  0.00    -0.495 OA
BRANCH  64  65
ATOM     65  C   LIG d   1       9.035   2.390  -3.787  0.00  0.00     0.079 C 
ATOM     66  H   LIG d   1       9.349   3.108  -3.027  0.00  0.00     0.066 H 
ATOM     67  H   LIG d   1       9.742   1.562  -3.819  0.00  0.00     0.066 H 
ATOM     68  H   LIG d   1       9.004   2.881  -4.760  0.00  0.00     0.066 H 
ENDBRANCH  64  65
ENDBRANCH  58  64
ENDBRANCH  18  54
TORSDOF 9
ENDMDL
