MODEL 1
REMARK VINA RESULT:      -7.9      0.000      0.000
REMARK  6 active torsions:
REMARK  status: ('A' for Active; 'I' for Inactive)
REMARK    1  A    between atoms: C_1  and  C_2 
REMARK    2  A    between atoms: C_2  and  C_3 
REMARK    3  A    between atoms: C_2  and  C_4 
REMARK    4  A    between atoms: C_2  and  C_5 
REMARK       I    between atoms: C_5  and  N_7 
REMARK    5  A    between atoms: C_18  and  C_23 
REMARK    6  A    between atoms: C_27  and  C_29 
ROOT
ATOM      1  C   LIG d   1       6.912   0.500  -4.068  0.00  0.00     0.221 C 
ATOM      2  O   LIG d   1       6.779   1.691  -4.252  0.00  0.00    -0.275 OA
ATOM      3  N   LIG d   1       6.068  -0.151  -3.243  0.00  0.00    -0.300 N 
ATOM      4  C   LIG d   1       5.067   0.580  -2.481  0.00  0.00     0.019 C 
ATOM      5  C   LIG d   1       3.691  -0.050  -2.642  0.00  0.00    -0.006 C 
ATOM      6  H   LIG d   1       3.030   0.385  -1.892  0.00  0.00     0.033 H 
ATOM      7  C   LIG d   1       3.745  -1.560  -2.407  0.00  0.00    -0.037 C 
ATOM      8  C   LIG d   1       4.732  -2.168  -3.407  0.00  0.00     0.016 C 
ATOM      9  H   LIG d   1       4.729  -3.254  -3.322  0.00  0.00     0.038 H 
ATOM     10  C   LIG d   1       6.135  -1.615  -3.101  0.00  0.00     0.023 C 
ATOM     11  C   LIG d   1       4.366  -1.740  -4.811  0.00  0.00     0.027 A 
ATOM     12  C   LIG d   1       4.740  -2.564  -5.827  0.00  0.00    -0.041 A 
ATOM     13  C   LIG d   1       4.497  -2.216  -7.157  0.00  0.00    -0.047 A 
ATOM     14  C   LIG d   1       3.889  -0.998  -7.424  0.00  0.00     0.047 A 
ATOM     15  C   LIG d   1       3.520  -0.173  -6.339  0.00  0.00     0.259 A 
ATOM     16  O   LIG d   1       3.038   0.927  -6.554  0.00  0.00    -0.267 OA
ATOM     17  N   LIG d   1       3.696  -0.591  -5.061  0.00  0.00    -0.311 N 
ATOM     18  C   LIG d   1       3.104   0.238  -4.011  0.00  0.00     0.031 C 
ATOM     19  H   LIG d   1       5.032   1.616  -2.819  0.00  0.00     0.047 H 
ATOM     20  H   LIG d   1       5.354   0.556  -1.429  0.00  0.00     0.047 H 
ATOM     21  H   LIG d   1       4.083  -1.761  -1.391  0.00  0.00     0.028 H 
ATOM     22  H   LIG d   1       2.756  -1.991  -2.559  0.00  0.00     0.028 H 
ATOM     23  H   LIG d   1       6.422  -1.877  -2.083  0.00  0.00     0.047 H 
ATOM     24  H   LIG d   1       6.856  -2.023  -3.808  0.00  0.00     0.047 H 
ATOM     25  H   LIG d   1       5.229  -3.500  -5.603  0.00  0.00     0.064 H 
ATOM     26  H   LIG d   1       4.778  -2.879  -7.961  0.00  0.00     0.063 H 
ATOM     27  H   LIG d   1       2.029   0.051  -3.980  0.00  0.00     0.050 H 
ATOM     28  H   LIG d   1       3.270   1.287  -4.253  0.00  0.00     0.050 H 
ENDROOT
BRANCH   1  29
ATOM     29  C   LIG d   1       8.018  -0.252  -4.761  0.00  0.00     0.039 C 
BRANCH  29  30
ATOM     30  C   LIG d   1       8.237  -1.595  -4.064  0.00  0.00    -0.052 C 
ATOM     31  H   LIG d   1       9.277  -1.674  -3.746  0.00  0.00     0.024 H 
ATOM     32  H   LIG d   1       7.584  -1.664  -3.194  0.00  0.00     0.024 H 
ATOM     33  H   LIG d   1       8.007  -2.406  -4.756  0.00  0.00     0.024 H 
ENDBRANCH  29  30
BRANCH  29  34
ATOM     34  C   LIG d   1       7.634  -0.491  -6.223  0.00  0.00    -0.052 C 
ATOM     35  H   LIG d   1       8.129   0.246  -6.855  0.00  0.00     0.024 H 
ATOM     36  H   LIG d   1       7.945  -1.492  -6.521  0.00  0.00     0.024 H 
ATOM     37  H   LIG d   1       6.553  -0.398  -6.334  0.00  0.00     0.024 H 
ENDBRANCH  29  34
BRANCH  29  38
ATOM     38  C   LIG d   1       9.307   0.570  -4.702  0.00  0.00    -0.052 C 
ATOM     39  H   LIG d   1      10.131  -0.069  -4.383  0.00  0.00     0.024 H 
ATOM     40  H   LIG d   1       9.525   0.977  -5.690  0.00  0.00     0.024 H 
ATOM     41  H   LIG d   1       9.185   1.388  -3.991  0.00  0.00     0.024 H 
ENDBRANCH  29  38
ENDBRANCH   1  29
BRANCH  14  42
ATOM     42  C   LIG d   1       3.632  -0.573  -8.819  0.00  0.00    -0.012 A 
ATOM     43  C   LIG d   1       2.604  -1.162  -9.554  0.00  0.00    -0.042 A 
ATOM     44  C   LIG d   1       2.367  -0.758 -10.852  0.00  0.00     0.055 A 
ATOM     45  H   LIG d   1       1.991  -1.930  -9.106  0.00  0.00     0.063 H 
ATOM     46  C   LIG d   1       3.155   0.221 -11.428  0.00  0.00    -0.050 A 
ATOM     47  C   LIG d   1       4.181   0.807 -10.707  0.00  0.00    -0.061 A 
ATOM     48  H   LIG d   1       2.969   0.531 -12.447  0.00  0.00     0.062 H 
ATOM     49  C   LIG d   1       4.424   0.415  -9.407  0.00  0.00    -0.054 A 
ATOM     50  H   LIG d   1       4.792   1.570 -11.163  0.00  0.00     0.062 H 
ATOM     51  H   LIG d   1       5.225   0.871  -8.845  0.00  0.00     0.062 H 
BRANCH  44  52
ATOM     52  C   LIG d   1       1.252  -1.390 -11.645  0.00  0.00     0.417 C 
ATOM     53  F   LIG d   1       0.862  -2.584 -11.030  0.00  0.00    -0.166 F 
ATOM     54  F   LIG d   1       0.162  -0.514 -11.695  0.00  0.00    -0.166 F 
ATOM     55  F   LIG d   1       1.697  -1.656 -12.943  0.00  0.00    -0.166 F 
ENDBRANCH  44  52
ENDBRANCH  14  42
TORSDOF 6
ENDMDL
MODEL 2
REMARK VINA RESULT:      -7.4      1.501      2.112
REMARK  6 active torsions:
REMARK  status: ('A' for Active; 'I' for Inactive)
REMARK    1  A    between atoms: C_1  and  C_2 
REMARK    2  A    between atoms: C_2  and  C_3 
REMARK    3  A    between atoms: C_2  and  C_4 
REMARK    4  A    between atoms: C_2  and  C_5 
REMARK       I    between atoms: C_5  and  N_7 
REMARK    5  A    between atoms: C_18  and  C_23 
REMARK    6  A    between atoms: C_27  and  C_29 
ROOT
ATOM      1  C   LIG d   1       7.237   0.375  -4.454  0.00  0.00     0.221 C 
ATOM      2  O   LIG d   1       7.158   1.543  -4.768  0.00  0.00    -0.275 OA
ATOM      3  N   LIG d   1       6.455  -0.110  -3.468  0.00  0.00    -0.300 N 
ATOM      4  C   LIG d   1       5.598   0.778  -2.699  0.00  0.00     0.019 C 
ATOM      5  C   LIG d   1       4.176   0.240  -2.632  0.00  0.00    -0.006 C 
ATOM      6  H   LIG d   1       3.634   0.807  -1.875  0.00  0.00     0.033 H 
ATOM      7  C   LIG d   1       4.162  -1.232  -2.220  0.00  0.00    -0.037 C 
ATOM      8  C   LIG d   1       4.986  -2.025  -3.238  0.00  0.00     0.016 C 
ATOM      9  H   LIG d   1       4.925  -3.091  -3.020  0.00  0.00     0.038 H 
ATOM     10  C   LIG d   1       6.447  -1.549  -3.156  0.00  0.00     0.023 C 
ATOM     11  C   LIG d   1       4.487  -1.736  -4.636  0.00  0.00     0.027 A 
ATOM     12  C   LIG d   1       4.688  -2.698  -5.577  0.00  0.00    -0.041 A 
ATOM     13  C   LIG d   1       4.315  -2.488  -6.906  0.00  0.00    -0.047 A 
ATOM     14  C   LIG d   1       3.757  -1.266  -7.254  0.00  0.00     0.047 A 
ATOM     15  C   LIG d   1       3.569  -0.296  -6.245  0.00  0.00     0.259 A 
ATOM     16  O   LIG d   1       3.135   0.805  -6.541  0.00  0.00    -0.267 OA
ATOM     17  N   LIG d   1       3.866  -0.576  -4.952  0.00  0.00    -0.311 N 
ATOM     18  C   LIG d   1       3.452   0.412  -3.955  0.00  0.00     0.031 C 
ATOM     19  H   LIG d   1       5.588   1.767  -3.157  0.00  0.00     0.047 H 
ATOM     20  H   LIG d   1       6.003   0.854  -1.689  0.00  0.00     0.047 H 
ATOM     21  H   LIG d   1       4.602  -1.340  -1.229  0.00  0.00     0.028 H 
ATOM     22  H   LIG d   1       3.137  -1.602  -2.210  0.00  0.00     0.028 H 
ATOM     23  H   LIG d   1       6.833  -1.713  -2.150  0.00  0.00     0.047 H 
ATOM     24  H   LIG d   1       7.054  -2.090  -3.881  0.00  0.00     0.047 H 
ATOM     25  H   LIG d   1       5.141  -3.636  -5.293  0.00  0.00     0.064 H 
ATOM     26  H   LIG d   1       4.459  -3.260  -7.648  0.00  0.00     0.063 H 
ATOM     27  H   LIG d   1       2.379   0.312  -3.785  0.00  0.00     0.050 H 
ATOM     28  H   LIG d   1       3.655   1.410  -4.341  0.00  0.00     0.050 H 
ENDROOT
BRANCH   1  29
ATOM     29  C   LIG d   1       8.206  -0.534  -5.164  0.00  0.00     0.039 C 
BRANCH  29  30
ATOM     30  C   LIG d   1       9.570   0.150  -5.260  0.00  0.00    -0.052 C 
ATOM     31  H   LIG d   1       9.867   0.509  -4.274  0.00  0.00     0.024 H 
ATOM     32  H   LIG d   1      10.310  -0.564  -5.623  0.00  0.00     0.024 H 
ATOM     33  H   LIG d   1       9.508   0.992  -5.950  0.00  0.00     0.024 H 
ENDBRANCH  29  30
BRANCH  29  34
ATOM     34  C   LIG d   1       8.344  -1.842  -4.384  0.00  0.00    -0.052 C 
ATOM     35  H   LIG d   1       7.374  -2.128  -3.978  0.00  0.00     0.024 H 
ATOM     36  H   LIG d   1       8.704  -2.627  -5.049  0.00  0.00     0.024 H 
ATOM     37  H   LIG d   1       9.053  -1.705  -3.567  0.00  0.00     0.024 H 
ENDBRANCH  29  34
BRANCH  29  38
ATOM     38  C   LIG d   1       7.685  -0.832  -6.572  0.00  0.00    -0.052 C 
ATOM     39  H   LIG d   1       6.773  -1.424  -6.505  0.00  0.00     0.024 H 
ATOM     40  H   LIG d   1       7.474   0.105  -7.088  0.00  0.00     0.024 H 
ATOM     41  H   LIG d   1       8.440  -1.390  -7.128  0.00  0.00     0.024 H 
ENDBRANCH  29  38
ENDBRANCH   1  29
BRANCH  14  42
ATOM     42  C   LIG d   1       3.367  -0.987  -8.655  0.00  0.00    -0.012 A 
ATOM     43  C   LIG d   1       4.332  -0.975  -9.662  0.00  0.00    -0.042 A 
ATOM     44  C   LIG d   1       3.961  -0.718 -10.966  0.00  0.00     0.055 A 
ATOM     45  H   LIG d   1       5.367  -1.169  -9.422  0.00  0.00     0.063 H 
ATOM     46  C   LIG d   1       2.638  -0.463 -11.274  0.00  0.00    -0.050 A 
ATOM     47  C   LIG d   1       1.676  -0.468 -10.279  0.00  0.00    -0.061 A 
ATOM     48  H   LIG d   1       2.353  -0.257 -12.296  0.00  0.00     0.062 H 
ATOM     49  C   LIG d   1       2.033  -0.728  -8.972  0.00  0.00    -0.054 A 
ATOM     50  H   LIG d   1       0.645  -0.268 -10.526  0.00  0.00     0.062 H 
ATOM     51  H   LIG d   1       1.283  -0.731  -8.196  0.00  0.00     0.062 H 
BRANCH  44  52
ATOM     52  C   LIG d   1       5.002  -0.710 -12.056  0.00  0.00     0.417 C 
ATOM     53  F   LIG d   1       4.518   0.002 -13.158  0.00  0.00    -0.166 F 
ATOM     54  F   LIG d   1       6.169  -0.100 -11.582  0.00  0.00    -0.166 F 
ATOM     55  F   LIG d   1       5.286  -2.025 -12.438  0.00  0.00    -0.166 F 
ENDBRANCH  44  52
ENDBRANCH  14  42
TORSDOF 6
ENDMDL
MODEL 3
REMARK VINA RESULT:      -7.4      4.132      7.632
REMARK  6 active torsions:
REMARK  status: ('A' for Active; 'I' for Inactive)
REMARK    1  A    between atoms: C_1  and  C_2 
REMARK    2  A    between atoms: C_2  and  C_3 
REMARK    3  A    between atoms: C_2  and  C_4 
REMARK    4  A    between atoms: C_2  and  C_5 
REMARK       I    between atoms: C_5  and  N_7 
REMARK    5  A    between atoms: C_18  and  C_23 
REMARK    6  A    between atoms: C_27  and  C_29 
ROOT
ATOM      1  C   LIG d   1       2.375  -3.064 -10.287  0.00  0.00     0.221 C 
ATOM      2  O   LIG d   1       1.257  -2.829  -9.880  0.00  0.00    -0.275 OA
ATOM      3  N   LIG d   1       3.049  -2.124 -10.981  0.00  0.00    -0.300 N 
ATOM      4  C   LIG d   1       2.406  -0.871 -11.345  0.00  0.00     0.019 C 
ATOM      5  C   LIG d   1       3.276   0.319 -10.963  0.00  0.00    -0.006 C 
ATOM      6  H   LIG d   1       2.867   1.206 -11.447  0.00  0.00     0.033 H 
ATOM      7  C   LIG d   1       4.712   0.131 -11.453  0.00  0.00    -0.037 C 
ATOM      8  C   LIG d   1       5.267  -1.156 -10.837  0.00  0.00     0.016 C 
ATOM      9  H   LIG d   1       6.318  -1.273 -11.100  0.00  0.00     0.038 H 
ATOM     10  C   LIG d   1       4.449  -2.343 -11.376  0.00  0.00     0.023 C 
ATOM     11  C   LIG d   1       5.090  -1.122  -9.336  0.00  0.00     0.027 A 
ATOM     12  C   LIG d   1       5.962  -1.856  -8.592  0.00  0.00    -0.041 A 
ATOM     13  C   LIG d   1       5.833  -1.930  -7.204  0.00  0.00    -0.047 A 
ATOM     14  C   LIG d   1       4.780  -1.260  -6.599  0.00  0.00     0.047 A 
ATOM     15  C   LIG d   1       3.898  -0.512  -7.409  0.00  0.00     0.259 A 
ATOM     16  O   LIG d   1       2.933   0.036  -6.903  0.00  0.00    -0.267 OA
ATOM     17  N   LIG d   1       4.113  -0.397  -8.743  0.00  0.00    -0.311 N 
ATOM     18  C   LIG d   1       3.269   0.555  -9.465  0.00  0.00     0.031 C 
ATOM     19  H   LIG d   1       1.444  -0.791 -10.840  0.00  0.00     0.047 H 
ATOM     20  H   LIG d   1       2.246  -0.870 -12.424  0.00  0.00     0.047 H 
ATOM     21  H   LIG d   1       4.721   0.051 -12.540  0.00  0.00     0.028 H 
ATOM     22  H   LIG d   1       5.320   0.979 -11.141  0.00  0.00     0.028 H 
ATOM     23  H   LIG d   1       4.527  -2.382 -12.463  0.00  0.00     0.047 H 
ATOM     24  H   LIG d   1       4.817  -3.272 -10.943  0.00  0.00     0.047 H 
ATOM     25  H   LIG d   1       6.765  -2.387  -9.081  0.00  0.00     0.064 H 
ATOM     26  H   LIG d   1       6.537  -2.498  -6.614  0.00  0.00     0.063 H 
ATOM     27  H   LIG d   1       3.629   1.565  -9.266  0.00  0.00     0.050 H 
ATOM     28  H   LIG d   1       2.246   0.469  -9.098  0.00  0.00     0.050 H 
ENDROOT
BRANCH   1  29
ATOM     29  C   LIG d   1       3.011  -4.402 -10.017  0.00  0.00     0.039 C 
BRANCH  29  30
ATOM     30  C   LIG d   1       1.957  -5.503 -10.146  0.00  0.00    -0.052 C 
ATOM     31  H   LIG d   1       1.236  -5.228 -10.916  0.00  0.00     0.024 H 
ATOM     32  H   LIG d   1       2.441  -6.440 -10.421  0.00  0.00     0.024 H 
ATOM     33  H   LIG d   1       1.441  -5.626  -9.194  0.00  0.00     0.024 H 
ENDBRANCH  29  30
BRANCH  29  34
ATOM     34  C   LIG d   1       4.132  -4.648 -11.029  0.00  0.00    -0.052 C 
ATOM     35  H   LIG d   1       5.076  -4.777 -10.501  0.00  0.00     0.024 H 
ATOM     36  H   LIG d   1       3.912  -5.547 -11.604  0.00  0.00     0.024 H 
ATOM     37  H   LIG d   1       4.206  -3.794 -11.703  0.00  0.00     0.024 H 
ENDBRANCH  29  34
BRANCH  29  38
ATOM     38  C   LIG d   1       3.590  -4.415  -8.601  0.00  0.00    -0.052 C 
ATOM     39  H   LIG d   1       3.095  -5.187  -8.012  0.00  0.00     0.024 H 
ATOM     40  H   LIG d   1       4.660  -4.624  -8.648  0.00  0.00     0.024 H 
ATOM     41  H   LIG d   1       3.431  -3.442  -8.134  0.00  0.00     0.024 H 
ENDBRANCH  29  38
ENDBRANCH   1  29
BRANCH  14  42
ATOM     42  C   LIG d   1       4.587  -1.328  -5.132  0.00  0.00    -0.012 A 
ATOM     43  C   LIG d   1       4.605  -0.163  -4.368  0.00  0.00    -0.042 A 
ATOM     44  C   LIG d   1       4.421  -0.233  -3.002  0.00  0.00     0.055 A 
ATOM     45  H   LIG d   1       4.761   0.795  -4.844  0.00  0.00     0.063 H 
ATOM     46  C   LIG d   1       4.228  -1.457  -2.390  0.00  0.00    -0.050 A 
ATOM     47  C   LIG d   1       4.213  -2.619  -3.142  0.00  0.00    -0.061 A 
ATOM     48  H   LIG d   1       4.088  -1.508  -1.320  0.00  0.00     0.062 H 
ATOM     49  C   LIG d   1       4.392  -2.561  -4.508  0.00  0.00    -0.054 A 
ATOM     50  H   LIG d   1       4.062  -3.572  -2.658  0.00  0.00     0.062 H 
ATOM     51  H   LIG d   1       4.382  -3.468  -5.094  0.00  0.00     0.062 H 
BRANCH  44  52
ATOM     52  C   LIG d   1       4.435   1.027  -2.175  0.00  0.00     0.417 C 
ATOM     53  F   LIG d   1       5.379   1.917  -2.698  0.00  0.00    -0.166 F 
ATOM     54  F   LIG d   1       3.167   1.620  -2.207  0.00  0.00    -0.166 F 
ATOM     55  F   LIG d   1       4.770   0.714  -0.854  0.00  0.00    -0.166 F 
ENDBRANCH  44  52
ENDBRANCH  14  42
TORSDOF 6
ENDMDL
MODEL 4
REMARK VINA RESULT:      -6.9      4.286      7.382
REMARK  6 active torsions:
REMARK  status: ('A' for Active; 'I' for Inactive)
REMARK    1  A    between atoms: C_1  and  C_2 
REMARK    2  A    between atoms: C_2  and  C_3 
REMARK    3  A    between atoms: C_2  and  C_4 
REMARK    4  A    between atoms: C_2  and  C_5 
REMARK       I    between atoms: C_5  and  N_7 
REMARK    5  A    between atoms: C_18  and  C_23 
REMARK    6  A    between atoms: C_27  and  C_29 
ROOT
ATOM      1  C   LIG d   1       5.647  -2.374 -11.146  0.00  0.00     0.221 C 
ATOM      2  O   LIG d   1       6.588  -3.052 -10.791  0.00  0.00    -0.275 OA
ATOM      3  N   LIG d   1       4.413  -2.912 -11.202  0.00  0.00    -0.300 N 
ATOM      4  C   LIG d   1       4.213  -4.331 -10.950  0.00  0.00     0.019 C 
ATOM      5  C   LIG d   1       3.098  -4.553  -9.938  0.00  0.00    -0.006 C 
ATOM      6  H   LIG d   1       2.836  -5.611  -9.950  0.00  0.00     0.033 H 
ATOM      7  C   LIG d   1       1.849  -3.753 -10.309  0.00  0.00    -0.037 C 
ATOM      8  C   LIG d   1       2.228  -2.270 -10.370  0.00  0.00     0.016 C 
ATOM      9  H   LIG d   1       1.340  -1.665 -10.549  0.00  0.00     0.038 H 
ATOM     10  C   LIG d   1       3.242  -2.076 -11.511  0.00  0.00     0.023 C 
ATOM     11  C   LIG d   1       2.904  -1.862  -9.081  0.00  0.00     0.027 A 
ATOM     12  C   LIG d   1       2.816  -0.552  -8.723  0.00  0.00    -0.041 A 
ATOM     13  C   LIG d   1       3.464  -0.077  -7.581  0.00  0.00    -0.047 A 
ATOM     14  C   LIG d   1       4.221  -0.964  -6.831  0.00  0.00     0.047 A 
ATOM     15  C   LIG d   1       4.287  -2.314  -7.239  0.00  0.00     0.259 A 
ATOM     16  O   LIG d   1       4.994  -3.096  -6.627  0.00  0.00    -0.267 OA
ATOM     17  N   LIG d   1       3.571  -2.749  -8.306  0.00  0.00    -0.311 N 
ATOM     18  C   LIG d   1       3.542  -4.194  -8.533  0.00  0.00     0.031 C 
ATOM     19  H   LIG d   1       5.136  -4.771 -10.574  0.00  0.00     0.047 H 
ATOM     20  H   LIG d   1       3.946  -4.811 -11.893  0.00  0.00     0.047 H 
ATOM     21  H   LIG d   1       1.481  -4.077 -11.282  0.00  0.00     0.028 H 
ATOM     22  H   LIG d   1       1.078  -3.904  -9.554  0.00  0.00     0.028 H 
ATOM     23  H   LIG d   1       2.799  -2.391 -12.457  0.00  0.00     0.047 H 
ATOM     24  H   LIG d   1       3.538  -1.029 -11.569  0.00  0.00     0.047 H 
ATOM     25  H   LIG d   1       2.238   0.129  -9.330  0.00  0.00     0.064 H 
ATOM     26  H   LIG d   1       3.378   0.959  -7.289  0.00  0.00     0.063 H 
ATOM     27  H   LIG d   1       2.854  -4.648  -7.819  0.00  0.00     0.050 H 
ATOM     28  H   LIG d   1       4.540  -4.598  -8.364  0.00  0.00     0.050 H 
ENDROOT
BRANCH   1  29
ATOM     29  C   LIG d   1       5.858  -0.930 -11.522  0.00  0.00     0.039 C 
BRANCH  29  30
ATOM     30  C   LIG d   1       4.688  -0.451 -12.383  0.00  0.00    -0.052 C 
ATOM     31  H   LIG d   1       3.778  -0.968 -12.078  0.00  0.00     0.024 H 
ATOM     32  H   LIG d   1       4.557   0.623 -12.253  0.00  0.00     0.024 H 
ATOM     33  H   LIG d   1       4.895  -0.668 -13.431  0.00  0.00     0.024 H 
ENDBRANCH  29  30
BRANCH  29  34
ATOM     34  C   LIG d   1       5.941  -0.079 -10.254  0.00  0.00    -0.052 C 
ATOM     35  H   LIG d   1       6.851   0.520 -10.276  0.00  0.00     0.024 H 
ATOM     36  H   LIG d   1       5.074   0.580 -10.200  0.00  0.00     0.024 H 
ATOM     37  H   LIG d   1       5.957  -0.731  -9.380  0.00  0.00     0.024 H 
ENDBRANCH  29  34
BRANCH  29  38
ATOM     38  C   LIG d   1       7.161  -0.795 -12.313  0.00  0.00    -0.052 C 
ATOM     39  H   LIG d   1       7.124   0.107 -12.924  0.00  0.00     0.024 H 
ATOM     40  H   LIG d   1       8.002  -0.730 -11.620  0.00  0.00     0.024 H 
ATOM     41  H   LIG d   1       7.288  -1.666 -12.956  0.00  0.00     0.024 H 
ENDBRANCH  29  38
ENDBRANCH   1  29
BRANCH  14  42
ATOM     42  C   LIG d   1       4.946  -0.503  -5.624  0.00  0.00    -0.012 A 
ATOM     43  C   LIG d   1       4.281  -0.400  -4.403  0.00  0.00    -0.042 A 
ATOM     44  C   LIG d   1       4.964   0.026  -3.282  0.00  0.00     0.055 A 
ATOM     45  H   LIG d   1       3.234  -0.657  -4.334  0.00  0.00     0.063 H 
ATOM     46  C   LIG d   1       6.302   0.362  -3.370  0.00  0.00    -0.050 A 
ATOM     47  C   LIG d   1       6.967   0.267  -4.580  0.00  0.00    -0.061 A 
ATOM     48  H   LIG d   1       6.831   0.699  -2.491  0.00  0.00     0.062 H 
ATOM     49  C   LIG d   1       6.297  -0.162  -5.707  0.00  0.00    -0.054 A 
ATOM     50  H   LIG d   1       8.012   0.530  -4.642  0.00  0.00     0.062 H 
ATOM     51  H   LIG d   1       6.816  -0.235  -6.650  0.00  0.00     0.062 H 
BRANCH  44  52
ATOM     52  C   LIG d   1       4.247   0.132  -1.960  0.00  0.00     0.417 C 
ATOM     53  F   LIG d   1       4.810   1.167  -1.206  0.00  0.00    -0.166 F 
ATOM     54  F   LIG d   1       2.893   0.402  -2.185  0.00  0.00    -0.166 F 
ATOM     55  F   LIG d   1       4.374  -1.074  -1.264  0.00  0.00    -0.166 F 
ENDBRANCH  44  52
ENDBRANCH  14  42
TORSDOF 6
ENDMDL
MODEL 5
REMARK VINA RESULT:      -6.7      3.721      6.158
REMARK  6 active torsions:
REMARK  status: ('A' for Active; 'I' for Inactive)
REMARK    1  A    between atoms: C_1  and  C_2 
REMARK    2  A    between atoms: C_2  and  C_3 
REMARK    3  A    between atoms: C_2  and  C_4 
REMARK    4  A    between atoms: C_2  and  C_5 
REMARK       I    between atoms: C_5  and  N_7 
REMARK    5  A    between atoms: C_18  and  C_23 
REMARK    6  A    between atoms: C_27  and  C_29 
ROOT
ATOM      1  C   LIG d   1       9.213   1.899  -7.603  0.00  0.00     0.221 C 
ATOM      2  O   LIG d   1       8.523   2.896  -7.572  0.00  0.00    -0.275 OA
ATOM      3  N   LIG d   1      10.281   1.795  -6.786  0.00  0.00    -0.300 N 
ATOM      4  C   LIG d   1      10.681   2.912  -5.945  0.00  0.00     0.019 C 
ATOM      5  C   LIG d   1      10.881   2.466  -4.504  0.00  0.00    -0.006 C 
ATOM      6  H   LIG d   1      11.388   3.269  -3.968  0.00  0.00     0.033 H 
ATOM      7  C   LIG d   1      11.763   1.219  -4.431  0.00  0.00    -0.037 C 
ATOM      8  C   LIG d   1      11.095   0.108  -5.246  0.00  0.00     0.016 C 
ATOM      9  H   LIG d   1      11.657  -0.820  -5.144  0.00  0.00     0.038 H 
ATOM     10  C   LIG d   1      11.057   0.546  -6.721  0.00  0.00     0.023 C 
ATOM     11  C   LIG d   1       9.667  -0.076  -4.785  0.00  0.00     0.027 A 
ATOM     12  C   LIG d   1       9.109  -1.303  -4.970  0.00  0.00    -0.041 A 
ATOM     13  C   LIG d   1       7.777  -1.543  -4.631  0.00  0.00    -0.047 A 
ATOM     14  C   LIG d   1       7.023  -0.495  -4.124  0.00  0.00     0.047 A 
ATOM     15  C   LIG d   1       7.641   0.763  -3.950  0.00  0.00     0.259 A 
ATOM     16  O   LIG d   1       6.980   1.711  -3.561  0.00  0.00    -0.267 OA
ATOM     17  N   LIG d   1       8.961   0.926  -4.211  0.00  0.00    -0.311 N 
ATOM     18  C   LIG d   1       9.556   2.203  -3.814  0.00  0.00     0.031 C 
ATOM     19  H   LIG d   1       9.918   3.690  -5.980  0.00  0.00     0.047 H 
ATOM     20  H   LIG d   1      11.618   3.313  -6.333  0.00  0.00     0.047 H 
ATOM     21  H   LIG d   1      12.746   1.439  -4.847  0.00  0.00     0.028 H 
ATOM     22  H   LIG d   1      11.865   0.902  -3.394  0.00  0.00     0.028 H 
ATOM     23  H   LIG d   1      12.071   0.720  -7.082  0.00  0.00     0.047 H 
ATOM     24  H   LIG d   1      10.574  -0.223  -7.323  0.00  0.00     0.047 H 
ATOM     25  H   LIG d   1       9.705  -2.103  -5.384  0.00  0.00     0.064 H 
ATOM     26  H   LIG d   1       7.341  -2.522  -4.762  0.00  0.00     0.063 H 
ATOM     27  H   LIG d   1       9.717   2.194  -2.735  0.00  0.00     0.050 H 
ATOM     28  H   LIG d   1       8.864   3.007  -4.059  0.00  0.00     0.050 H 
ENDROOT
BRANCH   1  29
ATOM     29  C   LIG d   1       8.879   0.779  -8.553  0.00  0.00     0.039 C 
BRANCH  29  30
ATOM     30  C   LIG d   1      10.113  -0.100  -8.762  0.00  0.00    -0.052 C 
ATOM     31  H   LIG d   1       9.803  -1.083  -9.116  0.00  0.00     0.024 H 
ATOM     32  H   LIG d   1      10.767   0.362  -9.501  0.00  0.00     0.024 H 
ATOM     33  H   LIG d   1      10.648  -0.205  -7.818  0.00  0.00     0.024 H 
ENDBRANCH  29  30
BRANCH  29  34
ATOM     34  C   LIG d   1       7.745  -0.064  -7.968  0.00  0.00    -0.052 C 
ATOM     35  H   LIG d   1       8.164  -0.879  -7.379  0.00  0.00     0.024 H 
ATOM     36  H   LIG d   1       7.119   0.559  -7.330  0.00  0.00     0.024 H 
ATOM     37  H   LIG d   1       7.142  -0.475  -8.779  0.00  0.00     0.024 H 
ENDBRANCH  29  34
BRANCH  29  38
ATOM     38  C   LIG d   1       8.437   1.365  -9.897  0.00  0.00    -0.052 C 
ATOM     39  H   LIG d   1       8.953   2.309 -10.069  0.00  0.00     0.024 H 
ATOM     40  H   LIG d   1       8.683   0.665 -10.697  0.00  0.00     0.024 H 
ATOM     41  H   LIG d   1       7.360   1.536  -9.882  0.00  0.00     0.024 H 
ENDBRANCH  29  38
ENDBRANCH   1  29
BRANCH  14  42
ATOM     42  C   LIG d   1       5.597  -0.693  -3.771  0.00  0.00    -0.012 A 
ATOM     43  C   LIG d   1       4.597  -0.090  -4.532  0.00  0.00    -0.042 A 
ATOM     44  C   LIG d   1       3.271  -0.281  -4.201  0.00  0.00     0.055 A 
ATOM     45  H   LIG d   1       4.859   0.525  -5.382  0.00  0.00     0.063 H 
ATOM     46  C   LIG d   1       2.934  -1.062  -3.111  0.00  0.00    -0.050 A 
ATOM     47  C   LIG d   1       3.922  -1.660  -2.348  0.00  0.00    -0.061 A 
ATOM     48  H   LIG d   1       1.895  -1.205  -2.853  0.00  0.00     0.062 H 
ATOM     49  C   LIG d   1       5.251  -1.479  -2.672  0.00  0.00    -0.054 A 
ATOM     50  H   LIG d   1       3.652  -2.267  -1.498  0.00  0.00     0.062 H 
ATOM     51  H   LIG d   1       6.021  -1.945  -2.076  0.00  0.00     0.062 H 
BRANCH  44  52
ATOM     52  C   LIG d   1       2.189   0.366  -5.027  0.00  0.00     0.417 C 
ATOM     53  F   LIG d   1       0.942  -0.132  -4.633  0.00  0.00    -0.166 F 
ATOM     54  F   LIG d   1       2.220   1.751  -4.833  0.00  0.00    -0.166 F 
ATOM     55  F   LIG d   1       2.400   0.078  -6.379  0.00  0.00    -0.166 F 
ENDBRANCH  44  52
ENDBRANCH  14  42
TORSDOF 6
ENDMDL
MODEL 6
REMARK VINA RESULT:      -6.7      5.083      7.323
REMARK  6 active torsions:
REMARK  status: ('A' for Active; 'I' for Inactive)
REMARK    1  A    between atoms: C_1  and  C_2 
REMARK    2  A    between atoms: C_2  and  C_3 
REMARK    3  A    between atoms: C_2  and  C_4 
REMARK    4  A    between atoms: C_2  and  C_5 
REMARK       I    between atoms: C_5  and  N_7 
REMARK    5  A    between atoms: C_18  and  C_23 
REMARK    6  A    between atoms: C_27  and  C_29 
ROOT
ATOM      1  C   LIG d   1       4.164  -0.150  -4.463  0.00  0.00     0.221 C 
ATOM      2  O   LIG d   1       3.513   0.699  -5.033  0.00  0.00    -0.275 OA
ATOM      3  N   LIG d   1       4.500  -1.285  -5.108  0.00  0.00    -0.300 N 
ATOM      4  C   LIG d   1       3.995  -1.554  -6.446  0.00  0.00     0.019 C 
ATOM      5  C   LIG d   1       5.124  -1.952  -7.385  0.00  0.00    -0.006 C 
ATOM      6  H   LIG d   1       4.681  -2.354  -8.296  0.00  0.00     0.033 H 
ATOM      7  C   LIG d   1       5.999  -3.042  -6.765  0.00  0.00    -0.037 C 
ATOM      8  C   LIG d   1       6.564  -2.512  -5.444  0.00  0.00     0.016 C 
ATOM      9  H   LIG d   1       7.261  -3.235  -5.019  0.00  0.00     0.038 H 
ATOM     10  C   LIG d   1       5.392  -2.272  -4.477  0.00  0.00     0.023 C 
ATOM     11  C   LIG d   1       7.247  -1.184  -5.677  0.00  0.00     0.027 A 
ATOM     12  C   LIG d   1       8.239  -0.836  -4.812  0.00  0.00    -0.041 A 
ATOM     13  C   LIG d   1       8.880   0.399  -4.916  0.00  0.00    -0.047 A 
ATOM     14  C   LIG d   1       8.467   1.279  -5.906  0.00  0.00     0.047 A 
ATOM     15  C   LIG d   1       7.433   0.879  -6.780  0.00  0.00     0.259 A 
ATOM     16  O   LIG d   1       7.015   1.660  -7.619  0.00  0.00    -0.267 OA
ATOM     17  N   LIG d   1       6.899  -0.365  -6.696  0.00  0.00    -0.311 N 
ATOM     18  C   LIG d   1       5.980  -0.758  -7.765  0.00  0.00     0.031 C 
ATOM     19  H   LIG d   1       3.498  -0.666  -6.836  0.00  0.00     0.047 H 
ATOM     20  H   LIG d   1       3.274  -2.369  -6.381  0.00  0.00     0.047 H 
ATOM     21  H   LIG d   1       5.398  -3.931  -6.576  0.00  0.00     0.028 H 
ATOM     22  H   LIG d   1       6.816  -3.287  -7.442  0.00  0.00     0.028 H 
ATOM     23  H   LIG d   1       4.854  -3.205  -4.308  0.00  0.00     0.047 H 
ATOM     24  H   LIG d   1       5.767  -1.882  -3.531  0.00  0.00     0.047 H 
ATOM     25  H   LIG d   1       8.535  -1.526  -4.035  0.00  0.00     0.064 H 
ATOM     26  H   LIG d   1       9.679   0.665  -4.240  0.00  0.00     0.063 H 
ATOM     27  H   LIG d   1       6.562  -1.010  -8.653  0.00  0.00     0.050 H 
ATOM     28  H   LIG d   1       5.329   0.083  -7.999  0.00  0.00     0.050 H 
ENDROOT
BRANCH   1  29
ATOM     29  C   LIG d   1       4.597   0.063  -3.036  0.00  0.00     0.039 C 
BRANCH  29  30
ATOM     30  C   LIG d   1       4.758  -1.291  -2.344  0.00  0.00    -0.052 C 
ATOM     31  H   LIG d   1       3.775  -1.732  -2.174  0.00  0.00     0.024 H 
ATOM     32  H   LIG d   1       5.348  -1.955  -2.976  0.00  0.00     0.024 H 
ATOM     33  H   LIG d   1       5.264  -1.154  -1.388  0.00  0.00     0.024 H 
ENDBRANCH  29  30
BRANCH  29  34
ATOM     34  C   LIG d   1       5.932   0.809  -3.014  0.00  0.00    -0.052 C 
ATOM     35  H   LIG d   1       6.005   1.398  -2.100  0.00  0.00     0.024 H 
ATOM     36  H   LIG d   1       6.751   0.091  -3.049  0.00  0.00     0.024 H 
ATOM     37  H   LIG d   1       5.992   1.471  -3.878  0.00  0.00     0.024 H 
ENDBRANCH  29  34
BRANCH  29  38
ATOM     38  C   LIG d   1       3.539   0.889  -2.301  0.00  0.00    -0.052 C 
ATOM     39  H   LIG d   1       3.409   1.845  -2.805  0.00  0.00     0.024 H 
ATOM     40  H   LIG d   1       2.592   0.347  -2.298  0.00  0.00     0.024 H 
ATOM     41  H   LIG d   1       3.862   1.060  -1.273  0.00  0.00     0.024 H 
ENDBRANCH  29  38
ENDBRANCH   1  29
BRANCH  14  42
ATOM     42  C   LIG d   1       9.099   2.612  -6.041  0.00  0.00    -0.012 A 
ATOM     43  C   LIG d   1       9.108   3.496  -4.964  0.00  0.00    -0.042 A 
ATOM     44  C   LIG d   1       9.703   4.735  -5.095  0.00  0.00     0.055 A 
ATOM     45  H   LIG d   1       8.653   3.211  -4.026  0.00  0.00     0.063 H 
ATOM     46  C   LIG d   1      10.279   5.103  -6.297  0.00  0.00    -0.050 A 
ATOM     47  C   LIG d   1      10.269   4.233  -7.372  0.00  0.00    -0.061 A 
ATOM     48  H   LIG d   1      10.739   6.076  -6.397  0.00  0.00     0.062 H 
ATOM     49  C   LIG d   1       9.682   2.990  -7.251  0.00  0.00    -0.054 A 
ATOM     50  H   LIG d   1      10.721   4.527  -8.307  0.00  0.00     0.062 H 
ATOM     51  H   LIG d   1       9.674   2.312  -8.091  0.00  0.00     0.062 H 
BRANCH  44  52
ATOM     52  C   LIG d   1       9.718   5.689  -3.929  0.00  0.00     0.417 C 
ATOM     53  F   LIG d   1       8.699   6.635  -4.087  0.00  0.00    -0.166 F 
ATOM     54  F   LIG d   1       9.515   4.978  -2.742  0.00  0.00    -0.166 F 
ATOM     55  F   LIG d   1      10.955   6.341  -3.877  0.00  0.00    -0.166 F 
ENDBRANCH  44  52
ENDBRANCH  14  42
TORSDOF 6
ENDMDL
MODEL 7
REMARK VINA RESULT:      -6.4      3.826      7.407
REMARK  6 active torsions:
REMARK  status: ('A' for Active; 'I' for Inactive)
REMARK    1  A    between atoms: C_1  and  C_2 
REMARK    2  A    between atoms: C_2  and  C_3 
REMARK    3  A    between atoms: C_2  and  C_4 
REMARK    4  A    between atoms: C_2  and  C_5 
REMARK       I    between atoms: C_5  and  N_7 
REMARK    5  A    between atoms: C_18  and  C_23 
REMARK    6  A    between atoms: C_27  and  C_29 
ROOT
ATOM      1  C   LIG d   1       2.716  -2.859 -10.002  0.00  0.00     0.221 C 
ATOM      2  O   LIG d   1       1.686  -2.477  -9.489  0.00  0.00    -0.275 OA
ATOM      3  N   LIG d   1       3.326  -2.101 -10.934  0.00  0.00    -0.300 N 
ATOM      4  C   LIG d   1       2.702  -0.878 -11.416  0.00  0.00     0.019 C 
ATOM      5  C   LIG d   1       3.680   0.288 -11.370  0.00  0.00    -0.006 C 
ATOM      6  H   LIG d   1       3.250   1.113 -11.938  0.00  0.00     0.033 H 
ATOM      7  C   LIG d   1       5.014  -0.087 -12.016  0.00  0.00    -0.037 C 
ATOM      8  C   LIG d   1       5.588  -1.295 -11.271  0.00  0.00     0.016 C 
ATOM      9  H   LIG d   1       6.580  -1.534 -11.653  0.00  0.00     0.038 H 
ATOM     10  C   LIG d   1       4.638  -2.488 -11.478  0.00  0.00     0.023 C 
ATOM     11  C   LIG d   1       5.641  -1.003  -9.789  0.00  0.00     0.027 A 
ATOM     12  C   LIG d   1       6.576  -1.671  -9.058  0.00  0.00    -0.041 A 
ATOM     13  C   LIG d   1       6.653  -1.508  -7.674  0.00  0.00    -0.047 A 
ATOM     14  C   LIG d   1       5.740  -0.669  -7.052  0.00  0.00     0.047 A 
ATOM     15  C   LIG d   1       4.786   0.003  -7.848  0.00  0.00     0.259 A 
ATOM     16  O   LIG d   1       3.938   0.698  -7.315  0.00  0.00    -0.267 OA
ATOM     17  N   LIG d   1       4.804  -0.119  -9.199  0.00  0.00    -0.311 N 
ATOM     18  C   LIG d   1       3.911   0.765  -9.949  0.00  0.00     0.031 C 
ATOM     19  H   LIG d   1       1.832  -0.643 -10.803  0.00  0.00     0.047 H 
ATOM     20  H   LIG d   1       2.382  -1.040 -12.445  0.00  0.00     0.047 H 
ATOM     21  H   LIG d   1       4.856  -0.344 -13.063  0.00  0.00     0.028 H 
ATOM     22  H   LIG d   1       5.706   0.751 -11.943  0.00  0.00     0.028 H 
ATOM     23  H   LIG d   1       4.548  -2.710 -12.541  0.00  0.00     0.047 H 
ATOM     24  H   LIG d   1       5.017  -3.360 -10.946  0.00  0.00     0.047 H 
ATOM     25  H   LIG d   1       7.267  -2.335  -9.556  0.00  0.00     0.064 H 
ATOM     26  H   LIG d   1       7.407  -2.025  -7.099  0.00  0.00     0.063 H 
ATOM     27  H   LIG d   1       4.350   1.764  -9.980  0.00  0.00     0.050 H 
ATOM     28  H   LIG d   1       2.953   0.819  -9.434  0.00  0.00     0.050 H 
ENDROOT
BRANCH   1  29
ATOM     29  C   LIG d   1       3.314  -4.181  -9.596  0.00  0.00     0.039 C 
BRANCH  29  30
ATOM     30  C   LIG d   1       4.409  -4.572 -10.590  0.00  0.00    -0.052 C 
ATOM     31  H   LIG d   1       4.736  -3.687 -11.137  0.00  0.00     0.024 H 
ATOM     32  H   LIG d   1       5.255  -4.998 -10.051  0.00  0.00     0.024 H 
ATOM     33  H   LIG d   1       4.017  -5.308 -11.292  0.00  0.00     0.024 H 
ENDBRANCH  29  30
BRANCH  29  34
ATOM     34  C   LIG d   1       3.916  -4.061  -8.195  0.00  0.00    -0.052 C 
ATOM     35  H   LIG d   1       4.477  -3.129  -8.119  0.00  0.00     0.024 H 
ATOM     36  H   LIG d   1       3.117  -4.064  -7.454  0.00  0.00     0.024 H 
ATOM     37  H   LIG d   1       4.585  -4.903  -8.013  0.00  0.00     0.024 H 
ENDBRANCH  29  34
BRANCH  29  38
ATOM     38  C   LIG d   1       2.224  -5.255  -9.592  0.00  0.00    -0.052 C 
ATOM     39  H   LIG d   1       1.555  -5.090  -8.748  0.00  0.00     0.024 H 
ATOM     40  H   LIG d   1       1.656  -5.200 -10.522  0.00  0.00     0.024 H 
ATOM     41  H   LIG d   1       2.683  -6.240  -9.505  0.00  0.00     0.024 H 
ENDBRANCH  29  38
ENDBRANCH   1  29
BRANCH  14  42
ATOM     42  C   LIG d   1       5.767  -0.482  -5.583  0.00  0.00    -0.012 A 
ATOM     43  C   LIG d   1       4.860  -1.165  -4.773  0.00  0.00    -0.042 A 
ATOM     44  C   LIG d   1       4.893  -0.990  -3.405  0.00  0.00     0.055 A 
ATOM     45  H   LIG d   1       4.135  -1.833  -5.216  0.00  0.00     0.063 H 
ATOM     46  C   LIG d   1       5.815  -0.131  -2.837  0.00  0.00    -0.050 A 
ATOM     47  C   LIG d   1       6.715   0.554  -3.636  0.00  0.00    -0.061 A 
ATOM     48  H   LIG d   1       5.834   0.007  -1.766  0.00  0.00     0.062 H 
ATOM     49  C   LIG d   1       6.695   0.384  -5.005  0.00  0.00    -0.054 A 
ATOM     50  H   LIG d   1       7.433   1.224  -3.186  0.00  0.00     0.062 H 
ATOM     51  H   LIG d   1       7.396   0.919  -5.627  0.00  0.00     0.062 H 
BRANCH  44  52
ATOM     52  C   LIG d   1       3.917  -1.732  -2.528  0.00  0.00     0.417 C 
ATOM     53  F   LIG d   1       3.920  -3.088  -2.872  0.00  0.00    -0.166 F 
ATOM     54  F   LIG d   1       4.293  -1.589  -1.188  0.00  0.00    -0.166 F 
ATOM     55  F   LIG d   1       2.634  -1.207  -2.711  0.00  0.00    -0.166 F 
ENDBRANCH  44  52
ENDBRANCH  14  42
TORSDOF 6
ENDMDL
MODEL 8
REMARK VINA RESULT:      -6.4      5.364      8.060
REMARK  6 active torsions:
REMARK  status: ('A' for Active; 'I' for Inactive)
REMARK    1  A    between atoms: C_1  and  C_2 
REMARK    2  A    between atoms: C_2  and  C_3 
REMARK    3  A    between atoms: C_2  and  C_4 
REMARK    4  A    between atoms: C_2  and  C_5 
REMARK       I    between atoms: C_5  and  N_7 
REMARK    5  A    between atoms: C_18  and  C_23 
REMARK    6  A    between atoms: C_27  and  C_29 
ROOT
ATOM      1  C   LIG d   1      12.584   2.242  -6.566  0.00  0.00     0.221 C 
ATOM      2  O   LIG d   1      12.514   1.293  -7.317  0.00  0.00    -0.275 OA
ATOM      3  N   LIG d   1      12.107   3.442  -6.952  0.00  0.00    -0.300 N 
ATOM      4  C   LIG d   1      11.609   3.640  -8.305  0.00  0.00     0.019 C 
ATOM      5  C   LIG d   1      10.236   4.297  -8.290  0.00  0.00    -0.006 C 
ATOM      6  H   LIG d   1      10.006   4.624  -9.304  0.00  0.00     0.033 H 
ATOM      7  C   LIG d   1      10.224   5.527  -7.382  0.00  0.00    -0.037 C 
ATOM      8  C   LIG d   1      10.621   5.087  -5.970  0.00  0.00     0.016 C 
ATOM      9  H   LIG d   1      10.539   5.927  -5.280  0.00  0.00     0.038 H 
ATOM     10  C   LIG d   1      12.071   4.574  -6.013  0.00  0.00     0.023 C 
ATOM     11  C   LIG d   1       9.742   3.940  -5.526  0.00  0.00     0.027 A 
ATOM     12  C   LIG d   1       9.558   3.783  -4.186  0.00  0.00    -0.041 A 
ATOM     13  C   LIG d   1       8.812   2.714  -3.686  0.00  0.00    -0.047 A 
ATOM     14  C   LIG d   1       8.282   1.799  -4.583  0.00  0.00     0.047 A 
ATOM     15  C   LIG d   1       8.499   1.999  -5.964  0.00  0.00     0.259 A 
ATOM     16  O   LIG d   1       8.091   1.174  -6.765  0.00  0.00    -0.267 OA
ATOM     17  N   LIG d   1       9.156   3.099  -6.408  0.00  0.00    -0.311 N 
ATOM     18  C   LIG d   1       9.157   3.323  -7.855  0.00  0.00     0.031 C 
ATOM     19  H   LIG d   1      11.544   2.680  -8.817  0.00  0.00     0.047 H 
ATOM     20  H   LIG d   1      12.311   4.282  -8.837  0.00  0.00     0.047 H 
ATOM     21  H   LIG d   1      10.937   6.263  -7.751  0.00  0.00     0.028 H 
ATOM     22  H   LIG d   1       9.224   5.960  -7.364  0.00  0.00     0.028 H 
ATOM     23  H   LIG d   1      12.734   5.367  -6.360  0.00  0.00     0.047 H 
ATOM     24  H   LIG d   1      12.375   4.243  -5.020  0.00  0.00     0.047 H 
ATOM     25  H   LIG d   1       9.994   4.495  -3.501  0.00  0.00     0.064 H 
ATOM     26  H   LIG d   1       8.652   2.602  -2.624  0.00  0.00     0.063 H 
ATOM     27  H   LIG d   1       8.185   3.719  -8.150  0.00  0.00     0.050 H 
ATOM     28  H   LIG d   1       9.316   2.371  -8.359  0.00  0.00     0.050 H 
ENDROOT
BRANCH   1  29
ATOM     29  C   LIG d   1      13.204   2.081  -5.203  0.00  0.00     0.039 C 
BRANCH  29  30
ATOM     30  C   LIG d   1      13.632   3.449  -4.671  0.00  0.00    -0.052 C 
ATOM     31  H   LIG d   1      13.247   4.230  -5.327  0.00  0.00     0.024 H 
ATOM     32  H   LIG d   1      13.233   3.590  -3.666  0.00  0.00     0.024 H 
ATOM     33  H   LIG d   1      14.720   3.504  -4.641  0.00  0.00     0.024 H 
ENDBRANCH  29  30
BRANCH  29  34
ATOM     34  C   LIG d   1      12.183   1.459  -4.248  0.00  0.00    -0.052 C 
ATOM     35  H   LIG d   1      12.077   2.090  -3.366  0.00  0.00     0.024 H 
ATOM     36  H   LIG d   1      11.219   1.375  -4.751  0.00  0.00     0.024 H 
ATOM     37  H   LIG d   1      12.523   0.468  -3.948  0.00  0.00     0.024 H 
ENDBRANCH  29  34
BRANCH  29  38
ATOM     38  C   LIG d   1      14.428   1.168  -5.304  0.00  0.00    -0.052 C 
ATOM     39  H   LIG d   1      14.161   0.260  -5.844  0.00  0.00     0.024 H 
ATOM     40  H   LIG d   1      15.226   1.687  -5.838  0.00  0.00     0.024 H 
ATOM     41  H   LIG d   1      14.772   0.908  -4.302  0.00  0.00     0.024 H 
ENDBRANCH  29  38
ENDBRANCH   1  29
BRANCH  14  42
ATOM     42  C   LIG d   1       7.504   0.634  -4.100  0.00  0.00    -0.012 A 
ATOM     43  C   LIG d   1       6.384   0.826  -3.293  0.00  0.00    -0.042 A 
ATOM     44  C   LIG d   1       5.661  -0.263  -2.850  0.00  0.00     0.055 A 
ATOM     45  H   LIG d   1       6.080   1.826  -3.017  0.00  0.00     0.063 H 
ATOM     46  C   LIG d   1       6.051  -1.543  -3.197  0.00  0.00    -0.050 A 
ATOM     47  C   LIG d   1       7.165  -1.741  -3.994  0.00  0.00    -0.061 A 
ATOM     48  H   LIG d   1       5.485  -2.392  -2.844  0.00  0.00     0.062 H 
ATOM     49  C   LIG d   1       7.893  -0.660  -4.447  0.00  0.00    -0.054 A 
ATOM     50  H   LIG d   1       7.465  -2.743  -4.261  0.00  0.00     0.062 H 
ATOM     51  H   LIG d   1       8.762  -0.815  -5.068  0.00  0.00     0.062 H 
BRANCH  44  52
ATOM     52  C   LIG d   1       4.446  -0.056  -1.981  0.00  0.00     0.417 C 
ATOM     53  F   LIG d   1       4.233  -1.196  -1.199  0.00  0.00    -0.166 F 
ATOM     54  F   LIG d   1       4.651   1.049  -1.148  0.00  0.00    -0.166 F 
ATOM     55  F   LIG d   1       3.328   0.171  -2.791  0.00  0.00    -0.166 F 
ENDBRANCH  44  52
ENDBRANCH  14  42
TORSDOF 6
ENDMDL
MODEL 9
REMARK VINA RESULT:      -6.3      4.309      6.984
REMARK  6 active torsions:
REMARK  status: ('A' for Active; 'I' for Inactive)
REMARK    1  A    between atoms: C_1  and  C_2 
REMARK    2  A    between atoms: C_2  and  C_3 
REMARK    3  A    between atoms: C_2  and  C_4 
REMARK    4  A    between atoms: C_2  and  C_5 
REMARK       I    between atoms: C_5  and  N_7 
REMARK    5  A    between atoms: C_18  and  C_23 
REMARK    6  A    between atoms: C_27  and  C_29 
ROOT
ATOM      1  C   LIG d   1      10.339   3.827  -6.722  0.00  0.00     0.221 C 
ATOM      2  O   LIG d   1       9.553   4.705  -6.434  0.00  0.00    -0.275 OA
ATOM      3  N   LIG d   1      11.274   3.442  -5.831  0.00  0.00    -0.300 N 
ATOM      4  C   LIG d   1      11.425   4.145  -4.567  0.00  0.00     0.019 C 
ATOM      5  C   LIG d   1      11.449   3.170  -3.399  0.00  0.00    -0.006 C 
ATOM      6  H   LIG d   1      11.783   3.710  -2.513  0.00  0.00     0.033 H 
ATOM      7  C   LIG d   1      12.432   2.027  -3.655  0.00  0.00    -0.037 C 
ATOM      8  C   LIG d   1      12.013   1.311  -4.942  0.00  0.00     0.016 C 
ATOM      9  H   LIG d   1      12.645   0.438  -5.106  0.00  0.00     0.038 H 
ATOM     10  C   LIG d   1      12.155   2.297  -6.114  0.00  0.00     0.023 C 
ATOM     11  C   LIG d   1      10.558   0.910  -4.853  0.00  0.00     0.027 A 
ATOM     12  C   LIG d   1      10.163  -0.160  -5.595  0.00  0.00    -0.041 A 
ATOM     13  C   LIG d   1       8.826  -0.560  -5.621  0.00  0.00    -0.047 A 
ATOM     14  C   LIG d   1       7.900   0.173  -4.893  0.00  0.00     0.047 A 
ATOM     15  C   LIG d   1       8.353   1.278  -4.139  0.00  0.00     0.259 A 
ATOM     16  O   LIG d   1       7.547   1.971  -3.540  0.00  0.00    -0.267 OA
ATOM     17  N   LIG d   1       9.674   1.577  -4.075  0.00  0.00    -0.311 N 
ATOM     18  C   LIG d   1      10.068   2.609  -3.115  0.00  0.00     0.031 C 
ATOM     19  H   LIG d   1      10.601   4.846  -4.436  0.00  0.00     0.047 H 
ATOM     20  H   LIG d   1      12.365   4.699  -4.594  0.00  0.00     0.047 H 
ATOM     21  H   LIG d   1      13.439   2.428  -3.770  0.00  0.00     0.028 H 
ATOM     22  H   LIG d   1      12.407   1.327  -2.821  0.00  0.00     0.028 H 
ATOM     23  H   LIG d   1      13.189   2.634  -6.191  0.00  0.00     0.047 H 
ATOM     24  H   LIG d   1      11.851   1.815  -7.042  0.00  0.00     0.047 H 
ATOM     25  H   LIG d   1      10.894  -0.709  -6.171  0.00  0.00     0.064 H 
ATOM     26  H   LIG d   1       8.518  -1.421  -6.196  0.00  0.00     0.063 H 
ATOM     27  H   LIG d   1      10.062   2.177  -2.113  0.00  0.00     0.050 H 
ATOM     28  H   LIG d   1       9.342   3.420  -3.151  0.00  0.00     0.050 H 
ENDROOT
BRANCH   1  29
ATOM     29  C   LIG d   1      10.269   3.166  -8.075  0.00  0.00     0.039 C 
BRANCH  29  30
ATOM     30  C   LIG d   1      11.612   2.506  -8.390  0.00  0.00    -0.052 C 
ATOM     31  H   LIG d   1      11.794   1.697  -7.682  0.00  0.00     0.024 H 
ATOM     32  H   LIG d   1      11.590   2.104  -9.403  0.00  0.00     0.024 H 
ATOM     33  H   LIG d   1      12.409   3.245  -8.310  0.00  0.00     0.024 H 
ENDBRANCH  29  30
BRANCH  29  34
ATOM     34  C   LIG d   1       9.167   2.105  -8.068  0.00  0.00    -0.052 C 
ATOM     35  H   LIG d   1       8.404   2.368  -8.800  0.00  0.00     0.024 H 
ATOM     36  H   LIG d   1       9.594   1.135  -8.321  0.00  0.00     0.024 H 
ATOM     37  H   LIG d   1       8.717   2.056  -7.076  0.00  0.00     0.024 H 
ENDBRANCH  29  34
BRANCH  29  38
ATOM     38  C   LIG d   1       9.956   4.219  -9.140  0.00  0.00    -0.052 C 
ATOM     39  H   LIG d   1       9.674   3.724 -10.069  0.00  0.00     0.024 H 
ATOM     40  H   LIG d   1       9.132   4.848  -8.799  0.00  0.00     0.024 H 
ATOM     41  H   LIG d   1      10.838   4.838  -9.310  0.00  0.00     0.024 H 
ENDBRANCH  29  38
ENDBRANCH   1  29
BRANCH  14  42
ATOM     42  C   LIG d   1       6.466  -0.197  -4.908  0.00  0.00    -0.012 A 
ATOM     43  C   LIG d   1       5.831  -0.586  -3.730  0.00  0.00    -0.042 A 
ATOM     44  C   LIG d   1       4.493  -0.926  -3.749  0.00  0.00     0.055 A 
ATOM     45  H   LIG d   1       6.384  -0.620  -2.802  0.00  0.00     0.063 H 
ATOM     46  C   LIG d   1       3.786  -0.890  -4.936  0.00  0.00    -0.050 A 
ATOM     47  C   LIG d   1       4.411  -0.508  -6.110  0.00  0.00    -0.061 A 
ATOM     48  H   LIG d   1       2.740  -1.161  -4.948  0.00  0.00     0.062 H 
ATOM     49  C   LIG d   1       5.747  -0.163  -6.103  0.00  0.00    -0.054 A 
ATOM     50  H   LIG d   1       3.853  -0.483  -7.034  0.00  0.00     0.062 H 
ATOM     51  H   LIG d   1       6.234   0.134  -7.019  0.00  0.00     0.062 H 
BRANCH  44  52
ATOM     52  C   LIG d   1       3.804  -1.342  -2.475  0.00  0.00     0.417 C 
ATOM     53  F   LIG d   1       3.850  -2.735  -2.354  0.00  0.00    -0.166 F 
ATOM     54  F   LIG d   1       4.453  -0.757  -1.382  0.00  0.00    -0.166 F 
ATOM     55  F   LIG d   1       2.471  -0.919  -2.507  0.00  0.00    -0.166 F 
ENDBRANCH  44  52
ENDBRANCH  14  42
TORSDOF 6
ENDMDL
