MODEL 1
REMARK VINA RESULT:      -5.7      0.000      0.000
REMARK  9 active torsions:
REMARK  status: ('A' for Active; 'I' for Inactive)
REMARK    1  A    between atoms: C_3  and  N_16 
REMARK    2  A    between atoms: C_6  and  N_7 
REMARK       I    between atoms: N_7  and  C_8 
REMARK    3  A    between atoms: C_8  and  C_10 
REMARK    4  A    between atoms: C_10  and  C_12 
REMARK    5  A    between atoms: C_10  and  N_38 
REMARK    6  A    between atoms: C_12  and  C_13 
REMARK    7  A    between atoms: C_13  and  C_14 
REMARK    8  A    between atoms: C_14  and  C_15 
REMARK    9  A    between atoms: C_15  and  N_36 
ROOT
ATOM      1  C   LIG d   1       3.807   0.465  -3.602  0.00  0.00     0.053 C 
ATOM      2  H   LIG d   1       4.852   0.156  -3.593  0.00  0.00     0.095 H 
ENDROOT
BRANCH   1   3
ATOM      3  C   LIG d   1       3.248   0.305  -4.993  0.00  0.00     0.265 C 
ATOM      4  N   LIG d   1       4.081   0.241  -6.051  0.00  0.00    -0.281 N 
ATOM      5  H   LIG d   1       5.034   0.369  -5.925  0.00  0.00     0.155 HD
ATOM      6  O   LIG d   1       2.049   0.233  -5.160  0.00  0.00    -0.269 OA
BRANCH   4   7
ATOM      7  C   LIG d   1       3.570  -0.005  -7.329  0.00  0.00     0.034 A 
ATOM      8  C   LIG d   1       3.576  -1.295  -7.844  0.00  0.00    -0.034 A 
ATOM      9  C   LIG d   1       3.065  -1.535  -9.105  0.00  0.00     0.017 A 
ATOM     10  H   LIG d   1       3.976  -2.109  -7.259  0.00  0.00     0.064 H 
ATOM     11  C   LIG d   1       2.559  -0.492  -9.859  0.00  0.00     0.273 A 
ATOM     12  H   LIG d   1       3.065  -2.538  -9.505  0.00  0.00     0.069 H 
ATOM     13  C   LIG d   1       2.556   0.794  -9.350  0.00  0.00     0.017 A 
ATOM     14  C   LIG d   1       3.060   1.040  -8.088  0.00  0.00    -0.034 A 
ATOM     15  H   LIG d   1       2.161   1.607  -9.941  0.00  0.00     0.069 H 
ATOM     16  H   LIG d   1       3.058   2.045  -7.692  0.00  0.00     0.064 H 
BRANCH  11  17
ATOM     17  N   LIG d   1       2.018  -0.752 -11.212  0.00  0.00     0.080 N 
ATOM     18  O   LIG d   1       0.823  -0.928 -11.367  0.00  0.00     0.041 OA
ATOM     19  O   LIG d   1       2.768  -0.787 -12.170  0.00  0.00    -0.576 OA
ENDBRANCH  11  17
ENDBRANCH   4   7
ENDBRANCH   1   3
BRANCH   1  20
ATOM     20  C   LIG d   1       3.010  -0.406  -2.628  0.00  0.00    -0.001 C 
ATOM     21  H   LIG d   1       3.080   0.014  -1.625  0.00  0.00     0.033 H 
ATOM     22  H   LIG d   1       1.966  -0.435  -2.937  0.00  0.00     0.033 H 
BRANCH  20  23
ATOM     23  C   LIG d   1       3.583  -1.825  -2.628  0.00  0.00    -0.043 C 
ATOM     24  H   LIG d   1       3.406  -2.287  -1.657  0.00  0.00     0.027 H 
ATOM     25  H   LIG d   1       3.096  -2.413  -3.405  0.00  0.00     0.027 H 
BRANCH  23  26
ATOM     26  C   LIG d   1       5.088  -1.767  -2.899  0.00  0.00    -0.012 C 
ATOM     27  H   LIG d   1       5.375  -0.743  -3.136  0.00  0.00     0.032 H 
ATOM     28  H   LIG d   1       5.630  -2.100  -2.013  0.00  0.00     0.032 H 
BRANCH  26  29
ATOM     29  C   LIG d   1       5.429  -2.679  -4.079  0.00  0.00    -0.035 C 
ATOM     30  H   LIG d   1       6.026  -2.126  -4.804  0.00  0.00     0.081 H 
ATOM     31  H   LIG d   1       5.994  -3.540  -3.721  0.00  0.00     0.081 H 
BRANCH  29  32
ATOM     32  N   LIG d   1       4.178  -3.152  -4.696  0.00  0.00     0.218 N 
ATOM     33  H   LIG d   1       3.552  -2.366  -4.865  0.00  0.00     0.199 HD
ATOM     34  H   LIG d   1       4.379  -3.621  -5.579  0.00  0.00     0.199 HD
ATOM     35  H   LIG d   1       3.717  -3.816  -4.063  0.00  0.00     0.199 HD
ENDBRANCH  29  32
ENDBRANCH  26  29
ENDBRANCH  23  26
ENDBRANCH  20  23
ENDBRANCH   1  20
BRANCH   1  36
ATOM     36  N   LIG d   1       3.717   1.871  -3.171  0.00  0.00     0.227 N 
ATOM     37  H   LIG d   1       4.345   2.037  -2.386  0.00  0.00     0.200 HD
ATOM     38  H   LIG d   1       3.966   2.490  -3.941  0.00  0.00     0.200 HD
ATOM     39  H   LIG d   1       2.753   2.073  -2.878  0.00  0.00     0.200 HD
ENDBRANCH   1  36
TORSDOF 9
ENDMDL
MODEL 2
REMARK VINA RESULT:      -5.6      2.150      3.184
REMARK  9 active torsions:
REMARK  status: ('A' for Active; 'I' for Inactive)
REMARK    1  A    between atoms: C_3  and  N_16 
REMARK    2  A    between atoms: C_6  and  N_7 
REMARK       I    between atoms: N_7  and  C_8 
REMARK    3  A    between atoms: C_8  and  C_10 
REMARK    4  A    between atoms: C_10  and  C_12 
REMARK    5  A    between atoms: C_10  and  N_38 
REMARK    6  A    between atoms: C_12  and  C_13 
REMARK    7  A    between atoms: C_13  and  C_14 
REMARK    8  A    between atoms: C_14  and  C_15 
REMARK    9  A    between atoms: C_15  and  N_36 
ROOT
ATOM      1  C   LIG d   1       5.877  -1.886  -3.462  0.00  0.00     0.053 C 
ATOM      2  H   LIG d   1       5.597  -2.923  -3.651  0.00  0.00     0.095 H 
ENDROOT
BRANCH   1   3
ATOM      3  C   LIG d   1       5.646  -1.069  -4.708  0.00  0.00     0.265 C 
ATOM      4  N   LIG d   1       5.063  -1.633  -5.785  0.00  0.00    -0.281 N 
ATOM      5  H   LIG d   1       4.856  -2.580  -5.784  0.00  0.00     0.155 HD
ATOM      6  O   LIG d   1       5.984   0.095  -4.742  0.00  0.00    -0.269 OA
BRANCH   4   7
ATOM      7  C   LIG d   1       4.760  -0.852  -6.905  0.00  0.00     0.034 A 
ATOM      8  C   LIG d   1       3.528  -0.217  -6.998  0.00  0.00    -0.034 A 
ATOM      9  C   LIG d   1       3.234   0.559  -8.103  0.00  0.00     0.017 A 
ATOM     10  H   LIG d   1       2.802  -0.326  -6.206  0.00  0.00     0.064 H 
ATOM     11  C   LIG d   1       4.160   0.694  -9.121  0.00  0.00     0.273 A 
ATOM     12  H   LIG d   1       2.279   1.056  -8.174  0.00  0.00     0.069 H 
ATOM     13  C   LIG d   1       5.386   0.059  -9.034  0.00  0.00     0.017 A 
ATOM     14  C   LIG d   1       5.688  -0.713  -7.929  0.00  0.00    -0.034 A 
ATOM     15  H   LIG d   1       6.107   0.166  -9.830  0.00  0.00     0.069 H 
ATOM     16  H   LIG d   1       6.645  -1.208  -7.861  0.00  0.00     0.064 H 
BRANCH  11  17
ATOM     17  N   LIG d   1       3.841   1.521 -10.306  0.00  0.00     0.080 N 
ATOM     18  O   LIG d   1       3.943   1.049 -11.424  0.00  0.00     0.041 OA
ATOM     19  O   LIG d   1       3.474   2.673 -10.163  0.00  0.00    -0.576 OA
ENDBRANCH  11  17
ENDBRANCH   4   7
ENDBRANCH   1   3
BRANCH   1  20
ATOM     20  C   LIG d   1       5.025  -1.328  -2.321  0.00  0.00    -0.001 C 
ATOM     21  H   LIG d   1       5.380  -1.731  -1.373  0.00  0.00     0.033 H 
ATOM     22  H   LIG d   1       5.104  -0.241  -2.306  0.00  0.00     0.033 H 
BRANCH  20  23
ATOM     23  C   LIG d   1       3.564  -1.730  -2.532  0.00  0.00    -0.043 C 
ATOM     24  H   LIG d   1       3.509  -2.515  -3.286  0.00  0.00     0.027 H 
ATOM     25  H   LIG d   1       3.149  -2.097  -1.593  0.00  0.00     0.027 H 
BRANCH  23  26
ATOM     26  C   LIG d   1       2.764  -0.514  -3.003  0.00  0.00    -0.012 C 
ATOM     27  H   LIG d   1       2.757  -0.484  -4.092  0.00  0.00     0.032 H 
ATOM     28  H   LIG d   1       1.740  -0.588  -2.636  0.00  0.00     0.032 H 
BRANCH  26  29
ATOM     29  C   LIG d   1       3.410   0.762  -2.461  0.00  0.00    -0.035 C 
ATOM     30  H   LIG d   1       2.784   1.178  -1.671  0.00  0.00     0.081 H 
ATOM     31  H   LIG d   1       4.396   0.529  -2.061  0.00  0.00     0.081 H 
BRANCH  29  32
ATOM     32  N   LIG d   1       3.557   1.730  -3.563  0.00  0.00     0.218 N 
ATOM     33  H   LIG d   1       4.092   2.538  -3.250  0.00  0.00     0.199 HD
ATOM     34  H   LIG d   1       4.034   1.293  -4.351  0.00  0.00     0.199 HD
ATOM     35  H   LIG d   1       2.627   2.041  -3.866  0.00  0.00     0.199 HD
ENDBRANCH  29  32
ENDBRANCH  26  29
ENDBRANCH  23  26
ENDBRANCH  20  23
ENDBRANCH   1  20
BRANCH   1  36
ATOM     36  N   LIG d   1       7.297  -1.835  -3.070  0.00  0.00     0.227 N 
ATOM     37  H   LIG d   1       7.594  -2.743  -2.717  0.00  0.00     0.200 HD
ATOM     38  H   LIG d   1       7.871  -1.577  -3.871  0.00  0.00     0.200 HD
ATOM     39  H   LIG d   1       7.417  -1.131  -2.331  0.00  0.00     0.200 HD
ENDBRANCH   1  36
TORSDOF 9
ENDMDL
MODEL 3
REMARK VINA RESULT:      -5.4      2.539      6.919
REMARK  9 active torsions:
REMARK  status: ('A' for Active; 'I' for Inactive)
REMARK    1  A    between atoms: C_3  and  N_16 
REMARK    2  A    between atoms: C_6  and  N_7 
REMARK       I    between atoms: N_7  and  C_8 
REMARK    3  A    between atoms: C_8  and  C_10 
REMARK    4  A    between atoms: C_10  and  C_12 
REMARK    5  A    between atoms: C_10  and  N_38 
REMARK    6  A    between atoms: C_12  and  C_13 
REMARK    7  A    between atoms: C_13  and  C_14 
REMARK    8  A    between atoms: C_14  and  C_15 
REMARK    9  A    between atoms: C_15  and  N_36 
ROOT
ATOM      1  C   LIG d   1       2.481   0.653  -9.725  0.00  0.00     0.053 C 
ATOM      2  H   LIG d   1       1.924   1.537 -10.036  0.00  0.00     0.095 H 
ENDROOT
BRANCH   1   3
ATOM      3  C   LIG d   1       2.882   0.795  -8.279  0.00  0.00     0.265 C 
ATOM      4  N   LIG d   1       2.757  -0.253  -7.439  0.00  0.00    -0.281 N 
ATOM      5  H   LIG d   1       2.344  -1.074  -7.747  0.00  0.00     0.155 HD
ATOM      6  O   LIG d   1       3.318   1.850  -7.871  0.00  0.00    -0.269 OA
BRANCH   4   7
ATOM      7  C   LIG d   1       3.219  -0.152  -6.123  0.00  0.00     0.034 A 
ATOM      8  C   LIG d   1       2.426   0.445  -5.151  0.00  0.00    -0.034 A 
ATOM      9  C   LIG d   1       2.883   0.538  -3.850  0.00  0.00     0.017 A 
ATOM     10  H   LIG d   1       1.453   0.834  -5.411  0.00  0.00     0.064 H 
ATOM     11  C   LIG d   1       4.132   0.047  -3.518  0.00  0.00     0.273 A 
ATOM     12  H   LIG d   1       2.266   0.998  -3.094  0.00  0.00     0.069 H 
ATOM     13  C   LIG d   1       4.926  -0.544  -4.484  0.00  0.00     0.017 A 
ATOM     14  C   LIG d   1       4.473  -0.645  -5.785  0.00  0.00    -0.034 A 
ATOM     15  H   LIG d   1       5.901  -0.926  -4.222  0.00  0.00     0.069 H 
ATOM     16  H   LIG d   1       5.092  -1.106  -6.539  0.00  0.00     0.064 H 
BRANCH  11  17
ATOM     17  N   LIG d   1       4.621   0.153  -2.125  0.00  0.00     0.080 N 
ATOM     18  O   LIG d   1       5.090   1.202  -1.722  0.00  0.00     0.041 OA
ATOM     19  O   LIG d   1       4.553  -0.809  -1.382  0.00  0.00    -0.576 OA
ENDBRANCH  11  17
ENDBRANCH   4   7
ENDBRANCH   1   3
BRANCH   1  20
ATOM     20  C   LIG d   1       1.601  -0.587  -9.891  0.00  0.00    -0.001 C 
ATOM     21  H   LIG d   1       2.091  -1.444  -9.428  0.00  0.00     0.033 H 
ATOM     22  H   LIG d   1       0.637  -0.417  -9.411  0.00  0.00     0.033 H 
BRANCH  20  23
ATOM     23  C   LIG d   1       1.388  -0.866 -11.380  0.00  0.00    -0.043 C 
ATOM     24  H   LIG d   1       0.418  -0.474 -11.687  0.00  0.00     0.027 H 
ATOM     25  H   LIG d   1       2.175  -0.380 -11.957  0.00  0.00     0.027 H 
BRANCH  23  26
ATOM     26  C   LIG d   1       1.430  -2.375 -11.628  0.00  0.00    -0.012 C 
ATOM     27  H   LIG d   1       0.610  -2.657 -12.287  0.00  0.00     0.032 H 
ATOM     28  H   LIG d   1       2.379  -2.640 -12.095  0.00  0.00     0.032 H 
BRANCH  26  29
ATOM     29  C   LIG d   1       1.293  -3.114 -10.296  0.00  0.00    -0.035 C 
ATOM     30  H   LIG d   1       2.126  -3.807 -10.178  0.00  0.00     0.081 H 
ATOM     31  H   LIG d   1       1.299  -2.394  -9.478  0.00  0.00     0.081 H 
BRANCH  29  32
ATOM     32  N   LIG d   1       0.012  -3.843 -10.282  0.00  0.00     0.218 N 
ATOM     33  H   LIG d   1      -0.310  -4.002 -11.235  0.00  0.00     0.199 HD
ATOM     34  H   LIG d   1       0.125  -4.738  -9.808  0.00  0.00     0.199 HD
ATOM     35  H   LIG d   1      -0.689  -3.285  -9.780  0.00  0.00     0.199 HD
ENDBRANCH  29  32
ENDBRANCH  26  29
ENDBRANCH  23  26
ENDBRANCH  20  23
ENDBRANCH   1  20
BRANCH   1  36
ATOM     36  N   LIG d   1       3.675   0.512 -10.578  0.00  0.00     0.227 N 
ATOM     37  H   LIG d   1       4.298  -0.195 -10.191  0.00  0.00     0.200 HD
ATOM     38  H   LIG d   1       3.401   0.243 -11.521  0.00  0.00     0.200 HD
ATOM     39  H   LIG d   1       4.169   1.411 -10.616  0.00  0.00     0.200 HD
ENDBRANCH   1  36
TORSDOF 9
ENDMDL
MODEL 4
REMARK VINA RESULT:      -5.3      2.130      2.788
REMARK  9 active torsions:
REMARK  status: ('A' for Active; 'I' for Inactive)
REMARK    1  A    between atoms: C_3  and  N_16 
REMARK    2  A    between atoms: C_6  and  N_7 
REMARK       I    between atoms: N_7  and  C_8 
REMARK    3  A    between atoms: C_8  and  C_10 
REMARK    4  A    between atoms: C_10  and  C_12 
REMARK    5  A    between atoms: C_10  and  N_38 
REMARK    6  A    between atoms: C_12  and  C_13 
REMARK    7  A    between atoms: C_13  and  C_14 
REMARK    8  A    between atoms: C_14  and  C_15 
REMARK    9  A    between atoms: C_15  and  N_36 
ROOT
ATOM      1  C   LIG d   1       2.473   0.258  -4.599  0.00  0.00     0.053 C 
ATOM      2  H   LIG d   1       1.434   0.551  -4.745  0.00  0.00     0.095 H 
ENDROOT
BRANCH   1   3
ATOM      3  C   LIG d   1       3.144   0.101  -5.940  0.00  0.00     0.265 C 
ATOM      4  N   LIG d   1       2.409  -0.197  -7.031  0.00  0.00    -0.281 N 
ATOM      5  H   LIG d   1       1.461  -0.380  -6.941  0.00  0.00     0.155 HD
ATOM      6  O   LIG d   1       4.344   0.244  -6.039  0.00  0.00    -0.269 OA
BRANCH   4   7
ATOM      7  C   LIG d   1       3.015  -0.246  -8.290  0.00  0.00     0.034 A 
ATOM      8  C   LIG d   1       3.141   0.912  -9.047  0.00  0.00    -0.034 A 
ATOM      9  C   LIG d   1       3.746   0.861 -10.289  0.00  0.00     0.017 A 
ATOM     10  H   LIG d   1       2.770   1.851  -8.665  0.00  0.00     0.064 H 
ATOM     11  C   LIG d   1       4.215  -0.342 -10.782  0.00  0.00     0.273 A 
ATOM     12  H   LIG d   1       3.848   1.761 -10.876  0.00  0.00     0.069 H 
ATOM     13  C   LIG d   1       4.087  -1.498 -10.033  0.00  0.00     0.017 A 
ATOM     14  C   LIG d   1       3.489  -1.452  -8.789  0.00  0.00    -0.034 A 
ATOM     15  H   LIG d   1       4.453  -2.436 -10.421  0.00  0.00     0.069 H 
ATOM     16  H   LIG d   1       3.388  -2.355  -8.204  0.00  0.00     0.064 H 
BRANCH  11  17
ATOM     17  N   LIG d   1       4.857  -0.395 -12.115  0.00  0.00     0.080 N 
ATOM     18  O   LIG d   1       4.182  -0.282 -13.121  0.00  0.00     0.041 OA
ATOM     19  O   LIG d   1       6.062  -0.550 -12.204  0.00  0.00    -0.576 OA
ENDBRANCH  11  17
ENDBRANCH   4   7
ENDBRANCH   1   3
BRANCH   1  20
ATOM     20  C   LIG d   1       3.198   1.334  -3.789  0.00  0.00    -0.001 C 
ATOM     21  H   LIG d   1       4.122   1.610  -4.296  0.00  0.00     0.033 H 
ATOM     22  H   LIG d   1       2.558   2.212  -3.696  0.00  0.00     0.033 H 
BRANCH  20  23
ATOM     23  C   LIG d   1       3.523   0.790  -2.396  0.00  0.00    -0.043 C 
ATOM     24  H   LIG d   1       2.881   1.272  -1.659  0.00  0.00     0.027 H 
ATOM     25  H   LIG d   1       3.354  -0.287  -2.377  0.00  0.00     0.027 H 
BRANCH  23  26
ATOM     26  C   LIG d   1       4.988   1.083  -2.064  0.00  0.00    -0.012 C 
ATOM     27  H   LIG d   1       5.192   2.141  -2.227  0.00  0.00     0.032 H 
ATOM     28  H   LIG d   1       5.182   0.832  -1.021  0.00  0.00     0.032 H 
BRANCH  26  29
ATOM     29  C   LIG d   1       5.892   0.243  -2.968  0.00  0.00    -0.035 C 
ATOM     30  H   LIG d   1       6.608  -0.307  -2.356  0.00  0.00     0.081 H 
ATOM     31  H   LIG d   1       5.285  -0.459  -3.539  0.00  0.00     0.081 H 
BRANCH  29  32
ATOM     32  N   LIG d   1       6.597   1.137  -3.904  0.00  0.00     0.218 N 
ATOM     33  H   LIG d   1       7.454   0.694  -4.233  0.00  0.00     0.199 HD
ATOM     34  H   LIG d   1       5.999   1.350  -4.702  0.00  0.00     0.199 HD
ATOM     35  H   LIG d   1       6.836   2.011  -3.422  0.00  0.00     0.199 HD
ENDBRANCH  29  32
ENDBRANCH  26  29
ENDBRANCH  23  26
ENDBRANCH  20  23
ENDBRANCH   1  20
BRANCH   1  36
ATOM     36  N   LIG d   1       2.514  -1.013  -3.853  0.00  0.00     0.227 N 
ATOM     37  H   LIG d   1       2.640  -0.830  -2.859  0.00  0.00     0.200 HD
ATOM     38  H   LIG d   1       1.648  -1.530  -3.996  0.00  0.00     0.200 HD
ATOM     39  H   LIG d   1       3.302  -1.578  -4.193  0.00  0.00     0.200 HD
ENDBRANCH   1  36
TORSDOF 9
ENDMDL
MODEL 5
REMARK VINA RESULT:      -5.1      5.406      7.145
REMARK  9 active torsions:
REMARK  status: ('A' for Active; 'I' for Inactive)
REMARK    1  A    between atoms: C_3  and  N_16 
REMARK    2  A    between atoms: C_6  and  N_7 
REMARK       I    between atoms: N_7  and  C_8 
REMARK    3  A    between atoms: C_8  and  C_10 
REMARK    4  A    between atoms: C_10  and  C_12 
REMARK    5  A    between atoms: C_10  and  N_38 
REMARK    6  A    between atoms: C_12  and  C_13 
REMARK    7  A    between atoms: C_13  and  C_14 
REMARK    8  A    between atoms: C_14  and  C_15 
REMARK    9  A    between atoms: C_15  and  N_36 
ROOT
ATOM      1  C   LIG d   1       6.273  -1.172  -3.517  0.00  0.00     0.053 C 
ATOM      2  H   LIG d   1       5.813  -1.596  -4.410  0.00  0.00     0.095 H 
ENDROOT
BRANCH   1   3
ATOM      3  C   LIG d   1       6.818   0.197  -3.835  0.00  0.00     0.265 C 
ATOM      4  N   LIG d   1       8.134   0.359  -4.081  0.00  0.00    -0.281 N 
ATOM      5  H   LIG d   1       8.740  -0.392  -3.984  0.00  0.00     0.155 HD
ATOM      6  O   LIG d   1       6.074   1.154  -3.870  0.00  0.00    -0.269 OA
BRANCH   4   7
ATOM      7  C   LIG d   1       8.624   1.609  -4.471  0.00  0.00     0.034 A 
ATOM      8  C   LIG d   1       9.048   2.520  -3.511  0.00  0.00    -0.034 A 
ATOM      9  C   LIG d   1       9.537   3.753  -3.900  0.00  0.00     0.017 A 
ATOM     10  H   LIG d   1       8.998   2.264  -2.463  0.00  0.00     0.064 H 
ATOM     11  C   LIG d   1       9.594   4.084  -5.241  0.00  0.00     0.273 A 
ATOM     12  H   LIG d   1       9.870   4.460  -3.155  0.00  0.00     0.069 H 
ATOM     13  C   LIG d   1       9.169   3.181  -6.198  0.00  0.00     0.017 A 
ATOM     14  C   LIG d   1       8.685   1.945  -5.817  0.00  0.00    -0.034 A 
ATOM     15  H   LIG d   1       9.214   3.442  -7.245  0.00  0.00     0.069 H 
ATOM     16  H   LIG d   1       8.352   1.240  -6.564  0.00  0.00     0.064 H 
BRANCH  11  17
ATOM     17  N   LIG d   1      10.113   5.407  -5.654  0.00  0.00     0.080 N 
ATOM     18  O   LIG d   1       9.745   5.906  -6.701  0.00  0.00     0.041 OA
ATOM     19  O   LIG d   1      10.908   5.997  -4.945  0.00  0.00    -0.576 OA
ENDBRANCH  11  17
ENDBRANCH   4   7
ENDBRANCH   1   3
BRANCH   1  20
ATOM     20  C   LIG d   1       5.226  -1.059  -2.408  0.00  0.00    -0.001 C 
ATOM     21  H   LIG d   1       5.602  -1.538  -1.503  0.00  0.00     0.033 H 
ATOM     22  H   LIG d   1       5.023  -0.008  -2.204  0.00  0.00     0.033 H 
BRANCH  20  23
ATOM     23  C   LIG d   1       3.936  -1.752  -2.852  0.00  0.00    -0.043 C 
ATOM     24  H   LIG d   1       4.084  -2.196  -3.837  0.00  0.00     0.027 H 
ATOM     25  H   LIG d   1       3.677  -2.532  -2.136  0.00  0.00     0.027 H 
BRANCH  23  26
ATOM     26  C   LIG d   1       2.804  -0.725  -2.922  0.00  0.00    -0.012 C 
ATOM     27  H   LIG d   1       1.853  -1.219  -2.724  0.00  0.00     0.032 H 
ATOM     28  H   LIG d   1       2.971   0.052  -2.175  0.00  0.00     0.032 H 
BRANCH  26  29
ATOM     29  C   LIG d   1       2.772  -0.095  -4.316  0.00  0.00    -0.035 C 
ATOM     30  H   LIG d   1       3.479  -0.613  -4.964  0.00  0.00     0.081 H 
ATOM     31  H   LIG d   1       1.768  -0.180  -4.730  0.00  0.00     0.081 H 
BRANCH  29  32
ATOM     32  N   LIG d   1       3.126   1.331  -4.206  0.00  0.00     0.218 N 
ATOM     33  H   LIG d   1       3.501   1.529  -3.279  0.00  0.00     0.199 HD
ATOM     34  H   LIG d   1       3.820   1.575  -4.911  0.00  0.00     0.199 HD
ATOM     35  H   LIG d   1       2.285   1.901  -4.355  0.00  0.00     0.199 HD
ENDBRANCH  29  32
ENDBRANCH  26  29
ENDBRANCH  23  26
ENDBRANCH  20  23
ENDBRANCH   1  20
BRANCH   1  36
ATOM     36  N   LIG d   1       7.356  -2.063  -3.065  0.00  0.00     0.227 N 
ATOM     37  H   LIG d   1       7.229  -2.994  -3.458  0.00  0.00     0.200 HD
ATOM     38  H   LIG d   1       8.259  -1.692  -3.357  0.00  0.00     0.200 HD
ATOM     39  H   LIG d   1       7.335  -2.126  -2.040  0.00  0.00     0.200 HD
ENDBRANCH   1  36
TORSDOF 9
ENDMDL
MODEL 6
REMARK VINA RESULT:      -5.0      1.969      2.567
REMARK  9 active torsions:
REMARK  status: ('A' for Active; 'I' for Inactive)
REMARK    1  A    between atoms: C_3  and  N_16 
REMARK    2  A    between atoms: C_6  and  N_7 
REMARK       I    between atoms: N_7  and  C_8 
REMARK    3  A    between atoms: C_8  and  C_10 
REMARK    4  A    between atoms: C_10  and  C_12 
REMARK    5  A    between atoms: C_10  and  N_38 
REMARK    6  A    between atoms: C_12  and  C_13 
REMARK    7  A    between atoms: C_13  and  C_14 
REMARK    8  A    between atoms: C_14  and  C_15 
REMARK    9  A    between atoms: C_15  and  N_36 
ROOT
ATOM      1  C   LIG d   1       6.281  -0.625  -3.744  0.00  0.00     0.053 C 
ATOM      2  H   LIG d   1       6.082  -1.432  -3.039  0.00  0.00     0.095 H 
ENDROOT
BRANCH   1   3
ATOM      3  C   LIG d   1       5.516  -0.872  -5.019  0.00  0.00     0.265 C 
ATOM      4  N   LIG d   1       5.166   0.166  -5.806  0.00  0.00    -0.281 N 
ATOM      5  H   LIG d   1       5.343   1.074  -5.518  0.00  0.00     0.155 HD
ATOM      6  O   LIG d   1       5.216  -2.002  -5.338  0.00  0.00    -0.269 OA
BRANCH   4   7
ATOM      7  C   LIG d   1       4.542  -0.069  -7.036  0.00  0.00     0.034 A 
ATOM      8  C   LIG d   1       3.161   0.028  -7.145  0.00  0.00    -0.034 A 
ATOM      9  C   LIG d   1       2.548  -0.199  -8.362  0.00  0.00     0.017 A 
ATOM     10  H   LIG d   1       2.567   0.284  -6.281  0.00  0.00     0.064 H 
ATOM     11  C   LIG d   1       3.307  -0.534  -9.468  0.00  0.00     0.273 A 
ATOM     12  H   LIG d   1       1.475  -0.120  -8.449  0.00  0.00     0.069 H 
ATOM     13  C   LIG d   1       4.682  -0.637  -9.362  0.00  0.00     0.017 A 
ATOM     14  C   LIG d   1       5.301  -0.405  -8.149  0.00  0.00    -0.034 A 
ATOM     15  H   LIG d   1       5.273  -0.899 -10.227  0.00  0.00     0.069 H 
ATOM     16  H   LIG d   1       6.375  -0.485  -8.066  0.00  0.00     0.064 H 
BRANCH  11  17
ATOM     17  N   LIG d   1       2.647  -0.783 -10.770  0.00  0.00     0.080 N 
ATOM     18  O   LIG d   1       1.578  -1.364 -10.810  0.00  0.00     0.041 OA
ATOM     19  O   LIG d   1       3.174  -0.405 -11.801  0.00  0.00    -0.576 OA
ENDBRANCH  11  17
ENDBRANCH   4   7
ENDBRANCH   1   3
BRANCH   1  20
ATOM     20  C   LIG d   1       5.839   0.706  -3.133  0.00  0.00    -0.001 C 
ATOM     21  H   LIG d   1       6.709   1.235  -2.745  0.00  0.00     0.033 H 
ATOM     22  H   LIG d   1       5.356   1.315  -3.898  0.00  0.00     0.033 H 
BRANCH  20  23
ATOM     23  C   LIG d   1       4.853   0.441  -1.993  0.00  0.00    -0.043 C 
ATOM     24  H   LIG d   1       4.960  -0.589  -1.653  0.00  0.00     0.027 H 
ATOM     25  H   LIG d   1       5.061   1.121  -1.167  0.00  0.00     0.027 H 
BRANCH  23  26
ATOM     26  C   LIG d   1       3.425   0.666  -2.493  0.00  0.00    -0.012 C 
ATOM     27  H   LIG d   1       2.854   1.200  -1.733  0.00  0.00     0.032 H 
ATOM     28  H   LIG d   1       3.448   1.255  -3.410  0.00  0.00     0.032 H 
BRANCH  26  29
ATOM     29  C   LIG d   1       2.763  -0.686  -2.771  0.00  0.00    -0.035 C 
ATOM     30  H   LIG d   1       3.526  -1.463  -2.803  0.00  0.00     0.081 H 
ATOM     31  H   LIG d   1       2.048  -0.910  -1.980  0.00  0.00     0.081 H 
BRANCH  29  32
ATOM     32  N   LIG d   1       2.048  -0.614  -4.057  0.00  0.00     0.218 N 
ATOM     33  H   LIG d   1       1.232  -0.009  -3.971  0.00  0.00     0.199 HD
ATOM     34  H   LIG d   1       2.666  -0.249  -4.781  0.00  0.00     0.199 HD
ATOM     35  H   LIG d   1       1.739  -1.556  -4.325  0.00  0.00     0.199 HD
ENDBRANCH  29  32
ENDBRANCH  26  29
ENDBRANCH  23  26
ENDBRANCH  20  23
ENDBRANCH   1  20
BRANCH   1  36
ATOM     36  N   LIG d   1       7.729  -0.570  -4.016  0.00  0.00     0.227 N 
ATOM     37  H   LIG d   1       8.251  -0.636  -3.144  0.00  0.00     0.200 HD
ATOM     38  H   LIG d   1       7.998  -1.335  -4.632  0.00  0.00     0.200 HD
ATOM     39  H   LIG d   1       7.952   0.323  -4.473  0.00  0.00     0.200 HD
ENDBRANCH   1  36
TORSDOF 9
ENDMDL
MODEL 7
REMARK VINA RESULT:      -4.9      6.296      8.542
REMARK  9 active torsions:
REMARK  status: ('A' for Active; 'I' for Inactive)
REMARK    1  A    between atoms: C_3  and  N_16 
REMARK    2  A    between atoms: C_6  and  N_7 
REMARK       I    between atoms: N_7  and  C_8 
REMARK    3  A    between atoms: C_8  and  C_10 
REMARK    4  A    between atoms: C_10  and  C_12 
REMARK    5  A    between atoms: C_10  and  N_38 
REMARK    6  A    between atoms: C_12  and  C_13 
REMARK    7  A    between atoms: C_13  and  C_14 
REMARK    8  A    between atoms: C_14  and  C_15 
REMARK    9  A    between atoms: C_15  and  N_36 
ROOT
ATOM      1  C   LIG d   1       7.318  -0.405  -4.222  0.00  0.00     0.053 C 
ATOM      2  H   LIG d   1       6.644  -0.396  -5.079  0.00  0.00     0.095 H 
ENDROOT
BRANCH   1   3
ATOM      3  C   LIG d   1       7.759   1.004  -3.915  0.00  0.00     0.265 C 
ATOM      4  N   LIG d   1       9.051   1.355  -4.075  0.00  0.00    -0.281 N 
ATOM      5  H   LIG d   1       9.708   0.686  -4.319  0.00  0.00     0.155 HD
ATOM      6  O   LIG d   1       6.952   1.821  -3.525  0.00  0.00    -0.269 OA
BRANCH   4   7
ATOM      7  C   LIG d   1       9.442   2.684  -3.885  0.00  0.00     0.034 A 
ATOM      8  C   LIG d   1       9.111   3.649  -4.828  0.00  0.00    -0.034 A 
ATOM      9  C   LIG d   1       9.494   4.962  -4.634  0.00  0.00     0.017 A 
ATOM     10  H   LIG d   1       8.552   3.374  -5.710  0.00  0.00     0.064 H 
ATOM     11  C   LIG d   1      10.216   5.315  -3.509  0.00  0.00     0.273 A 
ATOM     12  H   LIG d   1       9.234   5.713  -5.364  0.00  0.00     0.069 H 
ATOM     13  C   LIG d   1      10.552   4.356  -2.570  0.00  0.00     0.017 A 
ATOM     14  C   LIG d   1      10.166   3.042  -2.755  0.00  0.00    -0.034 A 
ATOM     15  H   LIG d   1      11.116   4.633  -1.693  0.00  0.00     0.069 H 
ATOM     16  H   LIG d   1      10.428   2.294  -2.023  0.00  0.00     0.064 H 
BRANCH  11  17
ATOM     17  N   LIG d   1      10.630   6.721  -3.307  0.00  0.00     0.080 N 
ATOM     18  O   LIG d   1       9.937   7.628  -3.731  0.00  0.00     0.041 OA
ATOM     19  O   LIG d   1      11.665   6.972  -2.715  0.00  0.00    -0.576 OA
ENDBRANCH  11  17
ENDBRANCH   4   7
ENDBRANCH   1   3
BRANCH   1  20
ATOM     20  C   LIG d   1       6.591  -0.988  -3.008  0.00  0.00    -0.001 C 
ATOM     21  H   LIG d   1       6.918  -2.015  -2.848  0.00  0.00     0.033 H 
ATOM     22  H   LIG d   1       6.821  -0.391  -2.125  0.00  0.00     0.033 H 
BRANCH  20  23
ATOM     23  C   LIG d   1       5.082  -0.966  -3.259  0.00  0.00    -0.043 C 
ATOM     24  H   LIG d   1       4.853  -0.229  -4.030  0.00  0.00     0.027 H 
ATOM     25  H   LIG d   1       4.754  -1.952  -3.589  0.00  0.00     0.027 H 
BRANCH  23  26
ATOM     26  C   LIG d   1       4.356  -0.592  -1.966  0.00  0.00    -0.012 C 
ATOM     27  H   LIG d   1       3.370  -1.058  -1.955  0.00  0.00     0.032 H 
ATOM     28  H   LIG d   1       4.932  -0.943  -1.110  0.00  0.00     0.032 H 
BRANCH  26  29
ATOM     29  C   LIG d   1       4.202   0.928  -1.889  0.00  0.00    -0.035 C 
ATOM     30  H   LIG d   1       3.363   1.176  -1.238  0.00  0.00     0.081 H 
ATOM     31  H   LIG d   1       5.116   1.366  -1.488  0.00  0.00     0.081 H 
BRANCH  29  32
ATOM     32  N   LIG d   1       3.973   1.457  -3.245  0.00  0.00     0.218 N 
ATOM     33  H   LIG d   1       3.121   2.014  -3.264  0.00  0.00     0.199 HD
ATOM     34  H   LIG d   1       4.762   2.034  -3.533  0.00  0.00     0.199 HD
ATOM     35  H   LIG d   1       3.876   0.673  -3.901  0.00  0.00     0.199 HD
ENDBRANCH  29  32
ENDBRANCH  26  29
ENDBRANCH  23  26
ENDBRANCH  20  23
ENDBRANCH   1  20
BRANCH   1  36
ATOM     36  N   LIG d   1       8.483  -1.251  -4.535  0.00  0.00     0.227 N 
ATOM     37  H   LIG d   1       8.192  -2.055  -5.089  0.00  0.00     0.200 HD
ATOM     38  H   LIG d   1       9.176  -0.714  -5.054  0.00  0.00     0.200 HD
ATOM     39  H   LIG d   1       8.904  -1.582  -3.658  0.00  0.00     0.200 HD
ENDBRANCH   1  36
TORSDOF 9
ENDMDL
MODEL 8
REMARK VINA RESULT:      -4.9      5.380      7.701
REMARK  9 active torsions:
REMARK  status: ('A' for Active; 'I' for Inactive)
REMARK    1  A    between atoms: C_3  and  N_16 
REMARK    2  A    between atoms: C_6  and  N_7 
REMARK       I    between atoms: N_7  and  C_8 
REMARK    3  A    between atoms: C_8  and  C_10 
REMARK    4  A    between atoms: C_10  and  C_12 
REMARK    5  A    between atoms: C_10  and  N_38 
REMARK    6  A    between atoms: C_12  and  C_13 
REMARK    7  A    between atoms: C_13  and  C_14 
REMARK    8  A    between atoms: C_14  and  C_15 
REMARK    9  A    between atoms: C_15  and  N_36 
ROOT
ATOM      1  C   LIG d   1       9.693   2.786  -5.044  0.00  0.00     0.053 C 
ATOM      2  H   LIG d   1      10.566   2.240  -4.686  0.00  0.00     0.095 H 
ENDROOT
BRANCH   1   3
ATOM      3  C   LIG d   1       8.458   1.946  -4.839  0.00  0.00     0.265 C 
ATOM      4  N   LIG d   1       8.291   1.261  -3.689  0.00  0.00    -0.281 N 
ATOM      5  H   LIG d   1       8.997   1.252  -3.025  0.00  0.00     0.155 HD
ATOM      6  O   LIG d   1       7.614   1.887  -5.707  0.00  0.00    -0.269 OA
BRANCH   4   7
ATOM      7  C   LIG d   1       7.103   0.561  -3.459  0.00  0.00     0.034 A 
ATOM      8  C   LIG d   1       7.047  -0.809  -3.685  0.00  0.00    -0.034 A 
ATOM      9  C   LIG d   1       5.873  -1.499  -3.451  0.00  0.00     0.017 A 
ATOM     10  H   LIG d   1       7.921  -1.334  -4.040  0.00  0.00     0.064 H 
ATOM     11  C   LIG d   1       4.752  -0.826  -3.003  0.00  0.00     0.273 A 
ATOM     12  H   LIG d   1       5.830  -2.563  -3.623  0.00  0.00     0.069 H 
ATOM     13  C   LIG d   1       4.802   0.539  -2.781  0.00  0.00     0.017 A 
ATOM     14  C   LIG d   1       5.975   1.233  -3.008  0.00  0.00    -0.034 A 
ATOM     15  H   LIG d   1       3.925   1.062  -2.432  0.00  0.00     0.069 H 
ATOM     16  H   LIG d   1       6.014   2.298  -2.835  0.00  0.00     0.064 H 
BRANCH  11  17
ATOM     17  N   LIG d   1       3.494  -1.566  -2.759  0.00  0.00     0.080 N 
ATOM     18  O   LIG d   1       2.421  -1.032  -2.971  0.00  0.00     0.041 OA
ATOM     19  O   LIG d   1       3.533  -2.711  -2.346  0.00  0.00    -0.576 OA
ENDBRANCH  11  17
ENDBRANCH   4   7
ENDBRANCH   1   3
BRANCH   1  20
ATOM     20  C   LIG d   1       9.556   4.094  -4.264  0.00  0.00    -0.001 C 
ATOM     21  H   LIG d   1      10.049   4.897  -4.811  0.00  0.00     0.033 H 
ATOM     22  H   LIG d   1       8.500   4.335  -4.140  0.00  0.00     0.033 H 
BRANCH  20  23
ATOM     23  C   LIG d   1      10.209   3.939  -2.888  0.00  0.00    -0.043 C 
ATOM     24  H   LIG d   1       9.635   3.228  -2.293  0.00  0.00     0.027 H 
ATOM     25  H   LIG d   1      11.228   3.572  -3.009  0.00  0.00     0.027 H 
BRANCH  23  26
ATOM     26  C   LIG d   1      10.234   5.295  -2.180  0.00  0.00    -0.012 C 
ATOM     27  H   LIG d   1      10.323   6.089  -2.921  0.00  0.00     0.032 H 
ATOM     28  H   LIG d   1       9.311   5.427  -1.615  0.00  0.00     0.032 H 
BRANCH  26  29
ATOM     29  C   LIG d   1      11.429   5.349  -1.227  0.00  0.00    -0.035 C 
ATOM     30  H   LIG d   1      12.156   4.588  -1.512  0.00  0.00     0.081 H 
ATOM     31  H   LIG d   1      11.892   6.334  -1.280  0.00  0.00     0.081 H 
BRANCH  29  32
ATOM     32  N   LIG d   1      10.956   5.118   0.149  0.00  0.00     0.218 N 
ATOM     33  H   LIG d   1      11.734   4.843   0.746  0.00  0.00     0.199 HD
ATOM     34  H   LIG d   1      10.528   5.966   0.519  0.00  0.00     0.199 HD
ATOM     35  H   LIG d   1      10.257   4.366   0.145  0.00  0.00     0.199 HD
ENDBRANCH  29  32
ENDBRANCH  26  29
ENDBRANCH  23  26
ENDBRANCH  20  23
ENDBRANCH   1  20
BRANCH   1  36
ATOM     36  N   LIG d   1       9.872   3.096  -6.473  0.00  0.00     0.227 N 
ATOM     37  H   LIG d   1      10.822   2.869  -6.764  0.00  0.00     0.200 HD
ATOM     38  H   LIG d   1       9.209   2.562  -7.033  0.00  0.00     0.200 HD
ATOM     39  H   LIG d   1       9.706   4.099  -6.623  0.00  0.00     0.200 HD
ENDBRANCH   1  36
TORSDOF 9
ENDMDL
MODEL 9
REMARK VINA RESULT:      -4.9      4.280      6.844
REMARK  9 active torsions:
REMARK  status: ('A' for Active; 'I' for Inactive)
REMARK    1  A    between atoms: C_3  and  N_16 
REMARK    2  A    between atoms: C_6  and  N_7 
REMARK       I    between atoms: N_7  and  C_8 
REMARK    3  A    between atoms: C_8  and  C_10 
REMARK    4  A    between atoms: C_10  and  C_12 
REMARK    5  A    between atoms: C_10  and  N_38 
REMARK    6  A    between atoms: C_12  and  C_13 
REMARK    7  A    between atoms: C_13  and  C_14 
REMARK    8  A    between atoms: C_14  and  C_15 
REMARK    9  A    between atoms: C_15  and  N_36 
ROOT
ATOM      1  C   LIG d   1       4.947  -7.081  -6.135  0.00  0.00     0.053 C 
ATOM      2  H   LIG d   1       4.140  -7.794  -5.965  0.00  0.00     0.095 H 
ENDROOT
BRANCH   1   3
ATOM      3  C   LIG d   1       4.465  -5.690  -5.812  0.00  0.00     0.265 C 
ATOM      4  N   LIG d   1       5.307  -4.798  -5.251  0.00  0.00    -0.281 N 
ATOM      5  H   LIG d   1       6.200  -5.072  -4.992  0.00  0.00     0.155 HD
ATOM      6  O   LIG d   1       3.321  -5.372  -6.056  0.00  0.00    -0.269 OA
BRANCH   4   7
ATOM      7  C   LIG d   1       4.891  -3.480  -5.041  0.00  0.00     0.034 A 
ATOM      8  C   LIG d   1       4.940  -2.560  -6.081  0.00  0.00    -0.034 A 
ATOM      9  C   LIG d   1       4.522  -1.260  -5.872  0.00  0.00     0.017 A 
ATOM     10  H   LIG d   1       5.301  -2.862  -7.053  0.00  0.00     0.064 H 
ATOM     11  C   LIG d   1       4.066  -0.871  -4.625  0.00  0.00     0.273 A 
ATOM     12  H   LIG d   1       4.556  -0.546  -6.680  0.00  0.00     0.069 H 
ATOM     13  C   LIG d   1       4.020  -1.783  -3.587  0.00  0.00     0.017 A 
ATOM     14  C   LIG d   1       4.431  -3.086  -3.791  0.00  0.00    -0.034 A 
ATOM     15  H   LIG d   1       3.664  -1.476  -2.614  0.00  0.00     0.069 H 
ATOM     16  H   LIG d   1       4.395  -3.797  -2.980  0.00  0.00     0.064 H 
BRANCH  11  17
ATOM     17  N   LIG d   1       3.624   0.524  -4.402  0.00  0.00     0.080 N 
ATOM     18  O   LIG d   1       2.721   0.992  -5.071  0.00  0.00     0.041 OA
ATOM     19  O   LIG d   1       4.165   1.204  -3.549  0.00  0.00    -0.576 OA
ENDBRANCH  11  17
ENDBRANCH   4   7
ENDBRANCH   1   3
BRANCH   1  20
ATOM     20  C   LIG d   1       6.135  -7.431  -5.236  0.00  0.00    -0.001 C 
ATOM     21  H   LIG d   1       7.061  -7.330  -5.802  0.00  0.00     0.033 H 
ATOM     22  H   LIG d   1       6.155  -6.756  -4.381  0.00  0.00     0.033 H 
BRANCH  20  23
ATOM     23  C   LIG d   1       5.993  -8.873  -4.744  0.00  0.00    -0.043 C 
ATOM     24  H   LIG d   1       6.404  -9.553  -5.491  0.00  0.00     0.027 H 
ATOM     25  H   LIG d   1       6.536  -8.992  -3.806  0.00  0.00     0.027 H 
BRANCH  23  26
ATOM     26  C   LIG d   1       4.514  -9.193  -4.522  0.00  0.00    -0.012 C 
ATOM     27  H   LIG d   1       3.975  -8.275  -4.289  0.00  0.00     0.032 H 
ATOM     28  H   LIG d   1       4.098  -9.639  -5.426  0.00  0.00     0.032 H 
BRANCH  26  29
ATOM     29  C   LIG d   1       4.374 -10.176  -3.358  0.00  0.00    -0.035 C 
ATOM     30  H   LIG d   1       4.764 -11.150  -3.656  0.00  0.00     0.081 H 
ATOM     31  H   LIG d   1       4.936  -9.807  -2.500  0.00  0.00     0.081 H 
BRANCH  29  32
ATOM     32  N   LIG d   1       2.952 -10.283  -2.988  0.00  0.00     0.218 N 
ATOM     33  H   LIG d   1       2.863 -10.643  -2.040  0.00  0.00     0.199 HD
ATOM     34  H   LIG d   1       2.506  -9.368  -3.047  0.00  0.00     0.199 HD
ATOM     35  H   LIG d   1       2.481 -10.926  -3.636  0.00  0.00     0.199 HD
ENDBRANCH  29  32
ENDBRANCH  26  29
ENDBRANCH  23  26
ENDBRANCH  20  23
ENDBRANCH   1  20
BRANCH   1  36
ATOM     36  N   LIG d   1       5.372  -7.163  -7.544  0.00  0.00     0.227 N 
ATOM     37  H   LIG d   1       4.569  -7.043  -8.158  0.00  0.00     0.200 HD
ATOM     38  H   LIG d   1       6.063  -6.442  -7.743  0.00  0.00     0.200 HD
ATOM     39  H   LIG d   1       5.792  -8.085  -7.716  0.00  0.00     0.200 HD
ENDBRANCH   1  36
TORSDOF 9
ENDMDL
MODEL 10
REMARK VINA RESULT:      -4.8      5.348      8.084
REMARK  9 active torsions:
REMARK  status: ('A' for Active; 'I' for Inactive)
REMARK    1  A    between atoms: C_3  and  N_16 
REMARK    2  A    between atoms: C_6  and  N_7 
REMARK       I    between atoms: N_7  and  C_8 
REMARK    3  A    between atoms: C_8  and  C_10 
REMARK    4  A    between atoms: C_10  and  C_12 
REMARK    5  A    between atoms: C_10  and  N_38 
REMARK    6  A    between atoms: C_12  and  C_13 
REMARK    7  A    between atoms: C_13  and  C_14 
REMARK    8  A    between atoms: C_14  and  C_15 
REMARK    9  A    between atoms: C_15  and  N_36 
ROOT
ATOM      1  C   LIG d   1       4.949  -1.926  -4.214  0.00  0.00     0.053 C 
ATOM      2  H   LIG d   1       4.705  -0.876  -4.379  0.00  0.00     0.095 H 
ENDROOT
BRANCH   1   3
ATOM      3  C   LIG d   1       6.428  -2.062  -3.954  0.00  0.00     0.265 C 
ATOM      4  N   LIG d   1       7.063  -3.211  -4.262  0.00  0.00    -0.281 N 
ATOM      5  H   LIG d   1       6.557  -3.973  -4.583  0.00  0.00     0.155 HD
ATOM      6  O   LIG d   1       7.047  -1.139  -3.470  0.00  0.00    -0.269 OA
BRANCH   4   7
ATOM      7  C   LIG d   1       8.450  -3.305  -4.113  0.00  0.00     0.034 A 
ATOM      8  C   LIG d   1       8.989  -3.952  -3.008  0.00  0.00    -0.034 A 
ATOM      9  C   LIG d   1      10.360  -4.048  -2.866  0.00  0.00     0.017 A 
ATOM     10  H   LIG d   1       8.338  -4.383  -2.263  0.00  0.00     0.064 H 
ATOM     11  C   LIG d   1      11.196  -3.490  -3.816  0.00  0.00     0.273 A 
ATOM     12  H   LIG d   1      10.780  -4.554  -2.010  0.00  0.00     0.069 H 
ATOM     13  C   LIG d   1      10.662  -2.841  -4.915  0.00  0.00     0.017 A 
ATOM     14  C   LIG d   1       9.293  -2.747  -5.065  0.00  0.00    -0.034 A 
ATOM     15  H   LIG d   1      11.317  -2.406  -5.655  0.00  0.00     0.069 H 
ATOM     16  H   LIG d   1       8.877  -2.240  -5.923  0.00  0.00     0.064 H 
BRANCH  11  17
ATOM     17  N   LIG d   1      12.664  -3.589  -3.659  0.00  0.00     0.080 N 
ATOM     18  O   LIG d   1      13.353  -2.588  -3.728  0.00  0.00     0.041 OA
ATOM     19  O   LIG d   1      13.183  -4.673  -3.459  0.00  0.00    -0.576 OA
ENDBRANCH  11  17
ENDBRANCH   4   7
ENDBRANCH   1   3
BRANCH   1  20
ATOM     20  C   LIG d   1       4.169  -2.446  -3.005  0.00  0.00    -0.001 C 
ATOM     21  H   LIG d   1       3.132  -2.620  -3.289  0.00  0.00     0.033 H 
ATOM     22  H   LIG d   1       4.613  -3.380  -2.660  0.00  0.00     0.033 H 
BRANCH  20  23
ATOM     23  C   LIG d   1       4.223  -1.410  -1.880  0.00  0.00    -0.043 C 
ATOM     24  H   LIG d   1       3.617  -1.754  -1.041  0.00  0.00     0.027 H 
ATOM     25  H   LIG d   1       5.255  -1.280  -1.554  0.00  0.00     0.027 H 
BRANCH  23  26
ATOM     26  C   LIG d   1       3.675  -0.076  -2.389  0.00  0.00    -0.012 C 
ATOM     27  H   LIG d   1       3.626  -0.096  -3.478  0.00  0.00     0.032 H 
ATOM     28  H   LIG d   1       2.677   0.087  -1.984  0.00  0.00     0.032 H 
BRANCH  26  29
ATOM     29  C   LIG d   1       4.599   1.059  -1.941  0.00  0.00    -0.035 C 
ATOM     30  H   LIG d   1       3.999   1.900  -1.594  0.00  0.00     0.081 H 
ATOM     31  H   LIG d   1       5.239   0.709  -1.132  0.00  0.00     0.081 H 
BRANCH  29  32
ATOM     32  N   LIG d   1       5.445   1.465  -3.078  0.00  0.00     0.218 N 
ATOM     33  H   LIG d   1       5.103   2.340  -3.473  0.00  0.00     0.199 HD
ATOM     34  H   LIG d   1       6.409   1.586  -2.770  0.00  0.00     0.199 HD
ATOM     35  H   LIG d   1       5.414   0.736  -3.800  0.00  0.00     0.199 HD
ENDBRANCH  29  32
ENDBRANCH  26  29
ENDBRANCH  23  26
ENDBRANCH  20  23
ENDBRANCH   1  20
BRANCH   1  36
ATOM     36  N   LIG d   1       4.563  -2.703  -5.404  0.00  0.00     0.227 N 
ATOM     37  H   LIG d   1       4.483  -3.690  -5.166  0.00  0.00     0.200 HD
ATOM     38  H   LIG d   1       3.672  -2.369  -5.766  0.00  0.00     0.200 HD
ATOM     39  H   LIG d   1       5.282  -2.590  -6.128  0.00  0.00     0.200 HD
ENDBRANCH   1  36
TORSDOF 9
ENDMDL
