MODEL 1
REMARK VINA RESULT:      -5.7      0.000      0.000
REMARK  17 active torsions:
REMARK  status: ('A' for Active; 'I' for Inactive)
REMARK    1  A    between atoms: C_1  and  C_2 
REMARK    2  A    between atoms: C_2  and  C_4 
REMARK    3  A    between atoms: C_2  and  N_6 
REMARK       I    between atoms: N_6  and  C_7 
REMARK    4  A    between atoms: C_7  and  C_9 
REMARK    5  A    between atoms: C_9  and  C_11 
REMARK    6  A    between atoms: C_9  and  N_16 
REMARK    7  A    between atoms: C_11  and  C_12 
REMARK    8  A    between atoms: C_12  and  C_13 
REMARK       I    between atoms: C_13  and  N_15 
REMARK       I    between atoms: N_16  and  C_17 
REMARK    9  A    between atoms: C_17  and  C_19 
REMARK   10  A    between atoms: C_19  and  C_21 
REMARK   11  A    between atoms: C_19  and  N_29 
REMARK       I    between atoms: N_29  and  C_30 
REMARK       I    between atoms: C_30  and  N_32 
REMARK   12  A    between atoms: N_32  and  C_33 
REMARK   13  A    between atoms: C_33  and  C_35 
REMARK   14  A    between atoms: C_33  and  C_39 
REMARK   15  A    between atoms: C_35  and  C_36 
REMARK   16  A    between atoms: C_36  and  C_37 
REMARK   17  A    between atoms: C_36  and  C_38 
ROOT
ATOM      1  C   UNK d   1       6.567  -1.060  -4.644  0.00  0.00     0.132 C 
ATOM      2  H   UNK d   1       6.351  -1.801  -5.414  0.00  0.00     0.063 H 
ENDROOT
BRANCH   1   3
ATOM      3  C   UNK d   1       7.213   0.147  -5.277  0.00  0.00     0.237 C 
ATOM      4  N   UNK d   1       7.394   0.192  -6.611  0.00  0.00    -0.302 N 
ATOM      5  H   UNK d   1       7.163  -0.574  -7.158  0.00  0.00     0.149 HD
ATOM      6  O   UNK d   1       7.570   1.076  -4.584  0.00  0.00    -0.274 OA
BRANCH   4   7
ATOM      7  C   UNK d   1       7.938   1.402  -7.236  0.00  0.00     0.100 C 
ATOM      8  H   UNK d   1       7.999   2.197  -6.493  0.00  0.00     0.059 H 
BRANCH   7   9
ATOM      9  C   UNK d   1       7.035   1.835  -8.362  0.00  0.00     0.234 C 
ATOM     10  N   UNK d   1       5.731   1.496  -8.348  0.00  0.00    -0.305 N 
ATOM     11  H   UNK d   1       5.373   0.974  -7.613  0.00  0.00     0.149 HD
ATOM     12  O   UNK d   1       7.483   2.487  -9.281  0.00  0.00    -0.274 OA
BRANCH  10  13
ATOM     13  C   UNK d   1       4.853   1.918  -9.443  0.00  0.00     0.076 C 
ATOM     14  H   UNK d   1       5.278   2.793  -9.934  0.00  0.00     0.057 H 
BRANCH  13  15
ATOM     15  C   UNK d   1       4.721   0.780 -10.457  0.00  0.00    -0.040 C 
ATOM     16  H   UNK d   1       3.965   0.073 -10.114  0.00  0.00     0.025 H 
ATOM     17  H   UNK d   1       4.426   1.186 -11.425  0.00  0.00     0.025 H 
ATOM     18  H   UNK d   1       5.679   0.267 -10.555  0.00  0.00     0.025 H 
ENDBRANCH  13  15
BRANCH  13  19
ATOM     19  C   UNK d   1       3.492   2.260  -8.893  0.00  0.00     0.140 C 
ATOM     20  O   UNK d   1       3.172   1.876  -7.793  0.00  0.00    -0.299 OA
ATOM     21  H   UNK d   1       2.804   2.847  -9.481  0.00  0.00     0.105 H 
ENDBRANCH  13  19
ENDBRANCH  10  13
ENDBRANCH   7   9
BRANCH   7  22
ATOM     22  C   UNK d   1       9.334   1.107  -7.786  0.00  0.00    -0.018 C 
ATOM     23  H   UNK d   1       9.477   0.029  -7.858  0.00  0.00     0.029 H 
ATOM     24  H   UNK d   1       9.437   1.554  -8.775  0.00  0.00     0.029 H 
BRANCH  22  25
ATOM     25  C   UNK d   1      10.388   1.699  -6.847  0.00  0.00     0.026 C 
ATOM     26  H   UNK d   1      11.170   2.178  -7.435  0.00  0.00     0.036 H 
ATOM     27  H   UNK d   1       9.919   2.436  -6.195  0.00  0.00     0.036 H 
BRANCH  25  28
ATOM     28  C   UNK d   1      10.989   0.599  -6.011  0.00  0.00     0.211 C 
ATOM     29  O   UNK d   1      11.826  -0.138  -6.490  0.00  0.00    -0.276 OA
ATOM     30  N   UNK d   1      10.599   0.434  -4.732  0.00  0.00    -0.329 N 
ATOM     31  H   UNK d   1       9.930   1.024  -4.349  0.00  0.00     0.145 HD
ATOM     32  H   UNK d   1      10.987  -0.273  -4.194  0.00  0.00     0.145 HD
ENDBRANCH  25  28
ENDBRANCH  22  25
ENDBRANCH   7  22
ENDBRANCH   4   7
ENDBRANCH   1   3
BRANCH   1  33
ATOM     33  C   UNK d   1       5.265  -0.641  -3.959  0.00  0.00     0.098 C 
ATOM     34  H   UNK d   1       5.489   0.022  -3.123  0.00  0.00     0.069 H 
ATOM     35  N   UNK d   1       4.401   0.056  -4.925  0.00  0.00    -0.236 N 
ATOM     36  C   UNK d   1       3.089   0.303  -4.545  0.00  0.00     0.327 C 
ATOM     37  H   UNK d   1       4.734   0.329  -5.794  0.00  0.00     0.245 HD
ATOM     38  N   UNK d   1       2.429  -0.725  -3.890  0.00  0.00    -0.241 N 
ATOM     39  N   UNK d   1       2.511   1.445  -4.788  0.00  0.00    -0.295 N 
ATOM     40  C   UNK d   1       3.177  -1.465  -2.861  0.00  0.00     0.061 C 
ATOM     41  H   UNK d   1       1.509  -0.948  -4.102  0.00  0.00     0.244 HD
ATOM     42  C   UNK d   1       4.531  -1.884  -3.446  0.00  0.00     0.010 C 
ATOM     43  H   UNK d   1       2.615  -2.351  -2.566  0.00  0.00     0.063 H 
ATOM     44  H   UNK d   1       3.337  -0.824  -1.994  0.00  0.00     0.063 H 
ATOM     45  H   UNK d   1       4.371  -2.579  -4.271  0.00  0.00     0.033 H 
ATOM     46  H   UNK d   1       5.128  -2.368  -2.673  0.00  0.00     0.033 H 
ATOM     47  H   UNK d   1       1.594   1.593  -4.509  0.00  0.00     0.254 HD
ATOM     48  H   UNK d   1       2.998   2.147  -5.248  0.00  0.00     0.254 HD
ENDBRANCH   1  33
BRANCH   1  49
ATOM     49  N   UNK d   1       7.478  -1.637  -3.652  0.00  0.00    -0.285 N 
ATOM     50  C   UNK d   0       8.237  -2.704  -3.975  0.00  0.00     0.301 C 
ATOM     51  O   UNK d   0       8.164  -3.186  -5.088  0.00  0.00    -0.253 OA
ATOM     52  N   UNK d   1       9.075  -3.235  -3.063  0.00  0.00    -0.291 N 
ATOM     53  H   UNK d   1       9.132  -2.850  -2.175  0.00  0.00     0.151 HD
ATOM     54  H   UNK d   1       7.535  -1.252  -2.764  0.00  0.00     0.151 HD
BRANCH  52  55
ATOM     55  C   UNK d   1       9.899  -4.394  -3.413  0.00  0.00     0.064 C 
ATOM     56  H   UNK d   1       9.696  -4.686  -4.444  0.00  0.00     0.056 H 
BRANCH  55  57
ATOM     57  C   UNK d   1      11.379  -4.029  -3.270  0.00  0.00    -0.027 C 
ATOM     58  H   UNK d   1      11.562  -3.648  -2.266  0.00  0.00     0.029 H 
ATOM     59  H   UNK d   1      11.989  -4.916  -3.438  0.00  0.00     0.029 H 
BRANCH  57  60
ATOM     60  C   UNK d   1      11.742  -2.956  -4.298  0.00  0.00    -0.045 C 
ATOM     61  H   UNK d   1      11.004  -2.155  -4.263  0.00  0.00     0.030 H 
BRANCH  60  62
ATOM     62  C   UNK d   1      13.126  -2.390  -3.977  0.00  0.00    -0.063 C 
ATOM     63  H   UNK d   1      13.766  -2.473  -4.855  0.00  0.00     0.023 H 
ATOM     64  H   UNK d   1      13.033  -1.342  -3.693  0.00  0.00     0.023 H 
ATOM     65  H   UNK d   1      13.565  -2.951  -3.152  0.00  0.00     0.023 H 
ENDBRANCH  60  62
BRANCH  60  66
ATOM     66  C   UNK d   1      11.757  -3.576  -5.697  0.00  0.00    -0.063 C 
ATOM     67  H   UNK d   1      11.178  -4.499  -5.691  0.00  0.00     0.023 H 
ATOM     68  H   UNK d   1      11.318  -2.876  -6.409  0.00  0.00     0.023 H 
ATOM     69  H   UNK d   1      12.784  -3.793  -5.988  0.00  0.00     0.023 H 
ENDBRANCH  60  66
ENDBRANCH  57  60
ENDBRANCH  55  57
BRANCH  55  70
ATOM     70  C   UNK d   1       9.573  -5.540  -2.492  0.00  0.00     0.062 C 
ATOM     71  O   UNK d   1       9.589  -5.375  -1.283  0.00  0.00    -0.548 OA
ATOM     72  O   UNK d   1       9.293  -6.633  -2.952  0.00  0.00    -0.548 OA
ENDBRANCH  55  70
ENDBRANCH  52  55
ENDBRANCH   1  49
TORSDOF 17
ENDMDL
MODEL 2
REMARK VINA RESULT:      -5.7      3.425      5.921
REMARK  17 active torsions:
REMARK  status: ('A' for Active; 'I' for Inactive)
REMARK    1  A    between atoms: C_1  and  C_2 
REMARK    2  A    between atoms: C_2  and  C_4 
REMARK    3  A    between atoms: C_2  and  N_6 
REMARK       I    between atoms: N_6  and  C_7 
REMARK    4  A    between atoms: C_7  and  C_9 
REMARK    5  A    between atoms: C_9  and  C_11 
REMARK    6  A    between atoms: C_9  and  N_16 
REMARK    7  A    between atoms: C_11  and  C_12 
REMARK    8  A    between atoms: C_12  and  C_13 
REMARK       I    between atoms: C_13  and  N_15 
REMARK       I    between atoms: N_16  and  C_17 
REMARK    9  A    between atoms: C_17  and  C_19 
REMARK   10  A    between atoms: C_19  and  C_21 
REMARK   11  A    between atoms: C_19  and  N_29 
REMARK       I    between atoms: N_29  and  C_30 
REMARK       I    between atoms: C_30  and  N_32 
REMARK   12  A    between atoms: N_32  and  C_33 
REMARK   13  A    between atoms: C_33  and  C_35 
REMARK   14  A    between atoms: C_33  and  C_39 
REMARK   15  A    between atoms: C_35  and  C_36 
REMARK   16  A    between atoms: C_36  and  C_37 
REMARK   17  A    between atoms: C_36  and  C_38 
ROOT
ATOM      1  C   UNK d   1       7.320   0.479  -4.324  0.00  0.00     0.132 C 
ATOM      2  H   UNK d   1       8.022   0.028  -3.624  0.00  0.00     0.063 H 
ENDROOT
BRANCH   1   3
ATOM      3  C   UNK d   1       7.473  -0.169  -5.677  0.00  0.00     0.237 C 
ATOM      4  N   UNK d   1       6.394  -0.345  -6.465  0.00  0.00    -0.302 N 
ATOM      5  H   UNK d   1       5.512  -0.108  -6.139  0.00  0.00     0.149 HD
ATOM      6  O   UNK d   1       8.566  -0.533  -6.054  0.00  0.00    -0.274 OA
BRANCH   4   7
ATOM      7  C   UNK d   1       6.554  -0.892  -7.815  0.00  0.00     0.100 C 
ATOM      8  H   UNK d   1       7.587  -1.209  -7.957  0.00  0.00     0.059 H 
BRANCH   7   9
ATOM      9  C   UNK d   1       6.210   0.167  -8.830  0.00  0.00     0.234 C 
ATOM     10  N   UNK d   1       4.921   0.437  -9.111  0.00  0.00    -0.305 N 
ATOM     11  H   UNK d   1       4.214  -0.050  -8.659  0.00  0.00     0.149 HD
ATOM     12  O   UNK d   1       7.094   0.776  -9.395  0.00  0.00    -0.274 OA
BRANCH  10  13
ATOM     13  C   UNK d   1       4.585   1.467 -10.098  0.00  0.00     0.076 C 
ATOM     14  H   UNK d   1       5.497   1.969 -10.424  0.00  0.00     0.057 H 
BRANCH  13  15
ATOM     15  C   UNK d   1       3.904   0.815 -11.303  0.00  0.00    -0.040 C 
ATOM     16  H   UNK d   1       3.961  -0.270 -11.210  0.00  0.00     0.025 H 
ATOM     17  H   UNK d   1       2.859   1.122 -11.341  0.00  0.00     0.025 H 
ATOM     18  H   UNK d   1       4.408   1.128 -12.219  0.00  0.00     0.025 H 
ENDBRANCH  13  15
BRANCH  13  19
ATOM     19  C   UNK d   1       3.652   2.474  -9.477  0.00  0.00     0.140 C 
ATOM     20  O   UNK d   1       3.328   2.363  -8.318  0.00  0.00    -0.299 OA
ATOM     21  H   UNK d   1       3.271   3.294 -10.067  0.00  0.00     0.105 H 
ENDBRANCH  13  19
ENDBRANCH  10  13
ENDBRANCH   7   9
BRANCH   7  22
ATOM     22  C   UNK d   1       5.622  -2.091  -7.993  0.00  0.00    -0.018 C 
ATOM     23  H   UNK d   1       5.125  -2.025  -8.961  0.00  0.00     0.029 H 
ATOM     24  H   UNK d   1       6.202  -3.013  -7.945  0.00  0.00     0.029 H 
BRANCH  22  25
ATOM     25  C   UNK d   1       4.571  -2.090  -6.880  0.00  0.00     0.026 C 
ATOM     26  H   UNK d   1       4.691  -1.196  -6.270  0.00  0.00     0.036 H 
ATOM     27  H   UNK d   1       3.575  -2.100  -7.321  0.00  0.00     0.036 H 
BRANCH  25  28
ATOM     28  C   UNK d   1       4.751  -3.314  -6.019  0.00  0.00     0.211 C 
ATOM     29  O   UNK d   1       5.697  -3.390  -5.263  0.00  0.00    -0.276 OA
ATOM     30  N   UNK d   1       3.863  -4.324  -6.089  0.00  0.00    -0.329 N 
ATOM     31  H   UNK d   1       3.106  -4.264  -6.693  0.00  0.00     0.145 HD
ATOM     32  H   UNK d   1       3.978  -5.111  -5.534  0.00  0.00     0.145 HD
ENDBRANCH  25  28
ENDBRANCH  22  25
ENDBRANCH   7  22
ENDBRANCH   4   7
ENDBRANCH   1   3
BRANCH   1  33
ATOM     33  C   UNK d   1       5.891   0.272  -3.819  0.00  0.00     0.098 C 
ATOM     34  H   UNK d   1       5.187   0.423  -4.637  0.00  0.00     0.069 H 
ATOM     35  N   UNK d   1       5.747  -1.094  -3.289  0.00  0.00    -0.236 N 
ATOM     36  C   UNK d   1       4.591  -1.384  -2.579  0.00  0.00     0.327 C 
ATOM     37  H   UNK d   1       6.436  -1.763  -3.428  0.00  0.00     0.245 HD
ATOM     38  N   UNK d   1       4.154  -0.421  -1.683  0.00  0.00    -0.241 N 
ATOM     39  N   UNK d   1       3.947  -2.504  -2.751  0.00  0.00    -0.295 N 
ATOM     40  C   UNK d   1       4.202   0.984  -2.120  0.00  0.00     0.061 C 
ATOM     41  H   UNK d   1       3.831  -0.664  -0.801  0.00  0.00     0.244 HD
ATOM     42  C   UNK d   1       5.593   1.272  -2.695  0.00  0.00     0.010 C 
ATOM     43  H   UNK d   1       4.014   1.638  -1.269  0.00  0.00     0.063 H 
ATOM     44  H   UNK d   1       3.447   1.153  -2.888  0.00  0.00     0.063 H 
ATOM     45  H   UNK d   1       6.341   1.168  -1.908  0.00  0.00     0.033 H 
ATOM     46  H   UNK d   1       5.621   2.286  -3.093  0.00  0.00     0.033 H 
ATOM     47  H   UNK d   1       3.140  -2.682  -2.244  0.00  0.00     0.254 HD
ATOM     48  H   UNK d   1       4.276  -3.160  -3.385  0.00  0.00     0.254 HD
ENDBRANCH   1  33
BRANCH   1  49
ATOM     49  N   UNK d   1       7.595   1.914  -4.437  0.00  0.00    -0.285 N 
ATOM     50  C   UNK d   0       8.814   2.393  -4.116  0.00  0.00     0.301 C 
ATOM     51  O   UNK d   0       9.683   1.634  -3.733  0.00  0.00    -0.253 OA
ATOM     52  N   UNK d   1       9.068   3.713  -4.220  0.00  0.00    -0.291 N 
ATOM     53  H   UNK d   1       8.374   4.317  -4.525  0.00  0.00     0.151 HD
ATOM     54  H   UNK d   1       6.901   2.518  -4.742  0.00  0.00     0.151 HD
BRANCH  52  55
ATOM     55  C   UNK d   1      10.392   4.233  -3.871  0.00  0.00     0.064 C 
ATOM     56  H   UNK d   1      11.117   3.419  -3.885  0.00  0.00     0.056 H 
BRANCH  55  57
ATOM     57  C   UNK d   1      10.804   5.301  -4.886  0.00  0.00    -0.027 C 
ATOM     58  H   UNK d   1      11.198   6.169  -4.359  0.00  0.00     0.029 H 
ATOM     59  H   UNK d   1      11.571   4.898  -5.547  0.00  0.00     0.029 H 
BRANCH  57  60
ATOM     60  C   UNK d   1       9.585   5.716  -5.713  0.00  0.00    -0.045 C 
ATOM     61  H   UNK d   1       8.726   5.111  -5.423  0.00  0.00     0.030 H 
BRANCH  60  62
ATOM     62  C   UNK d   1       9.276   7.193  -5.460  0.00  0.00    -0.063 C 
ATOM     63  H   UNK d   1       8.271   7.421  -5.816  0.00  0.00     0.023 H 
ATOM     64  H   UNK d   1       9.339   7.399  -4.392  0.00  0.00     0.023 H 
ATOM     65  H   UNK d   1       9.999   7.811  -5.992  0.00  0.00     0.023 H 
ENDBRANCH  60  62
BRANCH  60  66
ATOM     66  C   UNK d   1       9.881   5.504  -7.199  0.00  0.00    -0.063 C 
ATOM     67  H   UNK d   1      10.925   5.214  -7.323  0.00  0.00     0.023 H 
ATOM     68  H   UNK d   1       9.236   4.718  -7.590  0.00  0.00     0.023 H 
ATOM     69  H   UNK d   1       9.695   6.430  -7.743  0.00  0.00     0.023 H 
ENDBRANCH  60  66
ENDBRANCH  57  60
ENDBRANCH  55  57
BRANCH  55  70
ATOM     70  C   UNK d   1      10.346   4.841  -2.493  0.00  0.00     0.062 C 
ATOM     71  O   UNK d   1      11.053   4.394  -1.605  0.00  0.00    -0.548 OA
ATOM     72  O   UNK d   1       9.604   5.780  -2.265  0.00  0.00    -0.548 OA
ENDBRANCH  55  70
ENDBRANCH  52  55
ENDBRANCH   1  49
TORSDOF 17
ENDMDL
MODEL 3
REMARK VINA RESULT:      -5.5      4.876      6.990
REMARK  17 active torsions:
REMARK  status: ('A' for Active; 'I' for Inactive)
REMARK    1  A    between atoms: C_1  and  C_2 
REMARK    2  A    between atoms: C_2  and  C_4 
REMARK    3  A    between atoms: C_2  and  N_6 
REMARK       I    between atoms: N_6  and  C_7 
REMARK    4  A    between atoms: C_7  and  C_9 
REMARK    5  A    between atoms: C_9  and  C_11 
REMARK    6  A    between atoms: C_9  and  N_16 
REMARK    7  A    between atoms: C_11  and  C_12 
REMARK    8  A    between atoms: C_12  and  C_13 
REMARK       I    between atoms: C_13  and  N_15 
REMARK       I    between atoms: N_16  and  C_17 
REMARK    9  A    between atoms: C_17  and  C_19 
REMARK   10  A    between atoms: C_19  and  C_21 
REMARK   11  A    between atoms: C_19  and  N_29 
REMARK       I    between atoms: N_29  and  C_30 
REMARK       I    between atoms: C_30  and  N_32 
REMARK   12  A    between atoms: N_32  and  C_33 
REMARK   13  A    between atoms: C_33  and  C_35 
REMARK   14  A    between atoms: C_33  and  C_39 
REMARK   15  A    between atoms: C_35  and  C_36 
REMARK   16  A    between atoms: C_36  and  C_37 
REMARK   17  A    between atoms: C_36  and  C_38 
ROOT
ATOM      1  C   UNK d   1       3.154  -3.736  -9.624  0.00  0.00     0.132 C 
ATOM      2  H   UNK d   1       3.830  -4.218 -10.330  0.00  0.00     0.063 H 
ENDROOT
BRANCH   1   3
ATOM      3  C   UNK d   1       3.629  -2.332  -9.351  0.00  0.00     0.237 C 
ATOM      4  N   UNK d   1       3.267  -1.707  -8.214  0.00  0.00    -0.302 N 
ATOM      5  H   UNK d   1       2.655  -2.138  -7.598  0.00  0.00     0.149 HD
ATOM      6  O   UNK d   1       4.336  -1.764 -10.157  0.00  0.00    -0.274 OA
BRANCH   4   7
ATOM      7  C   UNK d   1       3.802  -0.378  -7.906  0.00  0.00     0.100 C 
ATOM      8  H   UNK d   1       4.662  -0.176  -8.544  0.00  0.00     0.059 H 
BRANCH   7   9
ATOM      9  C   UNK d   1       4.227  -0.329  -6.461  0.00  0.00     0.234 C 
ATOM     10  N   UNK d   1       3.521  -0.998  -5.528  0.00  0.00    -0.305 N 
ATOM     11  H   UNK d   1       2.740  -1.511  -5.787  0.00  0.00     0.149 HD
ATOM     12  O   UNK d   1       5.203   0.314  -6.137  0.00  0.00    -0.274 OA
BRANCH  10  13
ATOM     13  C   UNK d   1       3.934  -0.951  -4.123  0.00  0.00     0.076 C 
ATOM     14  H   UNK d   1       4.627  -0.122  -3.975  0.00  0.00     0.057 H 
BRANCH  13  15
ATOM     15  C   UNK d   1       2.703  -0.750  -3.237  0.00  0.00    -0.040 C 
ATOM     16  H   UNK d   1       2.113  -1.667  -3.220  0.00  0.00     0.025 H 
ATOM     17  H   UNK d   1       3.020  -0.502  -2.224  0.00  0.00     0.025 H 
ATOM     18  H   UNK d   1       2.096   0.064  -3.637  0.00  0.00     0.025 H 
ENDBRANCH  13  15
BRANCH  13  19
ATOM     19  C   UNK d   1       4.611  -2.246  -3.754  0.00  0.00     0.140 C 
ATOM     20  O   UNK d   1       4.244  -3.283  -4.254  0.00  0.00    -0.299 OA
ATOM     21  H   UNK d   1       5.424  -2.247  -3.044  0.00  0.00     0.105 H 
ENDBRANCH  13  19
ENDBRANCH  10  13
ENDBRANCH   7   9
BRANCH   7  22
ATOM     22  C   UNK d   1       2.722   0.676  -8.155  0.00  0.00    -0.018 C 
ATOM     23  H   UNK d   1       2.046   0.327  -8.936  0.00  0.00     0.029 H 
ATOM     24  H   UNK d   1       2.160   0.846  -7.237  0.00  0.00     0.029 H 
BRANCH  22  25
ATOM     25  C   UNK d   1       3.380   1.985  -8.599  0.00  0.00     0.026 C 
ATOM     26  H   UNK d   1       2.609   2.699  -8.888  0.00  0.00     0.036 H 
ATOM     27  H   UNK d   1       3.966   2.394  -7.777  0.00  0.00     0.036 H 
BRANCH  25  28
ATOM     28  C   UNK d   1       4.284   1.718  -9.775  0.00  0.00     0.211 C 
ATOM     29  O   UNK d   1       5.470   1.964  -9.697  0.00  0.00    -0.276 OA
ATOM     30  N   UNK d   1       3.775   1.208 -10.914  0.00  0.00    -0.329 N 
ATOM     31  H   UNK d   1       2.828   1.011 -10.977  0.00  0.00     0.145 HD
ATOM     32  H   UNK d   1       4.357   1.035 -11.671  0.00  0.00     0.145 HD
ENDBRANCH  25  28
ENDBRANCH  22  25
ENDBRANCH   7  22
ENDBRANCH   4   7
ENDBRANCH   1   3
BRANCH   1  33
ATOM     33  C   UNK d   1       1.744  -3.691 -10.217  0.00  0.00     0.098 C 
ATOM     34  H   UNK d   1       1.021  -3.483  -9.429  0.00  0.00     0.069 H 
ATOM     35  N   UNK d   1       1.674  -2.636 -11.242  0.00  0.00    -0.236 N 
ATOM     36  C   UNK d   1       0.544  -2.604 -12.047  0.00  0.00     0.327 C 
ATOM     37  H   UNK d   1       2.390  -1.992 -11.353  0.00  0.00     0.245 HD
ATOM     38  N   UNK d   1       0.077  -3.824 -12.511  0.00  0.00    -0.241 N 
ATOM     39  N   UNK d   1      -0.049  -1.483 -12.347  0.00  0.00    -0.295 N 
ATOM     40  C   UNK d   1       0.052  -4.947 -11.560  0.00  0.00     0.061 C 
ATOM     41  H   UNK d   1      -0.220  -3.934 -13.428  0.00  0.00     0.244 HD
ATOM     42  C   UNK d   1       1.418  -5.038 -10.872  0.00  0.00     0.010 C 
ATOM     43  H   UNK d   1      -0.153  -5.875 -12.094  0.00  0.00     0.063 H 
ATOM     44  H   UNK d   1      -0.723  -4.774 -10.812  0.00  0.00     0.063 H 
ATOM     45  H   UNK d   1       2.182  -5.278 -11.611  0.00  0.00     0.033 H 
ATOM     46  H   UNK d   1       1.391  -5.817 -10.109  0.00  0.00     0.033 H 
ATOM     47  H   UNK d   1      -0.839  -1.488 -12.910  0.00  0.00     0.254 HD
ATOM     48  H   UNK d   1       0.300  -0.644 -12.008  0.00  0.00     0.254 HD
ENDBRANCH   1  33
BRANCH   1  49
ATOM     49  N   UNK d   1       3.132  -4.496  -8.371  0.00  0.00    -0.285 N 
ATOM     50  C   UNK d   0       4.103  -5.393  -8.111  0.00  0.00     0.301 C 
ATOM     51  O   UNK d   0       4.997  -5.572  -8.916  0.00  0.00    -0.253 OA
ATOM     52  N   UNK d   1       4.085  -6.092  -6.959  0.00  0.00    -0.291 N 
ATOM     53  H   UNK d   1       3.371  -5.949  -6.318  0.00  0.00     0.151 HD
ATOM     54  H   UNK d   1       2.419  -4.353  -7.730  0.00  0.00     0.151 HD
BRANCH  52  55
ATOM     55  C   UNK d   1       5.140  -7.067  -6.676  0.00  0.00     0.064 C 
ATOM     56  H   UNK d   1       5.839  -7.099  -7.513  0.00  0.00     0.056 H 
BRANCH  55  57
ATOM     57  C   UNK d   1       5.887  -6.656  -5.405  0.00  0.00    -0.027 C 
ATOM     58  H   UNK d   1       5.318  -5.887  -4.883  0.00  0.00     0.029 H 
ATOM     59  H   UNK d   1       6.005  -7.524  -4.756  0.00  0.00     0.029 H 
BRANCH  57  60
ATOM     60  C   UNK d   1       7.265  -6.106  -5.778  0.00  0.00    -0.045 C 
ATOM     61  H   UNK d   1       7.982  -6.364  -4.999  0.00  0.00     0.030 H 
BRANCH  60  62
ATOM     62  C   UNK d   1       7.714  -6.715  -7.107  0.00  0.00    -0.063 C 
ATOM     63  H   UNK d   1       7.920  -7.777  -6.969  0.00  0.00     0.023 H 
ATOM     64  H   UNK d   1       6.925  -6.592  -7.849  0.00  0.00     0.023 H 
ATOM     65  H   UNK d   1       8.617  -6.212  -7.451  0.00  0.00     0.023 H 
ENDBRANCH  60  62
BRANCH  60  66
ATOM     66  C   UNK d   1       7.186  -4.584  -5.916  0.00  0.00    -0.063 C 
ATOM     67  H   UNK d   1       7.978  -4.238  -6.580  0.00  0.00     0.023 H 
ATOM     68  H   UNK d   1       6.217  -4.307  -6.331  0.00  0.00     0.023 H 
ATOM     69  H   UNK d   1       7.307  -4.123  -4.936  0.00  0.00     0.023 H 
ENDBRANCH  60  66
ENDBRANCH  57  60
ENDBRANCH  55  57
BRANCH  55  70
ATOM     70  C   UNK d   1       4.528  -8.429  -6.480  0.00  0.00     0.062 C 
ATOM     71  O   UNK d   1       4.205  -9.099  -7.448  0.00  0.00    -0.548 OA
ATOM     72  O   UNK d   1       4.354  -8.864  -5.355  0.00  0.00    -0.548 OA
ENDBRANCH  55  70
ENDBRANCH  52  55
ENDBRANCH   1  49
TORSDOF 17
ENDMDL
MODEL 4
REMARK VINA RESULT:      -5.5      3.525      6.042
REMARK  17 active torsions:
REMARK  status: ('A' for Active; 'I' for Inactive)
REMARK    1  A    between atoms: C_1  and  C_2 
REMARK    2  A    between atoms: C_2  and  C_4 
REMARK    3  A    between atoms: C_2  and  N_6 
REMARK       I    between atoms: N_6  and  C_7 
REMARK    4  A    between atoms: C_7  and  C_9 
REMARK    5  A    between atoms: C_9  and  C_11 
REMARK    6  A    between atoms: C_9  and  N_16 
REMARK    7  A    between atoms: C_11  and  C_12 
REMARK    8  A    between atoms: C_12  and  C_13 
REMARK       I    between atoms: C_13  and  N_15 
REMARK       I    between atoms: N_16  and  C_17 
REMARK    9  A    between atoms: C_17  and  C_19 
REMARK   10  A    between atoms: C_19  and  C_21 
REMARK   11  A    between atoms: C_19  and  N_29 
REMARK       I    between atoms: N_29  and  C_30 
REMARK       I    between atoms: C_30  and  N_32 
REMARK   12  A    between atoms: N_32  and  C_33 
REMARK   13  A    between atoms: C_33  and  C_35 
REMARK   14  A    between atoms: C_33  and  C_39 
REMARK   15  A    between atoms: C_35  and  C_36 
REMARK   16  A    between atoms: C_36  and  C_37 
REMARK   17  A    between atoms: C_36  and  C_38 
ROOT
ATOM      1  C   UNK d   1       6.944   0.312  -4.730  0.00  0.00     0.132 C 
ATOM      2  H   UNK d   1       7.755  -0.350  -4.427  0.00  0.00     0.063 H 
ENDROOT
BRANCH   1   3
ATOM      3  C   UNK d   1       6.704   0.165  -6.211  0.00  0.00     0.237 C 
ATOM      4  N   UNK d   1       6.732   1.250  -7.008  0.00  0.00    -0.302 N 
ATOM      5  H   UNK d   1       6.849   2.133  -6.623  0.00  0.00     0.149 HD
ATOM      6  O   UNK d   1       6.483  -0.930  -6.683  0.00  0.00    -0.274 OA
BRANCH   4   7
ATOM      7  C   UNK d   1       6.589   1.098  -8.459  0.00  0.00     0.100 C 
ATOM      8  H   UNK d   1       6.587   0.038  -8.714  0.00  0.00     0.059 H 
BRANCH   7   9
ATOM      9  C   UNK d   1       7.740   1.780  -9.153  0.00  0.00     0.234 C 
ATOM     10  N   UNK d   1       8.856   1.086  -9.445  0.00  0.00    -0.305 N 
ATOM     11  H   UNK d   1       8.919   0.147  -9.210  0.00  0.00     0.149 HD
ATOM     12  O   UNK d   1       7.661   2.954  -9.446  0.00  0.00    -0.274 OA
BRANCH  10  13
ATOM     13  C   UNK d   1       9.975   1.748 -10.120  0.00  0.00     0.076 C 
ATOM     14  H   UNK d   1       9.828   2.828 -10.095  0.00  0.00     0.057 H 
BRANCH  13  15
ATOM     15  C   UNK d   1      11.282   1.397  -9.405  0.00  0.00    -0.040 C 
ATOM     16  H   UNK d   1      11.152   1.522  -8.329  0.00  0.00     0.025 H 
ATOM     17  H   UNK d   1      11.549   0.362  -9.621  0.00  0.00     0.025 H 
ATOM     18  H   UNK d   1      12.077   2.057  -9.754  0.00  0.00     0.025 H 
ENDBRANCH  13  15
BRANCH  13  19
ATOM     19  C   UNK d   1      10.046   1.283 -11.552  0.00  0.00     0.140 C 
ATOM     20  O   UNK d   1       9.501   0.256 -11.881  0.00  0.00    -0.299 OA
ATOM     21  H   UNK d   1      10.585   1.866 -12.283  0.00  0.00     0.105 H 
ENDBRANCH  13  19
ENDBRANCH  10  13
ENDBRANCH   7   9
BRANCH   7  22
ATOM     22  C   UNK d   1       5.272   1.734  -8.911  0.00  0.00    -0.018 C 
ATOM     23  H   UNK d   1       4.862   2.335  -8.099  0.00  0.00     0.029 H 
ATOM     24  H   UNK d   1       5.454   2.368  -9.778  0.00  0.00     0.029 H 
BRANCH  22  25
ATOM     25  C   UNK d   1       4.277   0.633  -9.284  0.00  0.00     0.026 C 
ATOM     26  H   UNK d   1       3.732   0.925 -10.181  0.00  0.00     0.036 H 
ATOM     27  H   UNK d   1       4.815  -0.296  -9.471  0.00  0.00     0.036 H 
BRANCH  25  28
ATOM     28  C   UNK d   1       3.305   0.430  -8.150  0.00  0.00     0.211 C 
ATOM     29  O   UNK d   1       3.133   1.311  -7.333  0.00  0.00    -0.276 OA
ATOM     30  N   UNK d   1       2.626  -0.729  -8.043  0.00  0.00    -0.329 N 
ATOM     31  H   UNK d   1       2.762  -1.433  -8.697  0.00  0.00     0.145 HD
ATOM     32  H   UNK d   1       2.000  -0.859  -7.314  0.00  0.00     0.145 HD
ENDBRANCH  25  28
ENDBRANCH  22  25
ENDBRANCH   7  22
ENDBRANCH   4   7
ENDBRANCH   1   3
BRANCH   1  33
ATOM     33  C   UNK d   1       5.671  -0.060  -3.968  0.00  0.00     0.098 C 
ATOM     34  H   UNK d   1       5.506   0.653  -3.160  0.00  0.00     0.069 H 
ATOM     35  N   UNK d   1       4.521  -0.037  -4.887  0.00  0.00    -0.236 N 
ATOM     36  C   UNK d   1       3.326  -0.571  -4.426  0.00  0.00     0.327 C 
ATOM     37  H   UNK d   1       4.597   0.332  -5.780  0.00  0.00     0.245 HD
ATOM     38  N   UNK d   1       3.409  -1.756  -3.712  0.00  0.00    -0.241 N 
ATOM     39  N   UNK d   1       2.185   0.017  -4.650  0.00  0.00    -0.295 N 
ATOM     40  C   UNK d   1       4.492  -1.878  -2.723  0.00  0.00     0.061 C 
ATOM     41  H   UNK d   1       2.778  -2.479  -3.861  0.00  0.00     0.244 HD
ATOM     42  C   UNK d   1       5.812  -1.472  -3.387  0.00  0.00     0.010 C 
ATOM     43  H   UNK d   1       4.557  -2.909  -2.377  0.00  0.00     0.063 H 
ATOM     44  H   UNK d   1       4.290  -1.218  -1.878  0.00  0.00     0.063 H 
ATOM     45  H   UNK d   1       6.047  -2.172  -4.188  0.00  0.00     0.033 H 
ATOM     46  H   UNK d   1       6.612  -1.483  -2.647  0.00  0.00     0.033 H 
ATOM     47  H   UNK d   1       1.363  -0.376  -4.315  0.00  0.00     0.254 HD
ATOM     48  H   UNK d   1       2.156   0.846  -5.152  0.00  0.00     0.254 HD
ENDBRANCH   1  33
BRANCH   1  49
ATOM     49  N   UNK d   1       7.307   1.699  -4.429  0.00  0.00    -0.285 N 
ATOM     50  C   UNK d   0       8.594   2.023  -4.196  0.00  0.00     0.301 C 
ATOM     51  O   UNK d   0       9.454   1.164  -4.236  0.00  0.00    -0.253 OA
ATOM     52  N   UNK d   1       8.929   3.299  -3.920  0.00  0.00    -0.291 N 
ATOM     53  H   UNK d   1       8.243   3.983  -3.888  0.00  0.00     0.151 HD
ATOM     54  H   UNK d   1       6.621   2.383  -4.397  0.00  0.00     0.151 HD
BRANCH  52  55
ATOM     55  C   UNK d   1      10.328   3.651  -3.668  0.00  0.00     0.064 C 
ATOM     56  H   UNK d   1      10.898   2.746  -3.459  0.00  0.00     0.056 H 
BRANCH  55  57
ATOM     57  C   UNK d   1      10.909   4.347  -4.900  0.00  0.00    -0.027 C 
ATOM     58  H   UNK d   1      11.505   5.204  -4.586  0.00  0.00     0.029 H 
ATOM     59  H   UNK d   1      11.541   3.648  -5.449  0.00  0.00     0.029 H 
BRANCH  57  60
ATOM     60  C   UNK d   1       9.769   4.822  -5.803  0.00  0.00    -0.045 C 
ATOM     61  H   UNK d   1       8.821   4.449  -5.417  0.00  0.00     0.030 H 
BRANCH  60  62
ATOM     62  C   UNK d   1       9.743   6.351  -5.830  0.00  0.00    -0.063 C 
ATOM     63  H   UNK d   1       9.944   6.736  -4.829  0.00  0.00     0.023 H 
ATOM     64  H   UNK d   1      10.505   6.716  -6.519  0.00  0.00     0.023 H 
ATOM     65  H   UNK d   1       8.762   6.691  -6.160  0.00  0.00     0.023 H 
ENDBRANCH  60  62
BRANCH  60  66
ATOM     66  C   UNK d   1       9.988   4.291  -7.222  0.00  0.00    -0.063 C 
ATOM     67  H   UNK d   1      11.029   4.440  -7.508  0.00  0.00     0.023 H 
ATOM     68  H   UNK d   1       9.751   3.227  -7.252  0.00  0.00     0.023 H 
ATOM     69  H   UNK d   1       9.340   4.827  -7.915  0.00  0.00     0.023 H 
ENDBRANCH  60  66
ENDBRANCH  57  60
ENDBRANCH  55  57
BRANCH  55  70
ATOM     70  C   UNK d   1      10.407   4.579  -2.483  0.00  0.00     0.062 C 
ATOM     71  O   UNK d   1       9.647   5.529  -2.401  0.00  0.00    -0.548 OA
ATOM     72  O   UNK d   1      11.231   4.381  -1.607  0.00  0.00    -0.548 OA
ENDBRANCH  55  70
ENDBRANCH  52  55
ENDBRANCH   1  49
TORSDOF 17
ENDMDL
MODEL 5
REMARK VINA RESULT:      -5.5      5.402      8.024
REMARK  17 active torsions:
REMARK  status: ('A' for Active; 'I' for Inactive)
REMARK    1  A    between atoms: C_1  and  C_2 
REMARK    2  A    between atoms: C_2  and  C_4 
REMARK    3  A    between atoms: C_2  and  N_6 
REMARK       I    between atoms: N_6  and  C_7 
REMARK    4  A    between atoms: C_7  and  C_9 
REMARK    5  A    between atoms: C_9  and  C_11 
REMARK    6  A    between atoms: C_9  and  N_16 
REMARK    7  A    between atoms: C_11  and  C_12 
REMARK    8  A    between atoms: C_12  and  C_13 
REMARK       I    between atoms: C_13  and  N_15 
REMARK       I    between atoms: N_16  and  C_17 
REMARK    9  A    between atoms: C_17  and  C_19 
REMARK   10  A    between atoms: C_19  and  C_21 
REMARK   11  A    between atoms: C_19  and  N_29 
REMARK       I    between atoms: N_29  and  C_30 
REMARK       I    between atoms: C_30  and  N_32 
REMARK   12  A    between atoms: N_32  and  C_33 
REMARK   13  A    between atoms: C_33  and  C_35 
REMARK   14  A    between atoms: C_33  and  C_39 
REMARK   15  A    between atoms: C_35  and  C_36 
REMARK   16  A    between atoms: C_36  and  C_37 
REMARK   17  A    between atoms: C_36  and  C_38 
ROOT
ATOM      1  C   UNK d   1       4.603  -4.906  -7.297  0.00  0.00     0.132 C 
ATOM      2  H   UNK d   1       5.678  -4.736  -7.243  0.00  0.00     0.063 H 
ENDROOT
BRANCH   1   3
ATOM      3  C   UNK d   1       4.123  -4.643  -8.702  0.00  0.00     0.237 C 
ATOM      4  N   UNK d   1       2.914  -4.086  -8.908  0.00  0.00    -0.302 N 
ATOM      5  H   UNK d   1       2.328  -3.907  -8.155  0.00  0.00     0.149 HD
ATOM      6  O   UNK d   1       4.825  -4.936  -9.647  0.00  0.00    -0.274 OA
BRANCH   4   7
ATOM      7  C   UNK d   1       2.484  -3.747 -10.267  0.00  0.00     0.100 C 
ATOM      8  H   UNK d   1       3.281  -3.992 -10.971  0.00  0.00     0.059 H 
BRANCH   7   9
ATOM      9  C   UNK d   1       2.180  -2.273 -10.346  0.00  0.00     0.234 C 
ATOM     10  N   UNK d   1       3.139  -1.371 -10.062  0.00  0.00    -0.305 N 
ATOM     11  H   UNK d   1       4.026  -1.670  -9.808  0.00  0.00     0.149 HD
ATOM     12  O   UNK d   1       1.071  -1.900 -10.664  0.00  0.00    -0.274 OA
BRANCH  10  13
ATOM     13  C   UNK d   1       2.844   0.062 -10.139  0.00  0.00     0.076 C 
ATOM     14  H   UNK d   1       1.857   0.207 -10.580  0.00  0.00     0.057 H 
BRANCH  13  15
ATOM     15  C   UNK d   1       2.865   0.663  -8.732  0.00  0.00    -0.040 C 
ATOM     16  H   UNK d   1       2.190   0.100  -8.086  0.00  0.00     0.025 H 
ATOM     17  H   UNK d   1       3.877   0.614  -8.330  0.00  0.00     0.025 H 
ATOM     18  H   UNK d   1       2.541   1.703  -8.776  0.00  0.00     0.025 H 
ENDBRANCH  13  15
BRANCH  13  19
ATOM     19  C   UNK d   1       3.881   0.744 -10.992  0.00  0.00     0.140 C 
ATOM     20  O   UNK d   1       4.908   0.170 -11.269  0.00  0.00    -0.299 OA
ATOM     21  H   UNK d   1       3.709   1.746 -11.355  0.00  0.00     0.105 H 
ENDBRANCH  13  19
ENDBRANCH  10  13
ENDBRANCH   7   9
BRANCH   7  22
ATOM     22  C   UNK d   1       1.229  -4.547 -10.619  0.00  0.00    -0.018 C 
ATOM     23  H   UNK d   1       0.652  -4.735  -9.714  0.00  0.00     0.029 H 
ATOM     24  H   UNK d   1       0.623  -3.979 -11.325  0.00  0.00     0.029 H 
BRANCH  22  25
ATOM     25  C   UNK d   1       1.634  -5.880 -11.252  0.00  0.00     0.026 C 
ATOM     26  H   UNK d   1       1.117  -6.003 -12.202  0.00  0.00     0.036 H 
ATOM     27  H   UNK d   1       2.711  -5.890 -11.419  0.00  0.00     0.036 H 
BRANCH  25  28
ATOM     28  C   UNK d   1       1.259  -7.009 -10.326  0.00  0.00     0.211 C 
ATOM     29  O   UNK d   1       1.997  -7.315  -9.413  0.00  0.00    -0.276 OA
ATOM     30  N   UNK d   1       0.105  -7.679 -10.513  0.00  0.00    -0.329 N 
ATOM     31  H   UNK d   1      -0.485  -7.434 -11.243  0.00  0.00     0.145 HD
ATOM     32  H   UNK d   1      -0.137  -8.405  -9.917  0.00  0.00     0.145 HD
ENDBRANCH  25  28
ENDBRANCH  22  25
ENDBRANCH   7  22
ENDBRANCH   4   7
ENDBRANCH   1   3
BRANCH   1  33
ATOM     33  C   UNK d   1       4.295  -6.355  -6.916  0.00  0.00     0.098 C 
ATOM     34  H   UNK d   1       3.235  -6.456  -6.685  0.00  0.00     0.069 H 
ATOM     35  N   UNK d   1       4.643  -7.245  -8.036  0.00  0.00    -0.236 N 
ATOM     36  C   UNK d   1       4.648  -8.610  -7.788  0.00  0.00     0.327 C 
ATOM     37  H   UNK d   1       4.863  -6.890  -8.911  0.00  0.00     0.245 HD
ATOM     38  N   UNK d   1       5.214  -9.021  -6.591  0.00  0.00    -0.241 N 
ATOM     39  N   UNK d   1       4.144  -9.460  -8.636  0.00  0.00    -0.295 N 
ATOM     40  C   UNK d   1       4.897  -8.237  -5.386  0.00  0.00     0.061 C 
ATOM     41  H   UNK d   1       5.797  -9.795  -6.548  0.00  0.00     0.244 HD
ATOM     42  C   UNK d   1       5.127  -6.753  -5.692  0.00  0.00     0.010 C 
ATOM     43  H   UNK d   1       5.544  -8.547  -4.566  0.00  0.00     0.063 H 
ATOM     44  H   UNK d   1       3.853  -8.396  -5.111  0.00  0.00     0.063 H 
ATOM     45  H   UNK d   1       6.184  -6.584  -5.900  0.00  0.00     0.033 H 
ATOM     46  H   UNK d   1       4.824  -6.152  -4.834  0.00  0.00     0.033 H 
ATOM     47  H   UNK d   1       4.158 -10.410  -8.437  0.00  0.00     0.254 HD
ATOM     48  H   UNK d   1       3.755  -9.145  -9.466  0.00  0.00     0.254 HD
ENDBRANCH   1  33
BRANCH   1  49
ATOM     49  N   UNK d   1       3.918  -4.000  -6.371  0.00  0.00    -0.285 N 
ATOM     50  C   UNK d   0       4.634  -3.250  -5.510  0.00  0.00     0.301 C 
ATOM     51  O   UNK d   0       5.848  -3.324  -5.503  0.00  0.00    -0.253 OA
ATOM     52  N   UNK d   1       4.004  -2.417  -4.658  0.00  0.00    -0.291 N 
ATOM     53  H   UNK d   1       3.037  -2.359  -4.663  0.00  0.00     0.151 HD
ATOM     54  H   UNK d   1       2.950  -3.942  -6.376  0.00  0.00     0.151 HD
BRANCH  52  55
ATOM     55  C   UNK d   1       4.783  -1.601  -3.723  0.00  0.00     0.064 C 
ATOM     56  H   UNK d   1       5.831  -1.897  -3.768  0.00  0.00     0.056 H 
BRANCH  55  57
ATOM     57  C   UNK d   1       4.653  -0.125  -4.105  0.00  0.00    -0.027 C 
ATOM     58  H   UNK d   1       5.423   0.451  -3.592  0.00  0.00     0.029 H 
ATOM     59  H   UNK d   1       4.776  -0.016  -5.182  0.00  0.00     0.029 H 
BRANCH  57  60
ATOM     60  C   UNK d   1       3.272   0.389  -3.694  0.00  0.00    -0.045 C 
ATOM     61  H   UNK d   1       2.776  -0.358  -3.075  0.00  0.00     0.030 H 
BRANCH  60  62
ATOM     62  C   UNK d   1       3.427   1.688  -2.900  0.00  0.00    -0.063 C 
ATOM     63  H   UNK d   1       2.838   1.627  -1.984  0.00  0.00     0.023 H 
ATOM     64  H   UNK d   1       4.477   1.836  -2.647  0.00  0.00     0.023 H 
ATOM     65  H   UNK d   1       3.077   2.525  -3.502  0.00  0.00     0.023 H 
ENDBRANCH  60  62
BRANCH  60  66
ATOM     66  C   UNK d   1       2.434   0.654  -4.946  0.00  0.00    -0.063 C 
ATOM     67  H   UNK d   1       2.332   1.730  -5.094  0.00  0.00     0.023 H 
ATOM     68  H   UNK d   1       2.926   0.214  -5.813  0.00  0.00     0.023 H 
ATOM     69  H   UNK d   1       1.446   0.210  -4.824  0.00  0.00     0.023 H 
ENDBRANCH  60  66
ENDBRANCH  57  60
ENDBRANCH  55  57
BRANCH  55  70
ATOM     70  C   UNK d   1       4.262  -1.805  -2.323  0.00  0.00     0.062 C 
ATOM     71  O   UNK d   1       4.709  -1.140  -1.404  0.00  0.00    -0.548 OA
ATOM     72  O   UNK d   1       3.394  -2.633  -2.110  0.00  0.00    -0.548 OA
ENDBRANCH  55  70
ENDBRANCH  52  55
ENDBRANCH   1  49
TORSDOF 17
ENDMDL
MODEL 6
REMARK VINA RESULT:      -5.5      3.210      7.271
REMARK  17 active torsions:
REMARK  status: ('A' for Active; 'I' for Inactive)
REMARK    1  A    between atoms: C_1  and  C_2 
REMARK    2  A    between atoms: C_2  and  C_4 
REMARK    3  A    between atoms: C_2  and  N_6 
REMARK       I    between atoms: N_6  and  C_7 
REMARK    4  A    between atoms: C_7  and  C_9 
REMARK    5  A    between atoms: C_9  and  C_11 
REMARK    6  A    between atoms: C_9  and  N_16 
REMARK    7  A    between atoms: C_11  and  C_12 
REMARK    8  A    between atoms: C_12  and  C_13 
REMARK       I    between atoms: C_13  and  N_15 
REMARK       I    between atoms: N_16  and  C_17 
REMARK    9  A    between atoms: C_17  and  C_19 
REMARK   10  A    between atoms: C_19  and  C_21 
REMARK   11  A    between atoms: C_19  and  N_29 
REMARK       I    between atoms: N_29  and  C_30 
REMARK       I    between atoms: C_30  and  N_32 
REMARK   12  A    between atoms: N_32  and  C_33 
REMARK   13  A    between atoms: C_33  and  C_35 
REMARK   14  A    between atoms: C_33  and  C_39 
REMARK   15  A    between atoms: C_35  and  C_36 
REMARK   16  A    between atoms: C_36  and  C_37 
REMARK   17  A    between atoms: C_36  and  C_38 
ROOT
ATOM      1  C   UNK d   1       9.687   1.585  -4.893  0.00  0.00     0.132 C 
ATOM      2  H   UNK d   1       9.035   1.740  -5.751  0.00  0.00     0.063 H 
ENDROOT
BRANCH   1   3
ATOM      3  C   UNK d   1      10.815   0.662  -5.279  0.00  0.00     0.237 C 
ATOM      4  N   UNK d   1      11.428  -0.082  -4.338  0.00  0.00    -0.302 N 
ATOM      5  H   UNK d   1      11.184   0.019  -3.405  0.00  0.00     0.149 HD
ATOM      6  O   UNK d   1      11.171   0.592  -6.436  0.00  0.00    -0.274 OA
BRANCH   4   7
ATOM      7  C   UNK d   1      12.463  -1.045  -4.725  0.00  0.00     0.100 C 
ATOM      8  H   UNK d   1      12.848  -0.788  -5.712  0.00  0.00     0.059 H 
BRANCH   7   9
ATOM      9  C   UNK d   1      11.870  -2.431  -4.763  0.00  0.00     0.234 C 
ATOM     10  N   UNK d   1      10.813  -2.733  -3.986  0.00  0.00    -0.305 N 
ATOM     11  H   UNK d   1      10.432  -2.058  -3.402  0.00  0.00     0.149 HD
ATOM     12  O   UNK d   1      12.347  -3.274  -5.493  0.00  0.00    -0.274 OA
BRANCH  10  13
ATOM     13  C   UNK d   1      10.236  -4.079  -4.023  0.00  0.00     0.076 C 
ATOM     14  H   UNK d   1      10.690  -4.647  -4.836  0.00  0.00     0.057 H 
BRANCH  13  15
ATOM     15  C   UNK d   1      10.508  -4.787  -2.694  0.00  0.00    -0.040 C 
ATOM     16  H   UNK d   1      10.613  -4.044  -1.902  0.00  0.00     0.025 H 
ATOM     17  H   UNK d   1       9.678  -5.454  -2.460  0.00  0.00     0.025 H 
ATOM     18  H   UNK d   1      11.429  -5.366  -2.772  0.00  0.00     0.025 H 
ENDBRANCH  13  15
BRANCH  13  19
ATOM     19  C   UNK d   1       8.749  -3.984  -4.246  0.00  0.00     0.140 C 
ATOM     20  O   UNK d   1       8.151  -2.986  -3.916  0.00  0.00    -0.299 OA
ATOM     21  H   UNK d   1       8.216  -4.806  -4.699  0.00  0.00     0.105 H 
ENDBRANCH  13  19
ENDBRANCH  10  13
ENDBRANCH   7   9
BRANCH   7  22
ATOM     22  C   UNK d   1      13.603  -1.007  -3.706  0.00  0.00    -0.018 C 
ATOM     23  H   UNK d   1      13.303  -1.542  -2.805  0.00  0.00     0.029 H 
ATOM     24  H   UNK d   1      14.488  -1.479  -4.132  0.00  0.00     0.029 H 
BRANCH  22  25
ATOM     25  C   UNK d   1      13.920   0.448  -3.352  0.00  0.00     0.026 C 
ATOM     26  H   UNK d   1      13.949   1.045  -4.263  0.00  0.00     0.036 H 
ATOM     27  H   UNK d   1      13.150   0.837  -2.685  0.00  0.00     0.036 H 
BRANCH  25  28
ATOM     28  C   UNK d   1      15.260   0.516  -2.665  0.00  0.00     0.211 C 
ATOM     29  O   UNK d   1      16.258   0.772  -3.306  0.00  0.00    -0.276 OA
ATOM     30  N   UNK d   1      15.349   0.294  -1.339  0.00  0.00    -0.329 N 
ATOM     31  H   UNK d   1      14.551   0.091  -0.826  0.00  0.00     0.145 HD
ATOM     32  H   UNK d   1      16.211   0.339  -0.896  0.00  0.00     0.145 HD
ENDBRANCH  25  28
ENDBRANCH  22  25
ENDBRANCH   7  22
ENDBRANCH   4   7
ENDBRANCH   1   3
BRANCH   1  33
ATOM     33  C   UNK d   1      10.262   2.929  -4.439  0.00  0.00     0.098 C 
ATOM     34  H   UNK d   1      11.217   3.105  -4.933  0.00  0.00     0.069 H 
ATOM     35  N   UNK d   1       9.322   4.009  -4.782  0.00  0.00    -0.236 N 
ATOM     36  C   UNK d   1       9.568   5.264  -4.242  0.00  0.00     0.327 C 
ATOM     37  H   UNK d   1       8.559   3.849  -5.359  0.00  0.00     0.245 HD
ATOM     38  N   UNK d   1       9.955   5.302  -2.912  0.00  0.00    -0.241 N 
ATOM     39  N   UNK d   1       9.445   6.349  -4.953  0.00  0.00    -0.295 N 
ATOM     40  C   UNK d   1      10.934   4.299  -2.460  0.00  0.00     0.061 C 
ATOM     41  H   UNK d   1       9.594   5.964  -2.301  0.00  0.00     0.244 HD
ATOM     42  C   UNK d   1      10.465   2.915  -2.919  0.00  0.00     0.010 C 
ATOM     43  H   UNK d   1      11.005   4.321  -1.373  0.00  0.00     0.063 H 
ATOM     44  H   UNK d   1      11.909   4.519  -2.897  0.00  0.00     0.063 H 
ATOM     45  H   UNK d   1       9.523   2.668  -2.429  0.00  0.00     0.033 H 
ATOM     46  H   UNK d   1      11.217   2.170  -2.659  0.00  0.00     0.033 H 
ATOM     47  H   UNK d   1       9.626   7.214  -4.552  0.00  0.00     0.254 HD
ATOM     48  H   UNK d   1       9.173   6.292  -5.882  0.00  0.00     0.254 HD
ENDBRANCH   1  33
BRANCH   1  49
ATOM     49  N   UNK d   1       8.920   0.987  -3.797  0.00  0.00    -0.285 N 
ATOM     50  C   UNK d   0       7.590   0.812  -3.923  0.00  0.00     0.301 C 
ATOM     51  O   UNK d   0       7.027   1.151  -4.947  0.00  0.00    -0.253 OA
ATOM     52  N   UNK d   1       6.884   0.261  -2.916  0.00  0.00    -0.291 N 
ATOM     53  H   UNK d   1       7.333  -0.008  -2.101  0.00  0.00     0.151 HD
ATOM     54  H   UNK d   1       9.370   0.718  -2.981  0.00  0.00     0.151 HD
BRANCH  52  55
ATOM     55  C   UNK d   1       5.438   0.071  -3.054  0.00  0.00     0.064 C 
ATOM     56  H   UNK d   1       5.184  -0.028  -4.109  0.00  0.00     0.056 H 
BRANCH  55  57
ATOM     57  C   UNK d   1       5.018  -1.198  -2.309  0.00  0.00    -0.027 C 
ATOM     58  H   UNK d   1       5.887  -1.839  -2.164  0.00  0.00     0.029 H 
ATOM     59  H   UNK d   1       4.601  -0.928  -1.338  0.00  0.00     0.029 H 
BRANCH  57  60
ATOM     60  C   UNK d   1       3.964  -1.945  -3.127  0.00  0.00    -0.045 C 
ATOM     61  H   UNK d   1       3.762  -2.912  -2.666  0.00  0.00     0.030 H 
BRANCH  60  62
ATOM     62  C   UNK d   1       2.675  -1.123  -3.171  0.00  0.00    -0.063 C 
ATOM     63  H   UNK d   1       2.033  -1.494  -3.971  0.00  0.00     0.023 H 
ATOM     64  H   UNK d   1       2.154  -1.211  -2.218  0.00  0.00     0.023 H 
ATOM     65  H   UNK d   1       2.918  -0.077  -3.356  0.00  0.00     0.023 H 
ENDBRANCH  60  62
BRANCH  60  66
ATOM     66  C   UNK d   1       4.481  -2.158  -4.552  0.00  0.00    -0.063 C 
ATOM     67  H   UNK d   1       4.063  -3.080  -4.956  0.00  0.00     0.023 H 
ATOM     68  H   UNK d   1       4.181  -1.317  -5.177  0.00  0.00     0.023 H 
ATOM     69  H   UNK d   1       5.569  -2.229  -4.537  0.00  0.00     0.023 H 
ENDBRANCH  60  66
ENDBRANCH  57  60
ENDBRANCH  55  57
BRANCH  55  70
ATOM     70  C   UNK d   1       4.717   1.258  -2.471  0.00  0.00     0.062 C 
ATOM     71  O   UNK d   1       4.706   1.432  -1.264  0.00  0.00    -0.548 OA
ATOM     72  O   UNK d   1       4.144   2.045  -3.205  0.00  0.00    -0.548 OA
ENDBRANCH  55  70
ENDBRANCH  52  55
ENDBRANCH   1  49
TORSDOF 17
ENDMDL
MODEL 7
REMARK VINA RESULT:      -5.4      7.883     11.777
REMARK  17 active torsions:
REMARK  status: ('A' for Active; 'I' for Inactive)
REMARK    1  A    between atoms: C_1  and  C_2 
REMARK    2  A    between atoms: C_2  and  C_4 
REMARK    3  A    between atoms: C_2  and  N_6 
REMARK       I    between atoms: N_6  and  C_7 
REMARK    4  A    between atoms: C_7  and  C_9 
REMARK    5  A    between atoms: C_9  and  C_11 
REMARK    6  A    between atoms: C_9  and  N_16 
REMARK    7  A    between atoms: C_11  and  C_12 
REMARK    8  A    between atoms: C_12  and  C_13 
REMARK       I    between atoms: C_13  and  N_15 
REMARK       I    between atoms: N_16  and  C_17 
REMARK    9  A    between atoms: C_17  and  C_19 
REMARK   10  A    between atoms: C_19  and  C_21 
REMARK   11  A    between atoms: C_19  and  N_29 
REMARK       I    between atoms: N_29  and  C_30 
REMARK       I    between atoms: C_30  and  N_32 
REMARK   12  A    between atoms: N_32  and  C_33 
REMARK   13  A    between atoms: C_33  and  C_35 
REMARK   14  A    between atoms: C_33  and  C_39 
REMARK   15  A    between atoms: C_35  and  C_36 
REMARK   16  A    between atoms: C_36  and  C_37 
REMARK   17  A    between atoms: C_36  and  C_38 
ROOT
ATOM      1  C   UNK d   1      10.127   9.361  -6.402  0.00  0.00     0.132 C 
ATOM      2  H   UNK d   1      11.206   9.359  -6.555  0.00  0.00     0.063 H 
ENDROOT
BRANCH   1   3
ATOM      3  C   UNK d   1       9.744   8.198  -5.521  0.00  0.00     0.237 C 
ATOM      4  N   UNK d   1      10.617   7.727  -4.610  0.00  0.00    -0.302 N 
ATOM      5  H   UNK d   1      11.512   8.097  -4.560  0.00  0.00     0.149 HD
ATOM      6  O   UNK d   1       8.650   7.687  -5.635  0.00  0.00    -0.274 OA
BRANCH   4   7
ATOM      7  C   UNK d   1      10.214   6.657  -3.693  0.00  0.00     0.100 C 
ATOM      8  H   UNK d   1       9.180   6.375  -3.896  0.00  0.00     0.059 H 
BRANCH   7   9
ATOM      9  C   UNK d   1      10.330   7.143  -2.271  0.00  0.00     0.234 C 
ATOM     10  N   UNK d   1      10.589   8.442  -2.022  0.00  0.00    -0.305 N 
ATOM     11  H   UNK d   1      10.698   9.064  -2.758  0.00  0.00     0.149 HD
ATOM     12  O   UNK d   1      10.193   6.365  -1.351  0.00  0.00    -0.274 OA
BRANCH  10  13
ATOM     13  C   UNK d   1      10.702   8.915  -0.640  0.00  0.00     0.076 C 
ATOM     14  H   UNK d   1      10.578   8.074   0.043  0.00  0.00     0.057 H 
BRANCH  13  15
ATOM     15  C   UNK d   1      12.081   9.544  -0.428  0.00  0.00    -0.040 C 
ATOM     16  H   UNK d   1      12.688   8.886   0.194  0.00  0.00     0.025 H 
ATOM     17  H   UNK d   1      12.569   9.685  -1.393  0.00  0.00     0.025 H 
ATOM     18  H   UNK d   1      11.968  10.510   0.066  0.00  0.00     0.025 H 
ENDBRANCH  13  15
BRANCH  13  19
ATOM     19  C   UNK d   1       9.634   9.944  -0.371  0.00  0.00     0.140 C 
ATOM     20  O   UNK d   1       8.478   9.694  -0.620  0.00  0.00    -0.299 OA
ATOM     21  H   UNK d   1       9.901  10.904   0.042  0.00  0.00     0.105 H 
ENDBRANCH  13  19
ENDBRANCH  10  13
ENDBRANCH   7   9
BRANCH   7  22
ATOM     22  C   UNK d   1      11.123   5.444  -3.893  0.00  0.00    -0.018 C 
ATOM     23  H   UNK d   1      11.867   5.669  -4.657  0.00  0.00     0.029 H 
ATOM     24  H   UNK d   1      11.625   5.207  -2.955  0.00  0.00     0.029 H 
BRANCH  22  25
ATOM     25  C   UNK d   1      10.283   4.245  -4.338  0.00  0.00     0.026 C 
ATOM     26  H   UNK d   1       9.335   4.597  -4.745  0.00  0.00     0.036 H 
ATOM     27  H   UNK d   1      10.822   3.686  -5.103  0.00  0.00     0.036 H 
BRANCH  25  28
ATOM     28  C   UNK d   1      10.019   3.349  -3.155  0.00  0.00     0.211 C 
ATOM     29  O   UNK d   1       9.070   2.592  -3.167  0.00  0.00    -0.276 OA
ATOM     30  N   UNK d   1      10.837   3.388  -2.085  0.00  0.00    -0.329 N 
ATOM     31  H   UNK d   1      11.596   3.993  -2.076  0.00  0.00     0.145 HD
ATOM     32  H   UNK d   1      10.668   2.811  -1.324  0.00  0.00     0.145 HD
ENDBRANCH  25  28
ENDBRANCH  22  25
ENDBRANCH   7  22
ENDBRANCH   4   7
ENDBRANCH   1   3
BRANCH   1  33
ATOM     33  C   UNK d   1       9.708  10.669  -5.727  0.00  0.00     0.098 C 
ATOM     34  H   UNK d   1       9.028  11.216  -6.380  0.00  0.00     0.069 H 
ATOM     35  N   UNK d   1       9.038  10.374  -4.450  0.00  0.00    -0.236 N 
ATOM     36  C   UNK d   1       8.798  11.440  -3.595  0.00  0.00     0.327 C 
ATOM     37  H   UNK d   1       8.778   9.470  -4.214  0.00  0.00     0.245 HD
ATOM     38  N   UNK d   1       9.821  12.365  -3.455  0.00  0.00    -0.241 N 
ATOM     39  N   UNK d   1       7.667  11.566  -2.961  0.00  0.00    -0.295 N 
ATOM     40  C   UNK d   1      10.534  12.779  -4.674  0.00  0.00     0.061 C 
ATOM     41  H   UNK d   1      10.058  12.726  -2.585  0.00  0.00     0.244 HD
ATOM     42  C   UNK d   1      10.950  11.523  -5.448  0.00  0.00     0.010 C 
ATOM     43  H   UNK d   1      11.421  13.353  -4.403  0.00  0.00     0.063 H 
ATOM     44  H   UNK d   1       9.876  13.389  -5.293  0.00  0.00     0.063 H 
ATOM     45  H   UNK d   1      11.661  10.948  -4.855  0.00  0.00     0.033 H 
ATOM     46  H   UNK d   1      11.413  11.813  -6.392  0.00  0.00     0.033 H 
ATOM     47  H   UNK d   1       7.523  12.322  -2.371  0.00  0.00     0.254 HD
ATOM     48  H   UNK d   1       6.969  10.903  -3.079  0.00  0.00     0.254 HD
ENDBRANCH   1  33
BRANCH   1  49
ATOM     49  N   UNK d   1       9.448   9.238  -7.694  0.00  0.00    -0.285 N 
ATOM     50  C   UNK d   0      10.035   8.560  -8.701  0.00  0.00     0.301 C 
ATOM     51  O   UNK d   0      11.127   8.050  -8.535  0.00  0.00    -0.253 OA
ATOM     52  N   UNK d   1       9.411   8.446  -9.890  0.00  0.00    -0.291 N 
ATOM     53  H   UNK d   1       8.542   8.854 -10.022  0.00  0.00     0.151 HD
ATOM     54  H   UNK d   1       8.579   9.645  -7.826  0.00  0.00     0.151 HD
BRANCH  52  55
ATOM     55  C   UNK d   1      10.049   7.709 -10.983  0.00  0.00     0.064 C 
ATOM     56  H   UNK d   1      11.070   7.451 -10.701  0.00  0.00     0.056 H 
BRANCH  55  57
ATOM     57  C   UNK d   1       9.259   6.429 -11.264  0.00  0.00    -0.027 C 
ATOM     58  H   UNK d   1       8.213   6.584 -11.001  0.00  0.00     0.029 H 
ATOM     59  H   UNK d   1       9.333   6.181 -12.323  0.00  0.00     0.029 H 
BRANCH  57  60
ATOM     60  C   UNK d   1       9.831   5.283 -10.429  0.00  0.00    -0.045 C 
ATOM     61  H   UNK d   1      10.722   5.625  -9.903  0.00  0.00     0.030 H 
BRANCH  60  62
ATOM     62  C   UNK d   1       8.785   4.820  -9.413  0.00  0.00    -0.063 C 
ATOM     63  H   UNK d   1       7.935   4.383  -9.939  0.00  0.00     0.023 H 
ATOM     64  H   UNK d   1       9.225   4.075  -8.752  0.00  0.00     0.023 H 
ATOM     65  H   UNK d   1       8.448   5.673  -8.825  0.00  0.00     0.023 H 
ENDBRANCH  60  62
BRANCH  60  66
ATOM     66  C   UNK d   1      10.199   4.116 -11.349  0.00  0.00    -0.063 C 
ATOM     67  H   UNK d   1      11.280   3.981 -11.349  0.00  0.00     0.023 H 
ATOM     68  H   UNK d   1       9.719   3.206 -10.990  0.00  0.00     0.023 H 
ATOM     69  H   UNK d   1       9.860   4.331 -12.362  0.00  0.00     0.023 H 
ENDBRANCH  60  66
ENDBRANCH  57  60
ENDBRANCH  55  57
BRANCH  55  70
ATOM     70  C   UNK d   1      10.072   8.567 -12.222  0.00  0.00     0.062 C 
ATOM     71  O   UNK d   1      10.615   9.659 -12.198  0.00  0.00    -0.548 OA
ATOM     72  O   UNK d   1       9.549   8.170 -13.249  0.00  0.00    -0.548 OA
ENDBRANCH  55  70
ENDBRANCH  52  55
ENDBRANCH   1  49
TORSDOF 17
ENDMDL
MODEL 8
REMARK VINA RESULT:      -5.4      4.957      8.057
REMARK  17 active torsions:
REMARK  status: ('A' for Active; 'I' for Inactive)
REMARK    1  A    between atoms: C_1  and  C_2 
REMARK    2  A    between atoms: C_2  and  C_4 
REMARK    3  A    between atoms: C_2  and  N_6 
REMARK       I    between atoms: N_6  and  C_7 
REMARK    4  A    between atoms: C_7  and  C_9 
REMARK    5  A    between atoms: C_9  and  C_11 
REMARK    6  A    between atoms: C_9  and  N_16 
REMARK    7  A    between atoms: C_11  and  C_12 
REMARK    8  A    between atoms: C_12  and  C_13 
REMARK       I    between atoms: C_13  and  N_15 
REMARK       I    between atoms: N_16  and  C_17 
REMARK    9  A    between atoms: C_17  and  C_19 
REMARK   10  A    between atoms: C_19  and  C_21 
REMARK   11  A    between atoms: C_19  and  N_29 
REMARK       I    between atoms: N_29  and  C_30 
REMARK       I    between atoms: C_30  and  N_32 
REMARK   12  A    between atoms: N_32  and  C_33 
REMARK   13  A    between atoms: C_33  and  C_35 
REMARK   14  A    between atoms: C_33  and  C_39 
REMARK   15  A    between atoms: C_35  and  C_36 
REMARK   16  A    between atoms: C_36  and  C_37 
REMARK   17  A    between atoms: C_36  and  C_38 
ROOT
ATOM      1  C   UNK d   1       9.024   2.381  -4.180  0.00  0.00     0.132 C 
ATOM      2  H   UNK d   1       8.776   2.509  -3.127  0.00  0.00     0.063 H 
ENDROOT
BRANCH   1   3
ATOM      3  C   UNK d   1       9.472   3.701  -4.754  0.00  0.00     0.237 C 
ATOM      4  N   UNK d   1       9.574   4.782  -3.956  0.00  0.00    -0.302 N 
ATOM      5  H   UNK d   1       9.304   4.726  -3.027  0.00  0.00     0.149 HD
ATOM      6  O   UNK d   1       9.740   3.790  -5.933  0.00  0.00    -0.274 OA
BRANCH   4   7
ATOM      7  C   UNK d   1      10.096   6.042  -4.493  0.00  0.00     0.100 C 
ATOM      8  H   UNK d   1      10.964   5.838  -5.120  0.00  0.00     0.059 H 
BRANCH   7   9
ATOM      9  C   UNK d   1      10.499   6.945  -3.356  0.00  0.00     0.234 C 
ATOM     10  N   UNK d   1       9.753   8.026  -3.057  0.00  0.00    -0.305 N 
ATOM     11  H   UNK d   1       8.956   8.223  -3.573  0.00  0.00     0.149 HD
ATOM     12  O   UNK d   1      11.496   6.698  -2.710  0.00  0.00    -0.274 OA
BRANCH  10  13
ATOM     13  C   UNK d   1      10.144   8.903  -1.951  0.00  0.00     0.076 C 
ATOM     14  H   UNK d   1      11.077   8.544  -1.513  0.00  0.00     0.057 H 
BRANCH  13  15
ATOM     15  C   UNK d   1      10.344  10.327  -2.476  0.00  0.00    -0.040 C 
ATOM     16  H   UNK d   1       9.962  11.041  -1.746  0.00  0.00     0.025 H 
ATOM     17  H   UNK d   1      11.407  10.509  -2.640  0.00  0.00     0.025 H 
ATOM     18  H   UNK d   1       9.806  10.446  -3.417  0.00  0.00     0.025 H 
ENDBRANCH  13  15
BRANCH  13  19
ATOM     19  C   UNK d   1       9.063   8.903  -0.901  0.00  0.00     0.140 C 
ATOM     20  O   UNK d   1       8.342   7.941  -0.778  0.00  0.00    -0.299 OA
ATOM     21  H   UNK d   1       8.932   9.761  -0.260  0.00  0.00     0.105 H 
ENDBRANCH  13  19
ENDBRANCH  10  13
ENDBRANCH   7   9
BRANCH   7  22
ATOM     22  C   UNK d   1       9.013   6.728  -5.329  0.00  0.00    -0.018 C 
ATOM     23  H   UNK d   1       8.238   6.004  -5.584  0.00  0.00     0.029 H 
ATOM     24  H   UNK d   1       8.574   7.544  -4.755  0.00  0.00     0.029 H 
BRANCH  22  25
ATOM     25  C   UNK d   1       9.635   7.283  -6.612  0.00  0.00     0.026 C 
ATOM     26  H   UNK d   1      10.718   7.171  -6.569  0.00  0.00     0.036 H 
ATOM     27  H   UNK d   1       9.247   6.734  -7.471  0.00  0.00     0.036 H 
BRANCH  25  28
ATOM     28  C   UNK d   1       9.285   8.742  -6.749  0.00  0.00     0.211 C 
ATOM     29  O   UNK d   1       9.302   9.464  -5.774  0.00  0.00    -0.276 OA
ATOM     30  N   UNK d   1       8.954   9.246  -7.954  0.00  0.00    -0.329 N 
ATOM     31  H   UNK d   1       8.941   8.669  -8.734  0.00  0.00     0.145 HD
ATOM     32  H   UNK d   1       8.730  10.185  -8.042  0.00  0.00     0.145 HD
ENDBRANCH  25  28
ENDBRANCH  22  25
ENDBRANCH   7  22
ENDBRANCH   4   7
ENDBRANCH   1   3
BRANCH   1  33
ATOM     33  C   UNK d   1      10.153   1.357  -4.318  0.00  0.00     0.098 C 
ATOM     34  H   UNK d   1       9.865   0.426  -3.829  0.00  0.00     0.069 H 
ATOM     35  N   UNK d   1      10.419   1.104  -5.743  0.00  0.00    -0.236 N 
ATOM     36  C   UNK d   1      11.560   0.381  -6.061  0.00  0.00     0.327 C 
ATOM     37  H   UNK d   1       9.822   1.433  -6.433  0.00  0.00     0.245 HD
ATOM     38  N   UNK d   1      12.711   0.698  -5.356  0.00  0.00    -0.241 N 
ATOM     39  N   UNK d   1      11.547  -0.550  -6.972  0.00  0.00    -0.295 N 
ATOM     40  C   UNK d   1      12.579   0.924  -3.908  0.00  0.00     0.061 C 
ATOM     41  H   UNK d   1      13.571   0.769  -5.801  0.00  0.00     0.244 HD
ATOM     42  C   UNK d   1      11.428   1.906  -3.667  0.00  0.00     0.010 C 
ATOM     43  H   UNK d   1      13.507   1.344  -3.517  0.00  0.00     0.063 H 
ATOM     44  H   UNK d   1      12.364  -0.021  -3.409  0.00  0.00     0.063 H 
ATOM     45  H   UNK d   1      11.674   2.872  -4.109  0.00  0.00     0.033 H 
ATOM     46  H   UNK d   1      11.268   2.026  -2.595  0.00  0.00     0.033 H 
ATOM     47  H   UNK d   1      12.359  -1.043  -7.173  0.00  0.00     0.254 HD
ATOM     48  H   UNK d   1      10.727  -0.751  -7.449  0.00  0.00     0.254 HD
ENDBRANCH   1  33
BRANCH   1  49
ATOM     49  N   UNK d   1       7.844   1.908  -4.907  0.00  0.00    -0.285 N 
ATOM     50  C   UNK d   0       7.062   0.950  -4.372  0.00  0.00     0.301 C 
ATOM     51  O   UNK d   0       7.337   0.479  -3.285  0.00  0.00    -0.253 OA
ATOM     52  N   UNK d   1       5.975   0.515  -5.040  0.00  0.00    -0.291 N 
ATOM     53  H   UNK d   1       5.757   0.890  -5.907  0.00  0.00     0.151 HD
ATOM     54  H   UNK d   1       7.626   2.284  -5.774  0.00  0.00     0.151 HD
BRANCH  52  55
ATOM     55  C   UNK d   1       5.126  -0.526  -4.457  0.00  0.00     0.064 C 
ATOM     56  H   UNK d   1       5.642  -0.988  -3.616  0.00  0.00     0.056 H 
BRANCH  55  57
ATOM     57  C   UNK d   1       3.816   0.098  -3.970  0.00  0.00    -0.027 C 
ATOM     58  H   UNK d   1       3.804   1.158  -4.222  0.00  0.00     0.029 H 
ATOM     59  H   UNK d   1       2.975  -0.399  -4.454  0.00  0.00     0.029 H 
BRANCH  57  60
ATOM     60  C   UNK d   1       3.704  -0.068  -2.454  0.00  0.00    -0.045 C 
ATOM     61  H   UNK d   1       2.653  -0.122  -2.170  0.00  0.00     0.030 H 
BRANCH  60  62
ATOM     62  C   UNK d   1       4.413  -1.355  -2.029  0.00  0.00    -0.063 C 
ATOM     63  H   UNK d   1       4.394  -1.439  -0.941  0.00  0.00     0.023 H 
ATOM     64  H   UNK d   1       3.905  -2.213  -2.468  0.00  0.00     0.023 H 
ATOM     65  H   UNK d   1       5.447  -1.331  -2.373  0.00  0.00     0.023 H 
ENDBRANCH  60  62
BRANCH  60  66
ATOM     66  C   UNK d   1       4.360   1.128  -1.761  0.00  0.00    -0.063 C 
ATOM     67  H   UNK d   1       3.587   1.783  -1.359  0.00  0.00     0.023 H 
ATOM     68  H   UNK d   1       4.994   0.774  -0.948  0.00  0.00     0.023 H 
ATOM     69  H   UNK d   1       4.965   1.679  -2.481  0.00  0.00     0.023 H 
ENDBRANCH  60  66
ENDBRANCH  57  60
ENDBRANCH  55  57
BRANCH  55  70
ATOM     70  C   UNK d   1       4.826  -1.573  -5.499  0.00  0.00     0.062 C 
ATOM     71  O   UNK d   1       4.671  -1.246  -6.664  0.00  0.00    -0.548 OA
ATOM     72  O   UNK d   1       4.739  -2.745  -5.179  0.00  0.00    -0.548 OA
ENDBRANCH  55  70
ENDBRANCH  52  55
ENDBRANCH   1  49
TORSDOF 17
ENDMDL
MODEL 9
REMARK VINA RESULT:      -5.4      3.993      6.898
REMARK  17 active torsions:
REMARK  status: ('A' for Active; 'I' for Inactive)
REMARK    1  A    between atoms: C_1  and  C_2 
REMARK    2  A    between atoms: C_2  and  C_4 
REMARK    3  A    between atoms: C_2  and  N_6 
REMARK       I    between atoms: N_6  and  C_7 
REMARK    4  A    between atoms: C_7  and  C_9 
REMARK    5  A    between atoms: C_9  and  C_11 
REMARK    6  A    between atoms: C_9  and  N_16 
REMARK    7  A    between atoms: C_11  and  C_12 
REMARK    8  A    between atoms: C_12  and  C_13 
REMARK       I    between atoms: C_13  and  N_15 
REMARK       I    between atoms: N_16  and  C_17 
REMARK    9  A    between atoms: C_17  and  C_19 
REMARK   10  A    between atoms: C_19  and  C_21 
REMARK   11  A    between atoms: C_19  and  N_29 
REMARK       I    between atoms: N_29  and  C_30 
REMARK       I    between atoms: C_30  and  N_32 
REMARK   12  A    between atoms: N_32  and  C_33 
REMARK   13  A    between atoms: C_33  and  C_35 
REMARK   14  A    between atoms: C_33  and  C_39 
REMARK   15  A    between atoms: C_35  and  C_36 
REMARK   16  A    between atoms: C_36  and  C_37 
REMARK   17  A    between atoms: C_36  and  C_38 
ROOT
ATOM      1  C   UNK d   1       4.273  -2.056  -7.885  0.00  0.00     0.132 C 
ATOM      2  H   UNK d   1       5.214  -2.209  -8.412  0.00  0.00     0.063 H 
ENDROOT
BRANCH   1   3
ATOM      3  C   UNK d   1       4.532  -1.317  -6.597  0.00  0.00     0.237 C 
ATOM      4  N   UNK d   1       4.542  -1.986  -5.427  0.00  0.00    -0.302 N 
ATOM      5  H   UNK d   1       4.325  -2.931  -5.407  0.00  0.00     0.149 HD
ATOM      6  O   UNK d   1       4.731  -0.121  -6.614  0.00  0.00    -0.274 OA
BRANCH   4   7
ATOM      7  C   UNK d   1       4.884  -1.286  -4.186  0.00  0.00     0.100 C 
ATOM      8  H   UNK d   1       4.821  -0.209  -4.347  0.00  0.00     0.059 H 
BRANCH   7   9
ATOM      9  C   UNK d   1       6.286  -1.651  -3.772  0.00  0.00     0.234 C 
ATOM     10  N   UNK d   1       6.936  -2.649  -4.401  0.00  0.00    -0.305 N 
ATOM     11  H   UNK d   1       6.501  -3.133  -5.121  0.00  0.00     0.149 HD
ATOM     12  O   UNK d   1       6.830  -1.046  -2.872  0.00  0.00    -0.274 OA
BRANCH  10  13
ATOM     13  C   UNK d   1       8.299  -3.004  -4.000  0.00  0.00     0.076 C 
ATOM     14  H   UNK d   1       8.465  -2.701  -2.966  0.00  0.00     0.057 H 
BRANCH  13  15
ATOM     15  C   UNK d   1       8.489  -4.518  -4.123  0.00  0.00    -0.040 C 
ATOM     16  H   UNK d   1       9.150  -4.867  -3.329  0.00  0.00     0.025 H 
ATOM     17  H   UNK d   1       7.522  -5.014  -4.036  0.00  0.00     0.025 H 
ATOM     18  H   UNK d   1       8.931  -4.752  -5.093  0.00  0.00     0.025 H 
ENDBRANCH  13  15
BRANCH  13  19
ATOM     19  C   UNK d   1       9.286  -2.300  -4.895  0.00  0.00     0.140 C 
ATOM     20  O   UNK d   1       9.150  -2.342  -6.095  0.00  0.00    -0.299 OA
ATOM     21  H   UNK d   1      10.116  -1.760  -4.465  0.00  0.00     0.105 H 
ENDBRANCH  13  19
ENDBRANCH  10  13
ENDBRANCH   7   9
BRANCH   7  22
ATOM     22  C   UNK d   1       3.905  -1.695  -3.084  0.00  0.00    -0.018 C 
ATOM     23  H   UNK d   1       3.358  -2.585  -3.395  0.00  0.00     0.029 H 
ATOM     24  H   UNK d   1       4.457  -1.908  -2.168  0.00  0.00     0.029 H 
BRANCH  22  25
ATOM     25  C   UNK d   1       2.918  -0.553  -2.830  0.00  0.00     0.026 C 
ATOM     26  H   UNK d   1       2.262  -0.442  -3.692  0.00  0.00     0.036 H 
ATOM     27  H   UNK d   1       2.322  -0.778  -1.945  0.00  0.00     0.036 H 
BRANCH  25  28
ATOM     28  C   UNK d   1       3.679   0.729  -2.609  0.00  0.00     0.211 C 
ATOM     29  O   UNK d   1       3.510   1.671  -3.356  0.00  0.00    -0.276 OA
ATOM     30  N   UNK d   1       4.547   0.830  -1.584  0.00  0.00    -0.329 N 
ATOM     31  H   UNK d   1       4.681   0.077  -0.986  0.00  0.00     0.145 HD
ATOM     32  H   UNK d   1       5.036   1.655  -1.441  0.00  0.00     0.145 HD
ENDBRANCH  25  28
ENDBRANCH  22  25
ENDBRANCH   7  22
ENDBRANCH   4   7
ENDBRANCH   1   3
BRANCH   1  33
ATOM     33  C   UNK d   1       3.325  -1.234  -8.761  0.00  0.00     0.098 C 
ATOM     34  H   UNK d   1       2.651  -0.656  -8.129  0.00  0.00     0.069 H 
ATOM     35  N   UNK d   1       4.106  -0.323  -9.614  0.00  0.00    -0.236 N 
ATOM     36  C   UNK d   1       3.430   0.331 -10.634  0.00  0.00     0.327 C 
ATOM     37  H   UNK d   1       5.055  -0.189  -9.471  0.00  0.00     0.245 HD
ATOM     38  N   UNK d   1       2.521  -0.423 -11.360  0.00  0.00    -0.241 N 
ATOM     39  N   UNK d   1       3.639   1.591 -10.893  0.00  0.00    -0.295 N 
ATOM     40  C   UNK d   1       1.646  -1.338 -10.609  0.00  0.00     0.061 C 
ATOM     41  H   UNK d   1       2.464  -0.352 -12.326  0.00  0.00     0.244 HD
ATOM     42  C   UNK d   1       2.510  -2.173  -9.658  0.00  0.00     0.010 C 
ATOM     43  H   UNK d   1       1.122  -1.996 -11.302  0.00  0.00     0.063 H 
ATOM     44  H   UNK d   1       0.922  -0.760 -10.033  0.00  0.00     0.063 H 
ATOM     45  H   UNK d   1       3.186  -2.801 -10.237  0.00  0.00     0.033 H 
ATOM     46  H   UNK d   1       1.868  -2.802  -9.039  0.00  0.00     0.033 H 
ATOM     47  H   UNK d   1       3.151   2.025 -11.611  0.00  0.00     0.254 HD
ATOM     48  H   UNK d   1       4.281   2.094 -10.369  0.00  0.00     0.254 HD
ENDBRANCH   1  33
BRANCH   1  49
ATOM     49  N   UNK d   1       3.662  -3.354  -7.588  0.00  0.00    -0.285 N 
ATOM     50  C   UNK d   0       4.433  -4.455  -7.493  0.00  0.00     0.301 C 
ATOM     51  O   UNK d   0       5.635  -4.371  -7.653  0.00  0.00    -0.253 OA
ATOM     52  N   UNK d   1       3.872  -5.650  -7.219  0.00  0.00    -0.291 N 
ATOM     53  H   UNK d   1       2.913  -5.717  -7.093  0.00  0.00     0.151 HD
ATOM     54  H   UNK d   1       2.703  -3.421  -7.461  0.00  0.00     0.151 HD
BRANCH  52  55
ATOM     55  C   UNK d   1       4.710  -6.846  -7.116  0.00  0.00     0.064 C 
ATOM     56  H   UNK d   1       5.692  -6.640  -7.542  0.00  0.00     0.056 H 
BRANCH  55  57
ATOM     57  C   UNK d   1       4.866  -7.233  -5.643  0.00  0.00    -0.027 C 
ATOM     58  H   UNK d   1       4.402  -6.472  -5.017  0.00  0.00     0.029 H 
ATOM     59  H   UNK d   1       4.380  -8.193  -5.467  0.00  0.00     0.029 H 
BRANCH  57  60
ATOM     60  C   UNK d   1       6.352  -7.342  -5.298  0.00  0.00    -0.045 C 
ATOM     61  H   UNK d   1       6.620  -6.556  -4.592  0.00  0.00     0.030 H 
BRANCH  60  62
ATOM     62  C   UNK d   1       6.631  -8.708  -4.670  0.00  0.00    -0.063 C 
ATOM     63  H   UNK d   1       7.213  -8.577  -3.757  0.00  0.00     0.023 H 
ATOM     64  H   UNK d   1       5.688  -9.199  -4.432  0.00  0.00     0.023 H 
ATOM     65  H   UNK d   1       7.192  -9.323  -5.373  0.00  0.00     0.023 H 
ENDBRANCH  60  62
BRANCH  60  66
ATOM     66  C   UNK d   1       7.184  -7.188  -6.574  0.00  0.00    -0.063 C 
ATOM     67  H   UNK d   1       6.924  -7.981  -7.274  0.00  0.00     0.023 H 
ATOM     68  H   UNK d   1       6.975  -6.219  -7.028  0.00  0.00     0.023 H 
ATOM     69  H   UNK d   1       8.243  -7.253  -6.327  0.00  0.00     0.023 H 
ENDBRANCH  60  66
ENDBRANCH  57  60
ENDBRANCH  55  57
BRANCH  55  70
ATOM     70  C   UNK d   1       4.064  -7.981  -7.867  0.00  0.00     0.062 C 
ATOM     71  O   UNK d   1       3.192  -7.749  -8.689  0.00  0.00    -0.548 OA
ATOM     72  O   UNK d   1       4.411  -9.129  -7.656  0.00  0.00    -0.548 OA
ENDBRANCH  55  70
ENDBRANCH  52  55
ENDBRANCH   1  49
TORSDOF 17
ENDMDL
MODEL 10
REMARK VINA RESULT:      -5.3      4.738      7.782
REMARK  17 active torsions:
REMARK  status: ('A' for Active; 'I' for Inactive)
REMARK    1  A    between atoms: C_1  and  C_2 
REMARK    2  A    between atoms: C_2  and  C_4 
REMARK    3  A    between atoms: C_2  and  N_6 
REMARK       I    between atoms: N_6  and  C_7 
REMARK    4  A    between atoms: C_7  and  C_9 
REMARK    5  A    between atoms: C_9  and  C_11 
REMARK    6  A    between atoms: C_9  and  N_16 
REMARK    7  A    between atoms: C_11  and  C_12 
REMARK    8  A    between atoms: C_12  and  C_13 
REMARK       I    between atoms: C_13  and  N_15 
REMARK       I    between atoms: N_16  and  C_17 
REMARK    9  A    between atoms: C_17  and  C_19 
REMARK   10  A    between atoms: C_19  and  C_21 
REMARK   11  A    between atoms: C_19  and  N_29 
REMARK       I    between atoms: N_29  and  C_30 
REMARK       I    between atoms: C_30  and  N_32 
REMARK   12  A    between atoms: N_32  and  C_33 
REMARK   13  A    between atoms: C_33  and  C_35 
REMARK   14  A    between atoms: C_33  and  C_39 
REMARK   15  A    between atoms: C_35  and  C_36 
REMARK   16  A    between atoms: C_36  and  C_37 
REMARK   17  A    between atoms: C_36  and  C_38 
ROOT
ATOM      1  C   UNK d   1       9.116   1.771  -4.312  0.00  0.00     0.132 C 
ATOM      2  H   UNK d   1       9.226   1.139  -3.432  0.00  0.00     0.063 H 
ENDROOT
BRANCH   1   3
ATOM      3  C   UNK d   1       9.198   3.220  -3.903  0.00  0.00     0.237 C 
ATOM      4  N   UNK d   1       9.973   3.583  -2.863  0.00  0.00    -0.302 N 
ATOM      5  H   UNK d   1      10.432   2.907  -2.341  0.00  0.00     0.149 HD
ATOM      6  O   UNK d   1       8.566   4.058  -4.511  0.00  0.00    -0.274 OA
BRANCH   4   7
ATOM      7  C   UNK d   1      10.125   5.000  -2.522  0.00  0.00     0.100 C 
ATOM      8  H   UNK d   1       9.149   5.423  -2.284  0.00  0.00     0.059 H 
BRANCH   7   9
ATOM      9  C   UNK d   1      10.721   5.739  -3.693  0.00  0.00     0.234 C 
ATOM     10  N   UNK d   1      10.066   6.784  -4.234  0.00  0.00    -0.305 N 
ATOM     11  H   UNK d   1       9.211   7.062  -3.869  0.00  0.00     0.149 HD
ATOM     12  O   UNK d   1      11.789   5.390  -4.149  0.00  0.00    -0.274 OA
BRANCH  10  13
ATOM     13  C   UNK d   1      10.644   7.502  -5.372  0.00  0.00     0.076 C 
ATOM     14  H   UNK d   1      11.656   7.139  -5.555  0.00  0.00     0.057 H 
BRANCH  13  15
ATOM     15  C   UNK d   1       9.785   7.263  -6.615  0.00  0.00    -0.040 C 
ATOM     16  H   UNK d   1       9.062   8.073  -6.718  0.00  0.00     0.025 H 
ATOM     17  H   UNK d   1      10.423   7.231  -7.499  0.00  0.00     0.025 H 
ATOM     18  H   UNK d   1       9.256   6.314  -6.515  0.00  0.00     0.025 H 
ENDBRANCH  13  15
BRANCH  13  19
ATOM     19  C   UNK d   1      10.687   8.977  -5.067  0.00  0.00     0.140 C 
ATOM     20  O   UNK d   1       9.661   9.614  -5.023  0.00  0.00    -0.299 OA
ATOM     21  H   UNK d   1      11.633   9.465  -4.890  0.00  0.00     0.105 H 
ENDBRANCH  13  19
ENDBRANCH  10  13
ENDBRANCH   7   9
BRANCH   7  22
ATOM     22  C   UNK d   1      11.049   5.137  -1.310  0.00  0.00    -0.018 C 
ATOM     23  H   UNK d   1      10.987   4.234  -0.702  0.00  0.00     0.029 H 
ATOM     24  H   UNK d   1      12.075   5.277  -1.649  0.00  0.00     0.029 H 
BRANCH  22  25
ATOM     25  C   UNK d   1      10.618   6.345  -0.475  0.00  0.00     0.026 C 
ATOM     26  H   UNK d   1      11.029   7.254  -0.912  0.00  0.00     0.036 H 
ATOM     27  H   UNK d   1       9.530   6.408  -0.460  0.00  0.00     0.036 H 
BRANCH  25  28
ATOM     28  C   UNK d   1      11.131   6.189   0.934  0.00  0.00     0.211 C 
ATOM     29  O   UNK d   1      11.870   7.028   1.407  0.00  0.00    -0.276 OA
ATOM     30  N   UNK d   1      10.769   5.120   1.669  0.00  0.00    -0.329 N 
ATOM     31  H   UNK d   1      10.177   4.449   1.292  0.00  0.00     0.145 HD
ATOM     32  H   UNK d   1      11.098   5.020   2.576  0.00  0.00     0.145 HD
ENDBRANCH  25  28
ENDBRANCH  22  25
ENDBRANCH   7  22
ENDBRANCH   4   7
ENDBRANCH   1   3
BRANCH   1  33
ATOM     33  C   UNK d   1      10.235   1.459  -5.308  0.00  0.00     0.098 C 
ATOM     34  H   UNK d   1       9.842   0.852  -6.123  0.00  0.00     0.069 H 
ATOM     35  N   UNK d   1      10.781   2.715  -5.847  0.00  0.00    -0.236 N 
ATOM     36  C   UNK d   1      11.953   2.636  -6.586  0.00  0.00     0.327 C 
ATOM     37  H   UNK d   1      10.341   3.565  -5.689  0.00  0.00     0.245 HD
ATOM     38  N   UNK d   1      12.942   1.798  -6.093  0.00  0.00    -0.241 N 
ATOM     39  N   UNK d   1      12.113   3.313  -7.688  0.00  0.00    -0.295 N 
ATOM     40  C   UNK d   1      12.522   0.488  -5.572  0.00  0.00     0.061 C 
ATOM     41  H   UNK d   1      13.875   2.066  -6.092  0.00  0.00     0.244 HD
ATOM     42  C   UNK d   1      11.359   0.697  -4.596  0.00  0.00     0.010 C 
ATOM     43  H   UNK d   1      13.356   0.016  -5.052  0.00  0.00     0.063 H 
ATOM     44  H   UNK d   1      12.198  -0.147  -6.397  0.00  0.00     0.063 H 
ATOM     45  H   UNK d   1      11.703   1.275  -3.738  0.00  0.00     0.033 H 
ATOM     46  H   UNK d   1      10.986  -0.270  -4.259  0.00  0.00     0.033 H 
ATOM     47  H   UNK d   1      12.942   3.238  -8.187  0.00  0.00     0.254 HD
ATOM     48  H   UNK d   1      11.404   3.892  -8.009  0.00  0.00     0.254 HD
ENDBRANCH   1  33
BRANCH   1  49
ATOM     49  N   UNK d   1       7.817   1.515  -4.940  0.00  0.00    -0.285 N 
ATOM     50  C   UNK d   0       7.017   0.543  -4.459  0.00  0.00     0.301 C 
ATOM     51  O   UNK d   0       7.373  -0.119  -3.503  0.00  0.00    -0.253 OA
ATOM     52  N   UNK d   1       5.822   0.306  -5.035  0.00  0.00    -0.291 N 
ATOM     53  H   UNK d   1       5.539   0.834  -5.797  0.00  0.00     0.151 HD
ATOM     54  H   UNK d   1       7.535   2.043  -5.702  0.00  0.00     0.151 HD
BRANCH  52  55
ATOM     55  C   UNK d   1       4.953  -0.749  -4.511  0.00  0.00     0.064 C 
ATOM     56  H   UNK d   1       5.472  -1.288  -3.718  0.00  0.00     0.056 H 
BRANCH  55  57
ATOM     57  C   UNK d   1       3.674  -0.124  -3.950  0.00  0.00    -0.027 C 
ATOM     58  H   UNK d   1       3.633   0.929  -4.226  0.00  0.00     0.029 H 
ATOM     59  H   UNK d   1       2.806  -0.640  -4.360  0.00  0.00     0.029 H 
BRANCH  57  60
ATOM     60  C   UNK d   1       3.670  -0.252  -2.425  0.00  0.00    -0.045 C 
ATOM     61  H   UNK d   1       2.642  -0.268  -2.064  0.00  0.00     0.030 H 
BRANCH  60  62
ATOM     62  C   UNK d   1       4.372  -1.550  -2.021  0.00  0.00    -0.063 C 
ATOM     63  H   UNK d   1       5.325  -1.626  -2.544  0.00  0.00     0.023 H 
ATOM     64  H   UNK d   1       4.547  -1.548  -0.945  0.00  0.00     0.023 H 
ATOM     65  H   UNK d   1       3.744  -2.400  -2.285  0.00  0.00     0.023 H 
ENDBRANCH  60  62
BRANCH  60  66
ATOM     66  C   UNK d   1       4.409   0.940  -1.812  0.00  0.00    -0.063 C 
ATOM     67  H   UNK d   1       4.692   1.636  -2.601  0.00  0.00     0.023 H 
ATOM     68  H   UNK d   1       3.756   1.444  -1.100  0.00  0.00     0.023 H 
ATOM     69  H   UNK d   1       5.304   0.588  -1.299  0.00  0.00     0.023 H 
ENDBRANCH  60  66
ENDBRANCH  57  60
ENDBRANCH  55  57
BRANCH  55  70
ATOM     70  C   UNK d   1       4.599  -1.706  -5.620  0.00  0.00     0.062 C 
ATOM     71  O   UNK d   1       4.242  -1.277  -6.705  0.00  0.00    -0.548 OA
ATOM     72  O   UNK d   1       4.668  -2.909  -5.434  0.00  0.00    -0.548 OA
ENDBRANCH  55  70
ENDBRANCH  52  55
ENDBRANCH   1  49
TORSDOF 17
ENDMDL
