MODEL 1
REMARK VINA RESULT:      -6.0      0.000      0.000
REMARK  6 active torsions:
REMARK  status: ('A' for Active; 'I' for Inactive)
REMARK    1  A    between atoms: C_4  and  C_7 
REMARK    2  A    between atoms: C_7  and  O_8 
REMARK    3  A    between atoms: O_8  and  C_9 
REMARK    4  A    between atoms: C_9  and  C_10 
REMARK    5  A    between atoms: C_10  and  C_11 
REMARK    6  A    between atoms: C_11  and  C_12 
ROOT
ATOM      1  C   LIG d   1       2.215   0.582  -4.974  0.00  0.00     0.073 C 
ATOM      2  H   LIG d   1       1.590  -0.250  -5.301  0.00  0.00     0.061 H 
ATOM      3  H   LIG d   1       1.583   1.427  -4.701  0.00  0.00     0.061 H 
ENDROOT
BRANCH   1   4
ATOM      4  C   LIG d   1       3.030   0.159  -3.779  0.00  0.00    -0.022 A 
ATOM      5  C   LIG d   1       3.161  -1.182  -3.471  0.00  0.00    -0.056 A 
ATOM      6  C   LIG d   1       3.908  -1.570  -2.375  0.00  0.00    -0.061 A 
ATOM      7  H   LIG d   1       2.680  -1.928  -4.087  0.00  0.00     0.062 H 
ATOM      8  C   LIG d   1       4.525  -0.616  -1.586  0.00  0.00    -0.062 A 
ATOM      9  H   LIG d   1       4.012  -2.617  -2.134  0.00  0.00     0.062 H 
ATOM     10  C   LIG d   1       4.394   0.725  -1.894  0.00  0.00    -0.061 A 
ATOM     11  H   LIG d   1       5.108  -0.920  -0.729  0.00  0.00     0.062 H 
ATOM     12  C   LIG d   1       3.650   1.112  -2.992  0.00  0.00    -0.056 A 
ATOM     13  H   LIG d   1       4.875   1.470  -1.277  0.00  0.00     0.062 H 
ATOM     14  H   LIG d   1       3.551   2.160  -3.236  0.00  0.00     0.062 H 
ENDBRANCH   1   4
BRANCH   1  15
ATOM     15  O   LIG d   1       3.091   0.965  -6.037  0.00  0.00    -0.375 OA
BRANCH  15  16
ATOM     16  C   LIG d   1       3.203  -0.008  -7.077  0.00  0.00     0.049 C 
ATOM     17  H   LIG d   1       4.246  -0.306  -7.183  0.00  0.00     0.056 H 
ATOM     18  H   LIG d   1       2.601  -0.881  -6.825  0.00  0.00     0.056 H 
BRANCH  16  19
ATOM     19  C   LIG d   1       2.707   0.593  -8.393  0.00  0.00    -0.023 C 
ATOM     20  H   LIG d   1       3.239   0.134  -9.226  0.00  0.00     0.029 H 
ATOM     21  H   LIG d   1       1.639   0.407  -8.498  0.00  0.00     0.029 H 
BRANCH  19  22
ATOM     22  C   LIG d   1       2.965   2.102  -8.393  0.00  0.00     0.005 C 
ATOM     23  H   LIG d   1       2.097   2.588  -8.493  0.00  0.00     0.034 H 
ATOM     24  H   LIG d   1       3.439   2.389  -7.455  0.00  0.00     0.034 H 
BRANCH  22  25
ATOM     25  C   LIG d   1       3.874   2.455  -9.543  0.00  0.00     0.120 C 
ATOM     26  O   LIG d   1       5.067   2.524  -9.371  0.00  0.00    -0.301 OA
ATOM     27  H   LIG d   1       3.457   2.645 -10.522  0.00  0.00     0.103 H 
ENDBRANCH  22  25
ENDBRANCH  19  22
ENDBRANCH  16  19
ENDBRANCH  15  16
ENDBRANCH   1  15
TORSDOF 6
ENDMDL
MODEL 2
REMARK VINA RESULT:      -6.0      0.215      1.345
REMARK  6 active torsions:
REMARK  status: ('A' for Active; 'I' for Inactive)
REMARK    1  A    between atoms: C_4  and  C_7 
REMARK    2  A    between atoms: C_7  and  O_8 
REMARK    3  A    between atoms: O_8  and  C_9 
REMARK    4  A    between atoms: C_9  and  C_10 
REMARK    5  A    between atoms: C_10  and  C_11 
REMARK    6  A    between atoms: C_11  and  C_12 
ROOT
ATOM      1  C   LIG d   1       2.146   0.566  -4.970  0.00  0.00     0.073 C 
ATOM      2  H   LIG d   1       1.535  -0.281  -5.283  0.00  0.00     0.061 H 
ATOM      3  H   LIG d   1       1.500   1.399  -4.694  0.00  0.00     0.061 H 
ENDROOT
BRANCH   1   4
ATOM      4  C   LIG d   1       2.986   0.168  -3.783  0.00  0.00    -0.022 A 
ATOM      5  C   LIG d   1       3.603   1.139  -3.017  0.00  0.00    -0.056 A 
ATOM      6  C   LIG d   1       4.373   0.775  -1.929  0.00  0.00    -0.061 A 
ATOM      7  H   LIG d   1       3.483   2.183  -3.268  0.00  0.00     0.062 H 
ATOM      8  C   LIG d   1       4.527  -0.561  -1.607  0.00  0.00    -0.062 A 
ATOM      9  H   LIG d   1       4.855   1.532  -1.330  0.00  0.00     0.062 H 
ATOM     10  C   LIG d   1       3.910  -1.533  -2.374  0.00  0.00    -0.061 A 
ATOM     11  H   LIG d   1       5.129  -0.846  -0.757  0.00  0.00     0.062 H 
ATOM     12  C   LIG d   1       3.136  -1.168  -3.459  0.00  0.00    -0.056 A 
ATOM     13  H   LIG d   1       4.030  -2.576  -2.123  0.00  0.00     0.062 H 
ATOM     14  H   LIG d   1       2.650  -1.926  -4.056  0.00  0.00     0.062 H 
ENDBRANCH   1   4
BRANCH   1  15
ATOM     15  O   LIG d   1       2.999   0.960  -6.048  0.00  0.00    -0.375 OA
BRANCH  15  16
ATOM     16  C   LIG d   1       3.157  -0.037  -7.059  0.00  0.00     0.049 C 
ATOM     17  H   LIG d   1       4.200  -0.354  -7.097  0.00  0.00     0.056 H 
ATOM     18  H   LIG d   1       2.527  -0.895  -6.826  0.00  0.00     0.056 H 
BRANCH  16  19
ATOM     19  C   LIG d   1       2.750   0.543  -8.415  0.00  0.00    -0.023 C 
ATOM     20  H   LIG d   1       3.402   0.143  -9.191  0.00  0.00     0.029 H 
ATOM     21  H   LIG d   1       1.718   0.272  -8.632  0.00  0.00     0.029 H 
BRANCH  19  22
ATOM     22  C   LIG d   1       2.880   2.068  -8.376  0.00  0.00     0.005 C 
ATOM     23  H   LIG d   1       2.050   2.482  -8.750  0.00  0.00     0.034 H 
ATOM     24  H   LIG d   1       3.018   2.394  -7.345  0.00  0.00     0.034 H 
BRANCH  22  25
ATOM     25  C   LIG d   1       4.069   2.491  -9.200  0.00  0.00     0.120 C 
ATOM     26  O   LIG d   1       5.186   2.212  -8.837  0.00  0.00    -0.301 OA
ATOM     27  H   LIG d   1       3.921   3.044 -10.117  0.00  0.00     0.103 H 
ENDBRANCH  22  25
ENDBRANCH  19  22
ENDBRANCH  16  19
ENDBRANCH  15  16
ENDBRANCH   1  15
TORSDOF 6
ENDMDL
MODEL 3
REMARK VINA RESULT:      -5.6      1.704      2.713
REMARK  6 active torsions:
REMARK  status: ('A' for Active; 'I' for Inactive)
REMARK    1  A    between atoms: C_4  and  C_7 
REMARK    2  A    between atoms: C_7  and  O_8 
REMARK    3  A    between atoms: O_8  and  C_9 
REMARK    4  A    between atoms: C_9  and  C_10 
REMARK    5  A    between atoms: C_10  and  C_11 
REMARK    6  A    between atoms: C_11  and  C_12 
ROOT
ATOM      1  C   LIG d   1       2.175   0.435  -4.903  0.00  0.00     0.073 C 
ATOM      2  H   LIG d   1       1.623  -0.423  -5.286  0.00  0.00     0.061 H 
ATOM      3  H   LIG d   1       1.474   1.210  -4.593  0.00  0.00     0.061 H 
ENDROOT
BRANCH   1   4
ATOM      4  C   LIG d   1       3.010   0.011  -3.722  0.00  0.00    -0.022 A 
ATOM      5  C   LIG d   1       3.559   0.965  -2.886  0.00  0.00    -0.056 A 
ATOM      6  C   LIG d   1       4.324   0.576  -1.803  0.00  0.00    -0.061 A 
ATOM      7  H   LIG d   1       3.390   2.014  -3.079  0.00  0.00     0.062 H 
ATOM      8  C   LIG d   1       4.540  -0.767  -1.556  0.00  0.00    -0.062 A 
ATOM      9  H   LIG d   1       4.753   1.320  -1.149  0.00  0.00     0.062 H 
ATOM     10  C   LIG d   1       3.990  -1.721  -2.391  0.00  0.00    -0.061 A 
ATOM     11  H   LIG d   1       5.138  -1.071  -0.709  0.00  0.00     0.062 H 
ATOM     12  C   LIG d   1       3.222  -1.332  -3.472  0.00  0.00    -0.056 A 
ATOM     13  H   LIG d   1       4.159  -2.770  -2.199  0.00  0.00     0.062 H 
ATOM     14  H   LIG d   1       2.788  -2.077  -4.123  0.00  0.00     0.062 H 
ENDBRANCH   1   4
BRANCH   1  15
ATOM     15  O   LIG d   1       3.028   0.948  -5.930  0.00  0.00    -0.375 OA
BRANCH  15  16
ATOM     16  C   LIG d   1       3.025   0.171  -7.130  0.00  0.00     0.049 C 
ATOM     17  H   LIG d   1       2.049  -0.299  -7.255  0.00  0.00     0.056 H 
ATOM     18  H   LIG d   1       3.226   0.819  -7.983  0.00  0.00     0.056 H 
BRANCH  16  19
ATOM     19  C   LIG d   1       4.105  -0.909  -7.041  0.00  0.00    -0.023 C 
ATOM     20  H   LIG d   1       4.020  -1.429  -6.087  0.00  0.00     0.029 H 
ATOM     21  H   LIG d   1       3.976  -1.620  -7.856  0.00  0.00     0.029 H 
BRANCH  19  22
ATOM     22  C   LIG d   1       5.486  -0.258  -7.145  0.00  0.00     0.005 C 
ATOM     23  H   LIG d   1       5.987  -0.660  -7.911  0.00  0.00     0.034 H 
ATOM     24  H   LIG d   1       5.371   0.814  -7.308  0.00  0.00     0.034 H 
BRANCH  22  25
ATOM     25  C   LIG d   1       6.249  -0.493  -5.867  0.00  0.00     0.120 C 
ATOM     26  O   LIG d   1       6.271   0.358  -5.011  0.00  0.00    -0.301 OA
ATOM     27  H   LIG d   1       6.776  -1.424  -5.716  0.00  0.00     0.103 H 
ENDBRANCH  22  25
ENDBRANCH  19  22
ENDBRANCH  16  19
ENDBRANCH  15  16
ENDBRANCH   1  15
TORSDOF 6
ENDMDL
MODEL 4
REMARK VINA RESULT:      -5.0      2.099      2.889
REMARK  6 active torsions:
REMARK  status: ('A' for Active; 'I' for Inactive)
REMARK    1  A    between atoms: C_4  and  C_7 
REMARK    2  A    between atoms: C_7  and  O_8 
REMARK    3  A    between atoms: O_8  and  C_9 
REMARK    4  A    between atoms: C_9  and  C_10 
REMARK    5  A    between atoms: C_10  and  C_11 
REMARK    6  A    between atoms: C_11  and  C_12 
ROOT
ATOM      1  C   LIG d   1       2.385   0.583  -4.940  0.00  0.00     0.073 C 
ATOM      2  H   LIG d   1       1.581  -0.114  -5.177  0.00  0.00     0.061 H 
ATOM      3  H   LIG d   1       1.963   1.563  -4.717  0.00  0.00     0.061 H 
ENDROOT
BRANCH   1   4
ATOM      4  C   LIG d   1       3.148   0.082  -3.741  0.00  0.00    -0.022 A 
ATOM      5  C   LIG d   1       3.768   0.978  -2.891  0.00  0.00    -0.056 A 
ATOM      6  C   LIG d   1       4.467   0.519  -1.792  0.00  0.00    -0.061 A 
ATOM      7  H   LIG d   1       3.705   2.039  -3.086  0.00  0.00     0.062 H 
ATOM      8  C   LIG d   1       4.547  -0.839  -1.542  0.00  0.00    -0.062 A 
ATOM      9  H   LIG d   1       4.951   1.219  -1.127  0.00  0.00     0.062 H 
ATOM     10  C   LIG d   1       3.927  -1.737  -2.391  0.00  0.00    -0.061 A 
ATOM     11  H   LIG d   1       5.094  -1.198  -0.683  0.00  0.00     0.062 H 
ATOM     12  C   LIG d   1       3.224  -1.276  -3.488  0.00  0.00    -0.056 A 
ATOM     13  H   LIG d   1       3.990  -2.796  -2.196  0.00  0.00     0.062 H 
ATOM     14  H   LIG d   1       2.735  -1.976  -4.150  0.00  0.00     0.062 H 
ENDBRANCH   1   4
BRANCH   1  15
ATOM     15  O   LIG d   1       3.269   0.687  -6.058  0.00  0.00    -0.375 OA
BRANCH  15  16
ATOM     16  C   LIG d   1       2.718   0.196  -7.282  0.00  0.00     0.049 C 
ATOM     17  H   LIG d   1       1.701  -0.156  -7.107  0.00  0.00     0.056 H 
ATOM     18  H   LIG d   1       2.702   0.997  -8.021  0.00  0.00     0.056 H 
BRANCH  16  19
ATOM     19  C   LIG d   1       3.577  -0.960  -7.800  0.00  0.00    -0.023 C 
ATOM     20  H   LIG d   1       4.541  -0.575  -8.132  0.00  0.00     0.029 H 
ATOM     21  H   LIG d   1       3.731  -1.684  -7.001  0.00  0.00     0.029 H 
BRANCH  19  22
ATOM     22  C   LIG d   1       2.866  -1.637  -8.974  0.00  0.00     0.005 C 
ATOM     23  H   LIG d   1       2.077  -2.150  -8.634  0.00  0.00     0.034 H 
ATOM     24  H   LIG d   1       2.530  -0.878  -9.681  0.00  0.00     0.034 H 
BRANCH  22  25
ATOM     25  C   LIG d   1       3.819  -2.579  -9.662  0.00  0.00     0.120 C 
ATOM     26  O   LIG d   1       3.498  -3.725  -9.861  0.00  0.00    -0.301 OA
ATOM     27  H   LIG d   1       4.791  -2.228  -9.978  0.00  0.00     0.103 H 
ENDBRANCH  22  25
ENDBRANCH  19  22
ENDBRANCH  16  19
ENDBRANCH  15  16
ENDBRANCH   1  15
TORSDOF 6
ENDMDL
MODEL 5
REMARK VINA RESULT:      -4.9      1.861      6.061
REMARK  6 active torsions:
REMARK  status: ('A' for Active; 'I' for Inactive)
REMARK    1  A    between atoms: C_4  and  C_7 
REMARK    2  A    between atoms: C_7  and  O_8 
REMARK    3  A    between atoms: O_8  and  C_9 
REMARK    4  A    between atoms: C_9  and  C_10 
REMARK    5  A    between atoms: C_10  and  C_11 
REMARK    6  A    between atoms: C_11  and  C_12 
ROOT
ATOM      1  C   LIG d   1       4.013  -0.848  -6.771  0.00  0.00     0.073 C 
ATOM      2  H   LIG d   1       3.243  -1.542  -7.108  0.00  0.00     0.061 H 
ATOM      3  H   LIG d   1       4.985  -1.339  -6.804  0.00  0.00     0.061 H 
ENDROOT
BRANCH   1   4
ATOM      4  C   LIG d   1       4.030   0.361  -7.671  0.00  0.00    -0.022 A 
ATOM      5  C   LIG d   1       5.196   0.725  -8.317  0.00  0.00    -0.056 A 
ATOM      6  C   LIG d   1       5.212   1.833  -9.143  0.00  0.00    -0.061 A 
ATOM      7  H   LIG d   1       6.096   0.143  -8.178  0.00  0.00     0.062 H 
ATOM      8  C   LIG d   1       4.061   2.578  -9.322  0.00  0.00    -0.062 A 
ATOM      9  H   LIG d   1       6.123   2.117  -9.649  0.00  0.00     0.062 H 
ATOM     10  C   LIG d   1       2.894   2.214  -8.676  0.00  0.00    -0.061 A 
ATOM     11  H   LIG d   1       4.074   3.444  -9.967  0.00  0.00     0.062 H 
ATOM     12  C   LIG d   1       2.878   1.103  -7.854  0.00  0.00    -0.056 A 
ATOM     13  H   LIG d   1       1.996   2.796  -8.815  0.00  0.00     0.062 H 
ATOM     14  H   LIG d   1       1.965   0.815  -7.352  0.00  0.00     0.062 H 
ENDBRANCH   1   4
BRANCH   1  15
ATOM     15  O   LIG d   1       3.731  -0.440  -5.430  0.00  0.00    -0.375 OA
BRANCH  15  16
ATOM     16  C   LIG d   1       4.325  -1.272  -4.432  0.00  0.00     0.049 C 
ATOM     17  H   LIG d   1       4.443  -2.282  -4.824  0.00  0.00     0.056 H 
ATOM     18  H   LIG d   1       5.302  -0.873  -4.161  0.00  0.00     0.056 H 
BRANCH  16  19
ATOM     19  C   LIG d   1       3.425  -1.306  -3.195  0.00  0.00    -0.023 C 
ATOM     20  H   LIG d   1       2.622  -0.578  -3.310  0.00  0.00     0.029 H 
ATOM     21  H   LIG d   1       3.000  -2.302  -3.082  0.00  0.00     0.029 H 
BRANCH  19  22
ATOM     22  C   LIG d   1       4.252  -0.960  -1.954  0.00  0.00     0.005 C 
ATOM     23  H   LIG d   1       3.757  -1.248  -1.134  0.00  0.00     0.034 H 
ATOM     24  H   LIG d   1       5.211  -1.476  -2.001  0.00  0.00     0.034 H 
BRANCH  22  25
ATOM     25  C   LIG d   1       4.484   0.529  -1.905  0.00  0.00     0.120 C 
ATOM     26  O   LIG d   1       3.546   1.288  -1.946  0.00  0.00    -0.301 OA
ATOM     27  H   LIG d   1       5.490   0.916  -1.832  0.00  0.00     0.103 H 
ENDBRANCH  22  25
ENDBRANCH  19  22
ENDBRANCH  16  19
ENDBRANCH  15  16
ENDBRANCH   1  15
TORSDOF 6
ENDMDL
MODEL 6
REMARK VINA RESULT:      -4.6      2.502      3.438
REMARK  6 active torsions:
REMARK  status: ('A' for Active; 'I' for Inactive)
REMARK    1  A    between atoms: C_4  and  C_7 
REMARK    2  A    between atoms: C_7  and  O_8 
REMARK    3  A    between atoms: O_8  and  C_9 
REMARK    4  A    between atoms: C_9  and  C_10 
REMARK    5  A    between atoms: C_10  and  C_11 
REMARK    6  A    between atoms: C_11  and  C_12 
ROOT
ATOM      1  C   LIG d   1       7.441   0.788  -4.212  0.00  0.00     0.073 C 
ATOM      2  H   LIG d   1       7.213   1.794  -4.563  0.00  0.00     0.061 H 
ATOM      3  H   LIG d   1       8.354   0.809  -3.616  0.00  0.00     0.061 H 
ENDROOT
BRANCH   1   4
ATOM      4  C   LIG d   1       6.302   0.281  -3.366  0.00  0.00    -0.022 A 
ATOM      5  C   LIG d   1       5.480   1.174  -2.706  0.00  0.00    -0.056 A 
ATOM      6  C   LIG d   1       4.435   0.709  -1.930  0.00  0.00    -0.061 A 
ATOM      7  H   LIG d   1       5.653   2.236  -2.797  0.00  0.00     0.062 H 
ATOM      8  C   LIG d   1       4.213  -0.651  -1.813  0.00  0.00    -0.062 A 
ATOM      9  H   LIG d   1       3.792   1.406  -1.415  0.00  0.00     0.062 H 
ATOM     10  C   LIG d   1       5.035  -1.545  -2.473  0.00  0.00    -0.061 A 
ATOM     11  H   LIG d   1       3.397  -1.015  -1.207  0.00  0.00     0.062 H 
ATOM     12  C   LIG d   1       6.077  -1.079  -3.253  0.00  0.00    -0.056 A 
ATOM     13  H   LIG d   1       4.862  -2.607  -2.382  0.00  0.00     0.062 H 
ATOM     14  H   LIG d   1       6.718  -1.777  -3.772  0.00  0.00     0.062 H 
ENDBRANCH   1   4
BRANCH   1  15
ATOM     15  O   LIG d   1       7.624  -0.078  -5.334  0.00  0.00    -0.375 OA
BRANCH  15  16
ATOM     16  C   LIG d   1       7.029   0.402  -6.542  0.00  0.00     0.049 C 
ATOM     17  H   LIG d   1       6.463   1.310  -6.331  0.00  0.00     0.056 H 
ATOM     18  H   LIG d   1       7.811   0.623  -7.269  0.00  0.00     0.056 H 
BRANCH  16  19
ATOM     19  C   LIG d   1       6.091  -0.666  -7.108  0.00  0.00    -0.023 C 
ATOM     20  H   LIG d   1       6.099  -0.616  -8.196  0.00  0.00     0.029 H 
ATOM     21  H   LIG d   1       6.427  -1.651  -6.787  0.00  0.00     0.029 H 
BRANCH  19  22
ATOM     22  C   LIG d   1       4.671  -0.419  -6.596  0.00  0.00     0.005 C 
ATOM     23  H   LIG d   1       4.262  -1.287  -6.314  0.00  0.00     0.034 H 
ATOM     24  H   LIG d   1       4.704   0.261  -5.744  0.00  0.00     0.034 H 
BRANCH  22  25
ATOM     25  C   LIG d   1       3.841   0.194  -7.695  0.00  0.00     0.120 C 
ATOM     26  O   LIG d   1       3.344   1.284  -7.540  0.00  0.00    -0.301 OA
ATOM     27  H   LIG d   1       3.692  -0.341  -8.621  0.00  0.00     0.103 H 
ENDBRANCH  22  25
ENDBRANCH  19  22
ENDBRANCH  16  19
ENDBRANCH  15  16
ENDBRANCH   1  15
TORSDOF 6
ENDMDL
MODEL 7
REMARK VINA RESULT:      -4.5      2.746      4.146
REMARK  6 active torsions:
REMARK  status: ('A' for Active; 'I' for Inactive)
REMARK    1  A    between atoms: C_4  and  C_7 
REMARK    2  A    between atoms: C_7  and  O_8 
REMARK    3  A    between atoms: O_8  and  C_9 
REMARK    4  A    between atoms: C_9  and  C_10 
REMARK    5  A    between atoms: C_10  and  C_11 
REMARK    6  A    between atoms: C_11  and  C_12 
ROOT
ATOM      1  C   LIG d   1       3.197   0.175  -5.466  0.00  0.00     0.073 C 
ATOM      2  H   LIG d   1       2.115   0.062  -5.535  0.00  0.00     0.061 H 
ATOM      3  H   LIG d   1       3.469   1.208  -5.682  0.00  0.00     0.061 H 
ENDROOT
BRANCH   1   4
ATOM      4  C   LIG d   1       3.652  -0.182  -4.074  0.00  0.00    -0.022 A 
ATOM      5  C   LIG d   1       4.267   0.768  -3.282  0.00  0.00    -0.056 A 
ATOM      6  C   LIG d   1       4.684   0.441  -2.006  0.00  0.00    -0.061 A 
ATOM      7  H   LIG d   1       4.421   1.769  -3.660  0.00  0.00     0.062 H 
ATOM      8  C   LIG d   1       4.486  -0.839  -1.522  0.00  0.00    -0.062 A 
ATOM      9  H   LIG d   1       5.164   1.184  -1.387  0.00  0.00     0.062 H 
ATOM     10  C   LIG d   1       3.871  -1.791  -2.314  0.00  0.00    -0.061 A 
ATOM     11  H   LIG d   1       4.813  -1.095  -0.524  0.00  0.00     0.062 H 
ATOM     12  C   LIG d   1       3.450  -1.461  -3.588  0.00  0.00    -0.056 A 
ATOM     13  H   LIG d   1       3.717  -2.790  -1.936  0.00  0.00     0.062 H 
ATOM     14  H   LIG d   1       2.965  -2.203  -4.206  0.00  0.00     0.062 H 
ENDBRANCH   1   4
BRANCH   1  15
ATOM     15  O   LIG d   1       3.828  -0.692  -6.411  0.00  0.00    -0.375 OA
BRANCH  15  16
ATOM     16  C   LIG d   1       5.199  -0.378  -6.664  0.00  0.00     0.049 C 
ATOM     17  H   LIG d   1       5.290   0.079  -7.650  0.00  0.00     0.056 H 
ATOM     18  H   LIG d   1       5.558   0.319  -5.907  0.00  0.00     0.056 H 
BRANCH  16  19
ATOM     19  C   LIG d   1       6.032  -1.660  -6.616  0.00  0.00    -0.023 C 
ATOM     20  H   LIG d   1       5.374  -2.524  -6.704  0.00  0.00     0.029 H 
ATOM     21  H   LIG d   1       6.745  -1.661  -7.440  0.00  0.00     0.029 H 
BRANCH  19  22
ATOM     22  C   LIG d   1       6.788  -1.726  -5.287  0.00  0.00     0.005 C 
ATOM     23  H   LIG d   1       7.764  -1.579  -5.451  0.00  0.00     0.034 H 
ATOM     24  H   LIG d   1       6.411  -0.955  -4.616  0.00  0.00     0.034 H 
BRANCH  22  25
ATOM     25  C   LIG d   1       6.583  -3.082  -4.661  0.00  0.00     0.120 C 
ATOM     26  O   LIG d   1       7.524  -3.818  -4.493  0.00  0.00    -0.301 OA
ATOM     27  H   LIG d   1       5.592  -3.394  -4.361  0.00  0.00     0.103 H 
ENDBRANCH  22  25
ENDBRANCH  19  22
ENDBRANCH  16  19
ENDBRANCH  15  16
ENDBRANCH   1  15
TORSDOF 6
ENDMDL
MODEL 8
REMARK VINA RESULT:      -4.5      4.882      6.094
REMARK  6 active torsions:
REMARK  status: ('A' for Active; 'I' for Inactive)
REMARK    1  A    between atoms: C_4  and  C_7 
REMARK    2  A    between atoms: C_7  and  O_8 
REMARK    3  A    between atoms: O_8  and  C_9 
REMARK    4  A    between atoms: C_9  and  C_10 
REMARK    5  A    between atoms: C_10  and  C_11 
REMARK    6  A    between atoms: C_11  and  C_12 
ROOT
ATOM      1  C   LIG d   1       7.547   0.823  -4.004  0.00  0.00     0.073 C 
ATOM      2  H   LIG d   1       8.373   0.120  -3.898  0.00  0.00     0.061 H 
ATOM      3  H   LIG d   1       7.308   0.949  -5.060  0.00  0.00     0.061 H 
ENDROOT
BRANCH   1   4
ATOM      4  C   LIG d   1       6.338   0.293  -3.276  0.00  0.00    -0.022 A 
ATOM      5  C   LIG d   1       5.450   1.169  -2.682  0.00  0.00    -0.056 A 
ATOM      6  C   LIG d   1       4.341   0.684  -2.015  0.00  0.00    -0.061 A 
ATOM      7  H   LIG d   1       5.620   2.234  -2.740  0.00  0.00     0.062 H 
ATOM      8  C   LIG d   1       4.122  -0.680  -1.941  0.00  0.00    -0.062 A 
ATOM      9  H   LIG d   1       3.646   1.367  -1.551  0.00  0.00     0.062 H 
ATOM     10  C   LIG d   1       5.010  -1.557  -2.535  0.00  0.00    -0.061 A 
ATOM     11  H   LIG d   1       3.256  -1.060  -1.419  0.00  0.00     0.062 H 
ATOM     12  C   LIG d   1       6.116  -1.070  -3.206  0.00  0.00    -0.056 A 
ATOM     13  H   LIG d   1       4.839  -2.621  -2.477  0.00  0.00     0.062 H 
ATOM     14  H   LIG d   1       6.809  -1.754  -3.674  0.00  0.00     0.062 H 
ENDBRANCH   1   4
BRANCH   1  15
ATOM     15  O   LIG d   1       7.923   2.085  -3.448  0.00  0.00    -0.375 OA
BRANCH  15  16
ATOM     16  C   LIG d   1       8.653   2.923  -4.346  0.00  0.00     0.049 C 
ATOM     17  H   LIG d   1       9.129   2.307  -5.110  0.00  0.00     0.056 H 
ATOM     18  H   LIG d   1       7.972   3.627  -4.822  0.00  0.00     0.056 H 
BRANCH  16  19
ATOM     19  C   LIG d   1       9.724   3.691  -3.570  0.00  0.00    -0.023 C 
ATOM     20  H   LIG d   1       9.562   4.762  -3.692  0.00  0.00     0.029 H 
ATOM     21  H   LIG d   1       9.664   3.433  -2.514  0.00  0.00     0.029 H 
BRANCH  19  22
ATOM     22  C   LIG d   1      11.108   3.321  -4.108  0.00  0.00     0.005 C 
ATOM     23  H   LIG d   1      11.079   3.288  -5.108  0.00  0.00     0.034 H 
ATOM     24  H   LIG d   1      11.834   4.069  -3.790  0.00  0.00     0.034 H 
BRANCH  22  25
ATOM     25  C   LIG d   1      11.510   1.971  -3.573  0.00  0.00     0.120 C 
ATOM     26  O   LIG d   1      11.419   0.992  -4.273  0.00  0.00    -0.301 OA
ATOM     27  H   LIG d   1      11.880   1.879  -2.561  0.00  0.00     0.103 H 
ENDBRANCH  22  25
ENDBRANCH  19  22
ENDBRANCH  16  19
ENDBRANCH  15  16
ENDBRANCH   1  15
TORSDOF 6
ENDMDL
MODEL 9
REMARK VINA RESULT:      -4.3      1.443      2.256
REMARK  6 active torsions:
REMARK  status: ('A' for Active; 'I' for Inactive)
REMARK    1  A    between atoms: C_4  and  C_7 
REMARK    2  A    between atoms: C_7  and  O_8 
REMARK    3  A    between atoms: O_8  and  C_9 
REMARK    4  A    between atoms: C_9  and  C_10 
REMARK    5  A    between atoms: C_10  and  C_11 
REMARK    6  A    between atoms: C_11  and  C_12 
ROOT
ATOM      1  C   LIG d   1       3.533  -0.878  -7.389  0.00  0.00     0.073 C 
ATOM      2  H   LIG d   1       4.398  -0.638  -8.008  0.00  0.00     0.061 H 
ATOM      3  H   LIG d   1       3.363  -1.954  -7.402  0.00  0.00     0.061 H 
ENDROOT
BRANCH   1   4
ATOM      4  C   LIG d   1       3.788  -0.428  -5.973  0.00  0.00    -0.022 A 
ATOM      5  C   LIG d   1       5.021  -0.648  -5.389  0.00  0.00    -0.056 A 
ATOM      6  C   LIG d   1       5.255  -0.235  -4.091  0.00  0.00    -0.061 A 
ATOM      7  H   LIG d   1       5.803  -1.142  -5.947  0.00  0.00     0.062 H 
ATOM      8  C   LIG d   1       4.254   0.397  -3.376  0.00  0.00    -0.062 A 
ATOM      9  H   LIG d   1       6.218  -0.407  -3.634  0.00  0.00     0.062 H 
ATOM     10  C   LIG d   1       3.021   0.618  -3.960  0.00  0.00    -0.061 A 
ATOM     11  H   LIG d   1       4.437   0.719  -2.361  0.00  0.00     0.062 H 
ATOM     12  C   LIG d   1       2.789   0.209  -5.260  0.00  0.00    -0.056 A 
ATOM     13  H   LIG d   1       2.240   1.112  -3.402  0.00  0.00     0.062 H 
ATOM     14  H   LIG d   1       1.827   0.385  -5.718  0.00  0.00     0.062 H 
ENDBRANCH   1   4
BRANCH   1  15
ATOM     15  O   LIG d   1       2.381  -0.206  -7.902  0.00  0.00    -0.375 OA
BRANCH  15  16
ATOM     16  C   LIG d   1       2.642   0.602  -9.051  0.00  0.00     0.049 C 
ATOM     17  H   LIG d   1       3.511   0.210  -9.580  0.00  0.00     0.056 H 
ATOM     18  H   LIG d   1       1.777   0.584  -9.713  0.00  0.00     0.056 H 
BRANCH  16  19
ATOM     19  C   LIG d   1       2.920   2.041  -8.611  0.00  0.00    -0.023 C 
ATOM     20  H   LIG d   1       2.013   2.635  -8.722  0.00  0.00     0.029 H 
ATOM     21  H   LIG d   1       3.233   2.047  -7.567  0.00  0.00     0.029 H 
BRANCH  19  22
ATOM     22  C   LIG d   1       4.030   2.635  -9.481  0.00  0.00     0.005 C 
ATOM     23  H   LIG d   1       3.852   2.419 -10.441  0.00  0.00     0.034 H 
ATOM     24  H   LIG d   1       4.054   3.717  -9.350  0.00  0.00     0.034 H 
BRANCH  22  25
ATOM     25  C   LIG d   1       5.356   2.049  -9.071  0.00  0.00     0.120 C 
ATOM     26  O   LIG d   1       6.057   1.508  -9.892  0.00  0.00    -0.301 OA
ATOM     27  H   LIG d   1       5.681   2.114  -8.042  0.00  0.00     0.103 H 
ENDBRANCH  22  25
ENDBRANCH  19  22
ENDBRANCH  16  19
ENDBRANCH  15  16
ENDBRANCH   1  15
TORSDOF 6
ENDMDL
MODEL 10
REMARK VINA RESULT:      -4.2      4.933      6.595
REMARK  6 active torsions:
REMARK  status: ('A' for Active; 'I' for Inactive)
REMARK    1  A    between atoms: C_4  and  C_7 
REMARK    2  A    between atoms: C_7  and  O_8 
REMARK    3  A    between atoms: O_8  and  C_9 
REMARK    4  A    between atoms: C_9  and  C_10 
REMARK    5  A    between atoms: C_10  and  C_11 
REMARK    6  A    between atoms: C_11  and  C_12 
ROOT
ATOM      1  C   LIG d   1       4.888  -2.641  -5.633  0.00  0.00     0.073 C 
ATOM      2  H   LIG d   1       4.537  -2.229  -6.579  0.00  0.00     0.061 H 
ATOM      3  H   LIG d   1       5.977  -2.671  -5.630  0.00  0.00     0.061 H 
ENDROOT
BRANCH   1   4
ATOM      4  C   LIG d   1       4.408  -1.774  -4.497  0.00  0.00    -0.022 A 
ATOM      5  C   LIG d   1       4.526  -2.214  -3.193  0.00  0.00    -0.056 A 
ATOM      6  C   LIG d   1       4.086  -1.419  -2.152  0.00  0.00    -0.061 A 
ATOM      7  H   LIG d   1       4.962  -3.181  -2.986  0.00  0.00     0.062 H 
ATOM      8  C   LIG d   1       3.527  -0.182  -2.416  0.00  0.00    -0.062 A 
ATOM      9  H   LIG d   1       4.178  -1.762  -1.133  0.00  0.00     0.062 H 
ATOM     10  C   LIG d   1       3.409   0.260  -3.721  0.00  0.00    -0.061 A 
ATOM     11  H   LIG d   1       3.183   0.440  -1.602  0.00  0.00     0.062 H 
ATOM     12  C   LIG d   1       3.854  -0.534  -4.761  0.00  0.00    -0.056 A 
ATOM     13  H   LIG d   1       2.973   1.225  -3.927  0.00  0.00     0.062 H 
ATOM     14  H   LIG d   1       3.766  -0.188  -5.781  0.00  0.00     0.062 H 
ENDBRANCH   1   4
BRANCH   1  15
ATOM     15  O   LIG d   1       4.374  -3.965  -5.471  0.00  0.00    -0.375 OA
BRANCH  15  16
ATOM     16  C   LIG d   1       5.349  -4.994  -5.654  0.00  0.00     0.049 C 
ATOM     17  H   LIG d   1       5.856  -4.848  -6.608  0.00  0.00     0.056 H 
ATOM     18  H   LIG d   1       6.079  -4.950  -4.846  0.00  0.00     0.056 H 
BRANCH  16  19
ATOM     19  C   LIG d   1       4.658  -6.359  -5.645  0.00  0.00    -0.023 C 
ATOM     20  H   LIG d   1       3.944  -6.399  -4.823  0.00  0.00     0.029 H 
ATOM     21  H   LIG d   1       4.133  -6.506  -6.588  0.00  0.00     0.029 H 
BRANCH  19  22
ATOM     22  C   LIG d   1       5.706  -7.459  -5.466  0.00  0.00     0.005 C 
ATOM     23  H   LIG d   1       6.157  -7.635  -6.341  0.00  0.00     0.034 H 
ATOM     24  H   LIG d   1       6.446  -7.140  -4.732  0.00  0.00     0.034 H 
BRANCH  22  25
ATOM     25  C   LIG d   1       5.033  -8.719  -4.985  0.00  0.00     0.120 C 
ATOM     26  O   LIG d   1       4.271  -9.311  -5.710  0.00  0.00    -0.301 OA
ATOM     27  H   LIG d   1       5.233  -9.093  -3.991  0.00  0.00     0.103 H 
ENDBRANCH  22  25
ENDBRANCH  19  22
ENDBRANCH  16  19
ENDBRANCH  15  16
ENDBRANCH   1  15
TORSDOF 6
ENDMDL
