MODEL 1
REMARK VINA RESULT:      -6.0      0.000      0.000
REMARK  0 active torsions:
REMARK  status: ('A' for Active; 'I' for Inactive)
ROOT
ATOM      1  C   LIG d   1       4.312  -3.203  -4.034  0.00  0.00    -0.035 A 
ATOM      2  C   LIG d   1       4.726  -1.958  -3.607  0.00  0.00    -0.024 A 
ATOM      3  C   LIG d   1       5.138  -1.008  -4.530  0.00  0.00     0.037 A 
ATOM      4  C   LIG d   1       5.147  -1.316  -5.886  0.00  0.00    -0.035 A 
ATOM      5  C   LIG d   1       4.736  -2.562  -6.312  0.00  0.00    -0.024 A 
ATOM      6  C   LIG d   1       4.314  -3.509  -5.388  0.00  0.00     0.037 A 
ATOM      7  N   LIG d   1       3.894  -4.771  -5.826  0.00  0.00    -0.285 N 
ATOM      8  C   LIG d   1       4.233  -5.217  -7.050  0.00  0.00     0.217 C 
ATOM      9  O   LIG d   1       3.848  -6.306  -7.418  0.00  0.00    -0.276 OA
ATOM     10  C   LIG d   1       5.083  -4.378  -7.965  0.00  0.00     0.028 C 
ATOM     11  C   LIG d   1       4.743  -2.899  -7.781  0.00  0.00    -0.018 C 
ATOM     12  N   LIG d   1       5.536   0.264  -4.104  0.00  0.00    -0.285 N 
ATOM     13  C   LIG d   1       5.270   0.682  -2.854  0.00  0.00     0.217 C 
ATOM     14  O   LIG d   1       5.714   1.742  -2.468  0.00  0.00    -0.276 OA
ATOM     15  C   LIG d   1       4.424  -0.153  -1.929  0.00  0.00     0.028 C 
ATOM     16  C   LIG d   1       4.739  -1.634  -2.135  0.00  0.00    -0.018 C 
ATOM     17  H   LIG d   1       3.987  -3.941  -3.314  0.00  0.00     0.064 H 
ATOM     18  H   LIG d   1       5.477  -0.580  -6.605  0.00  0.00     0.064 H 
ATOM     19  H   LIG d   1       3.355  -5.328  -5.242  0.00  0.00     0.155 HD
ATOM     20  H   LIG d   1       4.894  -4.667  -8.999  0.00  0.00     0.036 H 
ATOM     21  H   LIG d   1       6.135  -4.539  -7.732  0.00  0.00     0.036 H 
ATOM     22  H   LIG d   1       3.758  -2.697  -8.204  0.00  0.00     0.032 H 
ATOM     23  H   LIG d   1       5.489  -2.288  -8.290  0.00  0.00     0.032 H 
ATOM     24  H   LIG d   1       6.010   0.849  -4.714  0.00  0.00     0.155 HD
ATOM     25  H   LIG d   1       3.370   0.026  -2.143  0.00  0.00     0.036 H 
ATOM     26  H   LIG d   1       4.636   0.123  -0.897  0.00  0.00     0.036 H 
ATOM     27  H   LIG d   1       3.988  -2.239  -1.624  0.00  0.00     0.032 H 
ATOM     28  H   LIG d   1       5.724  -1.855  -1.724  0.00  0.00     0.032 H 
ENDROOT
TORSDOF 0
ENDMDL
MODEL 2
REMARK VINA RESULT:      -5.9      2.565      2.850
REMARK  0 active torsions:
REMARK  status: ('A' for Active; 'I' for Inactive)
ROOT
ATOM      1  C   LIG d   1       4.814  -3.089  -4.213  0.00  0.00    -0.035 A 
ATOM      2  C   LIG d   1       4.574  -1.944  -3.480  0.00  0.00    -0.024 A 
ATOM      3  C   LIG d   1       5.630  -1.129  -3.098  0.00  0.00     0.037 A 
ATOM      4  C   LIG d   1       6.932  -1.474  -3.442  0.00  0.00    -0.035 A 
ATOM      5  C   LIG d   1       7.172  -2.620  -4.172  0.00  0.00    -0.024 A 
ATOM      6  C   LIG d   1       6.113  -3.430  -4.562  0.00  0.00     0.037 A 
ATOM      7  N   LIG d   1       6.361  -4.590  -5.306  0.00  0.00    -0.285 N 
ATOM      8  C   LIG d   1       7.592  -5.134  -5.333  0.00  0.00     0.217 C 
ATOM      9  O   LIG d   1       7.792  -6.130  -5.994  0.00  0.00    -0.276 OA
ATOM     10  C   LIG d   1       8.721  -4.517  -4.553  0.00  0.00     0.028 C 
ATOM     11  C   LIG d   1       8.581  -2.995  -4.549  0.00  0.00    -0.018 C 
ATOM     12  N   LIG d   1       5.389   0.045  -2.376  0.00  0.00    -0.285 N 
ATOM     13  C   LIG d   1       4.146   0.548  -2.279  0.00  0.00     0.217 C 
ATOM     14  O   LIG d   1       3.938   1.504  -1.562  0.00  0.00    -0.276 OA
ATOM     15  C   LIG d   1       3.008  -0.065  -3.053  0.00  0.00     0.028 C 
ATOM     16  C   LIG d   1       3.164  -1.585  -3.087  0.00  0.00    -0.018 C 
ATOM     17  H   LIG d   1       3.990  -3.721  -4.513  0.00  0.00     0.064 H 
ATOM     18  H   LIG d   1       7.755  -0.844  -3.137  0.00  0.00     0.064 H 
ATOM     19  H   LIG d   1       5.639  -5.005  -5.805  0.00  0.00     0.155 HD
ATOM     20  H   LIG d   1       9.670  -4.792  -5.013  0.00  0.00     0.036 H 
ATOM     21  H   LIG d   1       8.697  -4.887  -3.528  0.00  0.00     0.036 H 
ATOM     22  H   LIG d   1       8.808  -2.607  -5.542  0.00  0.00     0.032 H 
ATOM     23  H   LIG d   1       9.276  -2.569  -3.825  0.00  0.00     0.032 H 
ATOM     24  H   LIG d   1       6.125   0.500  -1.940  0.00  0.00     0.155 HD
ATOM     25  H   LIG d   1       3.014   0.322  -4.072  0.00  0.00     0.036 H 
ATOM     26  H   LIG d   1       2.065   0.192  -2.573  0.00  0.00     0.036 H 
ATOM     27  H   LIG d   1       2.467  -2.005  -3.813  0.00  0.00     0.032 H 
ATOM     28  H   LIG d   1       2.948  -1.993  -2.099  0.00  0.00     0.032 H 
ENDROOT
TORSDOF 0
ENDMDL
MODEL 3
REMARK VINA RESULT:      -5.9      3.515      5.174
REMARK  0 active torsions:
REMARK  status: ('A' for Active; 'I' for Inactive)
ROOT
ATOM      1  C   LIG d   1       5.294  -3.168  -4.615  0.00  0.00    -0.035 A 
ATOM      2  C   LIG d   1       6.654  -3.401  -4.583  0.00  0.00    -0.024 A 
ATOM      3  C   LIG d   1       7.477  -2.606  -3.797  0.00  0.00     0.037 A 
ATOM      4  C   LIG d   1       6.931  -1.567  -3.051  0.00  0.00    -0.035 A 
ATOM      5  C   LIG d   1       5.572  -1.333  -3.086  0.00  0.00    -0.024 A 
ATOM      6  C   LIG d   1       4.748  -2.135  -3.866  0.00  0.00     0.037 A 
ATOM      7  N   LIG d   1       3.369  -1.897  -3.895  0.00  0.00    -0.285 N 
ATOM      8  C   LIG d   1       2.873  -0.710  -3.497  0.00  0.00     0.217 C 
ATOM      9  O   LIG d   1       1.674  -0.526  -3.515  0.00  0.00    -0.276 OA
ATOM     10  C   LIG d   1       3.789   0.388  -3.031  0.00  0.00     0.028 C 
ATOM     11  C   LIG d   1       4.977  -0.210  -2.278  0.00  0.00    -0.018 C 
ATOM     12  N   LIG d   1       8.853  -2.853  -3.743  0.00  0.00    -0.285 N 
ATOM     13  C   LIG d   1       9.362  -4.005  -4.213  0.00  0.00     0.217 C 
ATOM     14  O   LIG d   1      10.564  -4.158  -4.257  0.00  0.00    -0.276 OA
ATOM     15  C   LIG d   1       8.453  -5.109  -4.687  0.00  0.00     0.028 C 
ATOM     16  C   LIG d   1       7.247  -4.512  -5.411  0.00  0.00    -0.018 C 
ATOM     17  H   LIG d   1       4.654  -3.790  -5.225  0.00  0.00     0.064 H 
ATOM     18  H   LIG d   1       7.572  -0.943  -2.446  0.00  0.00     0.064 H 
ATOM     19  H   LIG d   1       2.767  -2.592  -4.205  0.00  0.00     0.155 HD
ATOM     20  H   LIG d   1       3.241   1.058  -2.368  0.00  0.00     0.036 H 
ATOM     21  H   LIG d   1       4.150   0.949  -3.892  0.00  0.00     0.036 H 
ATOM     22  H   LIG d   1       4.641  -0.593  -1.314  0.00  0.00     0.032 H 
ATOM     23  H   LIG d   1       5.732   0.561  -2.118  0.00  0.00     0.032 H 
ATOM     24  H   LIG d   1       9.446  -2.186  -3.364  0.00  0.00     0.155 HD
ATOM     25  H   LIG d   1       8.110  -5.688  -3.829  0.00  0.00     0.036 H 
ATOM     26  H   LIG d   1       9.000  -5.760  -5.368  0.00  0.00     0.036 H 
ATOM     27  H   LIG d   1       6.496  -5.288  -5.567  0.00  0.00     0.032 H 
ATOM     28  H   LIG d   1       7.564  -4.115  -6.376  0.00  0.00     0.032 H 
ENDROOT
TORSDOF 0
ENDMDL
MODEL 4
REMARK VINA RESULT:      -5.8      3.694      5.207
REMARK  0 active torsions:
REMARK  status: ('A' for Active; 'I' for Inactive)
ROOT
ATOM      1  C   LIG d   1       7.295  -0.924  -4.171  0.00  0.00    -0.035 A 
ATOM      2  C   LIG d   1       8.044   0.179  -4.529  0.00  0.00    -0.024 A 
ATOM      3  C   LIG d   1       7.677   1.442  -4.085  0.00  0.00     0.037 A 
ATOM      4  C   LIG d   1       6.546   1.597  -3.291  0.00  0.00    -0.035 A 
ATOM      5  C   LIG d   1       5.797   0.494  -2.936  0.00  0.00    -0.024 A 
ATOM      6  C   LIG d   1       6.170  -0.770  -3.372  0.00  0.00     0.037 A 
ATOM      7  N   LIG d   1       5.409  -1.887  -3.006  0.00  0.00    -0.285 N 
ATOM      8  C   LIG d   1       4.145  -1.737  -2.568  0.00  0.00     0.217 C 
ATOM      9  O   LIG d   1       3.505  -2.714  -2.241  0.00  0.00    -0.276 OA
ATOM     10  C   LIG d   1       3.519  -0.372  -2.479  0.00  0.00     0.028 C 
ATOM     11  C   LIG d   1       4.573   0.659  -2.073  0.00  0.00    -0.018 C 
ATOM     12  N   LIG d   1       8.446   2.560  -4.426  0.00  0.00    -0.285 N 
ATOM     13  C   LIG d   1       9.680   2.413  -4.939  0.00  0.00     0.217 C 
ATOM     14  O   LIG d   1      10.289   3.387  -5.328  0.00  0.00    -0.276 OA
ATOM     15  C   LIG d   1      10.313   1.050  -5.036  0.00  0.00     0.028 C 
ATOM     16  C   LIG d   1       9.255   0.012  -5.410  0.00  0.00    -0.018 C 
ATOM     17  H   LIG d   1       7.584  -1.907  -4.514  0.00  0.00     0.064 H 
ATOM     18  H   LIG d   1       6.255   2.581  -2.952  0.00  0.00     0.064 H 
ATOM     19  H   LIG d   1       5.796  -2.775  -3.069  0.00  0.00     0.155 HD
ATOM     20  H   LIG d   1       2.723  -0.387  -1.735  0.00  0.00     0.036 H 
ATOM     21  H   LIG d   1       3.102  -0.100  -3.449  0.00  0.00     0.036 H 
ATOM     22  H   LIG d   1       4.843   0.509  -1.027  0.00  0.00     0.032 H 
ATOM     23  H   LIG d   1       4.169   1.663  -2.204  0.00  0.00     0.032 H 
ATOM     24  H   LIG d   1       8.086   3.450  -4.291  0.00  0.00     0.155 HD
ATOM     25  H   LIG d   1      10.754   0.786  -4.075  0.00  0.00     0.036 H 
ATOM     26  H   LIG d   1      11.091   1.066  -5.799  0.00  0.00     0.036 H 
ATOM     27  H   LIG d   1       9.665  -0.990  -5.277  0.00  0.00     0.032 H 
ATOM     28  H   LIG d   1       8.966   0.150  -6.453  0.00  0.00     0.032 H 
ENDROOT
TORSDOF 0
ENDMDL
MODEL 5
REMARK VINA RESULT:      -5.8      0.988      5.938
REMARK  0 active torsions:
REMARK  status: ('A' for Active; 'I' for Inactive)
ROOT
ATOM      1  C   LIG d   1       4.439  -1.385  -5.964  0.00  0.00    -0.035 A 
ATOM      2  C   LIG d   1       4.668  -2.730  -6.174  0.00  0.00    -0.024 A 
ATOM      3  C   LIG d   1       4.668  -3.610  -5.101  0.00  0.00     0.037 A 
ATOM      4  C   LIG d   1       4.452  -3.135  -3.813  0.00  0.00    -0.035 A 
ATOM      5  C   LIG d   1       4.226  -1.790  -3.603  0.00  0.00    -0.024 A 
ATOM      6  C   LIG d   1       4.216  -0.911  -4.678  0.00  0.00     0.037 A 
ATOM      7  N   LIG d   1       3.983   0.453  -4.462  0.00  0.00    -0.285 N 
ATOM      8  C   LIG d   1       4.138   0.985  -3.235  0.00  0.00     0.217 C 
ATOM      9  O   LIG d   1       3.918   2.165  -3.062  0.00  0.00    -0.276 OA
ATOM     10  C   LIG d   1       4.581   0.132  -2.078  0.00  0.00     0.028 C 
ATOM     11  C   LIG d   1       3.989  -1.271  -2.209  0.00  0.00    -0.018 C 
ATOM     12  N   LIG d   1       4.876  -4.978  -5.312  0.00  0.00    -0.285 N 
ATOM     13  C   LIG d   1       4.801  -5.500  -6.548  0.00  0.00     0.217 C 
ATOM     14  O   LIG d   1       5.088  -6.665  -6.727  0.00  0.00    -0.276 OA
ATOM     15  C   LIG d   1       4.363  -4.653  -7.714  0.00  0.00     0.028 C 
ATOM     16  C   LIG d   1       4.927  -3.240  -7.568  0.00  0.00    -0.018 C 
ATOM     17  H   LIG d   1       4.435  -0.701  -6.800  0.00  0.00     0.064 H 
ATOM     18  H   LIG d   1       4.461  -3.818  -2.976  0.00  0.00     0.064 H 
ATOM     19  H   LIG d   1       3.708   1.018  -5.202  0.00  0.00     0.155 HD
ATOM     20  H   LIG d   1       4.240   0.583  -1.146  0.00  0.00     0.036 H 
ATOM     21  H   LIG d   1       5.669   0.067  -2.070  0.00  0.00     0.036 H 
ATOM     22  H   LIG d   1       2.917  -1.234  -2.013  0.00  0.00     0.032 H 
ATOM     23  H   LIG d   1       4.466  -1.936  -1.488  0.00  0.00     0.032 H 
ATOM     24  H   LIG d   1       5.077  -5.555  -4.559  0.00  0.00     0.155 HD
ATOM     25  H   LIG d   1       3.274  -4.608  -7.740  0.00  0.00     0.036 H 
ATOM     26  H   LIG d   1       4.729  -5.096  -8.640  0.00  0.00     0.036 H 
ATOM     27  H   LIG d   1       4.444  -2.580  -8.291  0.00  0.00     0.032 H 
ATOM     28  H   LIG d   1       6.001  -3.258  -7.754  0.00  0.00     0.032 H 
ENDROOT
TORSDOF 0
ENDMDL
MODEL 6
REMARK VINA RESULT:      -5.8      3.135      3.715
REMARK  0 active torsions:
REMARK  status: ('A' for Active; 'I' for Inactive)
ROOT
ATOM      1  C   LIG d   1       6.710  -0.869  -2.945  0.00  0.00    -0.035 A 
ATOM      2  C   LIG d   1       5.627  -0.161  -3.426  0.00  0.00    -0.024 A 
ATOM      3  C   LIG d   1       4.868  -0.675  -4.467  0.00  0.00     0.037 A 
ATOM      4  C   LIG d   1       5.206  -1.898  -5.035  0.00  0.00    -0.035 A 
ATOM      5  C   LIG d   1       6.291  -2.604  -4.556  0.00  0.00    -0.024 A 
ATOM      6  C   LIG d   1       7.044  -2.093  -3.507  0.00  0.00     0.037 A 
ATOM      7  N   LIG d   1       8.141  -2.815  -3.021  0.00  0.00    -0.285 N 
ATOM      8  C   LIG d   1       8.704  -3.785  -3.766  0.00  0.00     0.217 C 
ATOM      9  O   LIG d   1       9.644  -4.410  -3.324  0.00  0.00    -0.276 OA
ATOM     10  C   LIG d   1       8.178  -4.102  -5.139  0.00  0.00     0.028 C 
ATOM     11  C   LIG d   1       6.659  -3.931  -5.168  0.00  0.00    -0.018 C 
ATOM     12  N   LIG d   1       3.755   0.028  -4.942  0.00  0.00    -0.285 N 
ATOM     13  C   LIG d   1       3.239   1.051  -4.239  0.00  0.00     0.217 C 
ATOM     14  O   LIG d   1       2.344   1.717  -4.715  0.00  0.00    -0.276 OA
ATOM     15  C   LIG d   1       3.762   1.379  -2.865  0.00  0.00     0.028 C 
ATOM     16  C   LIG d   1       5.277   1.176  -2.825  0.00  0.00    -0.018 C 
ATOM     17  H   LIG d   1       7.298  -0.470  -2.131  0.00  0.00     0.064 H 
ATOM     18  H   LIG d   1       4.621  -2.294  -5.852  0.00  0.00     0.064 H 
ATOM     19  H   LIG d   1       8.499  -2.614  -2.142  0.00  0.00     0.155 HD
ATOM     20  H   LIG d   1       8.430  -5.132  -5.394  0.00  0.00     0.036 H 
ATOM     21  H   LIG d   1       8.632  -3.429  -5.866  0.00  0.00     0.036 H 
ATOM     22  H   LIG d   1       6.192  -4.735  -4.600  0.00  0.00     0.032 H 
ATOM     23  H   LIG d   1       6.309  -3.964  -6.200  0.00  0.00     0.032 H 
ATOM     24  H   LIG d   1       3.353  -0.224  -5.787  0.00  0.00     0.155 HD
ATOM     25  H   LIG d   1       3.290   0.724  -2.133  0.00  0.00     0.036 H 
ATOM     26  H   LIG d   1       3.529   2.416  -2.628  0.00  0.00     0.036 H 
ATOM     27  H   LIG d   1       5.620   1.210  -1.790  0.00  0.00     0.032 H 
ATOM     28  H   LIG d   1       5.763   1.968  -3.395  0.00  0.00     0.032 H 
ENDROOT
TORSDOF 0
ENDMDL
MODEL 7
REMARK VINA RESULT:      -5.7      8.447     12.394
REMARK  0 active torsions:
REMARK  status: ('A' for Active; 'I' for Inactive)
ROOT
ATOM      1  C   LIG d   1       9.573   6.993  -2.205  0.00  0.00    -0.035 A 
ATOM      2  C   LIG d   1      10.015   5.716  -2.488  0.00  0.00    -0.024 A 
ATOM      3  C   LIG d   1      10.833   5.048  -1.588  0.00  0.00     0.037 A 
ATOM      4  C   LIG d   1      11.219   5.671  -0.407  0.00  0.00    -0.035 A 
ATOM      5  C   LIG d   1      10.780   6.948  -0.126  0.00  0.00    -0.024 A 
ATOM      6  C   LIG d   1       9.953   7.613  -1.023  0.00  0.00     0.037 A 
ATOM      7  N   LIG d   1       9.507   8.908  -0.731  0.00  0.00    -0.285 N 
ATOM      8  C   LIG d   1      10.141   9.657   0.189  0.00  0.00     0.217 C 
ATOM      9  O   LIG d   1       9.732  10.771   0.440  0.00  0.00    -0.276 OA
ATOM     10  C   LIG d   1      11.350   9.127   0.911  0.00  0.00     0.028 C 
ATOM     11  C   LIG d   1      11.195   7.626   1.154  0.00  0.00    -0.018 C 
ATOM     12  N   LIG d   1      11.263   3.745  -1.860  0.00  0.00    -0.285 N 
ATOM     13  C   LIG d   1      10.685   3.021  -2.835  0.00  0.00     0.217 C 
ATOM     14  O   LIG d   1      11.140   1.935  -3.127  0.00  0.00    -0.276 OA
ATOM     15  C   LIG d   1       9.477   3.545  -3.566  0.00  0.00     0.028 C 
ATOM     16  C   LIG d   1       9.615   5.052  -3.781  0.00  0.00    -0.018 C 
ATOM     17  H   LIG d   1       8.933   7.511  -2.905  0.00  0.00     0.064 H 
ATOM     18  H   LIG d   1      11.863   5.155   0.290  0.00  0.00     0.064 H 
ATOM     19  H   LIG d   1       8.736   9.267  -1.198  0.00  0.00     0.155 HD
ATOM     20  H   LIG d   1      11.453   9.640   1.868  0.00  0.00     0.036 H 
ATOM     21  H   LIG d   1      12.240   9.306   0.308  0.00  0.00     0.036 H 
ATOM     22  H   LIG d   1      10.434   7.458   1.917  0.00  0.00     0.032 H 
ATOM     23  H   LIG d   1      12.145   7.212   1.492  0.00  0.00     0.032 H 
ATOM     24  H   LIG d   1      11.986   3.360  -1.341  0.00  0.00     0.155 HD
ATOM     25  H   LIG d   1       8.582   3.343  -2.977  0.00  0.00     0.036 H 
ATOM     26  H   LIG d   1       9.395   3.047  -4.531  0.00  0.00     0.036 H 
ATOM     27  H   LIG d   1       8.661   5.459  -4.118  0.00  0.00     0.032 H 
ATOM     28  H   LIG d   1      10.378   5.241  -4.537  0.00  0.00     0.032 H 
ENDROOT
TORSDOF 0
ENDMDL
MODEL 8
REMARK VINA RESULT:      -5.7      2.564      3.008
REMARK  0 active torsions:
REMARK  status: ('A' for Active; 'I' for Inactive)
ROOT
ATOM      1  C   LIG d   1       4.641  -1.790  -6.097  0.00  0.00    -0.035 A 
ATOM      2  C   LIG d   1       4.379  -0.982  -5.009  0.00  0.00    -0.024 A 
ATOM      3  C   LIG d   1       3.499   0.084  -5.132  0.00  0.00     0.037 A 
ATOM      4  C   LIG d   1       2.893   0.346  -6.355  0.00  0.00    -0.035 A 
ATOM      5  C   LIG d   1       3.157  -0.461  -7.443  0.00  0.00    -0.024 A 
ATOM      6  C   LIG d   1       4.030  -1.533  -7.316  0.00  0.00     0.037 A 
ATOM      7  N   LIG d   1       4.293  -2.353  -8.421  0.00  0.00    -0.285 N 
ATOM      8  C   LIG d   1       4.027  -1.921  -9.668  0.00  0.00     0.217 C 
ATOM      9  O   LIG d   1       4.247  -2.649 -10.613  0.00  0.00    -0.276 OA
ATOM     10  C   LIG d   1       3.459  -0.548  -9.902  0.00  0.00     0.028 C 
ATOM     11  C   LIG d   1       2.500  -0.181  -8.769  0.00  0.00    -0.018 C 
ATOM     12  N   LIG d   1       3.213   0.892  -4.026  0.00  0.00    -0.285 N 
ATOM     13  C   LIG d   1       3.550   0.502  -2.785  0.00  0.00     0.217 C 
ATOM     14  O   LIG d   1       3.391   1.259  -1.852  0.00  0.00    -0.276 OA
ATOM     15  C   LIG d   1       4.123  -0.870  -2.542  0.00  0.00     0.028 C 
ATOM     16  C   LIG d   1       5.057  -1.252  -3.691  0.00  0.00    -0.018 C 
ATOM     17  H   LIG d   1       5.324  -2.623  -5.999  0.00  0.00     0.064 H 
ATOM     18  H   LIG d   1       2.215   1.181  -6.454  0.00  0.00     0.064 H 
ATOM     19  H   LIG d   1       4.671  -3.236  -8.287  0.00  0.00     0.155 HD
ATOM     20  H   LIG d   1       2.920  -0.536 -10.849  0.00  0.00     0.036 H 
ATOM     21  H   LIG d   1       4.270   0.179  -9.939  0.00  0.00     0.036 H 
ATOM     22  H   LIG d   1       1.590  -0.776  -8.856  0.00  0.00     0.032 H 
ATOM     23  H   LIG d   1       2.248   0.877  -8.834  0.00  0.00     0.032 H 
ATOM     24  H   LIG d   1       2.767   1.743  -4.156  0.00  0.00     0.155 HD
ATOM     25  H   LIG d   1       3.312  -1.595  -2.478  0.00  0.00     0.036 H 
ATOM     26  H   LIG d   1       4.682  -0.867  -1.606  0.00  0.00     0.036 H 
ATOM     27  H   LIG d   1       5.304  -2.312  -3.620  0.00  0.00     0.032 H 
ATOM     28  H   LIG d   1       5.972  -0.662  -3.625  0.00  0.00     0.032 H 
ENDROOT
TORSDOF 0
ENDMDL
MODEL 9
REMARK VINA RESULT:      -5.7      6.132      6.871
REMARK  0 active torsions:
REMARK  status: ('A' for Active; 'I' for Inactive)
ROOT
ATOM      1  C   LIG d   1       1.451  -0.622 -10.109  0.00  0.00    -0.035 A 
ATOM      2  C   LIG d   1       2.544   0.180  -9.850  0.00  0.00    -0.024 A 
ATOM      3  C   LIG d   1       3.566   0.283 -10.783  0.00  0.00     0.037 A 
ATOM      4  C   LIG d   1       3.495  -0.433 -11.973  0.00  0.00    -0.035 A 
ATOM      5  C   LIG d   1       2.403  -1.236 -12.229  0.00  0.00    -0.024 A 
ATOM      6  C   LIG d   1       1.376  -1.331 -11.300  0.00  0.00     0.037 A 
ATOM      7  N   LIG d   1       0.267  -2.144 -11.566  0.00  0.00    -0.285 N 
ATOM      8  C   LIG d   1       0.338  -3.108 -12.503  0.00  0.00     0.217 C 
ATOM      9  O   LIG d   1      -0.636  -3.794 -12.731  0.00  0.00    -0.276 OA
ATOM     10  C   LIG d   1       1.610  -3.342 -13.271  0.00  0.00     0.028 C 
ATOM     11  C   LIG d   1       2.321  -2.011 -13.519  0.00  0.00    -0.018 C 
ATOM     12  N   LIG d   1       4.665   1.113 -10.536  0.00  0.00    -0.285 N 
ATOM     13  C   LIG d   1       4.629   2.023  -9.547  0.00  0.00     0.217 C 
ATOM     14  O   LIG d   1       5.626   2.658  -9.278  0.00  0.00    -0.276 OA
ATOM     15  C   LIG d   1       3.361   2.261  -8.770  0.00  0.00     0.028 C 
ATOM     16  C   LIG d   1       2.631   0.936  -8.549  0.00  0.00    -0.018 C 
ATOM     17  H   LIG d   1       0.653  -0.698  -9.383  0.00  0.00     0.064 H 
ATOM     18  H   LIG d   1       4.294  -0.360 -12.696  0.00  0.00     0.064 H 
ATOM     19  H   LIG d   1      -0.557  -2.013 -11.070  0.00  0.00     0.155 HD
ATOM     20  H   LIG d   1       1.374  -3.810 -14.227  0.00  0.00     0.036 H 
ATOM     21  H   LIG d   1       2.263  -4.000 -12.698  0.00  0.00     0.036 H 
ATOM     22  H   LIG d   1       1.763  -1.433 -14.256  0.00  0.00     0.032 H 
ATOM     23  H   LIG d   1       3.327  -2.201 -13.893  0.00  0.00     0.032 H 
ATOM     24  H   LIG d   1       5.462   1.030 -11.082  0.00  0.00     0.155 HD
ATOM     25  H   LIG d   1       2.716   2.940  -9.329  0.00  0.00     0.036 H 
ATOM     26  H   LIG d   1       3.606   2.705  -7.806  0.00  0.00     0.036 H 
ATOM     27  H   LIG d   1       1.626   1.133  -8.176  0.00  0.00     0.032 H 
ATOM     28  H   LIG d   1       3.179   0.339  -7.819  0.00  0.00     0.032 H 
ENDROOT
TORSDOF 0
ENDMDL
MODEL 10
REMARK VINA RESULT:      -5.6      3.674      4.565
REMARK  0 active torsions:
REMARK  status: ('A' for Active; 'I' for Inactive)
ROOT
ATOM      1  C   LIG d   1       4.971  -1.377  -7.426  0.00  0.00    -0.035 A 
ATOM      2  C   LIG d   1       4.768  -1.510  -6.067  0.00  0.00    -0.024 A 
ATOM      3  C   LIG d   1       3.864  -0.683  -5.415  0.00  0.00     0.037 A 
ATOM      4  C   LIG d   1       3.173   0.289  -6.129  0.00  0.00    -0.035 A 
ATOM      5  C   LIG d   1       3.378   0.423  -7.487  0.00  0.00    -0.024 A 
ATOM      6  C   LIG d   1       4.275  -0.411  -8.140  0.00  0.00     0.037 A 
ATOM      7  N   LIG d   1       4.477  -0.274  -9.519  0.00  0.00    -0.285 N 
ATOM      8  C   LIG d   1       4.122   0.860 -10.152  0.00  0.00     0.217 C 
ATOM      9  O   LIG d   1       4.290   0.956 -11.348  0.00  0.00    -0.276 OA
ATOM     10  C   LIG d   1       3.516   2.007  -9.390  0.00  0.00     0.028 C 
ATOM     11  C   LIG d   1       2.629   1.474  -8.264  0.00  0.00    -0.018 C 
ATOM     12  N   LIG d   1       3.638  -0.830  -4.042  0.00  0.00    -0.285 N 
ATOM     13  C   LIG d   1       4.064  -1.926  -3.390  0.00  0.00     0.217 C 
ATOM     14  O   LIG d   1       3.954  -1.988  -2.184  0.00  0.00    -0.276 OA
ATOM     15  C   LIG d   1       4.675  -3.077  -4.144  0.00  0.00     0.028 C 
ATOM     16  C   LIG d   1       5.537  -2.548  -5.290  0.00  0.00    -0.018 C 
ATOM     17  H   LIG d   1       5.672  -2.024  -7.933  0.00  0.00     0.064 H 
ATOM     18  H   LIG d   1       2.476   0.939  -5.621  0.00  0.00     0.064 H 
ATOM     19  H   LIG d   1       4.878  -1.001 -10.022  0.00  0.00     0.155 HD
ATOM     20  H   LIG d   1       2.915   2.613 -10.068  0.00  0.00     0.036 H 
ATOM     21  H   LIG d   1       4.311   2.620  -8.965  0.00  0.00     0.036 H 
ATOM     22  H   LIG d   1       1.726   1.036  -8.690  0.00  0.00     0.032 H 
ATOM     23  H   LIG d   1       2.356   2.293  -7.598  0.00  0.00     0.032 H 
ATOM     24  H   LIG d   1       3.170  -0.134  -3.555  0.00  0.00     0.155 HD
ATOM     25  H   LIG d   1       3.882  -3.707  -4.548  0.00  0.00     0.036 H 
ATOM     26  H   LIG d   1       5.294  -3.664  -3.466  0.00  0.00     0.036 H 
ATOM     27  H   LIG d   1       5.805  -3.371  -5.953  0.00  0.00     0.032 H 
ATOM     28  H   LIG d   1       6.443  -2.099  -4.884  0.00  0.00     0.032 H 
ENDROOT
TORSDOF 0
ENDMDL
