MODEL 1
REMARK VINA RESULT:      -7.0      0.000      0.000
REMARK  7 active torsions:
REMARK  status: ('A' for Active; 'I' for Inactive)
REMARK    1  A    between atoms: C_1  and  C_2 
REMARK    2  A    between atoms: C_2  and  C_3 
REMARK    3  A    between atoms: C_3  and  C_4 
REMARK    4  A    between atoms: C_4  and  C_5 
REMARK    5  A    between atoms: C_5  and  O_6 
REMARK    6  A    between atoms: O_6  and  C_7 
REMARK    7  A    between atoms: C_10  and  N_13 
ROOT
ATOM      1  N   LIG d   1       6.184  -5.053  -5.460  0.00  0.00    -0.210 N 
ATOM      2  C   LIG d   1       5.501  -6.215  -5.725  0.00  0.00     0.232 C 
ATOM      3  O   LIG d   1       4.302  -6.350  -5.843  0.00  0.00    -0.274 OA
ATOM      4  C   LIG d   1       6.534  -7.261  -5.834  0.00  0.00     0.073 C 
ATOM      5  H   LIG d   1       6.988  -7.144  -6.818  0.00  0.00     0.042 H 
ATOM      6  C   LIG d   1       7.575  -6.689  -4.837  0.00  0.00     0.073 C 
ATOM      7  H   LIG d   1       6.940  -6.767  -3.955  0.00  0.00     0.042 H 
ATOM      8  C   LIG d   1       7.508  -5.267  -5.141  0.00  0.00     0.232 C 
ATOM      9  O   LIG d   1       8.410  -4.456  -5.117  0.00  0.00    -0.274 OA
ATOM     10  C   LIG d   1       8.619  -7.692  -4.567  0.00  0.00     0.088 C 
ATOM     11  C   LIG d   1       8.861  -8.581  -5.769  0.00  0.00    -0.021 A 
ATOM     12  C   LIG d   1      10.078  -8.797  -6.352  0.00  0.00    -0.057 A 
ATOM     13  C   LIG d   1      10.164  -9.678  -7.422  0.00  0.00    -0.061 A 
ATOM     14  C   LIG d   1       9.041 -10.333  -7.890  0.00  0.00    -0.061 A 
ATOM     15  C   LIG d   1       7.799 -10.098  -7.307  0.00  0.00    -0.057 A 
ATOM     16  C   LIG d   1       7.724  -9.214  -6.277  0.00  0.00    -0.021 A 
ATOM     17  C   LIG d   1       6.400  -8.738  -5.592  0.00  0.00     0.088 C 
ATOM     18  C   LIG d   1       6.676  -9.073  -4.129  0.00  0.00    -0.021 A 
ATOM     19  C   LIG d   1       7.861  -8.614  -3.605  0.00  0.00    -0.021 A 
ATOM     20  C   LIG d   1       8.244  -8.938  -2.344  0.00  0.00    -0.057 A 
ATOM     21  C   LIG d   1       7.407  -9.744  -1.580  0.00  0.00    -0.061 A 
ATOM     22  C   LIG d   1       6.211 -10.197  -2.106  0.00  0.00    -0.061 A 
ATOM     23  C   LIG d   1       5.842  -9.828  -3.349  0.00  0.00    -0.057 A 
ATOM     24 BR   LIG d   1       4.755  -9.531  -6.321  0.00  0.00    -0.073 Br
ATOM     25 BR   LIG d   1      10.258  -6.920  -3.800  0.00  0.00    -0.073 Br
ATOM     26  H   LIG d   1      10.960  -8.290  -5.987  0.00  0.00     0.062 H 
ATOM     27  H   LIG d   1      11.119  -9.854  -7.893  0.00  0.00     0.062 H 
ATOM     28  H   LIG d   1       9.127 -11.030  -8.711  0.00  0.00     0.062 H 
ATOM     29  H   LIG d   1       6.917 -10.606  -7.665  0.00  0.00     0.062 H 
ATOM     30  H   LIG d   1       9.180  -8.577  -1.942  0.00  0.00     0.062 H 
ATOM     31  H   LIG d   1       7.691 -10.018  -0.575  0.00  0.00     0.062 H 
ATOM     32  H   LIG d   1       5.558 -10.805  -1.498  0.00  0.00     0.062 H 
ATOM     33  H   LIG d   1       4.902 -10.187  -3.742  0.00  0.00     0.062 H 
ENDROOT
BRANCH   1  34
ATOM     34  C   LIG d   1       5.596  -3.778  -5.514  0.00  0.00     0.044 A 
ATOM     35  C   LIG d   1       5.000  -3.241  -4.382  0.00  0.00    -0.036 A 
ATOM     36  C   LIG d   1       4.423  -1.988  -4.436  0.00  0.00    -0.018 A 
ATOM     37  H   LIG d   1       4.988  -3.803  -3.459  0.00  0.00     0.064 H 
ATOM     38  C   LIG d   1       4.439  -1.266  -5.620  0.00  0.00     0.121 A 
ATOM     39  H   LIG d   1       3.959  -1.570  -3.555  0.00  0.00     0.066 H 
ATOM     40  C   LIG d   1       5.030  -1.806  -6.753  0.00  0.00    -0.018 A 
ATOM     41  C   LIG d   1       5.612  -3.056  -6.700  0.00  0.00    -0.036 A 
ATOM     42  H   LIG d   1       5.039  -1.245  -7.677  0.00  0.00     0.066 H 
ATOM     43  H   LIG d   1       6.077  -3.474  -7.580  0.00  0.00     0.064 H 
BRANCH  38  44
ATOM     44  O   LIG d   1       3.870  -0.033  -5.673  0.00  0.00    -0.492 OA
BRANCH  44  45
ATOM     45  C   LIG d   1       2.741   0.197  -4.828  0.00  0.00     0.090 C 
ATOM     46  H   LIG d   1       2.452  -0.737  -4.345  0.00  0.00     0.070 H 
ATOM     47  H   LIG d   1       1.908   0.569  -5.425  0.00  0.00     0.070 H 
BRANCH  45  48
ATOM     48  C   LIG d   1       3.104   1.232  -3.760  0.00  0.00    -0.019 C 
ATOM     49  H   LIG d   1       2.294   1.954  -3.664  0.00  0.00     0.030 H 
ATOM     50  H   LIG d   1       4.019   1.748  -4.053  0.00  0.00     0.030 H 
BRANCH  48  51
ATOM     51  C   LIG d   1       3.322   0.527  -2.420  0.00  0.00    -0.050 C 
ATOM     52  H   LIG d   1       3.384  -0.549  -2.580  0.00  0.00     0.027 H 
ATOM     53  H   LIG d   1       2.487   0.749  -1.754  0.00  0.00     0.027 H 
BRANCH  51  54
ATOM     54  C   LIG d   1       4.623   1.025  -1.788  0.00  0.00    -0.056 C 
ATOM     55  H   LIG d   1       4.911   0.360  -0.974  0.00  0.00     0.026 H 
ATOM     56  H   LIG d   1       4.477   2.032  -1.399  0.00  0.00     0.026 H 
BRANCH  54  57
ATOM     57  C   LIG d   1       5.728   1.044  -2.847  0.00  0.00    -0.065 C 
ATOM     58  H   LIG d   1       6.087   0.028  -3.015  0.00  0.00     0.023 H 
ATOM     59  H   LIG d   1       5.333   1.450  -3.778  0.00  0.00     0.023 H 
ATOM     60  H   LIG d   1       6.553   1.667  -2.499  0.00  0.00     0.023 H 
ENDBRANCH  54  57
ENDBRANCH  51  54
ENDBRANCH  48  51
ENDBRANCH  45  48
ENDBRANCH  44  45
ENDBRANCH  38  44
ENDBRANCH   1  34
TORSDOF 7
ENDMDL
MODEL 2
REMARK VINA RESULT:      -6.9      3.012      8.847
REMARK  7 active torsions:
REMARK  status: ('A' for Active; 'I' for Inactive)
REMARK    1  A    between atoms: C_1  and  C_2 
REMARK    2  A    between atoms: C_2  and  C_3 
REMARK    3  A    between atoms: C_3  and  C_4 
REMARK    4  A    between atoms: C_4  and  C_5 
REMARK    5  A    between atoms: C_5  and  O_6 
REMARK    6  A    between atoms: O_6  and  C_7 
REMARK    7  A    between atoms: C_10  and  N_13 
ROOT
ATOM      1  N   LIG d   1       5.977  -4.339  -5.717  0.00  0.00    -0.210 N 
ATOM      2  C   LIG d   1       5.242  -3.568  -4.849  0.00  0.00     0.232 C 
ATOM      3  O   LIG d   1       4.339  -3.934  -4.128  0.00  0.00    -0.274 OA
ATOM      4  C   LIG d   1       5.782  -2.203  -4.982  0.00  0.00     0.073 C 
ATOM      5  H   LIG d   1       6.716  -2.186  -4.420  0.00  0.00     0.042 H 
ATOM      6  C   LIG d   1       6.208  -2.247  -6.472  0.00  0.00     0.073 C 
ATOM      7  H   LIG d   1       5.203  -2.379  -6.872  0.00  0.00     0.042 H 
ATOM      8  C   LIG d   1       6.759  -3.591  -6.572  0.00  0.00     0.232 C 
ATOM      9  O   LIG d   1       7.690  -3.967  -7.252  0.00  0.00    -0.274 OA
ATOM     10  C   LIG d   1       6.560  -0.895  -6.937  0.00  0.00     0.088 C 
ATOM     11  C   LIG d   1       7.144  -0.056  -5.819  0.00  0.00    -0.021 A 
ATOM     12  C   LIG d   1       8.344   0.596  -5.872  0.00  0.00    -0.057 A 
ATOM     13  C   LIG d   1       8.736   1.372  -4.789  0.00  0.00    -0.061 A 
ATOM     14  C   LIG d   1       7.927   1.490  -3.675  0.00  0.00    -0.061 A 
ATOM     15  C   LIG d   1       6.715   0.810  -3.614  0.00  0.00    -0.057 A 
ATOM     16  C   LIG d   1       6.354   0.034  -4.670  0.00  0.00    -0.021 A 
ATOM     17  C   LIG d   1       5.094  -0.894  -4.718  0.00  0.00     0.088 C 
ATOM     18  C   LIG d   1       4.393  -0.389  -5.977  0.00  0.00    -0.021 A 
ATOM     19  C   LIG d   1       5.158  -0.300  -7.114  0.00  0.00    -0.021 A 
ATOM     20  C   LIG d   1       4.655   0.225  -8.261  0.00  0.00    -0.057 A 
ATOM     21  C   LIG d   1       3.337   0.670  -8.267  0.00  0.00    -0.061 A 
ATOM     22  C   LIG d   1       2.567   0.571  -7.123  0.00  0.00    -0.061 A 
ATOM     23  C   LIG d   1       3.084   0.010  -6.011  0.00  0.00    -0.057 A 
ATOM     24 BR   LIG d   1       3.985  -0.876  -3.095  0.00  0.00    -0.073 Br
ATOM     25 BR   LIG d   1       7.637  -0.893  -8.583  0.00  0.00    -0.073 Br
ATOM     26  H   LIG d   1       8.977   0.510  -6.743  0.00  0.00     0.062 H 
ATOM     27  H   LIG d   1       9.683   1.889  -4.819  0.00  0.00     0.062 H 
ATOM     28  H   LIG d   1       8.238   2.112  -2.847  0.00  0.00     0.062 H 
ATOM     29  H   LIG d   1       6.076   0.898  -2.748  0.00  0.00     0.062 H 
ATOM     30  H   LIG d   1       5.265   0.297  -9.149  0.00  0.00     0.062 H 
ATOM     31  H   LIG d   1       2.915   1.095  -9.166  0.00  0.00     0.062 H 
ATOM     32  H   LIG d   1       1.538   0.899  -7.143  0.00  0.00     0.062 H 
ATOM     33  H   LIG d   1       2.466  -0.063  -5.128  0.00  0.00     0.062 H 
ENDROOT
BRANCH   1  34
ATOM     34  C   LIG d   1       5.941  -5.743  -5.728  0.00  0.00     0.044 A 
ATOM     35  C   LIG d   1       4.856  -6.404  -6.286  0.00  0.00    -0.036 A 
ATOM     36  C   LIG d   1       4.821  -7.784  -6.297  0.00  0.00    -0.018 A 
ATOM     37  H   LIG d   1       4.039  -5.839  -6.710  0.00  0.00     0.064 H 
ATOM     38  C   LIG d   1       5.871  -8.510  -5.752  0.00  0.00     0.121 A 
ATOM     39  H   LIG d   1       3.976  -8.299  -6.731  0.00  0.00     0.066 H 
ATOM     40  C   LIG d   1       6.952  -7.848  -5.190  0.00  0.00    -0.018 A 
ATOM     41  C   LIG d   1       6.992  -6.468  -5.182  0.00  0.00    -0.036 A 
ATOM     42  H   LIG d   1       7.768  -8.414  -4.761  0.00  0.00     0.066 H 
ATOM     43  H   LIG d   1       7.836  -5.954  -4.750  0.00  0.00     0.064 H 
BRANCH  38  44
ATOM     44  O   LIG d   1       5.836  -9.869  -5.763  0.00  0.00    -0.492 OA
BRANCH  44  45
ATOM     45  C   LIG d   1       6.557 -10.544  -4.730  0.00  0.00     0.090 C 
ATOM     46  H   LIG d   1       7.085  -9.813  -4.119  0.00  0.00     0.070 H 
ATOM     47  H   LIG d   1       7.276 -11.231  -5.178  0.00  0.00     0.070 H 
BRANCH  45  48
ATOM     48  C   LIG d   1       5.579 -11.331  -3.855  0.00  0.00    -0.019 C 
ATOM     49  H   LIG d   1       6.098 -12.170  -3.393  0.00  0.00     0.030 H 
ATOM     50  H   LIG d   1       4.761 -11.705  -4.472  0.00  0.00     0.030 H 
BRANCH  48  51
ATOM     51  C   LIG d   1       5.019 -10.414  -2.765  0.00  0.00    -0.050 C 
ATOM     52  H   LIG d   1       5.639  -9.521  -2.687  0.00  0.00     0.027 H 
ATOM     53  H   LIG d   1       5.019 -10.942  -1.811  0.00  0.00     0.027 H 
BRANCH  51  54
ATOM     54  C   LIG d   1       3.587 -10.012  -3.124  0.00  0.00    -0.056 C 
ATOM     55  H   LIG d   1       3.606  -9.117  -3.746  0.00  0.00     0.026 H 
ATOM     56  H   LIG d   1       3.027  -9.807  -2.212  0.00  0.00     0.026 H 
BRANCH  54  57
ATOM     57  C   LIG d   1       2.914 -11.152  -3.890  0.00  0.00    -0.065 C 
ATOM     58  H   LIG d   1       2.313 -11.747  -3.202  0.00  0.00     0.023 H 
ATOM     59  H   LIG d   1       2.273 -10.739  -4.669  0.00  0.00     0.023 H 
ATOM     60  H   LIG d   1       3.677 -11.784  -4.345  0.00  0.00     0.023 H 
ENDBRANCH  54  57
ENDBRANCH  51  54
ENDBRANCH  48  51
ENDBRANCH  45  48
ENDBRANCH  44  45
ENDBRANCH  38  44
ENDBRANCH   1  34
TORSDOF 7
ENDMDL
MODEL 3
REMARK VINA RESULT:      -6.9      6.421     11.019
REMARK  7 active torsions:
REMARK  status: ('A' for Active; 'I' for Inactive)
REMARK    1  A    between atoms: C_1  and  C_2 
REMARK    2  A    between atoms: C_2  and  C_3 
REMARK    3  A    between atoms: C_3  and  C_4 
REMARK    4  A    between atoms: C_4  and  C_5 
REMARK    5  A    between atoms: C_5  and  O_6 
REMARK    6  A    between atoms: O_6  and  C_7 
REMARK    7  A    between atoms: C_10  and  N_13 
ROOT
ATOM      1  N   LIG d   1       8.657   1.447  -5.377  0.00  0.00    -0.210 N 
ATOM      2  C   LIG d   1       8.970   2.303  -4.349  0.00  0.00     0.232 C 
ATOM      3  O   LIG d   1       8.362   2.456  -3.312  0.00  0.00    -0.274 OA
ATOM      4  C   LIG d   1      10.200   2.994  -4.775  0.00  0.00     0.073 C 
ATOM      5  H   LIG d   1      11.018   2.291  -4.620  0.00  0.00     0.042 H 
ATOM      6  C   LIG d   1       9.962   3.005  -6.308  0.00  0.00     0.073 C 
ATOM      7  H   LIG d   1       9.073   3.635  -6.278  0.00  0.00     0.042 H 
ATOM      8  C   LIG d   1       9.395   1.681  -6.518  0.00  0.00     0.232 C 
ATOM      9  O   LIG d   1       9.538   0.952  -7.476  0.00  0.00    -0.274 OA
ATOM     10  C   LIG d   1      10.949   3.878  -6.966  0.00  0.00     0.088 C 
ATOM     11  C   LIG d   1      12.268   3.888  -6.221  0.00  0.00    -0.021 A 
ATOM     12  C   LIG d   1      13.485   3.614  -6.779  0.00  0.00    -0.057 A 
ATOM     13  C   LIG d   1      14.623   3.707  -5.988  0.00  0.00    -0.061 A 
ATOM     14  C   LIG d   1      14.532   4.075  -4.659  0.00  0.00    -0.061 A 
ATOM     15  C   LIG d   1      13.290   4.334  -4.088  0.00  0.00    -0.057 A 
ATOM     16  C   LIG d   1      12.182   4.216  -4.865  0.00  0.00    -0.021 A 
ATOM     17  C   LIG d   1      10.706   4.345  -4.359  0.00  0.00     0.088 C 
ATOM     18  C   LIG d   1      10.163   5.434  -5.281  0.00  0.00    -0.021 A 
ATOM     19  C   LIG d   1      10.356   5.252  -6.629  0.00  0.00    -0.021 A 
ATOM     20  C   LIG d   1       9.995   6.204  -7.526  0.00  0.00    -0.057 A 
ATOM     21  C   LIG d   1       9.415   7.377  -7.054  0.00  0.00    -0.061 A 
ATOM     22  C   LIG d   1       9.213   7.554  -5.698  0.00  0.00    -0.061 A 
ATOM     23  C   LIG d   1       9.549   6.573  -4.836  0.00  0.00    -0.057 A 
ATOM     24 BR   LIG d   1      10.517   4.724  -2.439  0.00  0.00    -0.073 Br
ATOM     25 BR   LIG d   1      11.122   3.540  -8.895  0.00  0.00    -0.073 Br
ATOM     26  H   LIG d   1      13.561   3.330  -7.819  0.00  0.00     0.062 H 
ATOM     27  H   LIG d   1      15.590   3.490  -6.417  0.00  0.00     0.062 H 
ATOM     28  H   LIG d   1      15.428   4.161  -4.062  0.00  0.00     0.062 H 
ATOM     29  H   LIG d   1      13.210   4.624  -3.051  0.00  0.00     0.062 H 
ATOM     30  H   LIG d   1      10.156   6.056  -8.584  0.00  0.00     0.062 H 
ATOM     31  H   LIG d   1       9.122   8.152  -7.748  0.00  0.00     0.062 H 
ATOM     32  H   LIG d   1       8.743   8.458  -5.342  0.00  0.00     0.062 H 
ATOM     33  H   LIG d   1       9.380   6.727  -3.780  0.00  0.00     0.062 H 
ENDROOT
BRANCH   1  34
ATOM     34  C   LIG d   1       7.688   0.435  -5.275  0.00  0.00     0.044 A 
ATOM     35  C   LIG d   1       7.937  -0.688  -4.498  0.00  0.00    -0.036 A 
ATOM     36  C   LIG d   1       6.984  -1.682  -4.398  0.00  0.00    -0.018 A 
ATOM     37  H   LIG d   1       8.875  -0.784  -3.971  0.00  0.00     0.064 H 
ATOM     38  C   LIG d   1       5.779  -1.560  -5.074  0.00  0.00     0.121 A 
ATOM     39  H   LIG d   1       7.178  -2.556  -3.793  0.00  0.00     0.066 H 
ATOM     40  C   LIG d   1       5.533  -0.440  -5.855  0.00  0.00    -0.018 A 
ATOM     41  C   LIG d   1       6.482   0.558  -5.952  0.00  0.00    -0.036 A 
ATOM     42  H   LIG d   1       4.596  -0.347  -6.385  0.00  0.00     0.066 H 
ATOM     43  H   LIG d   1       6.288   1.431  -6.556  0.00  0.00     0.064 H 
BRANCH  38  44
ATOM     44  O   LIG d   1       4.841  -2.539  -4.976  0.00  0.00    -0.492 OA
BRANCH  44  45
ATOM     45  C   LIG d   1       4.437  -2.920  -3.659  0.00  0.00     0.090 C 
ATOM     46  H   LIG d   1       5.320  -3.137  -3.057  0.00  0.00     0.070 H 
ATOM     47  H   LIG d   1       3.808  -3.810  -3.714  0.00  0.00     0.070 H 
BRANCH  45  48
ATOM     48  C   LIG d   1       3.649  -1.777  -3.016  0.00  0.00    -0.019 C 
ATOM     49  H   LIG d   1       2.654  -2.130  -2.744  0.00  0.00     0.030 H 
ATOM     50  H   LIG d   1       3.561  -0.954  -3.726  0.00  0.00     0.030 H 
BRANCH  48  51
ATOM     51  C   LIG d   1       4.381  -1.295  -1.762  0.00  0.00    -0.050 C 
ATOM     52  H   LIG d   1       5.327  -1.826  -1.666  0.00  0.00     0.027 H 
ATOM     53  H   LIG d   1       3.763  -1.489  -0.884  0.00  0.00     0.027 H 
BRANCH  51  54
ATOM     54  C   LIG d   1       4.648   0.207  -1.875  0.00  0.00    -0.056 C 
ATOM     55  H   LIG d   1       5.565   0.372  -2.440  0.00  0.00     0.026 H 
ATOM     56  H   LIG d   1       4.755   0.633  -0.878  0.00  0.00     0.026 H 
BRANCH  54  57
ATOM     57  C   LIG d   1       3.477   0.881  -2.594  0.00  0.00    -0.065 C 
ATOM     58  H   LIG d   1       2.925   0.135  -3.166  0.00  0.00     0.023 H 
ATOM     59  H   LIG d   1       2.815   1.340  -1.859  0.00  0.00     0.023 H 
ATOM     60  H   LIG d   1       3.859   1.647  -3.269  0.00  0.00     0.023 H 
ENDBRANCH  54  57
ENDBRANCH  51  54
ENDBRANCH  48  51
ENDBRANCH  45  48
ENDBRANCH  44  45
ENDBRANCH  38  44
ENDBRANCH   1  34
TORSDOF 7
ENDMDL
MODEL 4
REMARK VINA RESULT:      -6.8      4.392      8.182
REMARK  7 active torsions:
REMARK  status: ('A' for Active; 'I' for Inactive)
REMARK    1  A    between atoms: C_1  and  C_2 
REMARK    2  A    between atoms: C_2  and  C_3 
REMARK    3  A    between atoms: C_3  and  C_4 
REMARK    4  A    between atoms: C_4  and  C_5 
REMARK    5  A    between atoms: C_5  and  O_6 
REMARK    6  A    between atoms: O_6  and  C_7 
REMARK    7  A    between atoms: C_10  and  N_13 
ROOT
ATOM      1  N   LIG d   1       5.384  -1.037  -8.320  0.00  0.00    -0.210 N 
ATOM      2  C   LIG d   1       6.220  -0.251  -7.565  0.00  0.00     0.232 C 
ATOM      3  O   LIG d   1       6.974   0.611  -7.962  0.00  0.00    -0.274 OA
ATOM      4  C   LIG d   1       6.006  -0.676  -6.170  0.00  0.00     0.073 C 
ATOM      5  H   LIG d   1       5.067  -0.223  -5.850  0.00  0.00     0.042 H 
ATOM      6  C   LIG d   1       5.670  -2.171  -6.414  0.00  0.00     0.073 C 
ATOM      7  H   LIG d   1       6.642  -2.438  -6.827  0.00  0.00     0.042 H 
ATOM      8  C   LIG d   1       4.841  -2.085  -7.608  0.00  0.00     0.232 C 
ATOM      9  O   LIG d   1       3.891  -2.777  -7.908  0.00  0.00    -0.274 OA
ATOM     10  C   LIG d   1       5.656  -2.901  -5.136  0.00  0.00     0.088 C 
ATOM     11  C   LIG d   1       5.207  -2.013  -3.992  0.00  0.00    -0.021 A 
ATOM     12  C   LIG d   1       4.188  -2.302  -3.129  0.00  0.00    -0.057 A 
ATOM     13  C   LIG d   1       3.915  -1.419  -2.093  0.00  0.00    -0.061 A 
ATOM     14  C   LIG d   1       4.662  -0.267  -1.930  0.00  0.00    -0.061 A 
ATOM     15  C   LIG d   1       5.687   0.034  -2.822  0.00  0.00    -0.057 A 
ATOM     16  C   LIG d   1       5.929  -0.825  -3.846  0.00  0.00    -0.021 A 
ATOM     17  C   LIG d   1       6.951  -0.582  -5.006  0.00  0.00     0.088 C 
ATOM     18  C   LIG d   1       7.820  -1.833  -4.913  0.00  0.00    -0.021 A 
ATOM     19  C   LIG d   1       7.163  -3.039  -4.891  0.00  0.00    -0.021 A 
ATOM     20  C   LIG d   1       7.837  -4.205  -4.715  0.00  0.00    -0.057 A 
ATOM     21  C   LIG d   1       9.219  -4.157  -4.563  0.00  0.00    -0.061 A 
ATOM     22  C   LIG d   1       9.879  -2.943  -4.595  0.00  0.00    -0.061 A 
ATOM     23  C   LIG d   1       9.184  -1.807  -4.808  0.00  0.00    -0.057 A 
ATOM     24 BR   LIG d   1       7.938   1.115  -4.902  0.00  0.00    -0.073 Br
ATOM     25 BR   LIG d   1       4.706  -4.620  -5.232  0.00  0.00    -0.073 Br
ATOM     26  H   LIG d   1       3.604  -3.203  -3.250  0.00  0.00     0.062 H 
ATOM     27  H   LIG d   1       3.110  -1.634  -1.407  0.00  0.00     0.062 H 
ATOM     28  H   LIG d   1       4.449   0.401  -1.108  0.00  0.00     0.062 H 
ATOM     29  H   LIG d   1       6.277   0.930  -2.701  0.00  0.00     0.062 H 
ATOM     30  H   LIG d   1       7.312  -5.148  -4.693  0.00  0.00     0.062 H 
ATOM     31  H   LIG d   1       9.777  -5.070  -4.418  0.00  0.00     0.062 H 
ATOM     32  H   LIG d   1      10.954  -2.918  -4.497  0.00  0.00     0.062 H 
ATOM     33  H   LIG d   1       9.717  -0.867  -4.834  0.00  0.00     0.062 H 
ENDROOT
BRANCH   1  34
ATOM     34  C   LIG d   1       5.108  -0.795  -9.676  0.00  0.00     0.044 A 
ATOM     35  C   LIG d   1       5.780  -1.509 -10.658  0.00  0.00    -0.036 A 
ATOM     36  C   LIG d   1       5.507  -1.271 -11.991  0.00  0.00    -0.018 A 
ATOM     37  H   LIG d   1       6.515  -2.249 -10.381  0.00  0.00     0.064 H 
ATOM     38  C   LIG d   1       4.562  -0.320 -12.347  0.00  0.00     0.121 A 
ATOM     39  H   LIG d   1       6.030  -1.826 -12.756  0.00  0.00     0.066 H 
ATOM     40  C   LIG d   1       3.895   0.397 -11.365  0.00  0.00    -0.018 A 
ATOM     41  C   LIG d   1       4.162   0.157 -10.032  0.00  0.00    -0.036 A 
ATOM     42  H   LIG d   1       3.161   1.141 -11.643  0.00  0.00     0.066 H 
ATOM     43  H   LIG d   1       3.639   0.711  -9.268  0.00  0.00     0.064 H 
BRANCH  38  44
ATOM     44  O   LIG d   1       4.294  -0.086 -13.660  0.00  0.00    -0.492 OA
BRANCH  44  45
ATOM     45  C   LIG d   1       3.919  -1.212 -14.456  0.00  0.00     0.090 C 
ATOM     46  H   LIG d   1       4.591  -2.044 -14.247  0.00  0.00     0.070 H 
ATOM     47  H   LIG d   1       3.985  -0.949 -15.512  0.00  0.00     0.070 H 
BRANCH  45  48
ATOM     48  C   LIG d   1       2.483  -1.619 -14.120  0.00  0.00    -0.019 C 
ATOM     49  H   LIG d   1       1.901  -1.691 -15.039  0.00  0.00     0.030 H 
ATOM     50  H   LIG d   1       2.037  -0.869 -13.465  0.00  0.00     0.030 H 
BRANCH  48  51
ATOM     51  C   LIG d   1       2.489  -2.975 -13.412  0.00  0.00    -0.050 C 
ATOM     52  H   LIG d   1       3.515  -3.329 -13.313  0.00  0.00     0.027 H 
ATOM     53  H   LIG d   1       1.911  -3.692 -13.995  0.00  0.00     0.027 H 
BRANCH  51  54
ATOM     54  C   LIG d   1       1.864  -2.828 -12.023  0.00  0.00    -0.056 C 
ATOM     55  H   LIG d   1       2.652  -2.677 -11.284  0.00  0.00     0.026 H 
ATOM     56  H   LIG d   1       1.305  -3.730 -11.778  0.00  0.00     0.026 H 
BRANCH  54  57
ATOM     57  C   LIG d   1       0.920  -1.624 -12.015  0.00  0.00    -0.065 C 
ATOM     58  H   LIG d   1       0.079  -1.827 -11.350  0.00  0.00     0.023 H 
ATOM     59  H   LIG d   1       1.456  -0.743 -11.664  0.00  0.00     0.023 H 
ATOM     60  H   LIG d   1       0.550  -1.446 -13.024  0.00  0.00     0.023 H 
ENDBRANCH  54  57
ENDBRANCH  51  54
ENDBRANCH  48  51
ENDBRANCH  45  48
ENDBRANCH  44  45
ENDBRANCH  38  44
ENDBRANCH   1  34
TORSDOF 7
ENDMDL
MODEL 5
REMARK VINA RESULT:      -6.8      6.460     11.180
REMARK  7 active torsions:
REMARK  status: ('A' for Active; 'I' for Inactive)
REMARK    1  A    between atoms: C_1  and  C_2 
REMARK    2  A    between atoms: C_2  and  C_3 
REMARK    3  A    between atoms: C_3  and  C_4 
REMARK    4  A    between atoms: C_4  and  C_5 
REMARK    5  A    between atoms: C_5  and  O_6 
REMARK    6  A    between atoms: O_6  and  C_7 
REMARK    7  A    between atoms: C_10  and  N_13 
ROOT
ATOM      1  N   LIG d   1       8.503   1.614  -5.484  0.00  0.00    -0.210 N 
ATOM      2  C   LIG d   1       9.100   1.987  -6.664  0.00  0.00     0.232 C 
ATOM      3  O   LIG d   1       9.271   1.300  -7.649  0.00  0.00    -0.274 OA
ATOM      4  C   LIG d   1       9.490   3.396  -6.479  0.00  0.00     0.073 C 
ATOM      5  H   LIG d   1       8.580   3.985  -6.595  0.00  0.00     0.042 H 
ATOM      6  C   LIG d   1       9.768   3.380  -4.953  0.00  0.00     0.073 C 
ATOM      7  H   LIG d   1      10.602   2.680  -4.999  0.00  0.00     0.042 H 
ATOM      8  C   LIG d   1       8.682   2.536  -4.475  0.00  0.00     0.232 C 
ATOM      9  O   LIG d   1       8.075   2.623  -3.428  0.00  0.00    -0.274 OA
ATOM     10  C   LIG d   1      10.426   4.633  -4.546  0.00  0.00     0.088 C 
ATOM     11  C   LIG d   1       9.985   5.799  -5.408  0.00  0.00    -0.021 A 
ATOM     12  C   LIG d   1       9.474   6.974  -4.933  0.00  0.00    -0.057 A 
ATOM     13  C   LIG d   1       9.155   7.981  -5.835  0.00  0.00    -0.061 A 
ATOM     14  C   LIG d   1       9.354   7.803  -7.192  0.00  0.00    -0.061 A 
ATOM     15  C   LIG d   1       9.856   6.599  -7.674  0.00  0.00    -0.057 A 
ATOM     16  C   LIG d   1      10.141   5.612  -6.784  0.00  0.00    -0.021 A 
ATOM     17  C   LIG d   1      10.590   4.160  -7.158  0.00  0.00     0.088 C 
ATOM     18  C   LIG d   1      11.896   4.036  -6.379  0.00  0.00    -0.021 A 
ATOM     19  C   LIG d   1      11.850   4.359  -5.044  0.00  0.00    -0.021 A 
ATOM     20  C   LIG d   1      12.975   4.372  -4.284  0.00  0.00    -0.057 A 
ATOM     21  C   LIG d   1      14.186   4.042  -4.883  0.00  0.00    -0.061 A 
ATOM     22  C   LIG d   1      14.229   3.708  -6.224  0.00  0.00    -0.061 A 
ATOM     23  C   LIG d   1      13.088   3.669  -6.943  0.00  0.00    -0.057 A 
ATOM     24 BR   LIG d   1      10.746   3.811  -9.087  0.00  0.00    -0.073 Br
ATOM     25 BR   LIG d   1      10.313   4.978  -2.614  0.00  0.00    -0.073 Br
ATOM     26  H   LIG d   1       9.321   7.119  -3.874  0.00  0.00     0.062 H 
ATOM     27  H   LIG d   1       8.748   8.912  -5.473  0.00  0.00     0.062 H 
ATOM     28  H   LIG d   1       9.118   8.603  -7.880  0.00  0.00     0.062 H 
ATOM     29  H   LIG d   1      10.016   6.452  -8.731  0.00  0.00     0.062 H 
ATOM     30  H   LIG d   1      12.931   4.634  -3.237  0.00  0.00     0.062 H 
ATOM     31  H   LIG d   1      15.096   4.048  -4.301  0.00  0.00     0.062 H 
ATOM     32  H   LIG d   1      15.170   3.432  -6.676  0.00  0.00     0.062 H 
ATOM     33  H   LIG d   1      13.139   3.401  -7.988  0.00  0.00     0.062 H 
ENDROOT
BRANCH   1  34
ATOM     34  C   LIG d   1       7.781   0.420  -5.324  0.00  0.00     0.044 A 
ATOM     35  C   LIG d   1       6.505   0.305  -5.857  0.00  0.00    -0.036 A 
ATOM     36  C   LIG d   1       5.795  -0.869  -5.699  0.00  0.00    -0.018 A 
ATOM     37  H   LIG d   1       6.066   1.133  -6.394  0.00  0.00     0.064 H 
ATOM     38  C   LIG d   1       6.358  -1.933  -5.009  0.00  0.00     0.121 A 
ATOM     39  H   LIG d   1       4.802  -0.959  -6.114  0.00  0.00     0.066 H 
ATOM     40  C   LIG d   1       7.631  -1.815  -4.472  0.00  0.00    -0.018 A 
ATOM     41  C   LIG d   1       8.344  -0.644  -4.633  0.00  0.00    -0.036 A 
ATOM     42  H   LIG d   1       8.068  -2.643  -3.931  0.00  0.00     0.066 H 
ATOM     43  H   LIG d   1       9.337  -0.554  -4.220  0.00  0.00     0.064 H 
BRANCH  38  44
ATOM     44  O   LIG d   1       5.659  -3.089  -4.854  0.00  0.00    -0.492 OA
BRANCH  44  45
ATOM     45  C   LIG d   1       4.317  -2.976  -4.376  0.00  0.00     0.090 C 
ATOM     46  H   LIG d   1       3.799  -3.924  -4.519  0.00  0.00     0.070 H 
ATOM     47  H   LIG d   1       3.798  -2.192  -4.929  0.00  0.00     0.070 H 
BRANCH  45  48
ATOM     48  C   LIG d   1       4.333  -2.623  -2.887  0.00  0.00    -0.019 C 
ATOM     49  H   LIG d   1       5.362  -2.470  -2.561  0.00  0.00     0.030 H 
ATOM     50  H   LIG d   1       3.888  -3.438  -2.316  0.00  0.00     0.030 H 
BRANCH  48  51
ATOM     51  C   LIG d   1       3.530  -1.341  -2.657  0.00  0.00    -0.050 C 
ATOM     52  H   LIG d   1       2.619  -1.576  -2.107  0.00  0.00     0.027 H 
ATOM     53  H   LIG d   1       3.270  -0.899  -3.619  0.00  0.00     0.027 H 
BRANCH  51  54
ATOM     54  C   LIG d   1       4.371  -0.349  -1.852  0.00  0.00    -0.056 C 
ATOM     55  H   LIG d   1       5.427  -0.507  -2.071  0.00  0.00     0.026 H 
ATOM     56  H   LIG d   1       4.195  -0.503  -0.788  0.00  0.00     0.026 H 
BRANCH  54  57
ATOM     57  C   LIG d   1       3.978   1.080  -2.232  0.00  0.00    -0.065 C 
ATOM     58  H   LIG d   1       3.343   1.501  -1.453  0.00  0.00     0.023 H 
ATOM     59  H   LIG d   1       4.876   1.688  -2.338  0.00  0.00     0.023 H 
ATOM     60  H   LIG d   1       3.434   1.067  -3.176  0.00  0.00     0.023 H 
ENDBRANCH  54  57
ENDBRANCH  51  54
ENDBRANCH  48  51
ENDBRANCH  45  48
ENDBRANCH  44  45
ENDBRANCH  38  44
ENDBRANCH   1  34
TORSDOF 7
ENDMDL
MODEL 6
REMARK VINA RESULT:      -6.7      5.279      7.922
REMARK  7 active torsions:
REMARK  status: ('A' for Active; 'I' for Inactive)
REMARK    1  A    between atoms: C_1  and  C_2 
REMARK    2  A    between atoms: C_2  and  C_3 
REMARK    3  A    between atoms: C_3  and  C_4 
REMARK    4  A    between atoms: C_4  and  C_5 
REMARK    5  A    between atoms: C_5  and  O_6 
REMARK    6  A    between atoms: O_6  and  C_7 
REMARK    7  A    between atoms: C_10  and  N_13 
ROOT
ATOM      1  N   LIG d   1       7.823   0.588  -6.887  0.00  0.00    -0.210 N 
ATOM      2  C   LIG d   1       6.500   0.536  -7.250  0.00  0.00     0.232 C 
ATOM      3  O   LIG d   1       5.860   1.395  -7.818  0.00  0.00    -0.274 OA
ATOM      4  C   LIG d   1       6.022  -0.785  -6.804  0.00  0.00     0.073 C 
ATOM      5  H   LIG d   1       6.391  -1.508  -7.531  0.00  0.00     0.042 H 
ATOM      6  C   LIG d   1       6.926  -0.969  -5.557  0.00  0.00     0.073 C 
ATOM      7  H   LIG d   1       6.519  -0.126  -4.999  0.00  0.00     0.042 H 
ATOM      8  C   LIG d   1       8.191  -0.437  -6.042  0.00  0.00     0.232 C 
ATOM      9  O   LIG d   1       9.312  -0.809  -5.765  0.00  0.00    -0.274 OA
ATOM     10  C   LIG d   1       6.467  -2.124  -4.767  0.00  0.00     0.088 C 
ATOM     11  C   LIG d   1       5.855  -3.194  -5.648  0.00  0.00    -0.021 A 
ATOM     12  C   LIG d   1       6.234  -4.507  -5.665  0.00  0.00    -0.057 A 
ATOM     13  C   LIG d   1       5.552  -5.392  -6.489  0.00  0.00    -0.061 A 
ATOM     14  C   LIG d   1       4.503  -4.958  -7.278  0.00  0.00    -0.061 A 
ATOM     15  C   LIG d   1       4.131  -3.618  -7.273  0.00  0.00    -0.057 A 
ATOM     16  C   LIG d   1       4.822  -2.756  -6.481  0.00  0.00    -0.021 A 
ATOM     17  C   LIG d   1       4.624  -1.204  -6.448  0.00  0.00     0.088 C 
ATOM     18  C   LIG d   1       4.348  -0.964  -4.966  0.00  0.00    -0.021 A 
ATOM     19  C   LIG d   1       5.244  -1.507  -4.077  0.00  0.00    -0.021 A 
ATOM     20  C   LIG d   1       5.040  -1.432  -2.737  0.00  0.00    -0.057 A 
ATOM     21  C   LIG d   1       3.899  -0.784  -2.274  0.00  0.00    -0.061 A 
ATOM     22  C   LIG d   1       3.003  -0.230  -3.170  0.00  0.00    -0.061 A 
ATOM     23  C   LIG d   1       3.255  -0.290  -4.494  0.00  0.00    -0.057 A 
ATOM     24 BR   LIG d   1       3.240  -0.517  -7.664  0.00  0.00    -0.073 Br
ATOM     25 BR   LIG d   1       7.826  -2.799  -3.516  0.00  0.00    -0.073 Br
ATOM     26  H   LIG d   1       7.051  -4.851  -5.047  0.00  0.00     0.062 H 
ATOM     27  H   LIG d   1       5.844  -6.431  -6.514  0.00  0.00     0.062 H 
ATOM     28  H   LIG d   1       3.970  -5.663  -7.900  0.00  0.00     0.062 H 
ATOM     29  H   LIG d   1       3.312  -3.271  -7.885  0.00  0.00     0.062 H 
ATOM     30  H   LIG d   1       5.746  -1.866  -2.046  0.00  0.00     0.062 H 
ATOM     31  H   LIG d   1       3.712  -0.714  -1.213  0.00  0.00     0.062 H 
ATOM     32  H   LIG d   1       2.132   0.289  -2.801  0.00  0.00     0.062 H 
ATOM     33  H   LIG d   1       2.546   0.152  -5.179  0.00  0.00     0.062 H 
ENDROOT
BRANCH   1  34
ATOM     34  C   LIG d   1       8.711   1.580  -7.334  0.00  0.00     0.044 A 
ATOM     35  C   LIG d   1       9.025   2.653  -6.510  0.00  0.00    -0.036 A 
ATOM     36  C   LIG d   1       9.898   3.628  -6.950  0.00  0.00    -0.018 A 
ATOM     37  H   LIG d   1       8.585   2.725  -5.526  0.00  0.00     0.064 H 
ATOM     38  C   LIG d   1      10.463   3.535  -8.214  0.00  0.00     0.121 A 
ATOM     39  H   LIG d   1      10.142   4.462  -6.309  0.00  0.00     0.066 H 
ATOM     40  C   LIG d   1      10.145   2.466  -9.038  0.00  0.00    -0.018 A 
ATOM     41  C   LIG d   1       9.276   1.488  -8.599  0.00  0.00    -0.036 A 
ATOM     42  H   LIG d   1      10.582   2.396 -10.025  0.00  0.00     0.066 H 
ATOM     43  H   LIG d   1       9.033   0.653  -9.238  0.00  0.00     0.064 H 
BRANCH  38  44
ATOM     44  O   LIG d   1      11.322   4.495  -8.646  0.00  0.00    -0.492 OA
BRANCH  44  45
ATOM     45  C   LIG d   1      11.204   5.788  -8.049  0.00  0.00     0.090 C 
ATOM     46  H   LIG d   1      12.188   6.134  -7.732  0.00  0.00     0.070 H 
ATOM     47  H   LIG d   1      10.543   5.731  -7.183  0.00  0.00     0.070 H 
BRANCH  45  48
ATOM     48  C   LIG d   1      10.622   6.770  -9.069  0.00  0.00    -0.019 C 
ATOM     49  H   LIG d   1      10.811   6.402 -10.077  0.00  0.00     0.030 H 
ATOM     50  H   LIG d   1      11.095   7.745  -8.943  0.00  0.00     0.030 H 
BRANCH  48  51
ATOM     51  C   LIG d   1       9.114   6.902  -8.848  0.00  0.00    -0.050 C 
ATOM     52  H   LIG d   1       8.817   7.942  -8.979  0.00  0.00     0.027 H 
ATOM     53  H   LIG d   1       8.866   6.577  -7.837  0.00  0.00     0.027 H 
BRANCH  51  54
ATOM     54  C   LIG d   1       8.372   6.027  -9.860  0.00  0.00    -0.056 C 
ATOM     55  H   LIG d   1       7.375   6.431 -10.029  0.00  0.00     0.026 H 
ATOM     56  H   LIG d   1       8.292   5.012  -9.473  0.00  0.00     0.026 H 
BRANCH  54  57
ATOM     57  C   LIG d   1       9.146   6.008 -11.180  0.00  0.00    -0.065 C 
ATOM     58  H   LIG d   1      10.211   6.126 -10.979  0.00  0.00     0.023 H 
ATOM     59  H   LIG d   1       8.974   5.060 -11.689  0.00  0.00     0.023 H 
ATOM     60  H   LIG d   1       8.803   6.828 -11.812  0.00  0.00     0.023 H 
ENDBRANCH  54  57
ENDBRANCH  51  54
ENDBRANCH  48  51
ENDBRANCH  45  48
ENDBRANCH  44  45
ENDBRANCH  38  44
ENDBRANCH   1  34
TORSDOF 7
ENDMDL
MODEL 7
REMARK VINA RESULT:      -6.5      4.938      8.663
REMARK  7 active torsions:
REMARK  status: ('A' for Active; 'I' for Inactive)
REMARK    1  A    between atoms: C_1  and  C_2 
REMARK    2  A    between atoms: C_2  and  C_3 
REMARK    3  A    between atoms: C_3  and  C_4 
REMARK    4  A    between atoms: C_4  and  C_5 
REMARK    5  A    between atoms: C_5  and  O_6 
REMARK    6  A    between atoms: O_6  and  C_7 
REMARK    7  A    between atoms: C_10  and  N_13 
ROOT
ATOM      1  N   LIG d   1       7.896   1.343  -4.900  0.00  0.00    -0.210 N 
ATOM      2  C   LIG d   1       8.071   0.687  -6.094  0.00  0.00     0.232 C 
ATOM      3  O   LIG d   1       8.839   0.978  -6.986  0.00  0.00    -0.274 OA
ATOM      4  C   LIG d   1       7.130  -0.447  -6.061  0.00  0.00     0.073 C 
ATOM      5  H   LIG d   1       7.582  -1.205  -5.421  0.00  0.00     0.042 H 
ATOM      6  C   LIG d   1       6.005   0.188  -5.201  0.00  0.00     0.073 C 
ATOM      7  H   LIG d   1       5.749   0.972  -5.914  0.00  0.00     0.042 H 
ATOM      8  C   LIG d   1       6.782   0.916  -4.208  0.00  0.00     0.232 C 
ATOM      9  O   LIG d   1       6.512   1.105  -3.041  0.00  0.00    -0.274 OA
ATOM     10  C   LIG d   1       4.807  -0.668  -5.225  0.00  0.00     0.088 C 
ATOM     11  C   LIG d   1       5.171  -2.132  -5.360  0.00  0.00    -0.021 A 
ATOM     12  C   LIG d   1       4.754  -3.125  -4.518  0.00  0.00    -0.057 A 
ATOM     13  C   LIG d   1       5.125  -4.435  -4.789  0.00  0.00    -0.061 A 
ATOM     14  C   LIG d   1       5.899  -4.737  -5.893  0.00  0.00    -0.061 A 
ATOM     15  C   LIG d   1       6.339  -3.723  -6.738  0.00  0.00    -0.057 A 
ATOM     16  C   LIG d   1       5.990  -2.442  -6.449  0.00  0.00    -0.021 A 
ATOM     17  C   LIG d   1       6.499  -1.174  -7.214  0.00  0.00     0.088 C 
ATOM     18  C   LIG d   1       5.183  -0.513  -7.615  0.00  0.00    -0.021 A 
ATOM     19  C   LIG d   1       4.260  -0.322  -6.615  0.00  0.00    -0.021 A 
ATOM     20  C   LIG d   1       3.024   0.171  -6.884  0.00  0.00    -0.057 A 
ATOM     21  C   LIG d   1       2.706   0.488  -8.200  0.00  0.00    -0.061 A 
ATOM     22  C   LIG d   1       3.640   0.304  -9.203  0.00  0.00    -0.061 A 
ATOM     23  C   LIG d   1       4.871  -0.153  -8.898  0.00  0.00    -0.057 A 
ATOM     24 BR   LIG d   1       7.725  -1.540  -8.707  0.00  0.00    -0.073 Br
ATOM     25 BR   LIG d   1       3.551  -0.288  -3.761  0.00  0.00    -0.073 Br
ATOM     26  H   LIG d   1       4.145  -2.894  -3.656  0.00  0.00     0.062 H 
ATOM     27  H   LIG d   1       4.804  -5.227  -4.129  0.00  0.00     0.062 H 
ATOM     28  H   LIG d   1       6.164  -5.764  -6.101  0.00  0.00     0.062 H 
ATOM     29  H   LIG d   1       6.943  -3.950  -7.604  0.00  0.00     0.062 H 
ATOM     30  H   LIG d   1       2.302   0.313  -6.093  0.00  0.00     0.062 H 
ATOM     31  H   LIG d   1       1.728   0.879  -8.440  0.00  0.00     0.062 H 
ATOM     32  H   LIG d   1       3.392   0.573 -10.219  0.00  0.00     0.062 H 
ATOM     33  H   LIG d   1       5.589  -0.287  -9.694  0.00  0.00     0.062 H 
ENDROOT
BRANCH   1  34
ATOM     34  C   LIG d   1       8.763   2.343  -4.430  0.00  0.00     0.044 A 
ATOM     35  C   LIG d   1       8.692   3.626  -4.955  0.00  0.00    -0.036 A 
ATOM     36  C   LIG d   1       9.545   4.608  -4.493  0.00  0.00    -0.018 A 
ATOM     37  H   LIG d   1       7.971   3.855  -5.725  0.00  0.00     0.064 H 
ATOM     38  C   LIG d   1      10.472   4.314  -3.503  0.00  0.00     0.121 A 
ATOM     39  H   LIG d   1       9.490   5.607  -4.901  0.00  0.00     0.066 H 
ATOM     40  C   LIG d   1      10.546   3.030  -2.982  0.00  0.00    -0.018 A 
ATOM     41  C   LIG d   1       9.691   2.048  -3.440  0.00  0.00    -0.036 A 
ATOM     42  H   LIG d   1      11.271   2.800  -2.215  0.00  0.00     0.066 H 
ATOM     43  H   LIG d   1       9.745   1.050  -3.031  0.00  0.00     0.064 H 
BRANCH  38  44
ATOM     44  O   LIG d   1      11.312   5.281  -3.048  0.00  0.00    -0.492 OA
BRANCH  44  45
ATOM     45  C   LIG d   1      10.728   6.543  -2.718  0.00  0.00     0.090 C 
ATOM     46  H   LIG d   1      10.069   6.861  -3.526  0.00  0.00     0.070 H 
ATOM     47  H   LIG d   1      11.517   7.284  -2.580  0.00  0.00     0.070 H 
BRANCH  45  48
ATOM     48  C   LIG d   1       9.922   6.410  -1.424  0.00  0.00    -0.019 C 
ATOM     49  H   LIG d   1       9.689   5.360  -1.248  0.00  0.00     0.030 H 
ATOM     50  H   LIG d   1       8.995   6.978  -1.515  0.00  0.00     0.030 H 
BRANCH  48  51
ATOM     51  C   LIG d   1      10.742   6.955  -0.253  0.00  0.00    -0.050 C 
ATOM     52  H   LIG d   1      10.080   7.457   0.452  0.00  0.00     0.027 H 
ATOM     53  H   LIG d   1      11.482   7.664  -0.627  0.00  0.00     0.027 H 
BRANCH  51  54
ATOM     54  C   LIG d   1      11.455   5.799   0.451  0.00  0.00    -0.056 C 
ATOM     55  H   LIG d   1      12.528   5.993   0.473  0.00  0.00     0.026 H 
ATOM     56  H   LIG d   1      11.265   4.872  -0.090  0.00  0.00     0.026 H 
BRANCH  54  57
ATOM     57  C   LIG d   1      10.929   5.672   1.882  0.00  0.00    -0.065 C 
ATOM     58  H   LIG d   1      10.535   6.633   2.210  0.00  0.00     0.023 H 
ATOM     59  H   LIG d   1      10.137   4.924   1.913  0.00  0.00     0.023 H 
ATOM     60  H   LIG d   1      11.742   5.368   2.541  0.00  0.00     0.023 H 
ENDBRANCH  54  57
ENDBRANCH  51  54
ENDBRANCH  48  51
ENDBRANCH  45  48
ENDBRANCH  44  45
ENDBRANCH  38  44
ENDBRANCH   1  34
TORSDOF 7
ENDMDL
MODEL 8
REMARK VINA RESULT:      -6.5      2.873      8.871
REMARK  7 active torsions:
REMARK  status: ('A' for Active; 'I' for Inactive)
REMARK    1  A    between atoms: C_1  and  C_2 
REMARK    2  A    between atoms: C_2  and  C_3 
REMARK    3  A    between atoms: C_3  and  C_4 
REMARK    4  A    between atoms: C_4  and  C_5 
REMARK    5  A    between atoms: C_5  and  O_6 
REMARK    6  A    between atoms: O_6  and  C_7 
REMARK    7  A    between atoms: C_10  and  N_13 
ROOT
ATOM      1  N   LIG d   1       6.286  -4.308  -5.848  0.00  0.00    -0.210 N 
ATOM      2  C   LIG d   1       6.961  -3.469  -6.700  0.00  0.00     0.232 C 
ATOM      3  O   LIG d   1       8.001  -3.694  -7.280  0.00  0.00    -0.274 OA
ATOM      4  C   LIG d   1       6.153  -2.237  -6.760  0.00  0.00     0.073 C 
ATOM      5  H   LIG d   1       5.312  -2.452  -7.419  0.00  0.00     0.042 H 
ATOM      6  C   LIG d   1       5.559  -2.258  -5.328  0.00  0.00     0.073 C 
ATOM      7  H   LIG d   1       6.512  -2.152  -4.810  0.00  0.00     0.042 H 
ATOM      8  C   LIG d   1       5.272  -3.676  -5.159  0.00  0.00     0.232 C 
ATOM      9  O   LIG d   1       4.354  -4.184  -4.551  0.00  0.00    -0.274 OA
ATOM     10  C   LIG d   1       4.895  -0.976  -5.037  0.00  0.00     0.088 C 
ATOM     11  C   LIG d   1       4.305  -0.359  -6.288  0.00  0.00    -0.021 A 
ATOM     12  C   LIG d   1       3.004   0.036  -6.429  0.00  0.00    -0.057 A 
ATOM     13  C   LIG d   1       2.608   0.634  -7.618  0.00  0.00    -0.061 A 
ATOM     14  C   LIG d   1       3.512   0.833  -8.644  0.00  0.00    -0.061 A 
ATOM     15  C   LIG d   1       4.831   0.413  -8.507  0.00  0.00    -0.057 A 
ATOM     16  C   LIG d   1       5.201  -0.193  -7.348  0.00  0.00    -0.021 A 
ATOM     17  C   LIG d   1       6.601  -0.838  -7.073  0.00  0.00     0.088 C 
ATOM     18  C   LIG d   1       7.026  -0.109  -5.801  0.00  0.00    -0.021 A 
ATOM     19  C   LIG d   1       6.121  -0.096  -4.767  0.00  0.00    -0.021 A 
ATOM     20  C   LIG d   1       6.363   0.603  -3.629  0.00  0.00    -0.057 A 
ATOM     21  C   LIG d   1       7.558   1.307  -3.522  0.00  0.00    -0.061 A 
ATOM     22  C   LIG d   1       8.471   1.285  -4.561  0.00  0.00    -0.061 A 
ATOM     23  C   LIG d   1       8.217   0.551  -5.663  0.00  0.00    -0.057 A 
ATOM     24 BR   LIG d   1       7.880  -0.711  -8.560  0.00  0.00    -0.073 Br
ATOM     25 BR   LIG d   1       3.640  -1.076  -3.526  0.00  0.00    -0.073 Br
ATOM     26  H   LIG d   1       2.295  -0.114  -5.628  0.00  0.00     0.062 H 
ATOM     27  H   LIG d   1       1.582   0.947  -7.742  0.00  0.00     0.062 H 
ATOM     28  H   LIG d   1       3.193   1.316  -9.557  0.00  0.00     0.062 H 
ATOM     29  H   LIG d   1       5.545   0.566  -9.302  0.00  0.00     0.062 H 
ATOM     30  H   LIG d   1       5.644   0.613  -2.823  0.00  0.00     0.062 H 
ATOM     31  H   LIG d   1       7.773   1.874  -2.628  0.00  0.00     0.062 H 
ATOM     32  H   LIG d   1       9.405   1.817  -4.460  0.00  0.00     0.062 H 
ATOM     33  H   LIG d   1       8.944   0.542  -6.462  0.00  0.00     0.062 H 
ENDROOT
BRANCH   1  34
ATOM     34  C   LIG d   1       6.593  -5.670  -5.697  0.00  0.00     0.044 A 
ATOM     35  C   LIG d   1       7.689  -6.054  -4.937  0.00  0.00    -0.036 A 
ATOM     36  C   LIG d   1       7.990  -7.393  -4.788  0.00  0.00    -0.018 A 
ATOM     37  H   LIG d   1       8.306  -5.305  -4.462  0.00  0.00     0.064 H 
ATOM     38  C   LIG d   1       7.197  -8.355  -5.398  0.00  0.00     0.121 A 
ATOM     39  H   LIG d   1       8.843  -7.692  -4.197  0.00  0.00     0.066 H 
ATOM     40  C   LIG d   1       6.105  -7.971  -6.161  0.00  0.00    -0.018 A 
ATOM     41  C   LIG d   1       5.799  -6.632  -6.307  0.00  0.00    -0.036 A 
ATOM     42  H   LIG d   1       5.490  -8.720  -6.640  0.00  0.00     0.066 H 
ATOM     43  H   LIG d   1       4.946  -6.333  -6.897  0.00  0.00     0.064 H 
BRANCH  38  44
ATOM     44  O   LIG d   1       7.494  -9.673  -5.252  0.00  0.00    -0.492 OA
BRANCH  44  45
ATOM     45  C   LIG d   1       6.415 -10.548  -4.918  0.00  0.00     0.090 C 
ATOM     46  H   LIG d   1       6.496 -11.464  -5.503  0.00  0.00     0.070 H 
ATOM     47  H   LIG d   1       5.466 -10.058  -5.141  0.00  0.00     0.070 H 
BRANCH  45  48
ATOM     48  C   LIG d   1       6.475 -10.889  -3.427  0.00  0.00    -0.019 C 
ATOM     49  H   LIG d   1       7.411 -10.519  -3.008  0.00  0.00     0.030 H 
ATOM     50  H   LIG d   1       6.422 -11.971  -3.300  0.00  0.00     0.030 H 
BRANCH  48  51
ATOM     51  C   LIG d   1       5.297 -10.232  -2.706  0.00  0.00    -0.050 C 
ATOM     52  H   LIG d   1       5.622  -9.293  -2.258  0.00  0.00     0.027 H 
ATOM     53  H   LIG d   1       4.931 -10.899  -1.925  0.00  0.00     0.027 H 
BRANCH  51  54
ATOM     54  C   LIG d   1       4.174  -9.957  -3.708  0.00  0.00    -0.056 C 
ATOM     55  H   LIG d   1       4.550 -10.097  -4.722  0.00  0.00     0.026 H 
ATOM     56  H   LIG d   1       3.823  -8.933  -3.590  0.00  0.00     0.026 H 
BRANCH  54  57
ATOM     57  C   LIG d   1       3.017 -10.925  -3.455  0.00  0.00    -0.065 C 
ATOM     58  H   LIG d   1       2.380 -10.530  -2.663  0.00  0.00     0.023 H 
ATOM     59  H   LIG d   1       2.433 -11.041  -4.368  0.00  0.00     0.023 H 
ATOM     60  H   LIG d   1       3.414 -11.894  -3.151  0.00  0.00     0.023 H 
ENDBRANCH  54  57
ENDBRANCH  51  54
ENDBRANCH  48  51
ENDBRANCH  45  48
ENDBRANCH  44  45
ENDBRANCH  38  44
ENDBRANCH   1  34
TORSDOF 7
ENDMDL
MODEL 9
REMARK VINA RESULT:      -6.5      2.864      8.845
REMARK  7 active torsions:
REMARK  status: ('A' for Active; 'I' for Inactive)
REMARK    1  A    between atoms: C_1  and  C_2 
REMARK    2  A    between atoms: C_2  and  C_3 
REMARK    3  A    between atoms: C_3  and  C_4 
REMARK    4  A    between atoms: C_4  and  C_5 
REMARK    5  A    between atoms: C_5  and  O_6 
REMARK    6  A    between atoms: O_6  and  C_7 
REMARK    7  A    between atoms: C_10  and  N_13 
ROOT
ATOM      1  N   LIG d   1       6.074  -4.383  -5.748  0.00  0.00    -0.210 N 
ATOM      2  C   LIG d   1       6.698  -3.612  -6.698  0.00  0.00     0.232 C 
ATOM      3  O   LIG d   1       7.648  -3.920  -7.386  0.00  0.00    -0.274 OA
ATOM      4  C   LIG d   1       5.968  -2.331  -6.706  0.00  0.00     0.073 C 
ATOM      5  H   LIG d   1       5.045  -2.505  -7.257  0.00  0.00     0.042 H 
ATOM      6  C   LIG d   1       5.544  -2.277  -5.215  0.00  0.00     0.073 C 
ATOM      7  H   LIG d   1       6.556  -2.222  -4.813  0.00  0.00     0.042 H 
ATOM      8  C   LIG d   1       5.190  -3.668  -4.969  0.00  0.00     0.232 C 
ATOM      9  O   LIG d   1       4.318  -4.098  -4.245  0.00  0.00    -0.274 OA
ATOM     10  C   LIG d   1       5.001  -0.947  -4.892  0.00  0.00     0.088 C 
ATOM     11  C   LIG d   1       4.311  -0.322  -6.087  0.00  0.00    -0.021 A 
ATOM     12  C   LIG d   1       3.030   0.155  -6.091  0.00  0.00    -0.057 A 
ATOM     13  C   LIG d   1       2.538   0.749  -7.246  0.00  0.00    -0.061 A 
ATOM     14  C   LIG d   1       3.328   0.862  -8.374  0.00  0.00    -0.061 A 
ATOM     15  C   LIG d   1       4.625   0.358  -8.374  0.00  0.00    -0.057 A 
ATOM     16  C   LIG d   1       5.087  -0.243  -7.246  0.00  0.00    -0.021 A 
ATOM     17  C   LIG d   1       6.465  -0.973  -7.112  0.00  0.00     0.088 C 
ATOM     18  C   LIG d   1       7.080  -0.243  -5.921  0.00  0.00    -0.021 A 
ATOM     19  C   LIG d   1       6.304  -0.144  -4.791  0.00  0.00    -0.021 A 
ATOM     20  C   LIG d   1       6.720   0.565  -3.711  0.00  0.00    -0.057 A 
ATOM     21  C   LIG d   1       7.961   1.191  -3.764  0.00  0.00    -0.061 A 
ATOM     22  C   LIG d   1       8.745   1.082  -4.899  0.00  0.00    -0.061 A 
ATOM     23  C   LIG d   1       8.318   0.339  -5.940  0.00  0.00    -0.057 A 
ATOM     24 BR   LIG d   1       7.569  -0.968  -8.739  0.00  0.00    -0.073 Br
ATOM     25 BR   LIG d   1       3.926  -0.925  -3.245  0.00  0.00    -0.073 Br
ATOM     26  H   LIG d   1       2.410   0.072  -5.210  0.00  0.00     0.062 H 
ATOM     27  H   LIG d   1       1.527   1.126  -7.262  0.00  0.00     0.062 H 
ATOM     28  H   LIG d   1       2.937   1.343  -9.259  0.00  0.00     0.062 H 
ATOM     29  H   LIG d   1       5.250   0.443  -9.250  0.00  0.00     0.062 H 
ATOM     30  H   LIG d   1       6.101   0.643  -2.830  0.00  0.00     0.062 H 
ATOM     31  H   LIG d   1       8.314   1.764  -2.919  0.00  0.00     0.062 H 
ATOM     32  H   LIG d   1       9.716   1.552  -4.923  0.00  0.00     0.062 H 
ATOM     33  H   LIG d   1       8.946   0.262  -6.816  0.00  0.00     0.062 H 
ENDROOT
BRANCH   1  34
ATOM     34  C   LIG d   1       6.310  -5.758  -5.589  0.00  0.00     0.044 A 
ATOM     35  C   LIG d   1       5.347  -6.677  -5.984  0.00  0.00    -0.036 A 
ATOM     36  C   LIG d   1       5.579  -8.029  -5.828  0.00  0.00    -0.018 A 
ATOM     37  H   LIG d   1       4.417  -6.334  -6.413  0.00  0.00     0.064 H 
ATOM     38  C   LIG d   1       6.774  -8.469  -5.277  0.00  0.00     0.121 A 
ATOM     39  H   LIG d   1       4.830  -8.744  -6.135  0.00  0.00     0.066 H 
ATOM     40  C   LIG d   1       7.733  -7.551  -4.878  0.00  0.00    -0.018 A 
ATOM     41  C   LIG d   1       7.505  -6.199  -5.037  0.00  0.00    -0.036 A 
ATOM     42  H   LIG d   1       8.662  -7.894  -4.445  0.00  0.00     0.066 H 
ATOM     43  H   LIG d   1       8.254  -5.484  -4.732  0.00  0.00     0.064 H 
BRANCH  38  44
ATOM     44  O   LIG d   1       7.001  -9.801  -5.123  0.00  0.00    -0.492 OA
BRANCH  44  45
ATOM     45  C   LIG d   1       5.855 -10.648  -5.024  0.00  0.00     0.090 C 
ATOM     46  H   LIG d   1       5.837 -11.335  -5.869  0.00  0.00     0.070 H 
ATOM     47  H   LIG d   1       4.950 -10.038  -5.033  0.00  0.00     0.070 H 
BRANCH  45  48
ATOM     48  C   LIG d   1       5.919 -11.444  -3.719  0.00  0.00    -0.019 C 
ATOM     49  H   LIG d   1       6.961 -11.644  -3.467  0.00  0.00     0.030 H 
ATOM     50  H   LIG d   1       5.388 -12.389  -3.844  0.00  0.00     0.030 H 
BRANCH  48  51
ATOM     51  C   LIG d   1       5.267 -10.637  -2.595  0.00  0.00    -0.050 C 
ATOM     52  H   LIG d   1       4.312 -11.089  -2.330  0.00  0.00     0.027 H 
ATOM     53  H   LIG d   1       5.105  -9.612  -2.931  0.00  0.00     0.027 H 
BRANCH  51  54
ATOM     54  C   LIG d   1       6.186 -10.632  -1.372  0.00  0.00    -0.056 C 
ATOM     55  H   LIG d   1       6.602 -11.629  -1.225  0.00  0.00     0.026 H 
ATOM     56  H   LIG d   1       5.616 -10.343  -0.490  0.00  0.00     0.026 H 
BRANCH  54  57
ATOM     57  C   LIG d   1       7.324  -9.633  -1.594  0.00  0.00    -0.065 C 
ATOM     58  H   LIG d   1       7.978  -9.628  -0.721  0.00  0.00     0.023 H 
ATOM     59  H   LIG d   1       7.896  -9.923  -2.475  0.00  0.00     0.023 H 
ATOM     60  H   LIG d   1       6.908  -8.636  -1.741  0.00  0.00     0.023 H 
ENDBRANCH  54  57
ENDBRANCH  51  54
ENDBRANCH  48  51
ENDBRANCH  45  48
ENDBRANCH  44  45
ENDBRANCH  38  44
ENDBRANCH   1  34
TORSDOF 7
ENDMDL
MODEL 10
REMARK VINA RESULT:      -6.4      7.515     12.705
REMARK  7 active torsions:
REMARK  status: ('A' for Active; 'I' for Inactive)
REMARK    1  A    between atoms: C_1  and  C_2 
REMARK    2  A    between atoms: C_2  and  C_3 
REMARK    3  A    between atoms: C_3  and  C_4 
REMARK    4  A    between atoms: C_4  and  C_5 
REMARK    5  A    between atoms: C_5  and  O_6 
REMARK    6  A    between atoms: O_6  and  C_7 
REMARK    7  A    between atoms: C_10  and  N_13 
ROOT
ATOM      1  N   LIG d   1       9.351   3.181  -4.900  0.00  0.00    -0.210 N 
ATOM      2  C   LIG d   1       9.438   3.830  -6.107  0.00  0.00     0.232 C 
ATOM      3  O   LIG d   1       9.205   3.373  -7.205  0.00  0.00    -0.274 OA
ATOM      4  C   LIG d   1       9.876   5.201  -5.785  0.00  0.00     0.073 C 
ATOM      5  H   LIG d   1       8.996   5.725  -5.412  0.00  0.00     0.042 H 
ATOM      6  C   LIG d   1      10.731   4.900  -4.526  0.00  0.00     0.073 C 
ATOM      7  H   LIG d   1      11.477   4.293  -5.040  0.00  0.00     0.042 H 
ATOM      8  C   LIG d   1       9.916   3.892  -3.863  0.00  0.00     0.232 C 
ATOM      9  O   LIG d   1       9.770   3.716  -2.672  0.00  0.00    -0.274 OA
ATOM     10  C   LIG d   1      11.502   6.094  -4.142  0.00  0.00     0.088 C 
ATOM     11  C   LIG d   1      10.764   7.370  -4.492  0.00  0.00    -0.021 A 
ATOM     12  C   LIG d   1      10.486   8.380  -3.615  0.00  0.00    -0.057 A 
ATOM     13  C   LIG d   1       9.843   9.519  -4.084  0.00  0.00    -0.061 A 
ATOM     14  C   LIG d   1       9.492   9.635  -5.415  0.00  0.00    -0.061 A 
ATOM     15  C   LIG d   1       9.759   8.597  -6.302  0.00  0.00    -0.057 A 
ATOM     16  C   LIG d   1      10.366   7.478  -5.827  0.00  0.00    -0.021 A 
ATOM     17  C   LIG d   1      10.625   6.172  -6.651  0.00  0.00     0.088 C 
ATOM     18  C   LIG d   1      12.132   5.999  -6.481  0.00  0.00    -0.021 A 
ATOM     19  C   LIG d   1      12.615   6.043  -5.196  0.00  0.00    -0.021 A 
ATOM     20  C   LIG d   1      13.948   5.993  -4.943  0.00  0.00    -0.057 A 
ATOM     21  C   LIG d   1      14.825   5.890  -6.018  0.00  0.00    -0.061 A 
ATOM     22  C   LIG d   1      14.336   5.837  -7.310  0.00  0.00    -0.061 A 
ATOM     23  C   LIG d   1      13.004   5.851  -7.525  0.00  0.00    -0.057 A 
ATOM     24 BR   LIG d   1      10.009   6.232  -8.518  0.00  0.00    -0.073 Br
ATOM     25 BR   LIG d   1      12.159   6.033  -2.290  0.00  0.00    -0.073 Br
ATOM     26  H   LIG d   1      10.762   8.296  -2.574  0.00  0.00     0.062 H 
ATOM     27  H   LIG d   1       9.615  10.322  -3.399  0.00  0.00     0.062 H 
ATOM     28  H   LIG d   1       9.009  10.535  -5.768  0.00  0.00     0.062 H 
ATOM     29  H   LIG d   1       9.490   8.680  -7.345  0.00  0.00     0.062 H 
ATOM     30  H   LIG d   1      14.320   6.034  -3.930  0.00  0.00     0.062 H 
ATOM     31  H   LIG d   1      15.890   5.852  -5.844  0.00  0.00     0.062 H 
ATOM     32  H   LIG d   1      15.023   5.735  -8.137  0.00  0.00     0.062 H 
ATOM     33  H   LIG d   1      12.640   5.805  -8.541  0.00  0.00     0.062 H 
ENDROOT
BRANCH   1  34
ATOM     34  C   LIG d   1       8.744   1.924  -4.738  0.00  0.00     0.044 A 
ATOM     35  C   LIG d   1       9.372   0.784  -5.217  0.00  0.00    -0.036 A 
ATOM     36  C   LIG d   1       8.775  -0.451  -5.057  0.00  0.00    -0.018 A 
ATOM     37  H   LIG d   1      10.327   0.861  -5.715  0.00  0.00     0.064 H 
ATOM     38  C   LIG d   1       7.548  -0.552  -4.417  0.00  0.00     0.121 A 
ATOM     39  H   LIG d   1       9.264  -1.339  -5.431  0.00  0.00     0.066 H 
ATOM     40  C   LIG d   1       6.919   0.590  -3.943  0.00  0.00    -0.018 A 
ATOM     41  C   LIG d   1       7.516   1.824  -4.098  0.00  0.00    -0.036 A 
ATOM     42  H   LIG d   1       5.961   0.512  -3.448  0.00  0.00     0.066 H 
ATOM     43  H   LIG d   1       7.028   2.712  -3.724  0.00  0.00     0.064 H 
BRANCH  38  44
ATOM     44  O   LIG d   1       6.961  -1.767  -4.260  0.00  0.00    -0.492 OA
BRANCH  44  45
ATOM     45  C   LIG d   1       6.146  -1.949  -3.101  0.00  0.00     0.090 C 
ATOM     46  H   LIG d   1       6.066  -1.005  -2.562  0.00  0.00     0.070 H 
ATOM     47  H   LIG d   1       6.597  -2.700  -2.452  0.00  0.00     0.070 H 
BRANCH  45  48
ATOM     48  C   LIG d   1       4.751  -2.414  -3.525  0.00  0.00    -0.019 C 
ATOM     49  H   LIG d   1       4.707  -3.503  -3.499  0.00  0.00     0.030 H 
ATOM     50  H   LIG d   1       4.545  -2.066  -4.538  0.00  0.00     0.030 H 
BRANCH  48  51
ATOM     51  C   LIG d   1       3.707  -1.838  -2.565  0.00  0.00    -0.050 C 
ATOM     52  H   LIG d   1       3.413  -2.603  -1.847  0.00  0.00     0.027 H 
ATOM     53  H   LIG d   1       2.833  -1.515  -3.131  0.00  0.00     0.027 H 
BRANCH  51  54
ATOM     54  C   LIG d   1       4.304  -0.642  -1.821  0.00  0.00    -0.056 C 
ATOM     55  H   LIG d   1       5.373  -0.583  -2.026  0.00  0.00     0.026 H 
ATOM     56  H   LIG d   1       4.146  -0.765  -0.750  0.00  0.00     0.026 H 
BRANCH  54  57
ATOM     57  C   LIG d   1       3.622   0.644  -2.293  0.00  0.00    -0.065 C 
ATOM     58  H   LIG d   1       3.578   1.355  -1.468  0.00  0.00     0.023 H 
ATOM     59  H   LIG d   1       4.190   1.076  -3.116  0.00  0.00     0.023 H 
ATOM     60  H   LIG d   1       2.611   0.415  -2.630  0.00  0.00     0.023 H 
ENDBRANCH  54  57
ENDBRANCH  51  54
ENDBRANCH  48  51
ENDBRANCH  45  48
ENDBRANCH  44  45
ENDBRANCH  38  44
ENDBRANCH   1  34
TORSDOF 7
ENDMDL
