MODEL 1
REMARK VINA RESULT:      -3.8      0.000      0.000
REMARK  4 active torsions:
REMARK  status: ('A' for Active; 'I' for Inactive)
REMARK    1  A    between atoms: C_1  and  C_2 
REMARK    2  A    between atoms: C_2  and  C_3 
REMARK    3  A    between atoms: C_2  and  C_4 
REMARK    4  A    between atoms: C_2  and  O_7 
ROOT
ATOM      1  C   LIG d   1       4.388   0.178  -1.973  0.00  0.00     0.063 C 
ATOM      2  C   LIG d   1       5.413   0.990  -2.649  0.00  0.00     0.065 C 
ATOM      3  N   LIG d   1       6.204   1.617  -3.171  0.00  0.00    -0.197 NA
ATOM      4  H   LIG d   1       4.831  -0.325  -1.114  0.00  0.00     0.045 H 
ATOM      5  H   LIG d   1       3.576   0.824  -1.638  0.00  0.00     0.045 H 
ENDROOT
BRANCH   1   6
ATOM      6  C   LIG d   1       3.840  -0.866  -2.948  0.00  0.00     0.073 C 
BRANCH   6   7
ATOM      7  C   LIG d   1       3.864  -2.246  -2.286  0.00  0.00    -0.035 C 
ATOM      8  H   LIG d   1       2.898  -2.443  -1.823  0.00  0.00     0.026 H 
ATOM      9  H   LIG d   1       4.069  -3.006  -3.040  0.00  0.00     0.026 H 
ATOM     10  H   LIG d   1       4.644  -2.269  -1.525  0.00  0.00     0.026 H 
ENDBRANCH   6   7
BRANCH   6  11
ATOM     11  C   LIG d   1       2.401  -0.506  -3.325  0.00  0.00    -0.035 C 
ATOM     12  H   LIG d   1       2.395   0.425  -3.889  0.00  0.00     0.026 H 
ATOM     13  H   LIG d   1       1.974  -1.303  -3.934  0.00  0.00     0.026 H 
ATOM     14  H   LIG d   1       1.808  -0.386  -2.418  0.00  0.00     0.026 H 
ENDBRANCH   6  11
BRANCH   6  15
ATOM     15  O   LIG d   1       4.648  -0.888  -4.127  0.00  0.00    -0.388 OA
ATOM     16  H   LIG d   1       5.220  -0.114  -4.227  0.00  0.00     0.210 HD
ENDBRANCH   6  15
ENDBRANCH   1   6
TORSDOF 4
ENDMDL
MODEL 2
REMARK VINA RESULT:      -3.8      1.817      2.718
REMARK  4 active torsions:
REMARK  status: ('A' for Active; 'I' for Inactive)
REMARK    1  A    between atoms: C_1  and  C_2 
REMARK    2  A    between atoms: C_2  and  C_3 
REMARK    3  A    between atoms: C_2  and  C_4 
REMARK    4  A    between atoms: C_2  and  O_7 
ROOT
ATOM      1  C   LIG d   1       2.766  -0.221  -3.197  0.00  0.00     0.063 C 
ATOM      2  C   LIG d   1       2.767   0.421  -4.521  0.00  0.00     0.065 C 
ATOM      3  N   LIG d   1       2.767   0.917  -5.544  0.00  0.00    -0.197 NA
ATOM      4  H   LIG d   1       2.167   0.371  -2.506  0.00  0.00     0.045 H 
ATOM      5  H   LIG d   1       2.343  -1.222  -3.279  0.00  0.00     0.045 H 
ENDROOT
BRANCH   1   6
ATOM      6  C   LIG d   1       4.201  -0.315  -2.676  0.00  0.00     0.073 C 
BRANCH   6   7
ATOM      7  C   LIG d   1       4.474   0.845  -1.716  0.00  0.00    -0.035 C 
ATOM      8  H   LIG d   1       3.870   0.723  -0.817  0.00  0.00     0.026 H 
ATOM      9  H   LIG d   1       5.529   0.854  -1.447  0.00  0.00     0.026 H 
ATOM     10  H   LIG d   1       4.215   1.786  -2.202  0.00  0.00     0.026 H 
ENDBRANCH   6   7
BRANCH   6  11
ATOM     11  C   LIG d   1       4.390  -1.642  -1.938  0.00  0.00    -0.035 C 
ATOM     12  H   LIG d   1       3.416  -2.073  -1.708  0.00  0.00     0.026 H 
ATOM     13  H   LIG d   1       4.954  -2.332  -2.565  0.00  0.00     0.026 H 
ATOM     14  H   LIG d   1       4.936  -1.467  -1.011  0.00  0.00     0.026 H 
ENDBRANCH   6  11
BRANCH   6  15
ATOM     15  O   LIG d   1       5.113  -0.249  -3.775  0.00  0.00    -0.388 OA
ATOM     16  H   LIG d   1       5.987  -0.618  -3.584  0.00  0.00     0.210 HD
ENDBRANCH   6  15
ENDBRANCH   1   6
TORSDOF 4
ENDMDL
MODEL 3
REMARK VINA RESULT:      -3.6      2.270      3.157
REMARK  4 active torsions:
REMARK  status: ('A' for Active; 'I' for Inactive)
REMARK    1  A    between atoms: C_1  and  C_2 
REMARK    2  A    between atoms: C_2  and  C_3 
REMARK    3  A    between atoms: C_2  and  C_4 
REMARK    4  A    between atoms: C_2  and  O_7 
ROOT
ATOM      1  C   LIG d   1       4.339  -1.041  -2.087  0.00  0.00     0.063 C 
ATOM      2  C   LIG d   1       4.252  -2.217  -2.969  0.00  0.00     0.065 C 
ATOM      3  N   LIG d   1       4.184  -3.124  -3.650  0.00  0.00    -0.197 NA
ATOM      4  H   LIG d   1       3.436  -0.974  -1.481  0.00  0.00     0.045 H 
ATOM      5  H   LIG d   1       5.207  -1.140  -1.436  0.00  0.00     0.045 H 
ENDROOT
BRANCH   1   6
ATOM      6  C   LIG d   1       4.479   0.223  -2.936  0.00  0.00     0.073 C 
BRANCH   6   7
ATOM      7  C   LIG d   1       3.661   1.354  -2.307  0.00  0.00    -0.035 C 
ATOM      8  H   LIG d   1       3.937   2.302  -2.768  0.00  0.00     0.026 H 
ATOM      9  H   LIG d   1       2.600   1.167  -2.467  0.00  0.00     0.026 H 
ATOM     10  H   LIG d   1       3.865   1.398  -1.237  0.00  0.00     0.026 H 
ENDBRANCH   6   7
BRANCH   6  11
ATOM     11  C   LIG d   1       5.951   0.634  -3.001  0.00  0.00    -0.035 C 
ATOM     12  H   LIG d   1       6.434   0.409  -2.051  0.00  0.00     0.026 H 
ATOM     13  H   LIG d   1       6.448   0.084  -3.800  0.00  0.00     0.026 H 
ATOM     14  H   LIG d   1       6.021   1.704  -3.199  0.00  0.00     0.026 H 
ENDBRANCH   6  11
BRANCH   6  15
ATOM     15  O   LIG d   1       3.998  -0.034  -4.258  0.00  0.00    -0.388 OA
ATOM     16  H   LIG d   1       3.090   0.262  -4.410  0.00  0.00     0.210 HD
ENDBRANCH   6  15
ENDBRANCH   1   6
TORSDOF 4
ENDMDL
MODEL 4
REMARK VINA RESULT:      -3.5      2.311      2.664
REMARK  4 active torsions:
REMARK  status: ('A' for Active; 'I' for Inactive)
REMARK    1  A    between atoms: C_1  and  C_2 
REMARK    2  A    between atoms: C_2  and  C_3 
REMARK    3  A    between atoms: C_2  and  C_4 
REMARK    4  A    between atoms: C_2  and  O_7 
ROOT
ATOM      1  C   LIG d   1       4.519  -0.764  -4.379  0.00  0.00     0.063 C 
ATOM      2  C   LIG d   1       3.851  -0.170  -5.549  0.00  0.00     0.065 C 
ATOM      3  N   LIG d   1       3.334   0.289  -6.451  0.00  0.00    -0.197 NA
ATOM      4  H   LIG d   1       4.846  -1.775  -4.623  0.00  0.00     0.045 H 
ATOM      5  H   LIG d   1       5.383  -0.157  -4.108  0.00  0.00     0.045 H 
ENDROOT
BRANCH   1   6
ATOM      6  C   LIG d   1       3.541  -0.813  -3.204  0.00  0.00     0.073 C 
BRANCH   6   7
ATOM      7  C   LIG d   1       3.793  -2.080  -2.383  0.00  0.00    -0.035 C 
ATOM      8  H   LIG d   1       3.750  -1.838  -1.321  0.00  0.00     0.026 H 
ATOM      9  H   LIG d   1       3.032  -2.822  -2.617  0.00  0.00     0.026 H 
ATOM     10  H   LIG d   1       4.778  -2.479  -2.624  0.00  0.00     0.026 H 
ENDBRANCH   6   7
BRANCH   6  11
ATOM     11  C   LIG d   1       3.745   0.418  -2.319  0.00  0.00    -0.035 C 
ATOM     12  H   LIG d   1       4.230   1.205  -2.896  0.00  0.00     0.026 H 
ATOM     13  H   LIG d   1       2.779   0.773  -1.960  0.00  0.00     0.026 H 
ATOM     14  H   LIG d   1       4.373   0.153  -1.468  0.00  0.00     0.026 H 
ENDBRANCH   6  11
BRANCH   6  15
ATOM     15  O   LIG d   1       2.200  -0.826  -3.699  0.00  0.00    -0.388 OA
ATOM     16  H   LIG d   1       1.732  -1.658  -3.545  0.00  0.00     0.210 HD
ENDBRANCH   6  15
ENDBRANCH   1   6
TORSDOF 4
ENDMDL
MODEL 5
REMARK VINA RESULT:      -3.4      2.163      2.713
REMARK  4 active torsions:
REMARK  status: ('A' for Active; 'I' for Inactive)
REMARK    1  A    between atoms: C_1  and  C_2 
REMARK    2  A    between atoms: C_2  and  C_3 
REMARK    3  A    between atoms: C_2  and  C_4 
REMARK    4  A    between atoms: C_2  and  O_7 
ROOT
ATOM      1  C   LIG d   1       2.999  -0.252  -3.498  0.00  0.00     0.063 C 
ATOM      2  C   LIG d   1       2.895   0.279  -4.867  0.00  0.00     0.065 C 
ATOM      3  N   LIG d   1       2.815   0.689  -5.924  0.00  0.00    -0.197 NA
ATOM      4  H   LIG d   1       3.364   0.529  -2.832  0.00  0.00     0.045 H 
ATOM      5  H   LIG d   1       2.018  -0.587  -3.163  0.00  0.00     0.045 H 
ENDROOT
BRANCH   1   6
ATOM      6  C   LIG d   1       3.973  -1.432  -3.482  0.00  0.00     0.073 C 
BRANCH   6   7
ATOM      7  C   LIG d   1       5.411  -0.909  -3.517  0.00  0.00    -0.035 C 
ATOM      8  H   LIG d   1       5.577  -0.367  -4.448  0.00  0.00     0.026 H 
ATOM      9  H   LIG d   1       5.574  -0.240  -2.673  0.00  0.00     0.026 H 
ATOM     10  H   LIG d   1       6.104  -1.748  -3.457  0.00  0.00     0.026 H 
ENDBRANCH   6   7
BRANCH   6  11
ATOM     11  C   LIG d   1       3.760  -2.252  -2.208  0.00  0.00    -0.035 C 
ATOM     12  H   LIG d   1       4.191  -3.244  -2.338  0.00  0.00     0.026 H 
ATOM     13  H   LIG d   1       4.243  -1.753  -1.368  0.00  0.00     0.026 H 
ATOM     14  H   LIG d   1       2.692  -2.343  -2.010  0.00  0.00     0.026 H 
ENDBRANCH   6  11
BRANCH   6  15
ATOM     15  O   LIG d   1       3.739  -2.259  -4.624  0.00  0.00    -0.388 OA
ATOM     16  H   LIG d   1       4.174  -3.123  -4.580  0.00  0.00     0.210 HD
ENDBRANCH   6  15
ENDBRANCH   1   6
TORSDOF 4
ENDMDL
MODEL 6
REMARK VINA RESULT:      -3.2      1.507      1.860
REMARK  4 active torsions:
REMARK  status: ('A' for Active; 'I' for Inactive)
REMARK    1  A    between atoms: C_1  and  C_2 
REMARK    2  A    between atoms: C_2  and  C_3 
REMARK    3  A    between atoms: C_2  and  C_4 
REMARK    4  A    between atoms: C_2  and  O_7 
ROOT
ATOM      1  C   LIG d   1       4.221  -0.307  -4.094  0.00  0.00     0.063 C 
ATOM      2  C   LIG d   1       4.880   0.582  -3.123  0.00  0.00     0.065 C 
ATOM      3  N   LIG d   1       5.389   1.268  -2.374  0.00  0.00    -0.197 NA
ATOM      4  H   LIG d   1       3.150  -0.105  -4.103  0.00  0.00     0.045 H 
ATOM      5  H   LIG d   1       4.633  -0.129  -5.087  0.00  0.00     0.045 H 
ENDROOT
BRANCH   1   6
ATOM      6  C   LIG d   1       4.461  -1.764  -3.696  0.00  0.00     0.073 C 
BRANCH   6   7
ATOM      7  C   LIG d   1       5.966  -2.036  -3.636  0.00  0.00    -0.035 C 
ATOM      8  H   LIG d   1       6.286  -2.081  -2.595  0.00  0.00     0.026 H 
ATOM      9  H   LIG d   1       6.183  -2.985  -4.125  0.00  0.00     0.026 H 
ATOM     10  H   LIG d   1       6.500  -1.233  -4.145  0.00  0.00     0.026 H 
ENDBRANCH   6   7
BRANCH   6  11
ATOM     11  C   LIG d   1       3.841  -2.027  -2.322  0.00  0.00    -0.035 C 
ATOM     12  H   LIG d   1       4.042  -1.181  -1.664  0.00  0.00     0.026 H 
ATOM     13  H   LIG d   1       2.764  -2.157  -2.426  0.00  0.00     0.026 H 
ATOM     14  H   LIG d   1       4.276  -2.930  -1.894  0.00  0.00     0.026 H 
ENDBRANCH   6  11
BRANCH   6  15
ATOM     15  O   LIG d   1       3.859  -2.629  -4.662  0.00  0.00    -0.388 OA
ATOM     16  H   LIG d   1       3.242  -3.271  -4.284  0.00  0.00     0.210 HD
ENDBRANCH   6  15
ENDBRANCH   1   6
TORSDOF 4
ENDMDL
MODEL 7
REMARK VINA RESULT:      -3.1      3.062      3.639
REMARK  4 active torsions:
REMARK  status: ('A' for Active; 'I' for Inactive)
REMARK    1  A    between atoms: C_1  and  C_2 
REMARK    2  A    between atoms: C_2  and  C_3 
REMARK    3  A    between atoms: C_2  and  C_4 
REMARK    4  A    between atoms: C_2  and  O_7 
ROOT
ATOM      1  C   LIG d   1       5.548  -2.464  -3.929  0.00  0.00     0.063 C 
ATOM      2  C   LIG d   1       4.927  -3.577  -4.666  0.00  0.00     0.065 C 
ATOM      3  N   LIG d   1       4.447  -4.436  -5.234  0.00  0.00    -0.197 NA
ATOM      4  H   LIG d   1       6.069  -2.853  -3.055  0.00  0.00     0.045 H 
ATOM      5  H   LIG d   1       6.257  -1.951  -4.578  0.00  0.00     0.045 H 
ENDROOT
BRANCH   1   6
ATOM      6  C   LIG d   1       4.464  -1.483  -3.480  0.00  0.00     0.073 C 
BRANCH   6   7
ATOM      7  C   LIG d   1       4.346  -1.513  -1.955  0.00  0.00    -0.035 C 
ATOM      8  H   LIG d   1       5.299  -1.817  -1.523  0.00  0.00     0.026 H 
ATOM      9  H   LIG d   1       4.082  -0.521  -1.591  0.00  0.00     0.026 H 
ATOM     10  H   LIG d   1       3.572  -2.225  -1.665  0.00  0.00     0.026 H 
ENDBRANCH   6   7
BRANCH   6  11
ATOM     11  C   LIG d   1       4.835  -0.069  -3.934  0.00  0.00    -0.035 C 
ATOM     12  H   LIG d   1       4.195   0.227  -4.764  0.00  0.00     0.026 H 
ATOM     13  H   LIG d   1       4.702   0.627  -3.107  0.00  0.00     0.026 H 
ATOM     14  H   LIG d   1       5.876  -0.054  -4.256  0.00  0.00     0.026 H 
ENDBRANCH   6  11
BRANCH   6  15
ATOM     15  O   LIG d   1       3.212  -1.855  -4.062  0.00  0.00    -0.388 OA
ATOM     16  H   LIG d   1       2.470  -1.841  -3.442  0.00  0.00     0.210 HD
ENDBRANCH   6  15
ENDBRANCH   1   6
TORSDOF 4
ENDMDL
MODEL 8
REMARK VINA RESULT:      -2.9     12.893     13.872
REMARK  4 active torsions:
REMARK  status: ('A' for Active; 'I' for Inactive)
REMARK    1  A    between atoms: C_1  and  C_2 
REMARK    2  A    between atoms: C_2  and  C_3 
REMARK    3  A    between atoms: C_2  and  C_4 
REMARK    4  A    between atoms: C_2  and  O_7 
ROOT
ATOM      1  C   LIG d   1      10.650   6.690   7.196  0.00  0.00     0.063 C 
ATOM      2  C   LIG d   1      10.614   5.604   8.189  0.00  0.00     0.065 C 
ATOM      3  N   LIG d   1      10.586   4.765   8.955  0.00  0.00    -0.197 NA
ATOM      4  H   LIG d   1       9.672   6.783   6.723  0.00  0.00     0.045 H 
ATOM      5  H   LIG d   1      10.904   7.626   7.692  0.00  0.00     0.045 H 
ENDROOT
BRANCH   1   6
ATOM      6  C   LIG d   1      11.702   6.373   6.132  0.00  0.00     0.073 C 
BRANCH   6   7
ATOM      7  C   LIG d   1      11.107   6.601   4.741  0.00  0.00    -0.035 C 
ATOM      8  H   LIG d   1      10.167   7.144   4.832  0.00  0.00     0.026 H 
ATOM      9  H   LIG d   1      11.805   7.181   4.138  0.00  0.00     0.026 H 
ATOM     10  H   LIG d   1      10.926   5.638   4.262  0.00  0.00     0.026 H 
ENDBRANCH   6   7
BRANCH   6  11
ATOM     11  C   LIG d   1      12.913   7.288   6.325  0.00  0.00    -0.035 C 
ATOM     12  H   LIG d   1      13.222   7.269   7.369  0.00  0.00     0.026 H 
ATOM     13  H   LIG d   1      13.735   6.943   5.697  0.00  0.00     0.026 H 
ATOM     14  H   LIG d   1      12.646   8.307   6.044  0.00  0.00     0.026 H 
ENDBRANCH   6  11
BRANCH   6  15
ATOM     15  O   LIG d   1      12.112   5.010   6.258  0.00  0.00    -0.388 OA
ATOM     16  H   LIG d   1      11.434   4.427   6.628  0.00  0.00     0.210 HD
ENDBRANCH   6  15
ENDBRANCH   1   6
TORSDOF 4
ENDMDL
MODEL 9
REMARK VINA RESULT:      -2.7      2.362      3.021
REMARK  4 active torsions:
REMARK  status: ('A' for Active; 'I' for Inactive)
REMARK    1  A    between atoms: C_1  and  C_2 
REMARK    2  A    between atoms: C_2  and  C_3 
REMARK    3  A    between atoms: C_2  and  C_4 
REMARK    4  A    between atoms: C_2  and  O_7 
ROOT
ATOM      1  C   LIG d   1       3.865  -0.321  -3.808  0.00  0.00     0.063 C 
ATOM      2  C   LIG d   1       4.260  -1.430  -4.692  0.00  0.00     0.065 C 
ATOM      3  N   LIG d   1       4.565  -2.286  -5.374  0.00  0.00    -0.197 NA
ATOM      4  H   LIG d   1       3.974   0.624  -4.340  0.00  0.00     0.045 H 
ATOM      5  H   LIG d   1       2.825  -0.451  -3.506  0.00  0.00     0.045 H 
ENDROOT
BRANCH   1   6
ATOM      6  C   LIG d   1       4.760  -0.315  -2.568  0.00  0.00     0.073 C 
BRANCH   6   7
ATOM      7  C   LIG d   1       6.228  -0.312  -2.998  0.00  0.00    -0.035 C 
ATOM      8  H   LIG d   1       6.648   0.683  -2.847  0.00  0.00     0.026 H 
ATOM      9  H   LIG d   1       6.783  -1.035  -2.400  0.00  0.00     0.026 H 
ATOM     10  H   LIG d   1       6.299  -0.580  -4.052  0.00  0.00     0.026 H 
ENDBRANCH   6   7
BRANCH   6  11
ATOM     11  C   LIG d   1       4.469   0.935  -1.735  0.00  0.00    -0.035 C 
ATOM     12  H   LIG d   1       4.083   0.641  -0.760  0.00  0.00     0.026 H 
ATOM     13  H   LIG d   1       5.387   1.507  -1.604  0.00  0.00     0.026 H 
ATOM     14  H   LIG d   1       3.729   1.549  -2.248  0.00  0.00     0.026 H 
ENDBRANCH   6  11
BRANCH   6  15
ATOM     15  O   LIG d   1       4.496  -1.481  -1.783  0.00  0.00    -0.388 OA
ATOM     16  H   LIG d   1       4.271  -2.264  -2.305  0.00  0.00     0.210 HD
ENDBRANCH   6  15
ENDBRANCH   1   6
TORSDOF 4
ENDMDL
MODEL 10
REMARK VINA RESULT:      -2.7     10.673     11.774
REMARK  4 active torsions:
REMARK  status: ('A' for Active; 'I' for Inactive)
REMARK    1  A    between atoms: C_1  and  C_2 
REMARK    2  A    between atoms: C_2  and  C_3 
REMARK    3  A    between atoms: C_2  and  C_4 
REMARK    4  A    between atoms: C_2  and  O_7 
ROOT
ATOM      1  C   LIG d   1      10.135  10.211  -2.400  0.00  0.00     0.063 C 
ATOM      2  C   LIG d   1       9.269  10.975  -3.313  0.00  0.00     0.065 C 
ATOM      3  N   LIG d   1       8.600  11.565  -4.017  0.00  0.00    -0.197 NA
ATOM      4  H   LIG d   1      10.526   9.336  -2.918  0.00  0.00     0.045 H 
ATOM      5  H   LIG d   1      10.962  10.841  -2.073  0.00  0.00     0.045 H 
ENDROOT
BRANCH   1   6
ATOM      6  C   LIG d   1       9.323   9.763  -1.184  0.00  0.00     0.073 C 
BRANCH   6   7
ATOM      7  C   LIG d   1       9.381   8.238  -1.064  0.00  0.00    -0.035 C 
ATOM      8  H   LIG d   1       9.936   7.966  -0.166  0.00  0.00     0.026 H 
ATOM      9  H   LIG d   1       8.369   7.840  -1.001  0.00  0.00     0.026 H 
ATOM     10  H   LIG d   1       9.882   7.825  -1.939  0.00  0.00     0.026 H 
ENDBRANCH   6   7
BRANCH   6  11
ATOM     11  C   LIG d   1       9.906  10.396   0.081  0.00  0.00    -0.035 C 
ATOM     12  H   LIG d   1       9.157  10.386   0.872  0.00  0.00     0.026 H 
ATOM     13  H   LIG d   1      10.781   9.831   0.402  0.00  0.00     0.026 H 
ATOM     14  H   LIG d   1      10.197  11.426  -0.130  0.00  0.00     0.026 H 
ENDBRANCH   6  11
BRANCH   6  15
ATOM     15  O   LIG d   1       7.963  10.176  -1.339  0.00  0.00    -0.388 OA
ATOM     16  H   LIG d   1       7.650  10.767  -0.640  0.00  0.00     0.210 HD
ENDBRANCH   6  15
ENDBRANCH   1   6
TORSDOF 4
ENDMDL
