MODEL 1
REMARK VINA RESULT:      -6.5      0.000      0.000
REMARK  7 active torsions:
REMARK  status: ('A' for Active; 'I' for Inactive)
REMARK    1  A    between atoms: C_1  and  C_2 
REMARK    2  A    between atoms: C_5  and  C_7 
REMARK    3  A    between atoms: C_15  and  C_18 
REMARK    4  A    between atoms: C_18  and  N_19 
REMARK    5  A    between atoms: N_22  and  C_25 
REMARK    6  A    between atoms: C_25  and  C_26 
REMARK    7  A    between atoms: C_26  and  O_27 
ROOT
ATOM      1  C   LIG d   1       2.371   0.733  -7.214  0.00  0.00     0.027 C 
ATOM      2  C   LIG d   1       3.058   0.194  -6.165  0.00  0.00     0.179 A 
ATOM      3  C   LIG d   1       2.502  -0.174  -4.910  0.00  0.00     0.232 A 
ATOM      4  O   LIG d   1       1.340  -0.075  -4.557  0.00  0.00    -0.283 OA
ATOM      5  C   LIG d   1       3.634  -0.701  -4.128  0.00  0.00     0.068 A 
ATOM      6  C   LIG d   1       3.753  -1.217  -2.838  0.00  0.00    -0.048 A 
ATOM      7  C   LIG d   1       4.970  -1.637  -2.382  0.00  0.00    -0.068 A 
ATOM      8  C   LIG d   1       6.093  -1.549  -3.200  0.00  0.00    -0.097 A 
ATOM      9  C   LIG d   1       5.991  -1.039  -4.484  0.00  0.00     0.032 A 
ATOM     10  C   LIG d   1       4.761  -0.609  -4.963  0.00  0.00     0.147 A 
ATOM     11  O   LIG d   1       4.382  -0.086  -6.148  0.00  0.00    -0.451 OA
ATOM     12  O   LIG d   1       7.298  -1.969  -2.737  0.00  0.00    -0.873 OA
ATOM     13  H   LIG d   1       1.310   0.918  -7.126  0.00  0.00     0.069 H 
ATOM     14  H   LIG d   1       2.883  -1.286  -2.200  0.00  0.00     0.063 H 
ATOM     15  H   LIG d   1       5.062  -2.037  -1.383  0.00  0.00     0.061 H 
ENDROOT
BRANCH   9  16
ATOM     16  C   LIG d   1       7.214  -0.949  -5.360  0.00  0.00    -0.003 C 
ATOM     17  H   LIG d   1       7.613  -1.950  -5.529  0.00  0.00     0.087 H 
ATOM     18  H   LIG d   1       6.945  -0.500  -6.316  0.00  0.00     0.087 H 
BRANCH  16  19
ATOM     19  N   LIG d   1       8.231  -0.122  -4.698  0.00  0.00     0.240 N 
ATOM     20  C   LIG d   1       7.724   1.247  -4.543  0.00  0.00    -0.018 C 
ATOM     21  C   LIG d   1       8.776   2.104  -3.835  0.00  0.00     0.039 C 
ATOM     22  H   LIG d   1       7.512   1.670  -5.526  0.00  0.00     0.083 H 
ATOM     23  H   LIG d   1       6.810   1.232  -3.949  0.00  0.00     0.083 H 
ATOM     24  N   LIG d   1      10.014   2.109  -4.629  0.00  0.00    -0.290 N 
ATOM     25  H   LIG d   1       8.979   1.690  -2.848  0.00  0.00     0.048 H 
ATOM     26  H   LIG d   1       8.406   3.124  -3.734  0.00  0.00     0.048 H 
ATOM     27  C   LIG d   1      10.520   0.742  -4.813  0.00  0.00     0.039 C 
ATOM     28  C   LIG d   1       9.453  -0.105  -5.513  0.00  0.00    -0.018 C 
ATOM     29  H   LIG d   1      10.751   0.305  -3.841  0.00  0.00     0.048 H 
ATOM     30  H   LIG d   1      11.422   0.767  -5.424  0.00  0.00     0.048 H 
ATOM     31  H   LIG d   1       9.822  -1.123  -5.637  0.00  0.00     0.083 H 
ATOM     32  H   LIG d   1       9.232   0.324  -6.489  0.00  0.00     0.083 H 
ATOM     33  H   LIG d   1       8.438  -0.508  -3.789  0.00  0.00     0.204 HD
BRANCH  24  34
ATOM     34  C   LIG d   1      11.033   2.968  -4.010  0.00  0.00     0.022 C 
ATOM     35  H   LIG d   1      11.853   2.352  -3.642  0.00  0.00     0.045 H 
ATOM     36  H   LIG d   1      11.413   3.672  -4.751  0.00  0.00     0.045 H 
BRANCH  34  37
ATOM     37  C   LIG d   1      10.410   3.739  -2.846  0.00  0.00     0.057 C 
ATOM     38  H   LIG d   1      10.423   4.807  -3.068  0.00  0.00     0.057 H 
ATOM     39  H   LIG d   1       9.381   3.411  -2.701  0.00  0.00     0.057 H 
BRANCH  37  40
ATOM     40  O   LIG d   1      11.160   3.492  -1.655  0.00  0.00    -0.394 OA
ATOM     41  H   LIG d   1      10.614   3.356  -0.868  0.00  0.00     0.209 HD
ENDBRANCH  37  40
ENDBRANCH  34  37
ENDBRANCH  24  34
ENDBRANCH  16  19
ENDBRANCH   9  16
BRANCH   1  42
ATOM     42  C   LIG d   1       3.047   1.050  -8.414  0.00  0.00     0.132 A 
ATOM     43  C   LIG d   1       3.561   2.285  -8.757  0.00  0.00    -0.016 A 
ATOM     44  C   LIG d   1       4.140   2.137 -10.026  0.00  0.00    -0.020 A 
ATOM     45  H   LIG d   1       3.526   3.187  -8.164  0.00  0.00     0.066 H 
ATOM     46  C   LIG d   1       3.960   0.850 -10.401  0.00  0.00     0.103 A 
ATOM     47  H   LIG d   1       4.636   2.908 -10.598  0.00  0.00     0.065 H 
ATOM     48  O   LIG d   1       3.299   0.200  -9.432  0.00  0.00    -0.461 OA
BRANCH  46  49
ATOM     49  C   LIG d   1       4.424   0.245 -11.700  0.00  0.00    -0.006 C 
ATOM     50  H   LIG d   1       4.319   0.979 -12.500  0.00  0.00     0.031 H 
ATOM     51  H   LIG d   1       5.470  -0.048 -11.612  0.00  0.00     0.031 H 
ATOM     52  H   LIG d   1       3.819  -0.632 -11.930  0.00  0.00     0.031 H 
ENDBRANCH  46  49
ENDBRANCH   1  42
TORSDOF 7
ENDMDL
MODEL 2
REMARK VINA RESULT:      -6.5      3.260      6.173
REMARK  7 active torsions:
REMARK  status: ('A' for Active; 'I' for Inactive)
REMARK    1  A    between atoms: C_1  and  C_2 
REMARK    2  A    between atoms: C_5  and  C_7 
REMARK    3  A    between atoms: C_15  and  C_18 
REMARK    4  A    between atoms: C_18  and  N_19 
REMARK    5  A    between atoms: N_22  and  C_25 
REMARK    6  A    between atoms: C_25  and  C_26 
REMARK    7  A    between atoms: C_26  and  O_27 
ROOT
ATOM      1  C   LIG d   1       2.652   1.219  -6.179  0.00  0.00     0.027 C 
ATOM      2  C   LIG d   1       2.832   0.471  -7.306  0.00  0.00     0.179 A 
ATOM      3  C   LIG d   1       2.674   0.929  -8.642  0.00  0.00     0.232 A 
ATOM      4  O   LIG d   1       2.353   2.046  -9.008  0.00  0.00    -0.283 OA
ATOM      5  C   LIG d   1       2.979  -0.238  -9.488  0.00  0.00     0.068 A 
ATOM      6  C   LIG d   1       3.002  -0.444 -10.867  0.00  0.00    -0.048 A 
ATOM      7  C   LIG d   1       3.333  -1.673 -11.366  0.00  0.00    -0.068 A 
ATOM      8  C   LIG d   1       3.644  -2.719 -10.502  0.00  0.00    -0.097 A 
ATOM      9  C   LIG d   1       3.624  -2.529  -9.129  0.00  0.00     0.032 A 
ATOM     10  C   LIG d   1       3.292  -1.287  -8.607  0.00  0.00     0.147 A 
ATOM     11  O   LIG d   1       3.201  -0.832  -7.339  0.00  0.00    -0.451 OA
ATOM     12  O   LIG d   1       3.971  -3.935 -11.008  0.00  0.00    -0.873 OA
ATOM     13  H   LIG d   1       2.356   2.254  -6.261  0.00  0.00     0.069 H 
ATOM     14  H   LIG d   1       2.760   0.366 -11.540  0.00  0.00     0.063 H 
ATOM     15  H   LIG d   1       3.351  -1.833 -12.434  0.00  0.00     0.061 H 
ENDROOT
BRANCH   9  16
ATOM     16  C   LIG d   1       3.963  -3.670  -8.205  0.00  0.00    -0.003 C 
ATOM     17  H   LIG d   1       3.044  -4.089  -7.794  0.00  0.00     0.087 H 
ATOM     18  H   LIG d   1       4.497  -4.441  -8.760  0.00  0.00     0.087 H 
BRANCH  16  19
ATOM     19  N   LIG d   1       4.810  -3.179  -7.110  0.00  0.00     0.240 N 
ATOM     20  C   LIG d   1       6.222  -3.270  -7.504  0.00  0.00    -0.018 C 
ATOM     21  C   LIG d   1       7.103  -2.740  -6.371  0.00  0.00     0.039 C 
ATOM     22  H   LIG d   1       6.477  -4.311  -7.707  0.00  0.00     0.083 H 
ATOM     23  H   LIG d   1       6.388  -2.674  -8.401  0.00  0.00     0.083 H 
ATOM     24  N   LIG d   1       6.864  -3.533  -5.156  0.00  0.00    -0.290 N 
ATOM     25  H   LIG d   1       6.859  -1.696  -6.177  0.00  0.00     0.048 H 
ATOM     26  H   LIG d   1       8.151  -2.822  -6.657  0.00  0.00     0.048 H 
ATOM     27  C   LIG d   1       5.449  -3.471  -4.764  0.00  0.00     0.039 C 
ATOM     28  C   LIG d   1       4.581  -3.996  -5.911  0.00  0.00    -0.018 C 
ATOM     29  H   LIG d   1       5.176  -2.439  -4.544  0.00  0.00     0.048 H 
ATOM     30  H   LIG d   1       5.290  -4.086  -3.878  0.00  0.00     0.048 H 
ATOM     31  H   LIG d   1       3.530  -3.937  -5.626  0.00  0.00     0.083 H 
ATOM     32  H   LIG d   1       4.843  -5.032  -6.121  0.00  0.00     0.083 H 
ATOM     33  H   LIG d   1       4.578  -2.217  -6.912  0.00  0.00     0.204 HD
BRANCH  24  34
ATOM     34  C   LIG d   1       7.734  -3.091  -4.058  0.00  0.00     0.022 C 
ATOM     35  H   LIG d   1       7.931  -3.930  -3.391  0.00  0.00     0.045 H 
ATOM     36  H   LIG d   1       8.676  -2.724  -4.467  0.00  0.00     0.045 H 
BRANCH  34  37
ATOM     37  C   LIG d   1       7.043  -1.971  -3.280  0.00  0.00     0.057 C 
ATOM     38  H   LIG d   1       6.001  -1.899  -3.594  0.00  0.00     0.057 H 
ATOM     39  H   LIG d   1       7.088  -2.189  -2.213  0.00  0.00     0.057 H 
BRANCH  37  40
ATOM     40  O   LIG d   1       7.705  -0.732  -3.541  0.00  0.00    -0.394 OA
ATOM     41  H   LIG d   1       8.447  -0.805  -4.158  0.00  0.00     0.209 HD
ENDBRANCH  37  40
ENDBRANCH  34  37
ENDBRANCH  24  34
ENDBRANCH  16  19
ENDBRANCH   9  16
BRANCH   1  42
ATOM     42  C   LIG d   1       2.849   0.639  -4.906  0.00  0.00     0.132 A 
ATOM     43  C   LIG d   1       2.096  -0.377  -4.348  0.00  0.00    -0.016 A 
ATOM     44  C   LIG d   1       2.647  -0.631  -3.083  0.00  0.00    -0.020 A 
ATOM     45  H   LIG d   1       1.252  -0.878  -4.798  0.00  0.00     0.066 H 
ATOM     46  C   LIG d   1       3.687   0.217  -2.921  0.00  0.00     0.103 A 
ATOM     47  H   LIG d   1       2.303  -1.368  -2.371  0.00  0.00     0.065 H 
ATOM     48  O   LIG d   1       3.803   0.982  -4.015  0.00  0.00    -0.461 OA
BRANCH  46  49
ATOM     49  C   LIG d   1       4.569   0.295  -1.702  0.00  0.00    -0.006 C 
ATOM     50  H   LIG d   1       5.525  -0.186  -1.915  0.00  0.00     0.031 H 
ATOM     51  H   LIG d   1       4.738   1.339  -1.441  0.00  0.00     0.031 H 
ATOM     52  H   LIG d   1       4.084  -0.214  -0.868  0.00  0.00     0.031 H 
ENDBRANCH  46  49
ENDBRANCH   1  42
TORSDOF 7
ENDMDL
MODEL 3
REMARK VINA RESULT:      -6.5      1.995      4.820
REMARK  7 active torsions:
REMARK  status: ('A' for Active; 'I' for Inactive)
REMARK    1  A    between atoms: C_1  and  C_2 
REMARK    2  A    between atoms: C_5  and  C_7 
REMARK    3  A    between atoms: C_15  and  C_18 
REMARK    4  A    between atoms: C_18  and  N_19 
REMARK    5  A    between atoms: N_22  and  C_25 
REMARK    6  A    between atoms: C_25  and  C_26 
REMARK    7  A    between atoms: C_26  and  O_27 
ROOT
ATOM      1  C   LIG d   1       2.578   0.445  -6.068  0.00  0.00     0.027 C 
ATOM      2  C   LIG d   1       3.547   0.313  -7.020  0.00  0.00     0.179 A 
ATOM      3  C   LIG d   1       3.363   0.474  -8.420  0.00  0.00     0.232 A 
ATOM      4  O   LIG d   1       2.329   0.749  -9.004  0.00  0.00    -0.283 OA
ATOM      5  C   LIG d   1       4.690   0.233  -9.013  0.00  0.00     0.068 A 
ATOM      6  C   LIG d   1       5.172   0.238 -10.321  0.00  0.00    -0.048 A 
ATOM      7  C   LIG d   1       6.490  -0.030 -10.562  0.00  0.00    -0.068 A 
ATOM      8  C   LIG d   1       7.352  -0.309  -9.504  0.00  0.00    -0.097 A 
ATOM      9  C   LIG d   1       6.887  -0.318  -8.199  0.00  0.00     0.032 A 
ATOM     10  C   LIG d   1       5.551  -0.047  -7.939  0.00  0.00     0.147 A 
ATOM     11  O   LIG d   1       4.847   0.015  -6.789  0.00  0.00    -0.451 OA
ATOM     12  O   LIG d   1       8.660  -0.575  -9.754  0.00  0.00    -0.873 OA
ATOM     13  H   LIG d   1       1.566   0.687  -6.358  0.00  0.00     0.069 H 
ATOM     14  H   LIG d   1       4.506   0.454 -11.144  0.00  0.00     0.063 H 
ATOM     15  H   LIG d   1       6.864  -0.026 -11.575  0.00  0.00     0.061 H 
ENDROOT
BRANCH   9  16
ATOM     16  C   LIG d   1       7.831  -0.623  -7.065  0.00  0.00    -0.003 C 
ATOM     17  H   LIG d   1       7.440  -1.459  -6.482  0.00  0.00     0.087 H 
ATOM     18  H   LIG d   1       8.809  -0.886  -7.466  0.00  0.00     0.087 H 
BRANCH  16  19
ATOM     19  N   LIG d   1       7.956   0.559  -6.201  0.00  0.00     0.240 N 
ATOM     20  C   LIG d   1       9.169   1.303  -6.563  0.00  0.00    -0.018 C 
ATOM     21  C   LIG d   1       9.290   2.544  -5.677  0.00  0.00     0.039 C 
ATOM     22  H   LIG d   1      10.043   0.667  -6.419  0.00  0.00     0.083 H 
ATOM     23  H   LIG d   1       9.111   1.608  -7.608  0.00  0.00     0.083 H 
ATOM     24  N   LIG d   1       9.350   2.132  -4.267  0.00  0.00    -0.290 N 
ATOM     25  H   LIG d   1       8.424   3.187  -5.831  0.00  0.00     0.048 H 
ATOM     26  H   LIG d   1      10.198   3.089  -5.935  0.00  0.00     0.048 H 
ATOM     27  C   LIG d   1       8.153   1.365  -3.896  0.00  0.00     0.039 C 
ATOM     28  C   LIG d   1       8.042   0.132  -4.798  0.00  0.00    -0.018 C 
ATOM     29  H   LIG d   1       7.268   1.988  -4.022  0.00  0.00     0.048 H 
ATOM     30  H   LIG d   1       8.231   1.048  -2.857  0.00  0.00     0.048 H 
ATOM     31  H   LIG d   1       7.147  -0.431  -4.534  0.00  0.00     0.083 H 
ATOM     32  H   LIG d   1       8.921  -0.498  -4.663  0.00  0.00     0.083 H 
ATOM     33  H   LIG d   1       7.149   1.152  -6.324  0.00  0.00     0.204 HD
BRANCH  24  34
ATOM     34  C   LIG d   1       9.524   3.294  -3.385  0.00  0.00     0.022 C 
ATOM     35  H   LIG d   1       9.276   4.205  -3.931  0.00  0.00     0.045 H 
ATOM     36  H   LIG d   1       8.863   3.198  -2.523  0.00  0.00     0.045 H 
BRANCH  34  37
ATOM     37  C   LIG d   1      10.976   3.362  -2.911  0.00  0.00     0.057 C 
ATOM     38  H   LIG d   1      11.459   2.399  -3.081  0.00  0.00     0.057 H 
ATOM     39  H   LIG d   1      11.504   4.137  -3.466  0.00  0.00     0.057 H 
BRANCH  37  40
ATOM     40  O   LIG d   1      11.007   3.670  -1.516  0.00  0.00    -0.394 OA
ATOM     41  H   LIG d   1      11.141   2.899  -0.946  0.00  0.00     0.209 HD
ENDBRANCH  37  40
ENDBRANCH  34  37
ENDBRANCH  24  34
ENDBRANCH  16  19
ENDBRANCH   9  16
BRANCH   1  42
ATOM     42  C   LIG d   1       2.898   0.264  -4.703  0.00  0.00     0.132 A 
ATOM     43  C   LIG d   1       2.411  -0.731  -3.877  0.00  0.00    -0.016 A 
ATOM     44  C   LIG d   1       2.994  -0.524  -2.619  0.00  0.00    -0.020 A 
ATOM     45  H   LIG d   1       1.719  -1.515  -4.148  0.00  0.00     0.066 H 
ATOM     46  C   LIG d   1       3.793   0.562  -2.720  0.00  0.00     0.103 A 
ATOM     47  H   LIG d   1       2.833  -1.120  -1.732  0.00  0.00     0.065 H 
ATOM     48  O   LIG d   1       3.730   1.036  -3.973  0.00  0.00    -0.461 OA
BRANCH  46  49
ATOM     49  C   LIG d   1       4.617   1.149  -1.604  0.00  0.00    -0.006 C 
ATOM     50  H   LIG d   1       5.590   1.452  -1.992  0.00  0.00     0.031 H 
ATOM     51  H   LIG d   1       4.104   2.016  -1.190  0.00  0.00     0.031 H 
ATOM     52  H   LIG d   1       4.755   0.401  -0.822  0.00  0.00     0.031 H 
ENDBRANCH  46  49
ENDBRANCH   1  42
TORSDOF 7
ENDMDL
MODEL 4
REMARK VINA RESULT:      -6.4      2.139      2.593
REMARK  7 active torsions:
REMARK  status: ('A' for Active; 'I' for Inactive)
REMARK    1  A    between atoms: C_1  and  C_2 
REMARK    2  A    between atoms: C_5  and  C_7 
REMARK    3  A    between atoms: C_15  and  C_18 
REMARK    4  A    between atoms: C_18  and  N_19 
REMARK    5  A    between atoms: N_22  and  C_25 
REMARK    6  A    between atoms: C_25  and  C_26 
REMARK    7  A    between atoms: C_26  and  O_27 
ROOT
ATOM      1  C   LIG d   1       2.417   0.793  -7.235  0.00  0.00     0.027 C 
ATOM      2  C   LIG d   1       3.144   0.219  -6.232  0.00  0.00     0.179 A 
ATOM      3  C   LIG d   1       2.655  -0.124  -4.943  0.00  0.00     0.232 A 
ATOM      4  O   LIG d   1       1.524   0.032  -4.514  0.00  0.00    -0.283 OA
ATOM      5  C   LIG d   1       3.808  -0.708  -4.236  0.00  0.00     0.068 A 
ATOM      6  C   LIG d   1       3.985  -1.231  -2.956  0.00  0.00    -0.048 A 
ATOM      7  C   LIG d   1       5.208  -1.712  -2.580  0.00  0.00    -0.068 A 
ATOM      8  C   LIG d   1       6.278  -1.678  -3.471  0.00  0.00    -0.097 A 
ATOM      9  C   LIG d   1       6.117  -1.160  -4.746  0.00  0.00     0.032 A 
ATOM     10  C   LIG d   1       4.881  -0.669  -5.143  0.00  0.00     0.147 A 
ATOM     11  O   LIG d   1       4.452  -0.126  -6.302  0.00  0.00    -0.451 OA
ATOM     12  O   LIG d   1       7.488  -2.157  -3.087  0.00  0.00    -0.873 OA
ATOM     13  H   LIG d   1       1.375   1.030  -7.078  0.00  0.00     0.069 H 
ATOM     14  H   LIG d   1       3.157  -1.259  -2.263  0.00  0.00     0.063 H 
ATOM     15  H   LIG d   1       5.345  -2.117  -1.589  0.00  0.00     0.061 H 
ENDROOT
BRANCH   9  16
ATOM     16  C   LIG d   1       7.283  -1.129  -5.700  0.00  0.00    -0.003 C 
ATOM     17  H   LIG d   1       8.181  -1.476  -5.187  0.00  0.00     0.087 H 
ATOM     18  H   LIG d   1       7.076  -1.781  -6.549  0.00  0.00     0.087 H 
BRANCH  16  19
ATOM     19  N   LIG d   1       7.491   0.245  -6.176  0.00  0.00     0.240 N 
ATOM     20  C   LIG d   1       7.761   0.227  -7.619  0.00  0.00    -0.018 C 
ATOM     21  C   LIG d   1       7.958   1.660  -8.118  0.00  0.00     0.039 C 
ATOM     22  H   LIG d   1       8.664  -0.353  -7.813  0.00  0.00     0.083 H 
ATOM     23  H   LIG d   1       6.919  -0.226  -8.141  0.00  0.00     0.083 H 
ATOM     24  N   LIG d   1       9.083   2.276  -7.400  0.00  0.00    -0.290 N 
ATOM     25  H   LIG d   1       7.052   2.237  -7.938  0.00  0.00     0.048 H 
ATOM     26  H   LIG d   1       8.174   1.647  -9.187  0.00  0.00     0.048 H 
ATOM     27  C   LIG d   1       8.837   2.279  -5.951  0.00  0.00     0.039 C 
ATOM     28  C   LIG d   1       8.633   0.840  -5.469  0.00  0.00    -0.018 C 
ATOM     29  H   LIG d   1       7.945   2.865  -5.734  0.00  0.00     0.048 H 
ATOM     30  H   LIG d   1       9.694   2.715  -5.438  0.00  0.00     0.048 H 
ATOM     31  H   LIG d   1       8.437   0.841  -4.397  0.00  0.00     0.083 H 
ATOM     32  H   LIG d   1       9.530   0.257  -5.674  0.00  0.00     0.083 H 
ATOM     33  H   LIG d   1       6.662   0.792  -5.996  0.00  0.00     0.204 HD
BRANCH  24  34
ATOM     34  C   LIG d   1       9.341   3.636  -7.892  0.00  0.00     0.022 C 
ATOM     35  H   LIG d   1       8.689   4.340  -7.375  0.00  0.00     0.045 H 
ATOM     36  H   LIG d   1      10.382   3.900  -7.701  0.00  0.00     0.045 H 
BRANCH  34  37
ATOM     37  C   LIG d   1       9.067   3.695  -9.395  0.00  0.00     0.057 C 
ATOM     38  H   LIG d   1      10.008   3.821  -9.931  0.00  0.00     0.057 H 
ATOM     39  H   LIG d   1       8.589   2.769  -9.713  0.00  0.00     0.057 H 
BRANCH  37  40
ATOM     40  O   LIG d   1       8.205   4.799  -9.679  0.00  0.00    -0.394 OA
ATOM     41  H   LIG d   1       8.603   5.471 -10.251  0.00  0.00     0.209 HD
ENDBRANCH  37  40
ENDBRANCH  34  37
ENDBRANCH  24  34
ENDBRANCH  16  19
ENDBRANCH   9  16
BRANCH   1  42
ATOM     42  C   LIG d   1       3.028   1.079  -8.477  0.00  0.00     0.132 A 
ATOM     43  C   LIG d   1       3.500   2.311  -8.888  0.00  0.00    -0.016 A 
ATOM     44  C   LIG d   1       4.019   2.127 -10.178  0.00  0.00    -0.020 A 
ATOM     45  H   LIG d   1       3.474   3.233  -8.327  0.00  0.00     0.066 H 
ATOM     46  C   LIG d   1       3.849   0.825 -10.497  0.00  0.00     0.103 A 
ATOM     47  H   LIG d   1       4.471   2.886 -10.800  0.00  0.00     0.065 H 
ATOM     48  O   LIG d   1       3.249   0.198  -9.475  0.00  0.00    -0.461 OA
BRANCH  46  49
ATOM     49  C   LIG d   1       4.261   0.182 -11.796  0.00  0.00    -0.006 C 
ATOM     50  H   LIG d   1       5.307   0.414 -12.000  0.00  0.00     0.031 H 
ATOM     51  H   LIG d   1       4.137  -0.898 -11.722  0.00  0.00     0.031 H 
ATOM     52  H   LIG d   1       3.639   0.565 -12.605  0.00  0.00     0.031 H 
ENDBRANCH  46  49
ENDBRANCH   1  42
TORSDOF 7
ENDMDL
MODEL 5
REMARK VINA RESULT:      -6.0      3.925      6.138
REMARK  7 active torsions:
REMARK  status: ('A' for Active; 'I' for Inactive)
REMARK    1  A    between atoms: C_1  and  C_2 
REMARK    2  A    between atoms: C_5  and  C_7 
REMARK    3  A    between atoms: C_15  and  C_18 
REMARK    4  A    between atoms: C_18  and  N_19 
REMARK    5  A    between atoms: N_22  and  C_25 
REMARK    6  A    between atoms: C_25  and  C_26 
REMARK    7  A    between atoms: C_26  and  O_27 
ROOT
ATOM      1  C   LIG d   1       6.975  -2.495  -3.792  0.00  0.00     0.027 C 
ATOM      2  C   LIG d   1       7.937  -1.829  -4.495  0.00  0.00     0.179 A 
ATOM      3  C   LIG d   1       9.062  -2.420  -5.129  0.00  0.00     0.232 A 
ATOM      4  O   LIG d   1       9.361  -3.602  -5.156  0.00  0.00    -0.283 OA
ATOM      5  C   LIG d   1       9.790  -1.298  -5.747  0.00  0.00     0.068 A 
ATOM      6  C   LIG d   1      10.960  -1.212  -6.501  0.00  0.00    -0.048 A 
ATOM      7  C   LIG d   1      11.395   0.005  -6.946  0.00  0.00    -0.068 A 
ATOM      8  C   LIG d   1      10.675   1.158  -6.646  0.00  0.00    -0.097 A 
ATOM      9  C   LIG d   1       9.511   1.088  -5.896  0.00  0.00     0.032 A 
ATOM     10  C   LIG d   1       9.056  -0.141  -5.439  0.00  0.00     0.147 A 
ATOM     11  O   LIG d   1       7.975  -0.493  -4.711  0.00  0.00    -0.451 OA
ATOM     12  O   LIG d   1      11.115   2.362  -7.092  0.00  0.00    -0.873 OA
ATOM     13  H   LIG d   1       7.036  -3.567  -3.678  0.00  0.00     0.069 H 
ATOM     14  H   LIG d   1      11.521  -2.105  -6.736  0.00  0.00     0.063 H 
ATOM     15  H   LIG d   1      12.300   0.073  -7.530  0.00  0.00     0.061 H 
ENDROOT
BRANCH   9  16
ATOM     16  C   LIG d   1       8.741   2.344  -5.579  0.00  0.00    -0.003 C 
ATOM     17  H   LIG d   1       8.423   2.819  -6.507  0.00  0.00     0.087 H 
ATOM     18  H   LIG d   1       7.865   2.092  -4.981  0.00  0.00     0.087 H 
BRANCH  16  19
ATOM     19  N   LIG d   1       9.600   3.267  -4.826  0.00  0.00     0.240 N 
ATOM     20  C   LIG d   1       9.464   3.000  -3.388  0.00  0.00    -0.018 C 
ATOM     21  C   LIG d   1      10.374   3.949  -2.605  0.00  0.00     0.039 C 
ATOM     22  H   LIG d   1       8.429   3.156  -3.085  0.00  0.00     0.083 H 
ATOM     23  H   LIG d   1       9.752   1.970  -3.181  0.00  0.00     0.083 H 
ATOM     24  N   LIG d   1       9.996   5.340  -2.900  0.00  0.00    -0.290 N 
ATOM     25  H   LIG d   1      11.410   3.785  -2.897  0.00  0.00     0.048 H 
ATOM     26  H   LIG d   1      10.262   3.761  -1.537  0.00  0.00     0.048 H 
ATOM     27  C   LIG d   1      10.103   5.615  -4.339  0.00  0.00     0.039 C 
ATOM     28  C   LIG d   1       9.196   4.651  -5.109  0.00  0.00    -0.018 C 
ATOM     29  H   LIG d   1      11.136   5.476  -4.661  0.00  0.00     0.048 H 
ATOM     30  H   LIG d   1       9.795   6.641  -4.537  0.00  0.00     0.048 H 
ATOM     31  H   LIG d   1       9.285   4.845  -6.178  0.00  0.00     0.083 H 
ATOM     32  H   LIG d   1       8.162   4.798  -4.797  0.00  0.00     0.083 H 
ATOM     33  H   LIG d   1      10.561   3.134  -5.103  0.00  0.00     0.204 HD
BRANCH  24  34
ATOM     34  C   LIG d   1      10.810   6.283  -2.122  0.00  0.00     0.022 C 
ATOM     35  H   LIG d   1      11.674   5.762  -1.708  0.00  0.00     0.045 H 
ATOM     36  H   LIG d   1      11.151   7.090  -2.770  0.00  0.00     0.045 H 
BRANCH  34  37
ATOM     37  C   LIG d   1       9.970   6.863  -0.983  0.00  0.00     0.057 C 
ATOM     38  H   LIG d   1       9.749   6.078  -0.259  0.00  0.00     0.057 H 
ATOM     39  H   LIG d   1      10.525   7.664  -0.494  0.00  0.00     0.057 H 
BRANCH  37  40
ATOM     40  O   LIG d   1       8.748   7.383  -1.510  0.00  0.00    -0.394 OA
ATOM     41  H   LIG d   1       8.870   8.056  -2.194  0.00  0.00     0.209 HD
ENDBRANCH  37  40
ENDBRANCH  34  37
ENDBRANCH  24  34
ENDBRANCH  16  19
ENDBRANCH   9  16
BRANCH   1  42
ATOM     42  C   LIG d   1       5.901  -1.783  -3.213  0.00  0.00     0.132 A 
ATOM     43  C   LIG d   1       4.619  -2.260  -3.017  0.00  0.00    -0.016 A 
ATOM     44  C   LIG d   1       3.894  -1.219  -2.418  0.00  0.00    -0.020 A 
ATOM     45  H   LIG d   1       4.249  -3.242  -3.273  0.00  0.00     0.066 H 
ATOM     46  C   LIG d   1       4.739  -0.173  -2.276  0.00  0.00     0.103 A 
ATOM     47  H   LIG d   1       2.855  -1.248  -2.126  0.00  0.00     0.065 H 
ATOM     48  O   LIG d   1       5.942  -0.512  -2.759  0.00  0.00    -0.461 OA
BRANCH  46  49
ATOM     49  C   LIG d   1       4.382   1.163  -1.677  0.00  0.00    -0.006 C 
ATOM     50  H   LIG d   1       4.388   1.086  -0.589  0.00  0.00     0.031 H 
ATOM     51  H   LIG d   1       5.111   1.909  -1.992  0.00  0.00     0.031 H 
ATOM     52  H   LIG d   1       3.389   1.460  -2.015  0.00  0.00     0.031 H 
ENDBRANCH  46  49
ENDBRANCH   1  42
TORSDOF 7
ENDMDL
MODEL 6
REMARK VINA RESULT:      -6.0      3.179      7.303
REMARK  7 active torsions:
REMARK  status: ('A' for Active; 'I' for Inactive)
REMARK    1  A    between atoms: C_1  and  C_2 
REMARK    2  A    between atoms: C_5  and  C_7 
REMARK    3  A    between atoms: C_15  and  C_18 
REMARK    4  A    between atoms: C_18  and  N_19 
REMARK    5  A    between atoms: N_22  and  C_25 
REMARK    6  A    between atoms: C_25  and  C_26 
REMARK    7  A    between atoms: C_26  and  O_27 
ROOT
ATOM      1  C   LIG d   1       7.285   1.380  -3.202  0.00  0.00     0.027 C 
ATOM      2  C   LIG d   1       7.807   1.711  -4.418  0.00  0.00     0.179 A 
ATOM      3  C   LIG d   1       8.993   2.462  -4.636  0.00  0.00     0.232 A 
ATOM      4  O   LIG d   1       9.737   2.935  -3.793  0.00  0.00    -0.283 OA
ATOM      5  C   LIG d   1       9.131   2.548  -6.101  0.00  0.00     0.068 A 
ATOM      6  C   LIG d   1      10.069   3.143  -6.944  0.00  0.00    -0.048 A 
ATOM      7  C   LIG d   1       9.922   3.049  -8.299  0.00  0.00    -0.068 A 
ATOM      8  C   LIG d   1       8.839   2.362  -8.840  0.00  0.00    -0.097 A 
ATOM      9  C   LIG d   1       7.899   1.766  -8.015  0.00  0.00     0.032 A 
ATOM     10  C   LIG d   1       8.034   1.852  -6.636  0.00  0.00     0.147 A 
ATOM     11  O   LIG d   1       7.286   1.371  -5.621  0.00  0.00    -0.451 OA
ATOM     12  O   LIG d   1       8.703   2.274 -10.188  0.00  0.00    -0.873 OA
ATOM     13  H   LIG d   1       7.781   1.701  -2.297  0.00  0.00     0.069 H 
ATOM     14  H   LIG d   1      10.910   3.678  -6.527  0.00  0.00     0.063 H 
ATOM     15  H   LIG d   1      10.648   3.510  -8.952  0.00  0.00     0.061 H 
ENDROOT
BRANCH   9  16
ATOM     16  C   LIG d   1       6.731   1.026  -8.613  0.00  0.00    -0.003 C 
ATOM     17  H   LIG d   1       5.848   1.667  -8.598  0.00  0.00     0.087 H 
ATOM     18  H   LIG d   1       6.962   0.752  -9.643  0.00  0.00     0.087 H 
BRANCH  16  19
ATOM     19  N   LIG d   1       6.467  -0.189  -7.831  0.00  0.00     0.240 N 
ATOM     20  C   LIG d   1       7.180  -1.323  -8.433  0.00  0.00    -0.018 C 
ATOM     21  C   LIG d   1       6.921  -2.585  -7.606  0.00  0.00     0.039 C 
ATOM     22  H   LIG d   1       6.825  -1.477  -9.452  0.00  0.00     0.083 H 
ATOM     23  H   LIG d   1       8.249  -1.113  -8.449  0.00  0.00     0.083 H 
ATOM     24  N   LIG d   1       5.476  -2.856  -7.570  0.00  0.00    -0.290 N 
ATOM     25  H   LIG d   1       7.288  -2.437  -6.591  0.00  0.00     0.048 H 
ATOM     26  H   LIG d   1       7.437  -3.430  -8.061  0.00  0.00     0.048 H 
ATOM     27  C   LIG d   1       4.747  -1.718  -6.993  0.00  0.00     0.039 C 
ATOM     28  C   LIG d   1       5.024  -0.463  -7.825  0.00  0.00    -0.018 C 
ATOM     29  H   LIG d   1       5.079  -1.555  -5.968  0.00  0.00     0.048 H 
ATOM     30  H   LIG d   1       3.678  -1.930  -7.000  0.00  0.00     0.048 H 
ATOM     31  H   LIG d   1       4.495   0.385  -7.389  0.00  0.00     0.083 H 
ATOM     32  H   LIG d   1       4.680  -0.621  -8.846  0.00  0.00     0.083 H 
ATOM     33  H   LIG d   1       6.788  -0.055  -6.884  0.00  0.00     0.204 HD
BRANCH  24  34
ATOM     34  C   LIG d   1       5.190  -4.093  -6.832  0.00  0.00     0.022 C 
ATOM     35  H   LIG d   1       5.996  -4.808  -6.997  0.00  0.00     0.045 H 
ATOM     36  H   LIG d   1       5.114  -3.872  -5.768  0.00  0.00     0.045 H 
BRANCH  34  37
ATOM     37  C   LIG d   1       3.871  -4.688  -7.327  0.00  0.00     0.057 C 
ATOM     38  H   LIG d   1       3.305  -3.923  -7.859  0.00  0.00     0.057 H 
ATOM     39  H   LIG d   1       4.078  -5.522  -7.998  0.00  0.00     0.057 H 
BRANCH  37  40
ATOM     40  O   LIG d   1       3.110  -5.153  -6.210  0.00  0.00    -0.394 OA
ATOM     41  H   LIG d   1       2.184  -4.874  -6.222  0.00  0.00     0.209 HD
ENDBRANCH  37  40
ENDBRANCH  34  37
ENDBRANCH  24  34
ENDBRANCH  16  19
ENDBRANCH   9  16
BRANCH   1  42
ATOM     42  C   LIG d   1       6.096   0.620  -3.125  0.00  0.00     0.132 A 
ATOM     43  C   LIG d   1       4.842   1.100  -2.800  0.00  0.00    -0.016 A 
ATOM     44  C   LIG d   1       3.971   0.001  -2.847  0.00  0.00    -0.020 A 
ATOM     45  H   LIG d   1       4.583   2.120  -2.559  0.00  0.00     0.066 H 
ATOM     46  C   LIG d   1       4.708  -1.080  -3.189  0.00  0.00     0.103 A 
ATOM     47  H   LIG d   1       2.910   0.017  -2.646  0.00  0.00     0.065 H 
ATOM     48  O   LIG d   1       5.985  -0.706  -3.351  0.00  0.00    -0.461 OA
BRANCH  46  49
ATOM     49  C   LIG d   1       4.179  -2.481  -3.355  0.00  0.00    -0.006 C 
ATOM     50  H   LIG d   1       3.166  -2.441  -3.756  0.00  0.00     0.031 H 
ATOM     51  H   LIG d   1       4.820  -3.032  -4.042  0.00  0.00     0.031 H 
ATOM     52  H   LIG d   1       4.167  -2.982  -2.387  0.00  0.00     0.031 H 
ENDBRANCH  46  49
ENDBRANCH   1  42
TORSDOF 7
ENDMDL
MODEL 7
REMARK VINA RESULT:      -5.9      2.832      6.361
REMARK  7 active torsions:
REMARK  status: ('A' for Active; 'I' for Inactive)
REMARK    1  A    between atoms: C_1  and  C_2 
REMARK    2  A    between atoms: C_5  and  C_7 
REMARK    3  A    between atoms: C_15  and  C_18 
REMARK    4  A    between atoms: C_18  and  N_19 
REMARK    5  A    between atoms: N_22  and  C_25 
REMARK    6  A    between atoms: C_25  and  C_26 
REMARK    7  A    between atoms: C_26  and  O_27 
ROOT
ATOM      1  C   LIG d   1       8.849   0.824  -5.862  0.00  0.00     0.027 C 
ATOM      2  C   LIG d   1       7.727   0.715  -5.093  0.00  0.00     0.179 A 
ATOM      3  C   LIG d   1       7.483   1.410  -3.878  0.00  0.00     0.232 A 
ATOM      4  O   LIG d   1       8.217   2.207  -3.320  0.00  0.00    -0.283 OA
ATOM      5  C   LIG d   1       6.151   0.958  -3.437  0.00  0.00     0.068 A 
ATOM      6  C   LIG d   1       5.351   1.258  -2.335  0.00  0.00    -0.048 A 
ATOM      7  C   LIG d   1       4.130   0.661  -2.198  0.00  0.00    -0.068 A 
ATOM      8  C   LIG d   1       3.683  -0.248  -3.153  0.00  0.00    -0.097 A 
ATOM      9  C   LIG d   1       4.468  -0.556  -4.253  0.00  0.00     0.032 A 
ATOM     10  C   LIG d   1       5.710   0.042  -4.408  0.00  0.00     0.147 A 
ATOM     11  O   LIG d   1       6.656  -0.068  -5.364  0.00  0.00    -0.451 OA
ATOM     12  O   LIG d   1       2.468  -0.835  -3.007  0.00  0.00    -0.873 OA
ATOM     13  H   LIG d   1       9.651   1.480  -5.557  0.00  0.00     0.069 H 
ATOM     14  H   LIG d   1       5.696   1.963  -1.592  0.00  0.00     0.063 H 
ATOM     15  H   LIG d   1       3.510   0.894  -1.344  0.00  0.00     0.061 H 
ENDROOT
BRANCH   9  16
ATOM     16  C   LIG d   1       3.972  -1.542  -5.280  0.00  0.00    -0.003 C 
ATOM     17  H   LIG d   1       4.619  -2.420  -5.281  0.00  0.00     0.087 H 
ATOM     18  H   LIG d   1       2.954  -1.842  -5.034  0.00  0.00     0.087 H 
BRANCH  16  19
ATOM     19  N   LIG d   1       3.992  -0.917  -6.609  0.00  0.00     0.240 N 
ATOM     20  C   LIG d   1       2.793  -0.085  -6.776  0.00  0.00    -0.018 C 
ATOM     21  C   LIG d   1       2.823   0.582  -8.153  0.00  0.00     0.039 C 
ATOM     22  H   LIG d   1       1.902  -0.709  -6.693  0.00  0.00     0.083 H 
ATOM     23  H   LIG d   1       2.772   0.682  -6.002  0.00  0.00     0.083 H 
ATOM     24  N   LIG d   1       2.870  -0.454  -9.195  0.00  0.00    -0.290 N 
ATOM     25  H   LIG d   1       3.705   1.216  -8.231  0.00  0.00     0.048 H 
ATOM     26  H   LIG d   1       1.926   1.187  -8.283  0.00  0.00     0.048 H 
ATOM     27  C   LIG d   1       4.052  -1.311  -9.026  0.00  0.00     0.039 C 
ATOM     28  C   LIG d   1       4.012  -1.962  -7.641  0.00  0.00    -0.018 C 
ATOM     29  H   LIG d   1       4.955  -0.708  -9.117  0.00  0.00     0.048 H 
ATOM     30  H   LIG d   1       4.052  -2.086  -9.792  0.00  0.00     0.048 H 
ATOM     31  H   LIG d   1       4.895  -2.587  -7.508  0.00  0.00     0.083 H 
ATOM     32  H   LIG d   1       3.116  -2.576  -7.553  0.00  0.00     0.083 H 
ATOM     33  H   LIG d   1       4.815  -0.341  -6.697  0.00  0.00     0.204 HD
BRANCH  24  34
ATOM     34  C   LIG d   1       2.842   0.145 -10.536  0.00  0.00     0.022 C 
ATOM     35  H   LIG d   1       2.615  -0.624 -11.273  0.00  0.00     0.045 H 
ATOM     36  H   LIG d   1       2.075   0.919 -10.572  0.00  0.00     0.045 H 
BRANCH  34  37
ATOM     37  C   LIG d   1       4.207   0.763 -10.845  0.00  0.00     0.057 C 
ATOM     38  H   LIG d   1       4.115   1.850 -10.875  0.00  0.00     0.057 H 
ATOM     39  H   LIG d   1       4.919   0.479 -10.071  0.00  0.00     0.057 H 
BRANCH  37  40
ATOM     40  O   LIG d   1       4.667   0.290 -12.113  0.00  0.00    -0.394 OA
ATOM     41  H   LIG d   1       5.629   0.204 -12.174  0.00  0.00     0.209 HD
ENDBRANCH  37  40
ENDBRANCH  34  37
ENDBRANCH  24  34
ENDBRANCH  16  19
ENDBRANCH   9  16
BRANCH   1  42
ATOM     42  C   LIG d   1       8.963   0.077  -7.057  0.00  0.00     0.132 A 
ATOM     43  C   LIG d   1       8.750   0.551  -8.337  0.00  0.00    -0.016 A 
ATOM     44  C   LIG d   1       8.974  -0.529  -9.203  0.00  0.00    -0.020 A 
ATOM     45  H   LIG d   1       8.468   1.556  -8.616  0.00  0.00     0.066 H 
ATOM     46  C   LIG d   1       9.305  -1.594  -8.439  0.00  0.00     0.103 A 
ATOM     47  H   LIG d   1       8.895  -0.513 -10.281  0.00  0.00     0.065 H 
ATOM     48  O   LIG d   1       9.294  -1.228  -7.149  0.00  0.00    -0.461 OA
BRANCH  46  49
ATOM     49  C   LIG d   1       9.631  -2.972  -8.954  0.00  0.00    -0.006 C 
ATOM     50  H   LIG d   1       9.119  -3.135  -9.903  0.00  0.00     0.031 H 
ATOM     51  H   LIG d   1      10.707  -3.061  -9.102  0.00  0.00     0.031 H 
ATOM     52  H   LIG d   1       9.301  -3.718  -8.230  0.00  0.00     0.031 H 
ENDBRANCH  46  49
ENDBRANCH   1  42
TORSDOF 7
ENDMDL
MODEL 8
REMARK VINA RESULT:      -5.8      4.058      6.526
REMARK  7 active torsions:
REMARK  status: ('A' for Active; 'I' for Inactive)
REMARK    1  A    between atoms: C_1  and  C_2 
REMARK    2  A    between atoms: C_5  and  C_7 
REMARK    3  A    between atoms: C_15  and  C_18 
REMARK    4  A    between atoms: C_18  and  N_19 
REMARK    5  A    between atoms: N_22  and  C_25 
REMARK    6  A    between atoms: C_25  and  C_26 
REMARK    7  A    between atoms: C_26  and  O_27 
ROOT
ATOM      1  C   LIG d   1       7.890   1.936  -3.864  0.00  0.00     0.027 C 
ATOM      2  C   LIG d   1       7.027   0.886  -3.748  0.00  0.00     0.179 A 
ATOM      3  C   LIG d   1       5.852   0.861  -2.948  0.00  0.00     0.232 A 
ATOM      4  O   LIG d   1       5.420   1.754  -2.239  0.00  0.00    -0.283 OA
ATOM      5  C   LIG d   1       5.270  -0.476  -3.159  0.00  0.00     0.068 A 
ATOM      6  C   LIG d   1       4.135  -1.118  -2.667  0.00  0.00    -0.048 A 
ATOM      7  C   LIG d   1       3.852  -2.396  -3.057  0.00  0.00    -0.068 A 
ATOM      8  C   LIG d   1       4.695  -3.060  -3.944  0.00  0.00    -0.097 A 
ATOM      9  C   LIG d   1       5.828  -2.435  -4.441  0.00  0.00     0.032 A 
ATOM     10  C   LIG d   1       6.128  -1.137  -4.054  0.00  0.00     0.147 A 
ATOM     11  O   LIG d   1       7.140  -0.306  -4.381  0.00  0.00    -0.451 OA
ATOM     12  O   LIG d   1       4.405  -4.330  -4.326  0.00  0.00    -0.873 OA
ATOM     13  H   LIG d   1       7.708   2.847  -3.314  0.00  0.00     0.069 H 
ATOM     14  H   LIG d   1       3.478  -0.605  -1.978  0.00  0.00     0.063 H 
ATOM     15  H   LIG d   1       2.972  -2.893  -2.676  0.00  0.00     0.061 H 
ENDROOT
BRANCH   9  16
ATOM     16  C   LIG d   1       6.732  -3.166  -5.400  0.00  0.00    -0.003 C 
ATOM     17  H   LIG d   1       6.146  -3.534  -6.243  0.00  0.00     0.087 H 
ATOM     18  H   LIG d   1       7.502  -2.485  -5.763  0.00  0.00     0.087 H 
BRANCH  16  19
ATOM     19  N   LIG d   1       7.364  -4.299  -4.711  0.00  0.00     0.240 N 
ATOM     20  C   LIG d   1       8.655  -3.875  -4.154  0.00  0.00    -0.018 C 
ATOM     21  C   LIG d   1       9.304  -5.050  -3.420  0.00  0.00     0.039 C 
ATOM     22  H   LIG d   1       9.309  -3.544  -4.961  0.00  0.00     0.083 H 
ATOM     23  H   LIG d   1       8.497  -3.053  -3.455  0.00  0.00     0.083 H 
ATOM     24  N   LIG d   1       9.499  -6.164  -4.359  0.00  0.00    -0.290 N 
ATOM     25  H   LIG d   1       8.658  -5.372  -2.604  0.00  0.00     0.048 H 
ATOM     26  H   LIG d   1      10.269  -4.740  -3.019  0.00  0.00     0.048 H 
ATOM     27  C   LIG d   1       8.218  -6.583  -4.944  0.00  0.00     0.039 C 
ATOM     28  C   LIG d   1       7.577  -5.395  -5.666  0.00  0.00    -0.018 C 
ATOM     29  H   LIG d   1       7.552  -6.929  -4.153  0.00  0.00     0.048 H 
ATOM     30  H   LIG d   1       8.390  -7.390  -5.655  0.00  0.00     0.048 H 
ATOM     31  H   LIG d   1       6.620  -5.700  -6.089  0.00  0.00     0.083 H 
ATOM     32  H   LIG d   1       8.236  -5.056  -6.465  0.00  0.00     0.083 H 
ATOM     33  H   LIG d   1       6.763  -4.615  -3.965  0.00  0.00     0.204 HD
BRANCH  24  34
ATOM     34  C   LIG d   1      10.173  -7.293  -3.705  0.00  0.00     0.022 C 
ATOM     35  H   LIG d   1      10.754  -7.847  -4.443  0.00  0.00     0.045 H 
ATOM     36  H   LIG d   1      10.839  -6.918  -2.927  0.00  0.00     0.045 H 
BRANCH  34  37
ATOM     37  C   LIG d   1       9.128  -8.218  -3.080  0.00  0.00     0.057 C 
ATOM     38  H   LIG d   1       8.147  -7.994  -3.501  0.00  0.00     0.057 H 
ATOM     39  H   LIG d   1       9.387  -9.255  -3.292  0.00  0.00     0.057 H 
BRANCH  37  40
ATOM     40  O   LIG d   1       9.096  -8.014  -1.666  0.00  0.00    -0.394 OA
ATOM     41  H   LIG d   1       9.970  -7.903  -1.265  0.00  0.00     0.209 HD
ENDBRANCH  37  40
ENDBRANCH  34  37
ENDBRANCH  24  34
ENDBRANCH  16  19
ENDBRANCH   9  16
BRANCH   1  42
ATOM     42  C   LIG d   1       9.023   1.830  -4.703  0.00  0.00     0.132 A 
ATOM     43  C   LIG d   1       9.128   2.309  -5.994  0.00  0.00    -0.016 A 
ATOM     44  C   LIG d   1      10.418   1.982  -6.437  0.00  0.00    -0.020 A 
ATOM     45  H   LIG d   1       8.367   2.834  -6.553  0.00  0.00     0.066 H 
ATOM     46  C   LIG d   1      11.035   1.331  -5.425  0.00  0.00     0.103 A 
ATOM     47  H   LIG d   1      10.839   2.208  -7.406  0.00  0.00     0.065 H 
ATOM     48  O   LIG d   1      10.194   1.237  -4.386  0.00  0.00    -0.461 OA
BRANCH  46  49
ATOM     49  C   LIG d   1      12.442   0.793  -5.462  0.00  0.00    -0.006 C 
ATOM     50  H   LIG d   1      12.514  -0.080  -4.813  0.00  0.00     0.031 H 
ATOM     51  H   LIG d   1      12.696   0.508  -6.483  0.00  0.00     0.031 H 
ATOM     52  H   LIG d   1      13.135   1.561  -5.116  0.00  0.00     0.031 H 
ENDBRANCH  46  49
ENDBRANCH   1  42
TORSDOF 7
ENDMDL
MODEL 9
REMARK VINA RESULT:      -5.7      8.356     12.042
REMARK  7 active torsions:
REMARK  status: ('A' for Active; 'I' for Inactive)
REMARK    1  A    between atoms: C_1  and  C_2 
REMARK    2  A    between atoms: C_5  and  C_7 
REMARK    3  A    between atoms: C_15  and  C_18 
REMARK    4  A    between atoms: C_18  and  N_19 
REMARK    5  A    between atoms: N_22  and  C_25 
REMARK    6  A    between atoms: C_25  and  C_26 
REMARK    7  A    between atoms: C_26  and  O_27 
ROOT
ATOM      1  C   LIG d   1      11.528   6.452  -2.258  0.00  0.00     0.027 C 
ATOM      2  C   LIG d   1      11.566   7.497  -1.382  0.00  0.00     0.179 A 
ATOM      3  C   LIG d   1      12.347   7.560  -0.196  0.00  0.00     0.232 A 
ATOM      4  O   LIG d   1      13.103   6.708   0.239  0.00  0.00    -0.283 OA
ATOM      5  C   LIG d   1      12.045   8.875   0.395  0.00  0.00     0.068 A 
ATOM      6  C   LIG d   1      12.478   9.534   1.545  0.00  0.00    -0.048 A 
ATOM      7  C   LIG d   1      12.005  10.782   1.834  0.00  0.00    -0.068 A 
ATOM      8  C   LIG d   1      11.089  11.398   0.985  0.00  0.00    -0.097 A 
ATOM      9  C   LIG d   1      10.649  10.756  -0.161  0.00  0.00     0.032 A 
ATOM     10  C   LIG d   1      11.121   9.488  -0.469  0.00  0.00     0.147 A 
ATOM     11  O   LIG d   1      10.871   8.653  -1.500  0.00  0.00    -0.451 OA
ATOM     12  O   LIG d   1      10.625  12.639   1.282  0.00  0.00    -0.873 OA
ATOM     13  H   LIG d   1      12.124   5.570  -2.072  0.00  0.00     0.069 H 
ATOM     14  H   LIG d   1      13.188   9.058   2.206  0.00  0.00     0.063 H 
ATOM     15  H   LIG d   1      12.340  11.292   2.725  0.00  0.00     0.061 H 
ENDROOT
BRANCH   9  16
ATOM     16  C   LIG d   1       9.658  11.433  -1.072  0.00  0.00    -0.003 C 
ATOM     17  H   LIG d   1       8.672  10.989  -0.930  0.00  0.00     0.087 H 
ATOM     18  H   LIG d   1       9.613  12.496  -0.834  0.00  0.00     0.087 H 
BRANCH  16  19
ATOM     19  N   LIG d   1      10.077  11.260  -2.469  0.00  0.00     0.240 N 
ATOM     20  C   LIG d   1      10.978  12.356  -2.849  0.00  0.00    -0.018 C 
ATOM     21  C   LIG d   1      11.430  12.164  -4.298  0.00  0.00     0.039 C 
ATOM     22  H   LIG d   1      10.454  13.307  -2.754  0.00  0.00     0.083 H 
ATOM     23  H   LIG d   1      11.849  12.354  -2.194  0.00  0.00     0.083 H 
ATOM     24  N   LIG d   1      10.252  12.148  -5.178  0.00  0.00    -0.290 N 
ATOM     25  H   LIG d   1      11.966  11.220  -4.391  0.00  0.00     0.048 H 
ATOM     26  H   LIG d   1      12.086  12.986  -4.586  0.00  0.00     0.048 H 
ATOM     27  C   LIG d   1       9.329  11.071  -4.794  0.00  0.00     0.039 C 
ATOM     28  C   LIG d   1       8.894  11.272  -3.339  0.00  0.00    -0.018 C 
ATOM     29  H   LIG d   1       9.830  10.109  -4.893  0.00  0.00     0.048 H 
ATOM     30  H   LIG d   1       8.453  11.095  -5.441  0.00  0.00     0.048 H 
ATOM     31  H   LIG d   1       8.220  10.466  -3.048  0.00  0.00     0.083 H 
ATOM     32  H   LIG d   1       8.381  12.228  -3.242  0.00  0.00     0.083 H 
ATOM     33  H   LIG d   1      10.559  10.379  -2.568  0.00  0.00     0.204 HD
BRANCH  24  34
ATOM     34  C   LIG d   1      10.649  12.023  -6.587  0.00  0.00     0.022 C 
ATOM     35  H   LIG d   1      11.736  12.030  -6.660  0.00  0.00     0.045 H 
ATOM     36  H   LIG d   1      10.264  11.086  -6.991  0.00  0.00     0.045 H 
BRANCH  34  37
ATOM     37  C   LIG d   1      10.075  13.196  -7.384  0.00  0.00     0.057 C 
ATOM     38  H   LIG d   1       9.915  14.044  -6.718  0.00  0.00     0.057 H 
ATOM     39  H   LIG d   1      10.776  13.477  -8.170  0.00  0.00     0.057 H 
BRANCH  37  40
ATOM     40  O   LIG d   1       8.831  12.810  -7.970  0.00  0.00    -0.394 OA
ATOM     41  H   LIG d   1       8.806  12.898  -8.934  0.00  0.00     0.209 HD
ENDBRANCH  37  40
ENDBRANCH  34  37
ENDBRANCH  24  34
ENDBRANCH  16  19
ENDBRANCH   9  16
BRANCH   1  42
ATOM     42  C   LIG d   1      10.709   6.521  -3.407  0.00  0.00     0.132 A 
ATOM     43  C   LIG d   1       9.585   5.756  -3.654  0.00  0.00    -0.016 A 
ATOM     44  C   LIG d   1       9.095   6.161  -4.904  0.00  0.00    -0.020 A 
ATOM     45  H   LIG d   1       9.166   4.997  -3.010  0.00  0.00     0.066 H 
ATOM     46  C   LIG d   1       9.917   7.131  -5.362  0.00  0.00     0.103 A 
ATOM     47  H   LIG d   1       8.223   5.768  -5.407  0.00  0.00     0.065 H 
ATOM     48  O   LIG d   1      10.888   7.343  -4.463  0.00  0.00    -0.461 OA
BRANCH  46  49
ATOM     49  C   LIG d   1       9.768   7.855  -6.675  0.00  0.00    -0.006 C 
ATOM     50  H   LIG d   1      10.736   7.905  -7.174  0.00  0.00     0.031 H 
ATOM     51  H   LIG d   1       9.060   7.320  -7.307  0.00  0.00     0.031 H 
ATOM     52  H   LIG d   1       9.400   8.866  -6.493  0.00  0.00     0.031 H 
ENDBRANCH  46  49
ENDBRANCH   1  42
TORSDOF 7
ENDMDL
MODEL 10
REMARK VINA RESULT:      -5.6      3.453      7.937
REMARK  7 active torsions:
REMARK  status: ('A' for Active; 'I' for Inactive)
REMARK    1  A    between atoms: C_1  and  C_2 
REMARK    2  A    between atoms: C_5  and  C_7 
REMARK    3  A    between atoms: C_15  and  C_18 
REMARK    4  A    between atoms: C_18  and  N_19 
REMARK    5  A    between atoms: N_22  and  C_25 
REMARK    6  A    between atoms: C_25  and  C_26 
REMARK    7  A    between atoms: C_26  and  O_27 
ROOT
ATOM      1  C   LIG d   1       7.097  -2.113  -3.575  0.00  0.00     0.027 C 
ATOM      2  C   LIG d   1       7.576  -1.803  -4.814  0.00  0.00     0.179 A 
ATOM      3  C   LIG d   1       8.753  -2.335  -5.407  0.00  0.00     0.232 A 
ATOM      4  O   LIG d   1       9.526  -3.143  -4.922  0.00  0.00    -0.283 OA
ATOM      5  C   LIG d   1       8.838  -1.698  -6.733  0.00  0.00     0.068 A 
ATOM      6  C   LIG d   1       9.746  -1.792  -7.787  0.00  0.00    -0.048 A 
ATOM      7  C   LIG d   1       9.552  -1.056  -8.921  0.00  0.00    -0.068 A 
ATOM      8  C   LIG d   1       8.450  -0.211  -9.027  0.00  0.00    -0.097 A 
ATOM      9  C   LIG d   1       7.540  -0.106  -7.987  0.00  0.00     0.032 A 
ATOM     10  C   LIG d   1       7.723  -0.848  -6.829  0.00  0.00     0.147 A 
ATOM     11  O   LIG d   1       7.005  -0.942  -5.690  0.00  0.00    -0.451 OA
ATOM     12  O   LIG d   1       8.266   0.517 -10.158  0.00  0.00    -0.873 OA
ATOM     13  H   LIG d   1       7.629  -2.817  -2.951  0.00  0.00     0.069 H 
ATOM     14  H   LIG d   1      10.602  -2.447  -7.708  0.00  0.00     0.063 H 
ATOM     15  H   LIG d   1      10.255  -1.129  -9.738  0.00  0.00     0.061 H 
ENDROOT
BRANCH   9  16
ATOM     16  C   LIG d   1       6.353   0.813  -8.115  0.00  0.00    -0.003 C 
ATOM     17  H   LIG d   1       5.996   1.085  -7.120  0.00  0.00     0.087 H 
ATOM     18  H   LIG d   1       6.646   1.713  -8.654  0.00  0.00     0.087 H 
BRANCH  16  19
ATOM     19  N   LIG d   1       5.280   0.128  -8.848  0.00  0.00     0.240 N 
ATOM     20  C   LIG d   1       4.649   1.069  -9.783  0.00  0.00    -0.018 C 
ATOM     21  C   LIG d   1       3.545   0.351 -10.561  0.00  0.00     0.039 C 
ATOM     22  H   LIG d   1       4.219   1.902  -9.227  0.00  0.00     0.083 H 
ATOM     23  H   LIG d   1       5.397   1.446 -10.480  0.00  0.00     0.083 H 
ATOM     24  N   LIG d   1       2.545  -0.172  -9.618  0.00  0.00    -0.290 N 
ATOM     25  H   LIG d   1       3.975  -0.473 -11.129  0.00  0.00     0.048 H 
ATOM     26  H   LIG d   1       3.066   1.053 -11.245  0.00  0.00     0.048 H 
ATOM     27  C   LIG d   1       3.167  -1.097  -8.661  0.00  0.00     0.039 C 
ATOM     28  C   LIG d   1       4.276  -0.367  -7.897  0.00  0.00    -0.018 C 
ATOM     29  H   LIG d   1       3.593  -1.945  -9.196  0.00  0.00     0.048 H 
ATOM     30  H   LIG d   1       2.415  -1.452  -7.957  0.00  0.00     0.048 H 
ATOM     31  H   LIG d   1       4.747  -1.055  -7.196  0.00  0.00     0.083 H 
ATOM     32  H   LIG d   1       3.848   0.473  -7.350  0.00  0.00     0.083 H 
ATOM     33  H   LIG d   1       5.667  -0.648  -9.363  0.00  0.00     0.204 HD
BRANCH  24  34
ATOM     34  C   LIG d   1       1.437  -0.821 -10.332  0.00  0.00     0.022 C 
ATOM     35  H   LIG d   1       0.488  -0.448  -9.945  0.00  0.00     0.045 H 
ATOM     36  H   LIG d   1       1.508  -0.595 -11.396  0.00  0.00     0.045 H 
BRANCH  34  37
ATOM     37  C   LIG d   1       1.513  -2.334 -10.124  0.00  0.00     0.057 C 
ATOM     38  H   LIG d   1       2.396  -2.726 -10.630  0.00  0.00     0.057 H 
ATOM     39  H   LIG d   1       1.578  -2.552  -9.058  0.00  0.00     0.057 H 
BRANCH  37  40
ATOM     40  O   LIG d   1       0.342  -2.949 -10.666  0.00  0.00    -0.394 OA
ATOM     41  H   LIG d   1      -0.027  -2.485 -11.431  0.00  0.00     0.209 HD
ENDBRANCH  37  40
ENDBRANCH  34  37
ENDBRANCH  24  34
ENDBRANCH  16  19
ENDBRANCH   9  16
BRANCH   1  42
ATOM     42  C   LIG d   1       5.906  -1.514  -3.107  0.00  0.00     0.132 A 
ATOM     43  C   LIG d   1       4.703  -2.157  -2.884  0.00  0.00    -0.016 A 
ATOM     44  C   LIG d   1       3.808  -1.179  -2.427  0.00  0.00    -0.020 A 
ATOM     45  H   LIG d   1       4.495  -3.207  -3.031  0.00  0.00     0.066 H 
ATOM     46  C   LIG d   1       4.479  -0.006  -2.390  0.00  0.00     0.103 A 
ATOM     47  H   LIG d   1       2.773  -1.335  -2.155  0.00  0.00     0.065 H 
ATOM     48  O   LIG d   1       5.738  -0.209  -2.804  0.00  0.00    -0.461 OA
BRANCH  46  49
ATOM     49  C   LIG d   1       3.903   1.318  -1.960  0.00  0.00    -0.006 C 
ATOM     50  H   LIG d   1       3.369   1.192  -1.017  0.00  0.00     0.031 H 
ATOM     51  H   LIG d   1       4.709   2.039  -1.827  0.00  0.00     0.031 H 
ATOM     52  H   LIG d   1       3.214   1.680  -2.723  0.00  0.00     0.031 H 
ENDBRANCH  46  49
ENDBRANCH   1  42
TORSDOF 7
ENDMDL
