MODEL 1
REMARK VINA RESULT:      -6.7      0.000      0.000
REMARK  2 active torsions:
REMARK  status: ('A' for Active; 'I' for Inactive)
REMARK    1  A    between atoms: C_1  and  C_2 
REMARK    2  A    between atoms: C_10  and  O_23 
ROOT
ATOM      1  C   LIG d   1       4.725  -0.748  -2.920  0.00  0.00     0.030 C 
ATOM      2  C   LIG d   1       6.207  -1.004  -2.951  0.00  0.00    -0.040 C 
ATOM      3  C   LIG d   1       6.881  -0.312  -4.130  0.00  0.00    -0.045 C 
ATOM      4  C   LIG d   1       6.229  -0.783  -5.424  0.00  0.00    -0.009 C 
ATOM      5  H   LIG d   1       6.741  -0.318  -6.265  0.00  0.00     0.035 H 
ATOM      6  C   LIG d   1       6.332  -2.278  -5.559  0.00  0.00    -0.036 A 
ATOM      7  C   LIG d   1       7.279  -2.998  -4.868  0.00  0.00    -0.054 A 
ATOM      8  C   LIG d   1       7.341  -4.374  -5.009  0.00  0.00    -0.020 A 
ATOM      9  C   LIG d   1       6.451  -5.033  -5.846  0.00  0.00     0.117 A 
ATOM     10  C   LIG d   1       5.495  -4.317  -6.549  0.00  0.00    -0.013 A 
ATOM     11  C   LIG d   1       5.436  -2.934  -6.410  0.00  0.00    -0.018 A 
ATOM     12  C   LIG d   1       4.440  -2.131  -7.151  0.00  0.00    -0.058 C 
ATOM     13  C   LIG d   1       4.119  -0.920  -6.713  0.00  0.00    -0.080 C 
ATOM     14  C   LIG d   1       4.763  -0.382  -5.457  0.00  0.00    -0.012 C 
ATOM     15  H   LIG d   1       4.699   0.705  -5.484  0.00  0.00     0.035 H 
ATOM     16  C   LIG d   1       3.990  -0.867  -4.243  0.00  0.00    -0.022 C 
ATOM     17  H   LIG d   1       3.664  -1.896  -4.397  0.00  0.00     0.032 H 
ATOM     18  C   LIG d   1       2.765   0.076  -4.053  0.00  0.00    -0.042 C 
ATOM     19  C   LIG d   1       3.383   1.252  -3.259  0.00  0.00     0.007 C 
ATOM     20  C   LIG d   1       4.382   0.595  -2.318  0.00  0.00     0.140 C 
ATOM     21  O   LIG d   1       4.812   1.054  -1.288  0.00  0.00    -0.297 OA
ATOM     22  H   LIG d   1       6.649  -0.637  -2.024  0.00  0.00     0.028 H 
ATOM     23  H   LIG d   1       6.379  -2.077  -3.024  0.00  0.00     0.028 H 
ATOM     24  H   LIG d   1       6.764   0.768  -4.035  0.00  0.00     0.027 H 
ATOM     25  H   LIG d   1       7.942  -0.564  -4.142  0.00  0.00     0.027 H 
ATOM     26  H   LIG d   1       7.974  -2.491  -4.215  0.00  0.00     0.062 H 
ATOM     27  H   LIG d   1       8.085  -4.936  -4.466  0.00  0.00     0.065 H 
ATOM     28  H   LIG d   1       4.802  -4.827  -7.201  0.00  0.00     0.066 H 
ATOM     29  H   LIG d   1       3.977  -2.526  -8.043  0.00  0.00     0.062 H 
ATOM     30  H   LIG d   1       3.391  -0.329  -7.249  0.00  0.00     0.058 H 
ATOM     31  H   LIG d   1       2.379   0.413  -5.016  0.00  0.00     0.027 H 
ATOM     32  H   LIG d   1       1.982  -0.413  -3.473  0.00  0.00     0.027 H 
ATOM     33  H   LIG d   1       2.660   1.739  -2.768  0.00  0.00     0.034 H 
ATOM     34  H   LIG d   1       3.893   1.939  -3.935  0.00  0.00     0.034 H 
ENDROOT
BRANCH   1  35
ATOM     35  C   LIG d   1       4.112  -1.805  -1.999  0.00  0.00    -0.053 C 
ATOM     36  H   LIG d   1       4.874  -2.176  -1.314  0.00  0.00     0.024 H 
ATOM     37  H   LIG d   1       3.296  -1.361  -1.429  0.00  0.00     0.024 H 
ATOM     38  H   LIG d   1       3.728  -2.631  -2.599  0.00  0.00     0.024 H 
ENDBRANCH   1  35
BRANCH   9  39
ATOM     39  O   LIG d   1       6.516  -6.384  -5.976  0.00  0.00    -0.507 OA
ATOM     40  H   LIG d   1       7.243  -6.691  -6.536  0.00  0.00     0.292 HD
ENDBRANCH   9  39
TORSDOF 2
ENDMDL
MODEL 2
REMARK VINA RESULT:      -6.3      2.801      4.186
REMARK  2 active torsions:
REMARK  status: ('A' for Active; 'I' for Inactive)
REMARK    1  A    between atoms: C_1  and  C_2 
REMARK    2  A    between atoms: C_10  and  O_23 
ROOT
ATOM      1  C   LIG d   1       4.522  -0.665  -4.061  0.00  0.00     0.030 C 
ATOM      2  C   LIG d   1       5.106  -1.761  -4.911  0.00  0.00    -0.040 C 
ATOM      3  C   LIG d   1       6.525  -2.119  -4.486  0.00  0.00    -0.045 C 
ATOM      4  C   LIG d   1       7.395  -0.870  -4.552  0.00  0.00    -0.009 C 
ATOM      5  H   LIG d   1       8.417  -1.138  -4.286  0.00  0.00     0.035 H 
ATOM      6  C   LIG d   1       7.390  -0.288  -5.939  0.00  0.00    -0.036 A 
ATOM      7  C   LIG d   1       7.051  -1.048  -7.035  0.00  0.00    -0.054 A 
ATOM      8  C   LIG d   1       7.049  -0.480  -8.297  0.00  0.00    -0.020 A 
ATOM      9  C   LIG d   1       7.387   0.856  -8.464  0.00  0.00     0.117 A 
ATOM     10  C   LIG d   1       7.733   1.630  -7.367  0.00  0.00    -0.013 A 
ATOM     11  C   LIG d   1       7.739   1.057  -6.100  0.00  0.00    -0.018 A 
ATOM     12  C   LIG d   1       8.113   1.844  -4.905  0.00  0.00    -0.058 C 
ATOM     13  C   LIG d   1       7.723   1.434  -3.704  0.00  0.00    -0.080 C 
ATOM     14  C   LIG d   1       6.893   0.180  -3.573  0.00  0.00    -0.012 C 
ATOM     15  H   LIG d   1       7.015  -0.201  -2.559  0.00  0.00     0.035 H 
ATOM     16  C   LIG d   1       5.426   0.519  -3.771  0.00  0.00    -0.022 C 
ATOM     17  H   LIG d   1       5.321   1.268  -4.557  0.00  0.00     0.032 H 
ATOM     18  C   LIG d   1       4.877   1.060  -2.418  0.00  0.00    -0.042 C 
ATOM     19  C   LIG d   1       4.529  -0.248  -1.665  0.00  0.00     0.007 C 
ATOM     20  C   LIG d   1       3.990  -1.177  -2.743  0.00  0.00     0.140 C 
ATOM     21  O   LIG d   1       3.272  -2.133  -2.578  0.00  0.00    -0.297 OA
ATOM     22  H   LIG d   1       4.476  -2.647  -4.828  0.00  0.00     0.028 H 
ATOM     23  H   LIG d   1       5.118  -1.434  -5.950  0.00  0.00     0.028 H 
ATOM     24  H   LIG d   1       6.514  -2.503  -3.465  0.00  0.00     0.027 H 
ATOM     25  H   LIG d   1       6.925  -2.879  -5.157  0.00  0.00     0.027 H 
ATOM     26  H   LIG d   1       6.787  -2.089  -6.911  0.00  0.00     0.062 H 
ATOM     27  H   LIG d   1       6.783  -1.079  -9.155  0.00  0.00     0.065 H 
ATOM     28  H   LIG d   1       7.996   2.669  -7.495  0.00  0.00     0.066 H 
ATOM     29  H   LIG d   1       8.699   2.745  -5.008  0.00  0.00     0.062 H 
ATOM     30  H   LIG d   1       7.992   2.005  -2.828  0.00  0.00     0.058 H 
ATOM     31  H   LIG d   1       5.640   1.627  -1.885  0.00  0.00     0.027 H 
ATOM     32  H   LIG d   1       3.984   1.666  -2.573  0.00  0.00     0.027 H 
ATOM     33  H   LIG d   1       3.852  -0.054  -0.956  0.00  0.00     0.034 H 
ATOM     34  H   LIG d   1       5.424  -0.672  -1.211  0.00  0.00     0.034 H 
ENDROOT
BRANCH   1  35
ATOM     35  C   LIG d   1       3.322  -0.104  -4.826  0.00  0.00    -0.053 C 
ATOM     36  H   LIG d   1       2.896  -0.884  -5.457  0.00  0.00     0.024 H 
ATOM     37  H   LIG d   1       2.569   0.240  -4.117  0.00  0.00     0.024 H 
ATOM     38  H   LIG d   1       3.644   0.732  -5.447  0.00  0.00     0.024 H 
ENDBRANCH   1  35
BRANCH   9  39
ATOM     39  O   LIG d   1       7.378   1.407  -9.706  0.00  0.00    -0.507 OA
ATOM     40  H   LIG d   1       6.493   1.520 -10.081  0.00  0.00     0.292 HD
ENDBRANCH   9  39
TORSDOF 2
ENDMDL
MODEL 3
REMARK VINA RESULT:      -5.8      1.966      5.337
REMARK  2 active torsions:
REMARK  status: ('A' for Active; 'I' for Inactive)
REMARK    1  A    between atoms: C_1  and  C_2 
REMARK    2  A    between atoms: C_10  and  O_23 
ROOT
ATOM      1  C   LIG d   1       6.229  -1.163  -7.097  0.00  0.00     0.030 C 
ATOM      2  C   LIG d   1       7.156  -0.363  -6.224  0.00  0.00    -0.040 C 
ATOM      3  C   LIG d   1       7.875  -1.235  -5.202  0.00  0.00    -0.045 C 
ATOM      4  C   LIG d   1       6.841  -1.966  -4.355  0.00  0.00    -0.009 C 
ATOM      5  H   LIG d   1       7.358  -2.557  -3.600  0.00  0.00     0.035 H 
ATOM      6  C   LIG d   1       5.928  -0.989  -3.666  0.00  0.00    -0.036 A 
ATOM      7  C   LIG d   1       6.298   0.322  -3.467  0.00  0.00    -0.054 A 
ATOM      8  C   LIG d   1       5.431   1.197  -2.837  0.00  0.00    -0.020 A 
ATOM      9  C   LIG d   1       4.187   0.760  -2.402  0.00  0.00     0.117 A 
ATOM     10  C   LIG d   1       3.806  -0.558  -2.595  0.00  0.00    -0.013 A 
ATOM     11  C   LIG d   1       4.679  -1.439  -3.225  0.00  0.00    -0.018 A 
ATOM     12  C   LIG d   1       4.316  -2.856  -3.440  0.00  0.00    -0.058 C 
ATOM     13  C   LIG d   1       4.942  -3.557  -4.377  0.00  0.00    -0.080 C 
ATOM     14  C   LIG d   1       6.006  -2.897  -5.221  0.00  0.00    -0.012 C 
ATOM     15  H   LIG d   1       6.654  -3.677  -5.619  0.00  0.00     0.035 H 
ATOM     16  C   LIG d   1       5.355  -2.187  -6.394  0.00  0.00    -0.022 C 
ATOM     17  H   LIG d   1       4.421  -1.722  -6.075  0.00  0.00     0.032 H 
ATOM     18  C   LIG d   1       5.091  -3.247  -7.504  0.00  0.00    -0.042 C 
ATOM     19  C   LIG d   1       6.458  -3.304  -8.228  0.00  0.00     0.007 C 
ATOM     20  C   LIG d   1       6.955  -1.866  -8.220  0.00  0.00     0.140 C 
ATOM     21  O   LIG d   1       7.767  -1.380  -8.969  0.00  0.00    -0.297 OA
ATOM     22  H   LIG d   1       7.897   0.131  -6.853  0.00  0.00     0.028 H 
ATOM     23  H   LIG d   1       6.578   0.397  -5.698  0.00  0.00     0.028 H 
ATOM     24  H   LIG d   1       8.502  -1.962  -5.720  0.00  0.00     0.027 H 
ATOM     25  H   LIG d   1       8.496  -0.609  -4.561  0.00  0.00     0.027 H 
ATOM     26  H   LIG d   1       7.265   0.668  -3.803  0.00  0.00     0.062 H 
ATOM     27  H   LIG d   1       5.724   2.224  -2.681  0.00  0.00     0.065 H 
ATOM     28  H   LIG d   1       2.839  -0.900  -2.258  0.00  0.00     0.066 H 
ATOM     29  H   LIG d   1       3.547  -3.318  -2.838  0.00  0.00     0.062 H 
ATOM     30  H   LIG d   1       4.681  -4.592  -4.539  0.00  0.00     0.058 H 
ATOM     31  H   LIG d   1       4.838  -4.214  -7.068  0.00  0.00     0.027 H 
ATOM     32  H   LIG d   1       4.307  -2.913  -8.185  0.00  0.00     0.027 H 
ATOM     33  H   LIG d   1       6.331  -3.659  -9.154  0.00  0.00     0.034 H 
ATOM     34  H   LIG d   1       7.148  -3.948  -7.682  0.00  0.00     0.034 H 
ENDROOT
BRANCH   1  35
ATOM     35  C   LIG d   1       5.271  -0.169  -7.755  0.00  0.00    -0.053 C 
ATOM     36  H   LIG d   1       5.816   0.438  -8.477  0.00  0.00     0.024 H 
ATOM     37  H   LIG d   1       4.476  -0.713  -8.265  0.00  0.00     0.024 H 
ATOM     38  H   LIG d   1       4.836   0.477  -6.992  0.00  0.00     0.024 H 
ENDBRANCH   1  35
BRANCH   9  39
ATOM     39  O   LIG d   1       3.340   1.627  -1.788  0.00  0.00    -0.507 OA
ATOM     40  H   LIG d   1       2.810   1.227  -1.084  0.00  0.00     0.292 HD
ENDBRANCH   9  39
TORSDOF 2
ENDMDL
MODEL 4
REMARK VINA RESULT:      -5.6      2.460      4.228
REMARK  2 active torsions:
REMARK  status: ('A' for Active; 'I' for Inactive)
REMARK    1  A    between atoms: C_1  and  C_2 
REMARK    2  A    between atoms: C_10  and  O_23 
ROOT
ATOM      1  C   LIG d   1       4.306  -0.321  -3.877  0.00  0.00     0.030 C 
ATOM      2  C   LIG d   1       4.163  -0.127  -5.361  0.00  0.00    -0.040 C 
ATOM      3  C   LIG d   1       4.457  -1.407  -6.136  0.00  0.00    -0.045 C 
ATOM      4  C   LIG d   1       5.862  -1.886  -5.791  0.00  0.00    -0.009 C 
ATOM      5  H   LIG d   1       6.084  -2.777  -6.377  0.00  0.00     0.035 H 
ATOM      6  C   LIG d   1       6.881  -0.827  -6.113  0.00  0.00    -0.036 A 
ATOM      7  C   LIG d   1       6.611   0.181  -7.010  0.00  0.00    -0.054 A 
ATOM      8  C   LIG d   1       7.568   1.144  -7.277  0.00  0.00    -0.020 A 
ATOM      9  C   LIG d   1       8.802   1.100  -6.645  0.00  0.00     0.117 A 
ATOM     10  C   LIG d   1       9.087   0.087  -5.742  0.00  0.00    -0.013 A 
ATOM     11  C   LIG d   1       8.126  -0.883  -5.476  0.00  0.00    -0.018 A 
ATOM     12  C   LIG d   1       8.392  -1.987  -4.529  0.00  0.00    -0.058 C 
ATOM     13  C   LIG d   1       7.374  -2.635  -3.978  0.00  0.00    -0.080 C 
ATOM     14  C   LIG d   1       5.958  -2.232  -4.314  0.00  0.00    -0.012 C 
ATOM     15  H   LIG d   1       5.308  -3.083  -4.112  0.00  0.00     0.035 H 
ATOM     16  C   LIG d   1       5.528  -1.090  -3.410  0.00  0.00    -0.022 C 
ATOM     17  H   LIG d   1       6.362  -0.405  -3.255  0.00  0.00     0.032 H 
ATOM     18  C   LIG d   1       5.063  -1.705  -2.056  0.00  0.00    -0.042 C 
ATOM     19  C   LIG d   1       3.595  -2.088  -2.363  0.00  0.00     0.007 C 
ATOM     20  C   LIG d   1       3.087  -0.967  -3.259  0.00  0.00     0.140 C 
ATOM     21  O   LIG d   1       1.936  -0.651  -3.435  0.00  0.00    -0.297 OA
ATOM     22  H   LIG d   1       3.145   0.194  -5.581  0.00  0.00     0.028 H 
ATOM     23  H   LIG d   1       4.855   0.650  -5.684  0.00  0.00     0.028 H 
ATOM     24  H   LIG d   1       3.733  -2.174  -5.862  0.00  0.00     0.027 H 
ATOM     25  H   LIG d   1       4.392  -1.208  -7.206  0.00  0.00     0.027 H 
ATOM     26  H   LIG d   1       5.651   0.221  -7.505  0.00  0.00     0.062 H 
ATOM     27  H   LIG d   1       7.353   1.934  -7.982  0.00  0.00     0.065 H 
ATOM     28  H   LIG d   1      10.046   0.051  -5.248  0.00  0.00     0.066 H 
ATOM     29  H   LIG d   1       9.408  -2.263  -4.287  0.00  0.00     0.062 H 
ATOM     30  H   LIG d   1       7.562  -3.442  -3.285  0.00  0.00     0.058 H 
ATOM     31  H   LIG d   1       5.654  -2.587  -1.805  0.00  0.00     0.027 H 
ATOM     32  H   LIG d   1       5.111  -0.968  -1.255  0.00  0.00     0.027 H 
ATOM     33  H   LIG d   1       3.082  -2.154  -1.507  0.00  0.00     0.034 H 
ATOM     34  H   LIG d   1       3.554  -3.042  -2.889  0.00  0.00     0.034 H 
ENDROOT
BRANCH   1  35
ATOM     35  C   LIG d   1       4.420   1.072  -3.257  0.00  0.00    -0.053 C 
ATOM     36  H   LIG d   1       4.408   0.989  -2.171  0.00  0.00     0.024 H 
ATOM     37  H   LIG d   1       5.354   1.536  -3.575  0.00  0.00     0.024 H 
ATOM     38  H   LIG d   1       3.580   1.686  -3.584  0.00  0.00     0.024 H 
ENDBRANCH   1  35
BRANCH   9  39
ATOM     39  O   LIG d   1       9.735   2.052  -6.910  0.00  0.00    -0.507 OA
ATOM     40  H   LIG d   1       9.567   2.900  -6.475  0.00  0.00     0.292 HD
ENDBRANCH   9  39
TORSDOF 2
ENDMDL
MODEL 5
REMARK VINA RESULT:      -5.5      1.922      2.810
REMARK  2 active torsions:
REMARK  status: ('A' for Active; 'I' for Inactive)
REMARK    1  A    between atoms: C_1  and  C_2 
REMARK    2  A    between atoms: C_10  and  O_23 
ROOT
ATOM      1  C   LIG d   1       5.063  -0.313  -3.910  0.00  0.00     0.030 C 
ATOM      2  C   LIG d   1       5.587   0.181  -5.230  0.00  0.00    -0.040 C 
ATOM      3  C   LIG d   1       4.960  -0.558  -6.407  0.00  0.00    -0.045 C 
ATOM      4  C   LIG d   1       5.221  -2.051  -6.253  0.00  0.00    -0.009 C 
ATOM      5  H   LIG d   1       4.807  -2.571  -7.116  0.00  0.00     0.035 H 
ATOM      6  C   LIG d   1       6.698  -2.330  -6.179  0.00  0.00    -0.036 A 
ATOM      7  C   LIG d   1       7.623  -1.433  -6.663  0.00  0.00    -0.054 A 
ATOM      8  C   LIG d   1       8.974  -1.717  -6.571  0.00  0.00    -0.020 A 
ATOM      9  C   LIG d   1       9.404  -2.904  -5.995  0.00  0.00     0.117 A 
ATOM     10  C   LIG d   1       8.480  -3.816  -5.508  0.00  0.00    -0.013 A 
ATOM     11  C   LIG d   1       7.122  -3.532  -5.603  0.00  0.00    -0.018 A 
ATOM     12  C   LIG d   1       6.104  -4.482  -5.107  0.00  0.00    -0.058 C 
ATOM     13  C   LIG d   1       4.884  -4.044  -4.821  0.00  0.00    -0.080 C 
ATOM     14  C   LIG d   1       4.554  -2.580  -4.993  0.00  0.00    -0.012 C 
ATOM     15  H   LIG d   1       3.474  -2.489  -5.105  0.00  0.00     0.035 H 
ATOM     16  C   LIG d   1       4.961  -1.819  -3.744  0.00  0.00    -0.022 C 
ATOM     17  H   LIG d   1       5.901  -2.215  -3.357  0.00  0.00     0.032 H 
ATOM     18  C   LIG d   1       3.821  -1.983  -2.696  0.00  0.00    -0.042 C 
ATOM     19  C   LIG d   1       2.831  -0.870  -3.119  0.00  0.00     0.007 C 
ATOM     20  C   LIG d   1       3.720   0.284  -3.560  0.00  0.00     0.140 C 
ATOM     21  O   LIG d   1       3.413   1.450  -3.614  0.00  0.00    -0.297 OA
ATOM     22  H   LIG d   1       5.367   1.245  -5.322  0.00  0.00     0.028 H 
ATOM     23  H   LIG d   1       6.667   0.041  -5.257  0.00  0.00     0.028 H 
ATOM     24  H   LIG d   1       3.885  -0.375  -6.422  0.00  0.00     0.027 H 
ATOM     25  H   LIG d   1       5.404  -0.203  -7.337  0.00  0.00     0.027 H 
ATOM     26  H   LIG d   1       7.295  -0.507  -7.112  0.00  0.00     0.062 H 
ATOM     27  H   LIG d   1       9.698  -1.012  -6.952  0.00  0.00     0.065 H 
ATOM     28  H   LIG d   1       8.812  -4.740  -5.059  0.00  0.00     0.066 H 
ATOM     29  H   LIG d   1       6.350  -5.526  -4.978  0.00  0.00     0.062 H 
ATOM     30  H   LIG d   1       4.136  -4.733  -4.458  0.00  0.00     0.058 H 
ATOM     31  H   LIG d   1       3.359  -2.967  -2.773  0.00  0.00     0.027 H 
ATOM     32  H   LIG d   1       4.191  -1.807  -1.686  0.00  0.00     0.027 H 
ATOM     33  H   LIG d   1       2.250  -0.628  -2.342  0.00  0.00     0.034 H 
ATOM     34  H   LIG d   1       2.211  -1.210  -3.947  0.00  0.00     0.034 H 
ENDROOT
BRANCH   1  35
ATOM     35  C   LIG d   1       6.043   0.165  -2.837  0.00  0.00    -0.053 C 
ATOM     36  H   LIG d   1       6.394  -0.689  -2.258  0.00  0.00     0.024 H 
ATOM     37  H   LIG d   1       6.893   0.654  -3.314  0.00  0.00     0.024 H 
ATOM     38  H   LIG d   1       5.542   0.872  -2.176  0.00  0.00     0.024 H 
ENDBRANCH   1  35
BRANCH   9  39
ATOM     39  O   LIG d   1      10.733  -3.174  -5.906  0.00  0.00    -0.507 OA
ATOM     40  H   LIG d   1      11.031  -3.390  -5.012  0.00  0.00     0.292 HD
ENDBRANCH   9  39
TORSDOF 2
ENDMDL
MODEL 6
REMARK VINA RESULT:      -5.5      2.324      5.288
REMARK  2 active torsions:
REMARK  status: ('A' for Active; 'I' for Inactive)
REMARK    1  A    between atoms: C_1  and  C_2 
REMARK    2  A    between atoms: C_10  and  O_23 
ROOT
ATOM      1  C   LIG d   1       6.560  -0.052  -7.531  0.00  0.00     0.030 C 
ATOM      2  C   LIG d   1       6.891  -1.160  -6.570  0.00  0.00    -0.040 C 
ATOM      3  C   LIG d   1       5.810  -2.235  -6.542  0.00  0.00    -0.045 C 
ATOM      4  C   LIG d   1       4.477  -1.591  -6.179  0.00  0.00    -0.009 C 
ATOM      5  H   LIG d   1       3.716  -2.368  -6.121  0.00  0.00     0.035 H 
ATOM      6  C   LIG d   1       4.565  -0.896  -4.848  0.00  0.00    -0.036 A 
ATOM      7  C   LIG d   1       5.537  -1.223  -3.930  0.00  0.00    -0.054 A 
ATOM      8  C   LIG d   1       5.594  -0.558  -2.718  0.00  0.00    -0.020 A 
ATOM      9  C   LIG d   1       4.675   0.439  -2.421  0.00  0.00     0.117 A 
ATOM     10  C   LIG d   1       3.690   0.774  -3.337  0.00  0.00    -0.013 A 
ATOM     11  C   LIG d   1       3.630   0.102  -4.554  0.00  0.00    -0.018 A 
ATOM     12  C   LIG d   1       2.589   0.420  -5.554  0.00  0.00    -0.058 C 
ATOM     13  C   LIG d   1       2.783   0.096  -6.826  0.00  0.00    -0.080 C 
ATOM     14  C   LIG d   1       4.068  -0.581  -7.240  0.00  0.00    -0.012 C 
ATOM     15  H   LIG d   1       3.886  -1.110  -8.174  0.00  0.00     0.035 H 
ATOM     16  C   LIG d   1       5.134   0.469  -7.497  0.00  0.00    -0.022 C 
ATOM     17  H   LIG d   1       5.049   1.273  -6.765  0.00  0.00     0.032 H 
ATOM     18  C   LIG d   1       4.923   1.015  -8.941  0.00  0.00    -0.042 C 
ATOM     19  C   LIG d   1       5.673  -0.035  -9.796  0.00  0.00     0.007 C 
ATOM     20  C   LIG d   1       6.890  -0.409  -8.961  0.00  0.00     0.140 C 
ATOM     21  O   LIG d   1       7.920  -0.891  -9.365  0.00  0.00    -0.297 OA
ATOM     22  H   LIG d   1       7.836  -1.615  -6.866  0.00  0.00     0.028 H 
ATOM     23  H   LIG d   1       6.999  -0.740  -5.570  0.00  0.00     0.028 H 
ATOM     24  H   LIG d   1       5.735  -2.701  -7.525  0.00  0.00     0.027 H 
ATOM     25  H   LIG d   1       6.066  -2.990  -5.799  0.00  0.00     0.027 H 
ATOM     26  H   LIG d   1       6.255  -1.997  -4.156  0.00  0.00     0.062 H 
ATOM     27  H   LIG d   1       6.357  -0.816  -1.999  0.00  0.00     0.065 H 
ATOM     28  H   LIG d   1       2.974   1.548  -3.108  0.00  0.00     0.066 H 
ATOM     29  H   LIG d   1       1.676   0.912  -5.252  0.00  0.00     0.062 H 
ATOM     30  H   LIG d   1       2.026   0.326  -7.562  0.00  0.00     0.058 H 
ATOM     31  H   LIG d   1       3.863   1.044  -9.196  0.00  0.00     0.027 H 
ATOM     32  H   LIG d   1       5.375   2.000  -9.055  0.00  0.00     0.027 H 
ATOM     33  H   LIG d   1       5.924   0.369 -10.676  0.00  0.00     0.034 H 
ATOM     34  H   LIG d   1       5.043  -0.909  -9.961  0.00  0.00     0.034 H 
ENDROOT
BRANCH   1  35
ATOM     35  C   LIG d   1       7.452   1.135  -7.163  0.00  0.00    -0.053 C 
ATOM     36  H   LIG d   1       8.460   0.963  -7.541  0.00  0.00     0.024 H 
ATOM     37  H   LIG d   1       7.048   2.045  -7.607  0.00  0.00     0.024 H 
ATOM     38  H   LIG d   1       7.484   1.244  -6.079  0.00  0.00     0.024 H 
ENDBRANCH   1  35
BRANCH   9  39
ATOM     39  O   LIG d   1       4.741   1.090  -1.230  0.00  0.00    -0.507 OA
ATOM     40  H   LIG d   1       5.200   0.595  -0.536  0.00  0.00     0.292 HD
ENDBRANCH   9  39
TORSDOF 2
ENDMDL
MODEL 7
REMARK VINA RESULT:      -5.4      4.572      5.867
REMARK  2 active torsions:
REMARK  status: ('A' for Active; 'I' for Inactive)
REMARK    1  A    between atoms: C_1  and  C_2 
REMARK    2  A    between atoms: C_10  and  O_23 
ROOT
ATOM      1  C   LIG d   1       4.974   0.575  -9.116  0.00  0.00     0.030 C 
ATOM      2  C   LIG d   1       5.765  -0.175 -10.152  0.00  0.00    -0.040 C 
ATOM      3  C   LIG d   1       5.068  -0.185 -11.507  0.00  0.00    -0.045 C 
ATOM      4  C   LIG d   1       3.680  -0.795 -11.349  0.00  0.00    -0.009 C 
ATOM      5  H   LIG d   1       3.201  -0.838 -12.326  0.00  0.00     0.035 H 
ATOM      6  C   LIG d   1       3.770  -2.189 -10.790  0.00  0.00    -0.036 A 
ATOM      7  C   LIG d   1       4.929  -2.926 -10.883  0.00  0.00    -0.054 A 
ATOM      8  C   LIG d   1       4.981  -4.203 -10.351  0.00  0.00    -0.020 A 
ATOM      9  C   LIG d   1       3.869  -4.746  -9.723  0.00  0.00     0.117 A 
ATOM     10  C   LIG d   1       2.696  -4.013  -9.627  0.00  0.00    -0.013 A 
ATOM     11  C   LIG d   1       2.643  -2.732 -10.165  0.00  0.00    -0.018 A 
ATOM     12  C   LIG d   1       1.408  -1.921 -10.094  0.00  0.00    -0.058 C 
ATOM     13  C   LIG d   1       1.484  -0.602 -10.220  0.00  0.00    -0.080 C 
ATOM     14  C   LIG d   1       2.829   0.056 -10.420  0.00  0.00    -0.012 C 
ATOM     15  H   LIG d   1       2.663   1.025 -10.889  0.00  0.00     0.035 H 
ATOM     16  C   LIG d   1       3.482   0.294  -9.071  0.00  0.00    -0.022 C 
ATOM     17  H   LIG d   1       3.282  -0.547  -8.407  0.00  0.00     0.032 H 
ATOM     18  C   LIG d   1       2.893   1.611  -8.484  0.00  0.00    -0.042 C 
ATOM     19  C   LIG d   1       3.772   2.689  -9.162  0.00  0.00     0.007 C 
ATOM     20  C   LIG d   1       5.162   2.071  -9.215  0.00  0.00     0.140 C 
ATOM     21  O   LIG d   1       6.210   2.661  -9.313  0.00  0.00    -0.297 OA
ATOM     22  H   LIG d   1       6.743   0.295 -10.260  0.00  0.00     0.028 H 
ATOM     23  H   LIG d   1       5.903  -1.202  -9.816  0.00  0.00     0.028 H 
ATOM     24  H   LIG d   1       4.977   0.836 -11.879  0.00  0.00     0.027 H 
ATOM     25  H   LIG d   1       5.650  -0.780 -12.212  0.00  0.00     0.027 H 
ATOM     26  H   LIG d   1       5.798  -2.509 -11.370  0.00  0.00     0.062 H 
ATOM     27  H   LIG d   1       5.891  -4.779 -10.426  0.00  0.00     0.065 H 
ATOM     28  H   LIG d   1       1.829  -4.434  -9.139  0.00  0.00     0.066 H 
ATOM     29  H   LIG d   1       0.452  -2.398  -9.941  0.00  0.00     0.062 H 
ATOM     30  H   LIG d   1       0.586  -0.004 -10.168  0.00  0.00     0.058 H 
ATOM     31  H   LIG d   1       1.845   1.728  -8.762  0.00  0.00     0.027 H 
ATOM     32  H   LIG d   1       3.010   1.642  -7.400  0.00  0.00     0.027 H 
ATOM     33  H   LIG d   1       3.749   3.529  -8.619  0.00  0.00     0.034 H 
ATOM     34  H   LIG d   1       3.409   2.896 -10.169  0.00  0.00     0.034 H 
ENDROOT
BRANCH   1  35
ATOM     35  C   LIG d   1       5.524   0.158  -7.751  0.00  0.00    -0.053 C 
ATOM     36  H   LIG d   1       6.017  -0.809  -7.838  0.00  0.00     0.024 H 
ATOM     37  H   LIG d   1       6.243   0.902  -7.407  0.00  0.00     0.024 H 
ATOM     38  H   LIG d   1       4.705   0.087  -7.035  0.00  0.00     0.024 H 
ENDBRANCH   1  35
BRANCH   9  39
ATOM     39  O   LIG d   1       3.929  -5.999  -9.200  0.00  0.00    -0.507 OA
ATOM     40  H   LIG d   1       3.815  -6.704  -9.853  0.00  0.00     0.292 HD
ENDBRANCH   9  39
TORSDOF 2
ENDMDL
MODEL 8
REMARK VINA RESULT:      -5.4      3.112      5.440
REMARK  2 active torsions:
REMARK  status: ('A' for Active; 'I' for Inactive)
REMARK    1  A    between atoms: C_1  and  C_2 
REMARK    2  A    between atoms: C_10  and  O_23 
ROOT
ATOM      1  C   LIG d   1       5.388   0.118  -9.339  0.00  0.00     0.030 C 
ATOM      2  C   LIG d   1       5.840  -1.290  -9.063  0.00  0.00    -0.040 C 
ATOM      3  C   LIG d   1       4.670  -2.209  -8.730  0.00  0.00    -0.045 C 
ATOM      4  C   LIG d   1       3.918  -1.644  -7.532  0.00  0.00    -0.009 C 
ATOM      5  H   LIG d   1       3.108  -2.325  -7.272  0.00  0.00     0.035 H 
ATOM      6  C   LIG d   1       4.832  -1.501  -6.346  0.00  0.00    -0.036 A 
ATOM      7  C   LIG d   1       6.002  -2.221  -6.250  0.00  0.00    -0.054 A 
ATOM      8  C   LIG d   1       6.825  -2.059  -5.149  0.00  0.00    -0.020 A 
ATOM      9  C   LIG d   1       6.477  -1.175  -4.138  0.00  0.00     0.117 A 
ATOM     10  C   LIG d   1       5.300  -0.448  -4.222  0.00  0.00    -0.013 A 
ATOM     11  C   LIG d   1       4.471  -0.613  -5.327  0.00  0.00    -0.018 A 
ATOM     12  C   LIG d   1       3.201   0.133  -5.451  0.00  0.00    -0.058 C 
ATOM     13  C   LIG d   1       2.648   0.290  -6.647  0.00  0.00    -0.080 C 
ATOM     14  C   LIG d   1       3.327  -0.284  -7.868  0.00  0.00    -0.012 C 
ATOM     15  H   LIG d   1       2.574  -0.413  -8.644  0.00  0.00     0.035 H 
ATOM     16  C   LIG d   1       4.364   0.700  -8.381  0.00  0.00    -0.022 C 
ATOM     17  H   LIG d   1       4.869   1.178  -7.541  0.00  0.00     0.032 H 
ATOM     18  C   LIG d   1       3.624   1.757  -9.253  0.00  0.00    -0.042 C 
ATOM     19  C   LIG d   1       3.543   1.043 -10.625  0.00  0.00     0.007 C 
ATOM     20  C   LIG d   1       4.861   0.292 -10.744  0.00  0.00     0.140 C 
ATOM     21  O   LIG d   1       5.386  -0.085 -11.763  0.00  0.00    -0.297 OA
ATOM     22  H   LIG d   1       6.355  -1.675  -9.943  0.00  0.00     0.028 H 
ATOM     23  H   LIG d   1       6.534  -1.280  -8.224  0.00  0.00     0.028 H 
ATOM     24  H   LIG d   1       3.999  -2.271  -9.587  0.00  0.00     0.027 H 
ATOM     25  H   LIG d   1       5.047  -3.204  -8.489  0.00  0.00     0.027 H 
ATOM     26  H   LIG d   1       6.279  -2.910  -7.035  0.00  0.00     0.062 H 
ATOM     27  H   LIG d   1       7.742  -2.625  -5.077  0.00  0.00     0.065 H 
ATOM     28  H   LIG d   1       5.027   0.240  -3.437  0.00  0.00     0.066 H 
ATOM     29  H   LIG d   1       2.726   0.549  -4.575  0.00  0.00     0.062 H 
ATOM     30  H   LIG d   1       1.721   0.835  -6.745  0.00  0.00     0.058 H 
ATOM     31  H   LIG d   1       2.629   1.961  -8.858  0.00  0.00     0.027 H 
ATOM     32  H   LIG d   1       4.206   2.676  -9.330  0.00  0.00     0.027 H 
ATOM     33  H   LIG d   1       3.425   1.724 -11.348  0.00  0.00     0.034 H 
ATOM     34  H   LIG d   1       2.706   0.346 -10.639  0.00  0.00     0.034 H 
ENDROOT
BRANCH   1  35
ATOM     35  C   LIG d   1       6.627   1.010  -9.226  0.00  0.00    -0.053 C 
ATOM     36  H   LIG d   1       6.372   2.026  -9.526  0.00  0.00     0.024 H 
ATOM     37  H   LIG d   1       6.978   1.014  -8.195  0.00  0.00     0.024 H 
ATOM     38  H   LIG d   1       7.412   0.625  -9.876  0.00  0.00     0.024 H 
ENDBRANCH   1  35
BRANCH   9  39
ATOM     39  O   LIG d   1       7.293  -1.020  -3.062  0.00  0.00    -0.507 OA
ATOM     40  H   LIG d   1       7.693  -0.141  -2.995  0.00  0.00     0.292 HD
ENDBRANCH   9  39
TORSDOF 2
ENDMDL
MODEL 9
REMARK VINA RESULT:      -5.4      9.501     11.654
REMARK  2 active torsions:
REMARK  status: ('A' for Active; 'I' for Inactive)
REMARK    1  A    between atoms: C_1  and  C_2 
REMARK    2  A    between atoms: C_10  and  O_23 
ROOT
ATOM      1  C   LIG d   1      11.617   7.629  -0.133  0.00  0.00     0.030 C 
ATOM      2  C   LIG d   1      10.841   8.840  -0.571  0.00  0.00    -0.040 C 
ATOM      3  C   LIG d   1       9.388   8.505  -0.887  0.00  0.00    -0.045 C 
ATOM      4  C   LIG d   1       9.348   7.426  -1.963  0.00  0.00    -0.009 C 
ATOM      5  H   LIG d   1       8.309   7.219  -2.214  0.00  0.00     0.035 H 
ATOM      6  C   LIG d   1      10.067   7.882  -3.203  0.00  0.00    -0.036 A 
ATOM      7  C   LIG d   1      10.279   9.218  -3.460  0.00  0.00    -0.054 A 
ATOM      8  C   LIG d   1      10.952   9.602  -4.607  0.00  0.00    -0.020 A 
ATOM      9  C   LIG d   1      11.414   8.648  -5.502  0.00  0.00     0.117 A 
ATOM     10  C   LIG d   1      11.204   7.301  -5.254  0.00  0.00    -0.013 A 
ATOM     11  C   LIG d   1      10.524   6.914  -4.103  0.00  0.00    -0.018 A 
ATOM     12  C   LIG d   1      10.268   5.488  -3.807  0.00  0.00    -0.058 C 
ATOM     13  C   LIG d   1      10.011   5.116  -2.560  0.00  0.00    -0.080 C 
ATOM     14  C   LIG d   1       9.996   6.147  -1.456  0.00  0.00    -0.012 C 
ATOM     15  H   LIG d   1       9.399   5.755  -0.635  0.00  0.00     0.035 H 
ATOM     16  C   LIG d   1      11.410   6.363  -0.946  0.00  0.00    -0.022 C 
ATOM     17  H   LIG d   1      12.114   6.336  -1.778  0.00  0.00     0.032 H 
ATOM     18  C   LIG d   1      11.722   5.231   0.078  0.00  0.00    -0.042 C 
ATOM     19  C   LIG d   1      11.106   5.795   1.381  0.00  0.00     0.007 C 
ATOM     20  C   LIG d   1      11.387   7.290   1.321  0.00  0.00     0.140 C 
ATOM     21  O   LIG d   1      11.425   8.054   2.255  0.00  0.00    -0.297 OA
ATOM     22  H   LIG d   1      10.868   9.585   0.224  0.00  0.00     0.028 H 
ATOM     23  H   LIG d   1      11.311   9.258  -1.462  0.00  0.00     0.028 H 
ATOM     24  H   LIG d   1       8.894   8.141   0.014  0.00  0.00     0.027 H 
ATOM     25  H   LIG d   1       8.878   9.399  -1.247  0.00  0.00     0.027 H 
ATOM     26  H   LIG d   1       9.922   9.965  -2.767  0.00  0.00     0.062 H 
ATOM     27  H   LIG d   1      11.116  10.651  -4.806  0.00  0.00     0.065 H 
ATOM     28  H   LIG d   1      11.563   6.556  -5.949  0.00  0.00     0.066 H 
ATOM     29  H   LIG d   1      10.289   4.755  -4.600  0.00  0.00     0.062 H 
ATOM     30  H   LIG d   1       9.824   4.076  -2.336  0.00  0.00     0.058 H 
ATOM     31  H   LIG d   1      11.238   4.298  -0.213  0.00  0.00     0.027 H 
ATOM     32  H   LIG d   1      12.798   5.091   0.188  0.00  0.00     0.027 H 
ATOM     33  H   LIG d   1      11.537   5.357   2.170  0.00  0.00     0.034 H 
ATOM     34  H   LIG d   1      10.032   5.611   1.402  0.00  0.00     0.034 H 
ENDROOT
BRANCH   1  35
ATOM     35  C   LIG d   1      13.100   7.980  -0.267  0.00  0.00    -0.053 C 
ATOM     36  H   LIG d   1      13.314   8.880   0.307  0.00  0.00     0.024 H 
ATOM     37  H   LIG d   1      13.704   7.155   0.111  0.00  0.00     0.024 H 
ATOM     38  H   LIG d   1      13.339   8.152  -1.317  0.00  0.00     0.024 H 
ENDBRANCH   1  35
BRANCH   9  39
ATOM     39  O   LIG d   1      12.077   9.034  -6.624  0.00  0.00    -0.507 OA
ATOM     40  H   LIG d   1      12.906   9.501  -6.449  0.00  0.00     0.292 HD
ENDBRANCH   9  39
TORSDOF 2
ENDMDL
