MODEL 1
REMARK VINA RESULT:      -7.1      0.000      0.000
REMARK  9 active torsions:
REMARK  status: ('A' for Active; 'I' for Inactive)
REMARK    1  A    between atoms: C_1  and  C_2 
REMARK    2  A    between atoms: C_2  and  C_3 
REMARK    3  A    between atoms: C_2  and  C_4 
REMARK    4  A    between atoms: C_2  and  C_5 
REMARK    5  A    between atoms: C_8  and  C_11 
REMARK    6  A    between atoms: C_11  and  N_12 
REMARK    7  A    between atoms: N_15  and  C_18 
REMARK    8  A    between atoms: C_18  and  C_20 
REMARK    9  A    between atoms: C_18  and  C_26 
ROOT
ATOM      1  N   LIG d   1       7.282  -5.025  -5.073  0.00  0.00    -0.296 N 
ATOM      2  C   LIG d   1       6.362  -4.124  -5.784  0.00  0.00     0.012 C 
ATOM      3  C   LIG d   1       6.024  -2.933  -4.885  0.00  0.00     0.013 C 
ATOM      4  N   LIG d   1       7.262  -2.233  -4.517  0.00  0.00    -0.289 N 
ATOM      5  C   LIG d   1       8.182  -3.132  -3.807  0.00  0.00     0.013 C 
ATOM      6  C   LIG d   1       8.520  -4.325  -4.706  0.00  0.00     0.012 C 
ATOM      7  H   LIG d   1       6.836  -3.768  -6.698  0.00  0.00     0.044 H 
ATOM      8  H   LIG d   1       5.448  -4.662  -6.034  0.00  0.00     0.044 H 
ATOM      9  H   LIG d   1       5.365  -2.249  -5.421  0.00  0.00     0.044 H 
ATOM     10  H   LIG d   1       5.524  -3.287  -3.983  0.00  0.00     0.044 H 
ATOM     11  H   LIG d   1       9.096  -2.594  -3.557  0.00  0.00     0.044 H 
ATOM     12  H   LIG d   1       7.707  -3.489  -2.893  0.00  0.00     0.044 H 
ATOM     13  H   LIG d   1       9.179  -5.007  -4.170  0.00  0.00     0.044 H 
ATOM     14  H   LIG d   1       9.019  -3.970  -5.608  0.00  0.00     0.044 H 
ENDROOT
BRANCH   1  15
ATOM     15  C   LIG d   1       7.571  -6.221  -5.875  0.00  0.00     0.024 C 
ATOM     16  H   LIG d   1       8.640  -6.431  -5.841  0.00  0.00     0.048 H 
ATOM     17  H   LIG d   1       7.267  -6.049  -6.907  0.00  0.00     0.048 H 
BRANCH  15  18
ATOM     18  C   LIG d   1       6.811  -7.396  -5.317  0.00  0.00    -0.033 A 
ATOM     19  C   LIG d   1       7.415  -8.239  -4.403  0.00  0.00    -0.057 A 
ATOM     20  C   LIG d   1       6.717  -9.316  -3.889  0.00  0.00    -0.058 A 
ATOM     21  H   LIG d   1       8.433  -8.057  -4.090  0.00  0.00     0.062 H 
ATOM     22  C   LIG d   1       5.414  -9.549  -4.288  0.00  0.00    -0.042 A 
ATOM     23  H   LIG d   1       7.189  -9.975  -3.175  0.00  0.00     0.062 H 
ATOM     24  C   LIG d   1       4.812  -8.708  -5.206  0.00  0.00    -0.058 A 
ATOM     25  C   LIG d   1       5.508  -7.630  -5.716  0.00  0.00    -0.057 A 
ATOM     26  H   LIG d   1       3.795  -8.893  -5.520  0.00  0.00     0.062 H 
ATOM     27  H   LIG d   1       5.036  -6.970  -6.429  0.00  0.00     0.062 H 
BRANCH  22  28
ATOM     28  C   LIG d   1       4.653 -10.723  -3.729  0.00  0.00    -0.013 C 
BRANCH  28  29
ATOM     29  C   LIG d   1       5.456 -11.356  -2.590  0.00  0.00    -0.056 C 
ATOM     30  H   LIG d   1       5.516 -10.657  -1.756  0.00  0.00     0.024 H 
ATOM     31  H   LIG d   1       4.964 -12.272  -2.264  0.00  0.00     0.024 H 
ATOM     32  H   LIG d   1       6.462 -11.589  -2.942  0.00  0.00     0.024 H 
ENDBRANCH  28  29
BRANCH  28  33
ATOM     33  C   LIG d   1       4.430 -11.760  -4.833  0.00  0.00    -0.056 C 
ATOM     34  H   LIG d   1       3.509 -11.527  -5.368  0.00  0.00     0.024 H 
ATOM     35  H   LIG d   1       5.270 -11.736  -5.528  0.00  0.00     0.024 H 
ATOM     36  H   LIG d   1       4.352 -12.752  -4.389  0.00  0.00     0.024 H 
ENDBRANCH  28  33
BRANCH  28  37
ATOM     37  C   LIG d   1       3.300 -10.247  -3.196  0.00  0.00    -0.056 C 
ATOM     38  H   LIG d   1       2.897 -10.993  -2.512  0.00  0.00     0.024 H 
ATOM     39  H   LIG d   1       3.429  -9.302  -2.668  0.00  0.00     0.024 H 
ATOM     40  H   LIG d   1       2.610 -10.108  -4.028  0.00  0.00     0.024 H 
ENDBRANCH  28  37
ENDBRANCH  22  28
ENDBRANCH  15  18
ENDBRANCH   1  15
BRANCH   4  41
ATOM     41  C   LIG d   1       6.972  -1.036  -3.715  0.00  0.00     0.061 C 
ATOM     42  H   LIG d   1       7.384  -1.162  -2.715  0.00  0.00     0.056 H 
BRANCH  41  43
ATOM     43  C   LIG d   1       5.481  -0.841  -3.625  0.00  0.00    -0.026 A 
ATOM     44  C   LIG d   1       4.794  -0.262  -4.677  0.00  0.00    -0.057 A 
ATOM     45  C   LIG d   1       3.426  -0.088  -4.596  0.00  0.00    -0.061 A 
ATOM     46  H   LIG d   1       5.328   0.051  -5.562  0.00  0.00     0.062 H 
ATOM     47  C   LIG d   1       2.744  -0.483  -3.460  0.00  0.00    -0.062 A 
ATOM     48  H   LIG d   1       2.889   0.362  -5.419  0.00  0.00     0.062 H 
ATOM     49  C   LIG d   1       3.431  -1.058  -2.407  0.00  0.00    -0.061 A 
ATOM     50  H   LIG d   1       1.675  -0.345  -3.396  0.00  0.00     0.062 H 
ATOM     51  C   LIG d   1       4.799  -1.237  -2.489  0.00  0.00    -0.057 A 
ATOM     52  H   LIG d   1       2.898  -1.369  -1.520  0.00  0.00     0.062 H 
ATOM     53  H   LIG d   1       5.336  -1.686  -1.667  0.00  0.00     0.062 H 
ENDBRANCH  41  43
BRANCH  41  54
ATOM     54  C   LIG d   1       7.598   0.170  -4.369  0.00  0.00    -0.026 A 
ATOM     55  C   LIG d   1       8.149   0.063  -5.633  0.00  0.00    -0.055 A 
ATOM     56  C   LIG d   1       8.718   1.169  -6.234  0.00  0.00    -0.043 A 
ATOM     57  H   LIG d   1       8.131  -0.885  -6.150  0.00  0.00     0.062 H 
ATOM     58  C   LIG d   1       8.746   2.381  -5.568  0.00  0.00     0.041 A 
ATOM     59  H   LIG d   1       9.145   1.086  -7.223  0.00  0.00     0.063 H 
ATOM     60  C   LIG d   1       8.198   2.486  -4.302  0.00  0.00    -0.043 A 
ATOM     61 CL   LIG d   1       9.466   3.770  -6.321  0.00  0.00    -0.084 Cl
ATOM     62  C   LIG d   1       7.625   1.381  -3.703  0.00  0.00    -0.055 A 
ATOM     63  H   LIG d   1       8.220   3.432  -3.780  0.00  0.00     0.063 H 
ATOM     64  H   LIG d   1       7.198   1.463  -2.714  0.00  0.00     0.062 H 
ENDBRANCH  41  54
ENDBRANCH   4  41
TORSDOF 9
ENDMDL
MODEL 2
REMARK VINA RESULT:      -6.9      2.411      3.385
REMARK  9 active torsions:
REMARK  status: ('A' for Active; 'I' for Inactive)
REMARK    1  A    between atoms: C_1  and  C_2 
REMARK    2  A    between atoms: C_2  and  C_3 
REMARK    3  A    between atoms: C_2  and  C_4 
REMARK    4  A    between atoms: C_2  and  C_5 
REMARK    5  A    between atoms: C_8  and  C_11 
REMARK    6  A    between atoms: C_11  and  N_12 
REMARK    7  A    between atoms: N_15  and  C_18 
REMARK    8  A    between atoms: C_18  and  C_20 
REMARK    9  A    between atoms: C_18  and  C_26 
ROOT
ATOM      1  N   LIG d   1       5.207  -5.310  -6.304  0.00  0.00    -0.296 N 
ATOM      2  C   LIG d   1       4.752  -4.768  -5.015  0.00  0.00     0.012 C 
ATOM      3  C   LIG d   1       5.361  -3.379  -4.806  0.00  0.00     0.013 C 
ATOM      4  N   LIG d   1       4.963  -2.501  -5.914  0.00  0.00    -0.289 N 
ATOM      5  C   LIG d   1       5.418  -3.042  -7.203  0.00  0.00     0.013 C 
ATOM      6  C   LIG d   1       4.809  -4.432  -7.411  0.00  0.00     0.012 C 
ATOM      7  H   LIG d   1       3.665  -4.692  -5.017  0.00  0.00     0.044 H 
ATOM      8  H   LIG d   1       5.070  -5.429  -4.210  0.00  0.00     0.044 H 
ATOM      9  H   LIG d   1       5.002  -2.963  -3.865  0.00  0.00     0.044 H 
ATOM     10  H   LIG d   1       6.448  -3.459  -4.777  0.00  0.00     0.044 H 
ATOM     11  H   LIG d   1       5.099  -2.381  -8.008  0.00  0.00     0.044 H 
ATOM     12  H   LIG d   1       6.505  -3.119  -7.201  0.00  0.00     0.044 H 
ATOM     13  H   LIG d   1       5.168  -4.847  -8.353  0.00  0.00     0.044 H 
ATOM     14  H   LIG d   1       3.722  -4.352  -7.440  0.00  0.00     0.044 H 
ENDROOT
BRANCH   1  15
ATOM     15  C   LIG d   1       4.704  -6.676  -6.507  0.00  0.00     0.024 C 
ATOM     16  H   LIG d   1       4.882  -6.978  -7.539  0.00  0.00     0.048 H 
ATOM     17  H   LIG d   1       3.635  -6.703  -6.300  0.00  0.00     0.048 H 
BRANCH  15  18
ATOM     18  C   LIG d   1       5.421  -7.618  -5.576  0.00  0.00    -0.033 A 
ATOM     19  C   LIG d   1       6.768  -7.444  -5.318  0.00  0.00    -0.057 A 
ATOM     20  C   LIG d   1       7.426  -8.308  -4.463  0.00  0.00    -0.058 A 
ATOM     21  H   LIG d   1       7.307  -6.632  -5.784  0.00  0.00     0.062 H 
ATOM     22  C   LIG d   1       6.736  -9.347  -3.864  0.00  0.00    -0.042 A 
ATOM     23  H   LIG d   1       8.478  -8.171  -4.261  0.00  0.00     0.062 H 
ATOM     24  C   LIG d   1       5.390  -9.524  -4.127  0.00  0.00    -0.058 A 
ATOM     25  C   LIG d   1       4.732  -8.657  -4.978  0.00  0.00    -0.057 A 
ATOM     26  H   LIG d   1       4.853 -10.338  -3.662  0.00  0.00     0.062 H 
ATOM     27  H   LIG d   1       3.680  -8.793  -5.179  0.00  0.00     0.062 H 
BRANCH  22  28
ATOM     28  C   LIG d   1       7.454 -10.289  -2.932  0.00  0.00    -0.013 C 
BRANCH  28  29
ATOM     29  C   LIG d   1       7.411  -9.729  -1.509  0.00  0.00    -0.056 C 
ATOM     30  H   LIG d   1       6.548 -10.136  -0.984  0.00  0.00     0.024 H 
ATOM     31  H   LIG d   1       8.323 -10.007  -0.982  0.00  0.00     0.024 H 
ATOM     32  H   LIG d   1       7.332  -8.642  -1.549  0.00  0.00     0.024 H 
ENDBRANCH  28  29
BRANCH  28  33
ATOM     33  C   LIG d   1       8.910 -10.437  -3.379  0.00  0.00    -0.056 C 
ATOM     34  H   LIG d   1       9.084 -11.460  -3.713  0.00  0.00     0.024 H 
ATOM     35  H   LIG d   1       9.111  -9.747  -4.199  0.00  0.00     0.024 H 
ATOM     36  H   LIG d   1       9.571 -10.211  -2.543  0.00  0.00     0.024 H 
ENDBRANCH  28  33
BRANCH  28  37
ATOM     37  C   LIG d   1       6.769 -11.657  -2.963  0.00  0.00    -0.056 C 
ATOM     38  H   LIG d   1       5.688 -11.521  -2.973  0.00  0.00     0.024 H 
ATOM     39  H   LIG d   1       7.075 -12.196  -3.860  0.00  0.00     0.024 H 
ATOM     40  H   LIG d   1       7.056 -12.227  -2.080  0.00  0.00     0.024 H 
ENDBRANCH  28  37
ENDBRANCH  22  28
ENDBRANCH  15  18
ENDBRANCH   1  15
BRANCH   4  41
ATOM     41  C   LIG d   1       5.466  -1.135  -5.711  0.00  0.00     0.061 C 
ATOM     42  H   LIG d   1       6.555  -1.148  -5.702  0.00  0.00     0.056 H 
BRANCH  41  43
ATOM     43  C   LIG d   1       4.958  -0.604  -4.396  0.00  0.00    -0.026 A 
ATOM     44  C   LIG d   1       5.739   0.261  -3.651  0.00  0.00    -0.057 A 
ATOM     45  C   LIG d   1       5.272   0.751  -2.447  0.00  0.00    -0.061 A 
ATOM     46  H   LIG d   1       6.714   0.554  -4.013  0.00  0.00     0.062 H 
ATOM     47  C   LIG d   1       4.027   0.371  -1.981  0.00  0.00    -0.062 A 
ATOM     48  H   LIG d   1       5.881   1.430  -1.868  0.00  0.00     0.062 H 
ATOM     49  C   LIG d   1       3.248  -0.498  -2.723  0.00  0.00    -0.061 A 
ATOM     50  H   LIG d   1       3.662   0.752  -1.039  0.00  0.00     0.062 H 
ATOM     51  C   LIG d   1       3.713  -0.985  -3.930  0.00  0.00    -0.057 A 
ATOM     52  H   LIG d   1       2.274  -0.794  -2.360  0.00  0.00     0.062 H 
ATOM     53  H   LIG d   1       3.105  -1.663  -4.509  0.00  0.00     0.062 H 
ENDBRANCH  41  43
BRANCH  41  54
ATOM     54  C   LIG d   1       4.982  -0.250  -6.831  0.00  0.00    -0.026 A 
ATOM     55  C   LIG d   1       5.895   0.369  -7.665  0.00  0.00    -0.055 A 
ATOM     56  C   LIG d   1       5.452   1.177  -8.695  0.00  0.00    -0.043 A 
ATOM     57  H   LIG d   1       6.953   0.218  -7.514  0.00  0.00     0.062 H 
ATOM     58  C   LIG d   1       4.096   1.375  -8.885  0.00  0.00     0.041 A 
ATOM     59  H   LIG d   1       6.165   1.656  -9.350  0.00  0.00     0.063 H 
ATOM     60  C   LIG d   1       3.184   0.759  -8.047  0.00  0.00    -0.043 A 
ATOM     61 CL   LIG d   1       3.539   2.394 -10.176  0.00  0.00    -0.084 Cl
ATOM     62  C   LIG d   1       3.628  -0.052  -7.020  0.00  0.00    -0.055 A 
ATOM     63  H   LIG d   1       2.125   0.914  -8.194  0.00  0.00     0.063 H 
ATOM     64  H   LIG d   1       2.915  -0.533  -6.365  0.00  0.00     0.062 H 
ENDBRANCH  41  54
ENDBRANCH   4  41
TORSDOF 9
ENDMDL
MODEL 3
REMARK VINA RESULT:      -6.9      2.750      4.043
REMARK  9 active torsions:
REMARK  status: ('A' for Active; 'I' for Inactive)
REMARK    1  A    between atoms: C_1  and  C_2 
REMARK    2  A    between atoms: C_2  and  C_3 
REMARK    3  A    between atoms: C_2  and  C_4 
REMARK    4  A    between atoms: C_2  and  C_5 
REMARK    5  A    between atoms: C_8  and  C_11 
REMARK    6  A    between atoms: C_11  and  N_12 
REMARK    7  A    between atoms: N_15  and  C_18 
REMARK    8  A    between atoms: C_18  and  C_20 
REMARK    9  A    between atoms: C_18  and  C_26 
ROOT
ATOM      1  N   LIG d   1       5.442  -4.813  -7.115  0.00  0.00    -0.296 N 
ATOM      2  C   LIG d   1       5.079  -4.098  -8.348  0.00  0.00     0.012 C 
ATOM      3  C   LIG d   1       4.065  -3.001  -8.017  0.00  0.00     0.013 C 
ATOM      4  N   LIG d   1       4.646  -2.081  -7.030  0.00  0.00    -0.289 N 
ATOM      5  C   LIG d   1       5.009  -2.795  -5.798  0.00  0.00     0.013 C 
ATOM      6  C   LIG d   1       6.023  -3.894  -6.128  0.00  0.00     0.012 C 
ATOM      7  H   LIG d   1       5.972  -3.650  -8.783  0.00  0.00     0.044 H 
ATOM      8  H   LIG d   1       4.639  -4.798  -9.058  0.00  0.00     0.044 H 
ATOM      9  H   LIG d   1       3.817  -2.450  -8.925  0.00  0.00     0.044 H 
ATOM     10  H   LIG d   1       3.161  -3.451  -7.606  0.00  0.00     0.044 H 
ATOM     11  H   LIG d   1       5.449  -2.095  -5.087  0.00  0.00     0.044 H 
ATOM     12  H   LIG d   1       4.116  -3.244  -5.362  0.00  0.00     0.044 H 
ATOM     13  H   LIG d   1       6.271  -4.443  -5.221  0.00  0.00     0.044 H 
ATOM     14  H   LIG d   1       6.927  -3.443  -6.539  0.00  0.00     0.044 H 
ENDROOT
BRANCH   1  15
ATOM     15  C   LIG d   1       6.358  -5.926  -7.402  0.00  0.00     0.024 C 
ATOM     16  H   LIG d   1       7.387  -5.583  -7.304  0.00  0.00     0.048 H 
ATOM     17  H   LIG d   1       6.188  -6.282  -8.418  0.00  0.00     0.048 H 
BRANCH  15  18
ATOM     18  C   LIG d   1       6.106  -7.047  -6.428  0.00  0.00    -0.033 A 
ATOM     19  C   LIG d   1       7.068  -7.377  -5.491  0.00  0.00    -0.057 A 
ATOM     20  C   LIG d   1       6.838  -8.404  -4.595  0.00  0.00    -0.058 A 
ATOM     21  H   LIG d   1       8.000  -6.832  -5.458  0.00  0.00     0.062 H 
ATOM     22  C   LIG d   1       5.644  -9.102  -4.636  0.00  0.00    -0.042 A 
ATOM     23  H   LIG d   1       7.589  -8.662  -3.863  0.00  0.00     0.062 H 
ATOM     24  C   LIG d   1       4.684  -8.775  -5.576  0.00  0.00    -0.058 A 
ATOM     25  C   LIG d   1       4.913  -7.745  -6.468  0.00  0.00    -0.057 A 
ATOM     26  H   LIG d   1       3.754  -9.323  -5.610  0.00  0.00     0.062 H 
ATOM     27  H   LIG d   1       4.162  -7.486  -7.200  0.00  0.00     0.062 H 
BRANCH  22  28
ATOM     28  C   LIG d   1       5.393 -10.222  -3.660  0.00  0.00    -0.013 C 
BRANCH  28  29
ATOM     29  C   LIG d   1       3.942 -10.161  -3.177  0.00  0.00    -0.056 C 
ATOM     30  H   LIG d   1       3.622 -11.154  -2.863  0.00  0.00     0.024 H 
ATOM     31  H   LIG d   1       3.869  -9.472  -2.336  0.00  0.00     0.024 H 
ATOM     32  H   LIG d   1       3.304  -9.813  -3.989  0.00  0.00     0.024 H 
ENDBRANCH  28  29
BRANCH  28  33
ATOM     33  C   LIG d   1       6.336 -10.077  -2.464  0.00  0.00    -0.056 C 
ATOM     34  H   LIG d   1       7.012  -9.238  -2.634  0.00  0.00     0.024 H 
ATOM     35  H   LIG d   1       5.753  -9.897  -1.560  0.00  0.00     0.024 H 
ATOM     36  H   LIG d   1       6.917 -10.992  -2.346  0.00  0.00     0.024 H 
ENDBRANCH  28  33
BRANCH  28  37
ATOM     37  C   LIG d   1       5.646 -11.565  -4.349  0.00  0.00    -0.056 C 
ATOM     38  H   LIG d   1       5.711 -11.413  -5.426  0.00  0.00     0.024 H 
ATOM     39  H   LIG d   1       6.581 -11.990  -3.984  0.00  0.00     0.024 H 
ATOM     40  H   LIG d   1       4.826 -12.248  -4.127  0.00  0.00     0.024 H 
ENDBRANCH  28  37
ENDBRANCH  22  28
ENDBRANCH  15  18
ENDBRANCH   1  15
BRANCH   4  41
ATOM     41  C   LIG d   1       3.730  -0.969  -6.743  0.00  0.00     0.061 C 
ATOM     42  H   LIG d   1       2.701  -1.315  -6.831  0.00  0.00     0.056 H 
BRANCH  41  43
ATOM     43  C   LIG d   1       3.972   0.147  -7.726  0.00  0.00    -0.026 A 
ATOM     44  C   LIG d   1       2.977   1.073  -7.980  0.00  0.00    -0.057 A 
ATOM     45  C   LIG d   1       3.200   2.098  -8.879  0.00  0.00    -0.061 A 
ATOM     46  H   LIG d   1       2.026   0.995  -7.473  0.00  0.00     0.062 H 
ATOM     47  C   LIG d   1       4.414   2.194  -9.532  0.00  0.00    -0.062 A 
ATOM     48  H   LIG d   1       2.424   2.824  -9.074  0.00  0.00     0.062 H 
ATOM     49  C   LIG d   1       5.408   1.265  -9.281  0.00  0.00    -0.061 A 
ATOM     50  H   LIG d   1       4.589   2.994 -10.236  0.00  0.00     0.062 H 
ATOM     51  C   LIG d   1       5.187   0.242  -8.379  0.00  0.00    -0.057 A 
ATOM     52  H   LIG d   1       6.358   1.341  -9.791  0.00  0.00     0.062 H 
ATOM     53  H   LIG d   1       5.963  -0.483  -8.184  0.00  0.00     0.062 H 
ENDBRANCH  41  43
BRANCH  41  54
ATOM     54  C   LIG d   1       3.974  -0.465  -5.343  0.00  0.00    -0.026 A 
ATOM     55  C   LIG d   1       5.263  -0.194  -4.921  0.00  0.00    -0.055 A 
ATOM     56  C   LIG d   1       5.487   0.272  -3.640  0.00  0.00    -0.043 A 
ATOM     57  H   LIG d   1       6.094  -0.344  -5.595  0.00  0.00     0.062 H 
ATOM     58  C   LIG d   1       4.423   0.457  -2.775  0.00  0.00     0.041 A 
ATOM     59  H   LIG d   1       6.494   0.488  -3.312  0.00  0.00     0.063 H 
ATOM     60  C   LIG d   1       3.135   0.181  -3.197  0.00  0.00    -0.043 A 
ATOM     61 CL   LIG d   1       4.705   1.037  -1.163  0.00  0.00    -0.084 Cl
ATOM     62  C   LIG d   1       2.911  -0.280  -4.480  0.00  0.00    -0.055 A 
ATOM     63  H   LIG d   1       2.303   0.325  -2.522  0.00  0.00     0.063 H 
ATOM     64  H   LIG d   1       1.905  -0.496  -4.809  0.00  0.00     0.062 H 
ENDBRANCH  41  54
ENDBRANCH   4  41
TORSDOF 9
ENDMDL
MODEL 4
REMARK VINA RESULT:      -6.7      3.718     10.571
REMARK  9 active torsions:
REMARK  status: ('A' for Active; 'I' for Inactive)
REMARK    1  A    between atoms: C_1  and  C_2 
REMARK    2  A    between atoms: C_2  and  C_3 
REMARK    3  A    between atoms: C_2  and  C_4 
REMARK    4  A    between atoms: C_2  and  C_5 
REMARK    5  A    between atoms: C_8  and  C_11 
REMARK    6  A    between atoms: C_11  and  N_12 
REMARK    7  A    between atoms: N_15  and  C_18 
REMARK    8  A    between atoms: C_18  and  C_20 
REMARK    9  A    between atoms: C_18  and  C_26 
ROOT
ATOM      1  N   LIG d   1       9.140   1.872  -4.734  0.00  0.00    -0.296 N 
ATOM      2  C   LIG d   1       8.055   1.730  -3.753  0.00  0.00     0.012 C 
ATOM      3  C   LIG d   1       7.018   0.737  -4.283  0.00  0.00     0.013 C 
ATOM      4  N   LIG d   1       7.667  -0.556  -4.537  0.00  0.00    -0.289 N 
ATOM      5  C   LIG d   1       8.752  -0.415  -5.518  0.00  0.00     0.013 C 
ATOM      6  C   LIG d   1       9.789   0.578  -4.988  0.00  0.00     0.012 C 
ATOM      7  H   LIG d   1       8.462   1.363  -2.811  0.00  0.00     0.044 H 
ATOM      8  H   LIG d   1       7.582   2.699  -3.592  0.00  0.00     0.044 H 
ATOM      9  H   LIG d   1       6.227   0.609  -3.544  0.00  0.00     0.044 H 
ATOM     10  H   LIG d   1       6.590   1.118  -5.211  0.00  0.00     0.044 H 
ATOM     11  H   LIG d   1       9.225  -1.384  -5.679  0.00  0.00     0.044 H 
ATOM     12  H   LIG d   1       8.345  -0.048  -6.459  0.00  0.00     0.044 H 
ATOM     13  H   LIG d   1      10.580   0.706  -5.726  0.00  0.00     0.044 H 
ATOM     14  H   LIG d   1      10.216   0.198  -4.060  0.00  0.00     0.044 H 
ENDROOT
BRANCH   1  15
ATOM     15  C   LIG d   1      10.119   2.875  -4.295  0.00  0.00     0.024 C 
ATOM     16  H   LIG d   1      11.121   2.447  -4.335  0.00  0.00     0.048 H 
ATOM     17  H   LIG d   1       9.895   3.179  -3.273  0.00  0.00     0.048 H 
BRANCH  15  18
ATOM     18  C   LIG d   1      10.049   4.075  -5.203  0.00  0.00    -0.033 A 
ATOM     19  C   LIG d   1       9.646   5.299  -4.703  0.00  0.00    -0.057 A 
ATOM     20  C   LIG d   1       9.583   6.401  -5.535  0.00  0.00    -0.058 A 
ATOM     21  H   LIG d   1       9.380   5.395  -3.659  0.00  0.00     0.062 H 
ATOM     22  C   LIG d   1       9.924   6.279  -6.869  0.00  0.00    -0.042 A 
ATOM     23  H   LIG d   1       9.268   7.357  -5.143  0.00  0.00     0.062 H 
ATOM     24  C   LIG d   1      10.323   5.054  -7.372  0.00  0.00    -0.058 A 
ATOM     25  C   LIG d   1      10.390   3.954  -6.538  0.00  0.00    -0.057 A 
ATOM     26  H   LIG d   1      10.586   4.959  -8.415  0.00  0.00     0.062 H 
ATOM     27  H   LIG d   1      10.706   2.998  -6.929  0.00  0.00     0.062 H 
BRANCH  22  28
ATOM     28  C   LIG d   1       9.856   7.480  -7.777  0.00  0.00    -0.013 C 
BRANCH  28  29
ATOM     29  C   LIG d   1      11.270   7.885  -8.194  0.00  0.00    -0.056 C 
ATOM     30  H   LIG d   1      11.651   8.637  -7.504  0.00  0.00     0.024 H 
ATOM     31  H   LIG d   1      11.920   7.010  -8.174  0.00  0.00     0.024 H 
ATOM     32  H   LIG d   1      11.247   8.298  -9.203  0.00  0.00     0.024 H 
ENDBRANCH  28  29
BRANCH  28  33
ATOM     33  C   LIG d   1       9.189   8.642  -7.036  0.00  0.00    -0.056 C 
ATOM     34  H   LIG d   1       9.830   9.521  -7.089  0.00  0.00     0.024 H 
ATOM     35  H   LIG d   1       8.227   8.863  -7.498  0.00  0.00     0.024 H 
ATOM     36  H   LIG d   1       9.037   8.366  -5.992  0.00  0.00     0.024 H 
ENDBRANCH  28  33
BRANCH  28  37
ATOM     37  C   LIG d   1       9.036   7.132  -9.021  0.00  0.00    -0.056 C 
ATOM     38  H   LIG d   1       8.492   8.015  -9.356  0.00  0.00     0.024 H 
ATOM     39  H   LIG d   1       9.704   6.796  -9.815  0.00  0.00     0.024 H 
ATOM     40  H   LIG d   1       8.329   6.339  -8.781  0.00  0.00     0.024 H 
ENDBRANCH  28  37
ENDBRANCH  22  28
ENDBRANCH  15  18
ENDBRANCH   1  15
BRANCH   4  41
ATOM     41  C   LIG d   1       6.687  -1.560  -4.976  0.00  0.00     0.061 C 
ATOM     42  H   LIG d   1       6.445  -1.395  -6.025  0.00  0.00     0.056 H 
BRANCH  41  43
ATOM     43  C   LIG d   1       5.437  -1.437  -4.145  0.00  0.00    -0.026 A 
ATOM     44  C   LIG d   1       5.467  -1.750  -2.798  0.00  0.00    -0.057 A 
ATOM     45  C   LIG d   1       4.321  -1.633  -2.036  0.00  0.00    -0.061 A 
ATOM     46  H   LIG d   1       6.388  -2.084  -2.343  0.00  0.00     0.062 H 
ATOM     47  C   LIG d   1       3.141  -1.213  -2.620  0.00  0.00    -0.062 A 
ATOM     48  H   LIG d   1       4.346  -1.875  -0.983  0.00  0.00     0.062 H 
ATOM     49  C   LIG d   1       3.109  -0.904  -3.968  0.00  0.00    -0.061 A 
ATOM     50  H   LIG d   1       2.244  -1.123  -2.024  0.00  0.00     0.062 H 
ATOM     51  C   LIG d   1       4.256  -1.016  -4.730  0.00  0.00    -0.057 A 
ATOM     52  H   LIG d   1       2.187  -0.573  -4.424  0.00  0.00     0.062 H 
ATOM     53  H   LIG d   1       4.232  -0.775  -5.782  0.00  0.00     0.062 H 
ENDBRANCH  41  43
BRANCH  41  54
ATOM     54  C   LIG d   1       7.271  -2.939  -4.805  0.00  0.00    -0.026 A 
ATOM     55  C   LIG d   1       6.771  -3.997  -5.543  0.00  0.00    -0.055 A 
ATOM     56  C   LIG d   1       7.309  -5.260  -5.390  0.00  0.00    -0.043 A 
ATOM     57  H   LIG d   1       5.962  -3.833  -6.240  0.00  0.00     0.062 H 
ATOM     58  C   LIG d   1       8.340  -5.470  -4.492  0.00  0.00     0.041 A 
ATOM     59  H   LIG d   1       6.921  -6.086  -5.970  0.00  0.00     0.063 H 
ATOM     60  C   LIG d   1       8.836  -4.412  -3.752  0.00  0.00    -0.043 A 
ATOM     61 CL   LIG d   1       9.012  -7.059  -4.297  0.00  0.00    -0.084 Cl
ATOM     62  C   LIG d   1       8.301  -3.148  -3.908  0.00  0.00    -0.055 A 
ATOM     63  H   LIG d   1       9.642  -4.575  -3.050  0.00  0.00     0.063 H 
ATOM     64  H   LIG d   1       8.689  -2.322  -3.330  0.00  0.00     0.062 H 
ENDBRANCH  41  54
ENDBRANCH   4  41
TORSDOF 9
ENDMDL
MODEL 5
REMARK VINA RESULT:      -6.7      5.365      7.817
REMARK  9 active torsions:
REMARK  status: ('A' for Active; 'I' for Inactive)
REMARK    1  A    between atoms: C_1  and  C_2 
REMARK    2  A    between atoms: C_2  and  C_3 
REMARK    3  A    between atoms: C_2  and  C_4 
REMARK    4  A    between atoms: C_2  and  C_5 
REMARK    5  A    between atoms: C_8  and  C_11 
REMARK    6  A    between atoms: C_11  and  N_12 
REMARK    7  A    between atoms: N_15  and  C_18 
REMARK    8  A    between atoms: C_18  and  C_20 
REMARK    9  A    between atoms: C_18  and  C_26 
ROOT
ATOM      1  N   LIG d   1       4.426  -0.543  -8.720  0.00  0.00    -0.296 N 
ATOM      2  C   LIG d   1       4.119   0.290  -7.548  0.00  0.00     0.012 C 
ATOM      3  C   LIG d   1       4.249  -0.555  -6.278  0.00  0.00     0.013 C 
ATOM      4  N   LIG d   1       5.610  -1.099  -6.192  0.00  0.00    -0.289 N 
ATOM      5  C   LIG d   1       5.918  -1.932  -7.363  0.00  0.00     0.013 C 
ATOM      6  C   LIG d   1       5.787  -1.087  -8.633  0.00  0.00     0.012 C 
ATOM      7  H   LIG d   1       4.818   1.125  -7.503  0.00  0.00     0.044 H 
ATOM      8  H   LIG d   1       3.101   0.670  -7.629  0.00  0.00     0.044 H 
ATOM      9  H   LIG d   1       4.050   0.068  -5.405  0.00  0.00     0.044 H 
ATOM     10  H   LIG d   1       3.531  -1.374  -6.311  0.00  0.00     0.044 H 
ATOM     11  H   LIG d   1       6.936  -2.312  -7.282  0.00  0.00     0.044 H 
ATOM     12  H   LIG d   1       5.219  -2.767  -7.409  0.00  0.00     0.044 H 
ATOM     13  H   LIG d   1       5.987  -1.710  -9.505  0.00  0.00     0.044 H 
ATOM     14  H   LIG d   1       6.506  -0.268  -8.601  0.00  0.00     0.044 H 
ENDROOT
BRANCH   1  15
ATOM     15  C   LIG d   1       4.239   0.213  -9.966  0.00  0.00     0.024 C 
ATOM     16  H   LIG d   1       5.178   0.241 -10.518  0.00  0.00     0.048 H 
ATOM     17  H   LIG d   1       3.924   1.229  -9.730  0.00  0.00     0.048 H 
BRANCH  15  18
ATOM     18  C   LIG d   1       3.183  -0.458 -10.805  0.00  0.00    -0.033 A 
ATOM     19  C   LIG d   1       1.888  -0.563 -10.334  0.00  0.00    -0.057 A 
ATOM     20  C   LIG d   1       0.918  -1.177 -11.104  0.00  0.00    -0.058 A 
ATOM     21  H   LIG d   1       1.633  -0.165  -9.362  0.00  0.00     0.062 H 
ATOM     22  C   LIG d   1       1.244  -1.686 -12.348  0.00  0.00    -0.042 A 
ATOM     23  H   LIG d   1      -0.094  -1.259 -10.735  0.00  0.00     0.062 H 
ATOM     24  C   LIG d   1       2.540  -1.585 -12.818  0.00  0.00    -0.058 A 
ATOM     25  C   LIG d   1       3.508  -0.967 -12.049  0.00  0.00    -0.057 A 
ATOM     26  H   LIG d   1       2.795  -1.986 -13.788  0.00  0.00     0.062 H 
ATOM     27  H   LIG d   1       4.520  -0.884 -12.418  0.00  0.00     0.062 H 
BRANCH  22  28
ATOM     28  C   LIG d   1       0.187  -2.356 -13.188  0.00  0.00    -0.013 C 
BRANCH  28  29
ATOM     29  C   LIG d   1       0.698  -2.509 -14.622  0.00  0.00    -0.056 C 
ATOM     30  H   LIG d   1       0.692  -3.563 -14.899  0.00  0.00     0.024 H 
ATOM     31  H   LIG d   1       0.051  -1.951 -15.300  0.00  0.00     0.024 H 
ATOM     32  H   LIG d   1       1.715  -2.122 -14.689  0.00  0.00     0.024 H 
ENDBRANCH  28  29
BRANCH  28  33
ATOM     33  C   LIG d   1      -1.083  -1.500 -13.187  0.00  0.00    -0.056 C 
ATOM     34  H   LIG d   1      -1.912  -2.082 -13.589  0.00  0.00     0.024 H 
ATOM     35  H   LIG d   1      -1.314  -1.194 -12.166  0.00  0.00     0.024 H 
ATOM     36  H   LIG d   1      -0.925  -0.617 -13.805  0.00  0.00     0.024 H 
ENDBRANCH  28  33
BRANCH  28  37
ATOM     37  C   LIG d   1      -0.127  -3.736 -12.608  0.00  0.00    -0.056 C 
ATOM     38  H   LIG d   1      -0.744  -3.622 -11.716  0.00  0.00     0.024 H 
ATOM     39  H   LIG d   1      -0.665  -4.328 -13.348  0.00  0.00     0.024 H 
ATOM     40  H   LIG d   1       0.802  -4.240 -12.344  0.00  0.00     0.024 H 
ENDBRANCH  28  37
ENDBRANCH  22  28
ENDBRANCH  15  18
ENDBRANCH   1  15
BRANCH   4  41
ATOM     41  C   LIG d   1       5.798  -1.854  -4.945  0.00  0.00     0.061 C 
ATOM     42  H   LIG d   1       5.178  -2.750  -4.968  0.00  0.00     0.056 H 
BRANCH  41  43
ATOM     43  C   LIG d   1       5.399  -0.996  -3.773  0.00  0.00    -0.026 A 
ATOM     44  C   LIG d   1       5.778   0.333  -3.729  0.00  0.00    -0.057 A 
ATOM     45  C   LIG d   1       5.408   1.122  -2.656  0.00  0.00    -0.061 A 
ATOM     46  H   LIG d   1       6.360   0.755  -4.535  0.00  0.00     0.062 H 
ATOM     47  C   LIG d   1       4.668   0.580  -1.622  0.00  0.00    -0.062 A 
ATOM     48  H   LIG d   1       5.701   2.161  -2.624  0.00  0.00     0.062 H 
ATOM     49  C   LIG d   1       4.293  -0.751  -1.664  0.00  0.00    -0.061 A 
ATOM     50  H   LIG d   1       4.381   1.195  -0.782  0.00  0.00     0.062 H 
ATOM     51  C   LIG d   1       4.659  -1.539  -2.739  0.00  0.00    -0.057 A 
ATOM     52  H   LIG d   1       3.713  -1.174  -0.857  0.00  0.00     0.062 H 
ATOM     53  H   LIG d   1       4.366  -2.577  -2.772  0.00  0.00     0.062 H 
ENDBRANCH  41  43
BRANCH  41  54
ATOM     54  C   LIG d   1       7.247  -2.249  -4.810  0.00  0.00    -0.026 A 
ATOM     55  C   LIG d   1       8.236  -1.424  -5.314  0.00  0.00    -0.055 A 
ATOM     56  C   LIG d   1       9.565  -1.783  -5.185  0.00  0.00    -0.043 A 
ATOM     57  H   LIG d   1       7.971  -0.500  -5.804  0.00  0.00     0.062 H 
ATOM     58  C   LIG d   1       9.904  -2.970  -4.562  0.00  0.00     0.041 A 
ATOM     59  H   LIG d   1      10.338  -1.137  -5.575  0.00  0.00     0.063 H 
ATOM     60  C   LIG d   1       8.913  -3.796  -4.063  0.00  0.00    -0.043 A 
ATOM     61 CL   LIG d   1      11.573  -3.423  -4.405  0.00  0.00    -0.084 Cl
ATOM     62  C   LIG d   1       7.585  -3.435  -4.187  0.00  0.00    -0.055 A 
ATOM     63  H   LIG d   1       9.177  -4.724  -3.576  0.00  0.00     0.063 H 
ATOM     64  H   LIG d   1       6.811  -4.080  -3.797  0.00  0.00     0.062 H 
ENDBRANCH  41  54
ENDBRANCH   4  41
TORSDOF 9
ENDMDL
MODEL 6
REMARK VINA RESULT:      -6.4      4.891     10.064
REMARK  9 active torsions:
REMARK  status: ('A' for Active; 'I' for Inactive)
REMARK    1  A    between atoms: C_1  and  C_2 
REMARK    2  A    between atoms: C_2  and  C_3 
REMARK    3  A    between atoms: C_2  and  C_4 
REMARK    4  A    between atoms: C_2  and  C_5 
REMARK    5  A    between atoms: C_8  and  C_11 
REMARK    6  A    between atoms: C_11  and  N_12 
REMARK    7  A    between atoms: N_15  and  C_18 
REMARK    8  A    between atoms: C_18  and  C_20 
REMARK    9  A    between atoms: C_18  and  C_26 
ROOT
ATOM      1  N   LIG d   1       8.609   1.590  -5.544  0.00  0.00    -0.296 N 
ATOM      2  C   LIG d   1       8.147   0.661  -4.503  0.00  0.00     0.012 C 
ATOM      3  C   LIG d   1       6.650   0.397  -4.687  0.00  0.00     0.013 C 
ATOM      4  N   LIG d   1       6.414  -0.158  -6.026  0.00  0.00    -0.289 N 
ATOM      5  C   LIG d   1       6.876   0.770  -7.067  0.00  0.00     0.013 C 
ATOM      6  C   LIG d   1       8.373   1.035  -6.883  0.00  0.00     0.012 C 
ATOM      7  H   LIG d   1       8.695  -0.277  -4.584  0.00  0.00     0.044 H 
ATOM      8  H   LIG d   1       8.320   1.100  -3.521  0.00  0.00     0.044 H 
ATOM      9  H   LIG d   1       6.312  -0.314  -3.933  0.00  0.00     0.044 H 
ATOM     10  H   LIG d   1       6.100   1.332  -4.578  0.00  0.00     0.044 H 
ATOM     11  H   LIG d   1       6.702   0.331  -8.050  0.00  0.00     0.044 H 
ATOM     12  H   LIG d   1       6.328   1.709  -6.986  0.00  0.00     0.044 H 
ATOM     13  H   LIG d   1       8.711   1.746  -7.637  0.00  0.00     0.044 H 
ATOM     14  H   LIG d   1       8.923   0.100  -6.992  0.00  0.00     0.044 H 
ENDROOT
BRANCH   1  15
ATOM     15  C   LIG d   1      10.026   1.928  -5.356  0.00  0.00     0.024 C 
ATOM     16  H   LIG d   1      10.466   2.196  -6.317  0.00  0.00     0.048 H 
ATOM     17  H   LIG d   1      10.553   1.069  -4.943  0.00  0.00     0.048 H 
BRANCH  15  18
ATOM     18  C   LIG d   1      10.143   3.093  -4.408  0.00  0.00    -0.033 A 
ATOM     19  C   LIG d   1      10.763   2.928  -3.184  0.00  0.00    -0.057 A 
ATOM     20  C   LIG d   1      10.872   3.997  -2.313  0.00  0.00    -0.058 A 
ATOM     21  H   LIG d   1      11.164   1.964  -2.906  0.00  0.00     0.062 H 
ATOM     22  C   LIG d   1      10.360   5.231  -2.668  0.00  0.00    -0.042 A 
ATOM     23  H   LIG d   1      11.357   3.868  -1.357  0.00  0.00     0.062 H 
ATOM     24  C   LIG d   1       9.735   5.395  -3.891  0.00  0.00    -0.058 A 
ATOM     25  C   LIG d   1       9.631   4.328  -4.762  0.00  0.00    -0.057 A 
ATOM     26  H   LIG d   1       9.332   6.359  -4.166  0.00  0.00     0.062 H 
ATOM     27  H   LIG d   1       9.147   4.456  -5.719  0.00  0.00     0.062 H 
BRANCH  22  28
ATOM     28  C   LIG d   1      10.478   6.396  -1.720  0.00  0.00    -0.013 C 
BRANCH  28  29
ATOM     29  C   LIG d   1       9.178   7.203  -1.740  0.00  0.00    -0.056 C 
ATOM     30  H   LIG d   1       9.222   7.981  -0.978  0.00  0.00     0.024 H 
ATOM     31  H   LIG d   1       9.050   7.660  -2.721  0.00  0.00     0.024 H 
ATOM     32  H   LIG d   1       8.337   6.541  -1.534  0.00  0.00     0.024 H 
ENDBRANCH  28  29
BRANCH  28  33
ATOM     33  C   LIG d   1      11.642   7.292  -2.155  0.00  0.00    -0.056 C 
ATOM     34  H   LIG d   1      11.630   7.399  -3.240  0.00  0.00     0.024 H 
ATOM     35  H   LIG d   1      11.539   8.272  -1.690  0.00  0.00     0.024 H 
ATOM     36  H   LIG d   1      12.583   6.839  -1.845  0.00  0.00     0.024 H 
ENDBRANCH  28  33
BRANCH  28  37
ATOM     37  C   LIG d   1      10.736   5.878  -0.304  0.00  0.00    -0.056 C 
ATOM     38  H   LIG d   1      11.631   5.257  -0.303  0.00  0.00     0.024 H 
ATOM     39  H   LIG d   1      10.878   6.721   0.372  0.00  0.00     0.024 H 
ATOM     40  H   LIG d   1       9.883   5.286   0.028  0.00  0.00     0.024 H 
ENDBRANCH  28  37
ENDBRANCH  22  28
ENDBRANCH  15  18
ENDBRANCH   1  15
BRANCH   4  41
ATOM     41  C   LIG d   1       4.997  -0.496  -6.213  0.00  0.00     0.061 C 
ATOM     42  H   LIG d   1       4.457   0.384  -6.560  0.00  0.00     0.056 H 
BRANCH  41  43
ATOM     43  C   LIG d   1       4.414  -0.960  -4.904  0.00  0.00    -0.026 A 
ATOM     44  C   LIG d   1       3.388  -0.246  -4.312  0.00  0.00    -0.057 A 
ATOM     45  C   LIG d   1       2.851  -0.674  -3.113  0.00  0.00    -0.061 A 
ATOM     46  H   LIG d   1       3.006   0.644  -4.789  0.00  0.00     0.062 H 
ATOM     47  C   LIG d   1       3.344  -1.811  -2.500  0.00  0.00    -0.062 A 
ATOM     48  H   LIG d   1       2.047  -0.118  -2.653  0.00  0.00     0.062 H 
ATOM     49  C   LIG d   1       4.373  -2.523  -3.090  0.00  0.00    -0.061 A 
ATOM     50  H   LIG d   1       2.925  -2.144  -1.562  0.00  0.00     0.062 H 
ATOM     51  C   LIG d   1       4.908  -2.097  -4.291  0.00  0.00    -0.057 A 
ATOM     52  H   LIG d   1       4.757  -3.412  -2.612  0.00  0.00     0.062 H 
ATOM     53  H   LIG d   1       5.711  -2.653  -4.751  0.00  0.00     0.062 H 
ENDBRANCH  41  43
BRANCH  41  54
ATOM     54  C   LIG d   1       4.874  -1.597  -7.236  0.00  0.00    -0.026 A 
ATOM     55  C   LIG d   1       5.904  -2.506  -7.400  0.00  0.00    -0.055 A 
ATOM     56  C   LIG d   1       5.790  -3.518  -8.333  0.00  0.00    -0.043 A 
ATOM     57  H   LIG d   1       6.796  -2.425  -6.796  0.00  0.00     0.062 H 
ATOM     58  C   LIG d   1       4.651  -3.617  -9.111  0.00  0.00     0.041 A 
ATOM     59  H   LIG d   1       6.593  -4.230  -8.458  0.00  0.00     0.063 H 
ATOM     60  C   LIG d   1       3.623  -2.705  -8.949  0.00  0.00    -0.043 A 
ATOM     61 CL   LIG d   1       4.509  -4.886 -10.288  0.00  0.00    -0.084 Cl
ATOM     62  C   LIG d   1       3.735  -1.696  -8.012  0.00  0.00    -0.055 A 
ATOM     63  H   LIG d   1       2.732  -2.781  -9.557  0.00  0.00     0.063 H 
ATOM     64  H   LIG d   1       2.933  -0.984  -7.886  0.00  0.00     0.062 H 
ENDBRANCH  41  54
ENDBRANCH   4  41
TORSDOF 9
ENDMDL
MODEL 7
REMARK VINA RESULT:      -6.4      3.504      9.934
REMARK  9 active torsions:
REMARK  status: ('A' for Active; 'I' for Inactive)
REMARK    1  A    between atoms: C_1  and  C_2 
REMARK    2  A    between atoms: C_2  and  C_3 
REMARK    3  A    between atoms: C_2  and  C_4 
REMARK    4  A    between atoms: C_2  and  C_5 
REMARK    5  A    between atoms: C_8  and  C_11 
REMARK    6  A    between atoms: C_11  and  N_12 
REMARK    7  A    between atoms: N_15  and  C_18 
REMARK    8  A    between atoms: C_18  and  C_20 
REMARK    9  A    between atoms: C_18  and  C_26 
ROOT
ATOM      1  N   LIG d   1       8.807   0.307  -5.407  0.00  0.00    -0.296 N 
ATOM      2  C   LIG d   1       8.099  -0.113  -4.188  0.00  0.00     0.012 C 
ATOM      3  C   LIG d   1       6.666  -0.511  -4.546  0.00  0.00     0.013 C 
ATOM      4  N   LIG d   1       6.694  -1.597  -5.534  0.00  0.00    -0.289 N 
ATOM      5  C   LIG d   1       7.401  -1.179  -6.753  0.00  0.00     0.013 C 
ATOM      6  C   LIG d   1       8.835  -0.779  -6.395  0.00  0.00     0.012 C 
ATOM      7  H   LIG d   1       8.614  -0.964  -3.744  0.00  0.00     0.044 H 
ATOM      8  H   LIG d   1       8.080   0.713  -3.477  0.00  0.00     0.044 H 
ATOM      9  H   LIG d   1       6.148  -0.850  -3.648  0.00  0.00     0.044 H 
ATOM     10  H   LIG d   1       6.142   0.349  -4.964  0.00  0.00     0.044 H 
ATOM     11  H   LIG d   1       7.420  -2.004  -7.465  0.00  0.00     0.044 H 
ATOM     12  H   LIG d   1       6.886  -0.326  -7.197  0.00  0.00     0.044 H 
ATOM     13  H   LIG d   1       9.352  -0.441  -7.293  0.00  0.00     0.044 H 
ATOM     14  H   LIG d   1       9.358  -1.639  -5.977  0.00  0.00     0.044 H 
ENDROOT
BRANCH   1  15
ATOM     15  C   LIG d   1      10.165   0.770  -5.094  0.00  0.00     0.024 C 
ATOM     16  H   LIG d   1      10.814   0.599  -5.953  0.00  0.00     0.048 H 
ATOM     17  H   LIG d   1      10.548   0.219  -4.235  0.00  0.00     0.048 H 
BRANCH  15  18
ATOM     18  C   LIG d   1      10.132   2.241  -4.773  0.00  0.00    -0.033 A 
ATOM     19  C   LIG d   1      10.229   2.666  -3.461  0.00  0.00    -0.057 A 
ATOM     20  C   LIG d   1      10.201   4.016  -3.167  0.00  0.00    -0.058 A 
ATOM     21  H   LIG d   1      10.328   1.942  -2.665  0.00  0.00     0.062 H 
ATOM     22  C   LIG d   1      10.076   4.943  -4.185  0.00  0.00    -0.042 A 
ATOM     23  H   LIG d   1      10.277   4.347  -2.142  0.00  0.00     0.062 H 
ATOM     24  C   LIG d   1       9.974   4.518  -5.497  0.00  0.00    -0.058 A 
ATOM     25  C   LIG d   1      10.007   3.169  -5.791  0.00  0.00    -0.057 A 
ATOM     26  H   LIG d   1       9.872   5.243  -6.292  0.00  0.00     0.062 H 
ATOM     27  H   LIG d   1       9.932   2.836  -6.817  0.00  0.00     0.062 H 
BRANCH  22  28
ATOM     28  C   LIG d   1      10.044   6.415  -3.865  0.00  0.00    -0.013 C 
BRANCH  28  29
ATOM     29  C   LIG d   1       9.449   6.621  -2.471  0.00  0.00    -0.056 C 
ATOM     30  H   LIG d   1       9.666   7.632  -2.128  0.00  0.00     0.024 H 
ATOM     31  H   LIG d   1       8.369   6.474  -2.512  0.00  0.00     0.024 H 
ATOM     32  H   LIG d   1       9.887   5.901  -1.779  0.00  0.00     0.024 H 
ENDBRANCH  28  29
BRANCH  28  33
ATOM     33  C   LIG d   1       9.184   7.144  -4.901  0.00  0.00    -0.056 C 
ATOM     34  H   LIG d   1       8.914   8.129  -4.519  0.00  0.00     0.024 H 
ATOM     35  H   LIG d   1       9.747   7.254  -5.828  0.00  0.00     0.024 H 
ATOM     36  H   LIG d   1       8.279   6.567  -5.090  0.00  0.00     0.024 H 
ENDBRANCH  28  33
BRANCH  28  37
ATOM     37  C   LIG d   1      11.468   6.975  -3.900  0.00  0.00    -0.056 C 
ATOM     38  H   LIG d   1      12.113   6.367  -3.267  0.00  0.00     0.024 H 
ATOM     39  H   LIG d   1      11.841   6.956  -4.924  0.00  0.00     0.024 H 
ATOM     40  H   LIG d   1      11.464   8.002  -3.534  0.00  0.00     0.024 H 
ENDBRANCH  28  37
ENDBRANCH  22  28
ENDBRANCH  15  18
ENDBRANCH   1  15
BRANCH   4  41
ATOM     41  C   LIG d   1       5.335  -2.060  -5.848  0.00  0.00     0.061 C 
ATOM     42  H   LIG d   1       5.029  -1.659  -6.813  0.00  0.00     0.056 H 
BRANCH  41  43
ATOM     43  C   LIG d   1       4.384  -1.583  -4.781  0.00  0.00    -0.026 A 
ATOM     44  C   LIG d   1       4.350  -2.216  -3.552  0.00  0.00    -0.057 A 
ATOM     45  C   LIG d   1       3.481  -1.776  -2.572  0.00  0.00    -0.061 A 
ATOM     46  H   LIG d   1       5.004  -3.053  -3.358  0.00  0.00     0.062 H 
ATOM     47  C   LIG d   1       2.639  -0.709  -2.822  0.00  0.00    -0.062 A 
ATOM     48  H   LIG d   1       3.456  -2.269  -1.611  0.00  0.00     0.062 H 
ATOM     49  C   LIG d   1       2.670  -0.078  -4.053  0.00  0.00    -0.061 A 
ATOM     50  H   LIG d   1       1.958  -0.366  -2.057  0.00  0.00     0.062 H 
ATOM     51  C   LIG d   1       3.542  -0.515  -5.032  0.00  0.00    -0.057 A 
ATOM     52  H   LIG d   1       2.013   0.757  -4.248  0.00  0.00     0.062 H 
ATOM     53  H   LIG d   1       3.567  -0.023  -5.992  0.00  0.00     0.062 H 
ENDBRANCH  41  43
BRANCH  41  54
ATOM     54  C   LIG d   1       5.317  -3.567  -5.900  0.00  0.00    -0.026 A 
ATOM     55  C   LIG d   1       6.400  -4.287  -5.429  0.00  0.00    -0.055 A 
ATOM     56  C   LIG d   1       6.382  -5.668  -5.471  0.00  0.00    -0.043 A 
ATOM     57  H   LIG d   1       7.258  -3.769  -5.025  0.00  0.00     0.062 H 
ATOM     58  C   LIG d   1       5.286  -6.330  -5.995  0.00  0.00     0.041 A 
ATOM     59  H   LIG d   1       7.226  -6.230  -5.099  0.00  0.00     0.063 H 
ATOM     60  C   LIG d   1       4.205  -5.608  -6.469  0.00  0.00    -0.043 A 
ATOM     61 CL   LIG d   1       5.266  -8.065  -6.053  0.00  0.00    -0.084 Cl
ATOM     62  C   LIG d   1       4.222  -4.228  -6.422  0.00  0.00    -0.055 A 
ATOM     63  H   LIG d   1       3.349  -6.125  -6.879  0.00  0.00     0.063 H 
ATOM     64  H   LIG d   1       3.378  -3.664  -6.793  0.00  0.00     0.062 H 
ENDBRANCH  41  54
ENDBRANCH   4  41
TORSDOF 9
ENDMDL
MODEL 8
REMARK VINA RESULT:      -6.1      5.583      9.555
REMARK  9 active torsions:
REMARK  status: ('A' for Active; 'I' for Inactive)
REMARK    1  A    between atoms: C_1  and  C_2 
REMARK    2  A    between atoms: C_2  and  C_3 
REMARK    3  A    between atoms: C_2  and  C_4 
REMARK    4  A    between atoms: C_2  and  C_5 
REMARK    5  A    between atoms: C_8  and  C_11 
REMARK    6  A    between atoms: C_11  and  N_12 
REMARK    7  A    between atoms: N_15  and  C_18 
REMARK    8  A    between atoms: C_18  and  C_20 
REMARK    9  A    between atoms: C_18  and  C_26 
ROOT
ATOM      1  N   LIG d   1       8.802   2.458  -6.820  0.00  0.00    -0.296 N 
ATOM      2  C   LIG d   1       8.542   2.154  -8.234  0.00  0.00     0.012 C 
ATOM      3  C   LIG d   1       8.172   3.444  -8.970  0.00  0.00     0.013 C 
ATOM      4  N   LIG d   1       9.268   4.412  -8.837  0.00  0.00    -0.289 N 
ATOM      5  C   LIG d   1       9.529   4.718  -7.423  0.00  0.00     0.013 C 
ATOM      6  C   LIG d   1       9.898   3.427  -6.686  0.00  0.00     0.012 C 
ATOM      7  H   LIG d   1       9.436   1.722  -8.683  0.00  0.00     0.044 H 
ATOM      8  H   LIG d   1       7.718   1.445  -8.308  0.00  0.00     0.044 H 
ATOM      9  H   LIG d   1       8.007   3.225 -10.026  0.00  0.00     0.044 H 
ATOM     10  H   LIG d   1       7.262   3.861  -8.539  0.00  0.00     0.044 H 
ATOM     11  H   LIG d   1      10.353   5.427  -7.349  0.00  0.00     0.044 H 
ATOM     12  H   LIG d   1       8.635   5.149  -6.973  0.00  0.00     0.044 H 
ATOM     13  H   LIG d   1      10.064   3.646  -5.631  0.00  0.00     0.044 H 
ATOM     14  H   LIG d   1      10.808   3.009  -7.117  0.00  0.00     0.044 H 
ENDROOT
BRANCH   1  15
ATOM     15  C   LIG d   1       9.087   1.233  -6.061  0.00  0.00     0.024 C 
ATOM     16  H   LIG d   1       9.955   1.395  -5.422  0.00  0.00     0.048 H 
ATOM     17  H   LIG d   1       9.293   0.417  -6.753  0.00  0.00     0.048 H 
BRANCH  15  18
ATOM     18  C   LIG d   1       7.895   0.881  -5.210  0.00  0.00    -0.033 A 
ATOM     19  C   LIG d   1       7.650   1.576  -4.040  0.00  0.00    -0.057 A 
ATOM     20  C   LIG d   1       6.556   1.255  -3.260  0.00  0.00    -0.058 A 
ATOM     21  H   LIG d   1       8.315   2.371  -3.736  0.00  0.00     0.062 H 
ATOM     22  C   LIG d   1       5.704   0.237  -3.650  0.00  0.00    -0.042 A 
ATOM     23  H   LIG d   1       6.365   1.798  -2.347  0.00  0.00     0.062 H 
ATOM     24  C   LIG d   1       5.951  -0.462  -4.817  0.00  0.00    -0.058 A 
ATOM     25  C   LIG d   1       7.043  -0.136  -5.599  0.00  0.00    -0.057 A 
ATOM     26  H   LIG d   1       5.288  -1.259  -5.119  0.00  0.00     0.062 H 
ATOM     27  H   LIG d   1       7.234  -0.679  -6.514  0.00  0.00     0.062 H 
BRANCH  22  28
ATOM     28  C   LIG d   1       4.511  -0.114  -2.800  0.00  0.00    -0.013 C 
BRANCH  28  29
ATOM     29  C   LIG d   1       4.441   0.836  -1.602  0.00  0.00    -0.056 C 
ATOM     30  H   LIG d   1       5.047   1.718  -1.803  0.00  0.00     0.024 H 
ATOM     31  H   LIG d   1       3.406   1.135  -1.436  0.00  0.00     0.024 H 
ATOM     32  H   LIG d   1       4.820   0.329  -0.714  0.00  0.00     0.024 H 
ENDBRANCH  28  29
BRANCH  28  33
ATOM     33  C   LIG d   1       4.647  -1.555  -2.301  0.00  0.00    -0.056 C 
ATOM     34  H   LIG d   1       4.573  -2.239  -3.146  0.00  0.00     0.024 H 
ATOM     35  H   LIG d   1       5.613  -1.681  -1.813  0.00  0.00     0.024 H 
ATOM     36  H   LIG d   1       3.849  -1.769  -1.590  0.00  0.00     0.024 H 
ENDBRANCH  28  33
BRANCH  28  37
ATOM     37  C   LIG d   1       3.234   0.019  -3.632  0.00  0.00    -0.056 C 
ATOM     38  H   LIG d   1       2.488  -0.686  -3.266  0.00  0.00     0.024 H 
ATOM     39  H   LIG d   1       2.847   1.035  -3.546  0.00  0.00     0.024 H 
ATOM     40  H   LIG d   1       3.457  -0.197  -4.677  0.00  0.00     0.024 H 
ENDBRANCH  28  37
ENDBRANCH  22  28
ENDBRANCH  15  18
ENDBRANCH   1  15
BRANCH   4  41
ATOM     41  C   LIG d   1       8.983   5.638  -9.595  0.00  0.00     0.061 C 
ATOM     42  H   LIG d   1       7.918   5.858  -9.541  0.00  0.00     0.056 H 
BRANCH  41  43
ATOM     43  C   LIG d   1       9.385   5.443 -11.034  0.00  0.00    -0.026 A 
ATOM     44  C   LIG d   1       8.926   6.314 -12.005  0.00  0.00    -0.057 A 
ATOM     45  C   LIG d   1       9.298   6.137 -13.324  0.00  0.00    -0.061 A 
ATOM     46  H   LIG d   1       8.279   7.134 -11.730  0.00  0.00     0.062 H 
ATOM     47  C   LIG d   1      10.121   5.084 -13.675  0.00  0.00    -0.062 A 
ATOM     48  H   LIG d   1       8.942   6.820 -14.081  0.00  0.00     0.062 H 
ATOM     49  C   LIG d   1      10.577   4.210 -12.705  0.00  0.00    -0.061 A 
ATOM     50  H   LIG d   1      10.410   4.944 -14.706  0.00  0.00     0.062 H 
ATOM     51  C   LIG d   1      10.209   4.389 -11.385  0.00  0.00    -0.057 A 
ATOM     52  H   LIG d   1      11.221   3.387 -12.979  0.00  0.00     0.062 H 
ATOM     53  H   LIG d   1      10.564   3.706 -10.628  0.00  0.00     0.062 H 
ENDBRANCH  41  43
BRANCH  41  54
ATOM     54  C   LIG d   1       9.765   6.786  -9.007  0.00  0.00    -0.026 A 
ATOM     55  C   LIG d   1       9.098   7.856  -8.438  0.00  0.00    -0.055 A 
ATOM     56  C   LIG d   1       9.813   8.905  -7.895  0.00  0.00    -0.043 A 
ATOM     57  H   LIG d   1       8.018   7.868  -8.417  0.00  0.00     0.062 H 
ATOM     58  C   LIG d   1      11.196   8.891  -7.929  0.00  0.00     0.041 A 
ATOM     59  H   LIG d   1       9.292   9.739  -7.447  0.00  0.00     0.063 H 
ATOM     60  C   LIG d   1      11.862   7.822  -8.501  0.00  0.00    -0.043 A 
ATOM     61 CL   LIG d   1      12.095  10.213  -7.250  0.00  0.00    -0.084 Cl
ATOM     62  C   LIG d   1      11.146   6.771  -9.041  0.00  0.00    -0.055 A 
ATOM     63  H   LIG d   1      12.942   7.810  -8.529  0.00  0.00     0.063 H 
ATOM     64  H   LIG d   1      11.666   5.937  -9.488  0.00  0.00     0.062 H 
ENDBRANCH  41  54
ENDBRANCH   4  41
TORSDOF 9
ENDMDL
MODEL 9
REMARK VINA RESULT:      -6.1      5.174      9.407
REMARK  9 active torsions:
REMARK  status: ('A' for Active; 'I' for Inactive)
REMARK    1  A    between atoms: C_1  and  C_2 
REMARK    2  A    between atoms: C_2  and  C_3 
REMARK    3  A    between atoms: C_2  and  C_4 
REMARK    4  A    between atoms: C_2  and  C_5 
REMARK    5  A    between atoms: C_8  and  C_11 
REMARK    6  A    between atoms: C_11  and  N_12 
REMARK    7  A    between atoms: N_15  and  C_18 
REMARK    8  A    between atoms: C_18  and  C_20 
REMARK    9  A    between atoms: C_18  and  C_26 
ROOT
ATOM      1  N   LIG d   1       9.293   2.971  -4.208  0.00  0.00    -0.296 N 
ATOM      2  C   LIG d   1       9.544   3.738  -5.437  0.00  0.00     0.012 C 
ATOM      3  C   LIG d   1       9.252   5.218  -5.178  0.00  0.00     0.013 C 
ATOM      4  N   LIG d   1      10.101   5.698  -4.080  0.00  0.00    -0.289 N 
ATOM      5  C   LIG d   1       9.851   4.931  -2.851  0.00  0.00     0.013 C 
ATOM      6  C   LIG d   1      10.142   3.451  -3.109  0.00  0.00     0.012 C 
ATOM      7  H   LIG d   1      10.585   3.618  -5.734  0.00  0.00     0.044 H 
ATOM      8  H   LIG d   1       8.894   3.373  -6.232  0.00  0.00     0.044 H 
ATOM      9  H   LIG d   1       9.465   5.793  -6.080  0.00  0.00     0.044 H 
ATOM     10  H   LIG d   1       8.203   5.341  -4.908  0.00  0.00     0.044 H 
ATOM     11  H   LIG d   1      10.501   5.297  -2.056  0.00  0.00     0.044 H 
ATOM     12  H   LIG d   1       8.809   5.050  -2.554  0.00  0.00     0.044 H 
ATOM     13  H   LIG d   1       9.930   2.876  -2.208  0.00  0.00     0.044 H 
ATOM     14  H   LIG d   1      11.191   3.328  -3.380  0.00  0.00     0.044 H 
ENDROOT
BRANCH   1  15
ATOM     15  C   LIG d   1       9.489   1.533  -4.436  0.00  0.00     0.024 C 
ATOM     16  H   LIG d   1      10.273   1.164  -3.775  0.00  0.00     0.048 H 
ATOM     17  H   LIG d   1       9.780   1.366  -5.473  0.00  0.00     0.048 H 
BRANCH  15  18
ATOM     18  C   LIG d   1       8.205   0.800  -4.150  0.00  0.00    -0.033 A 
ATOM     19  C   LIG d   1       7.148   1.462  -3.554  0.00  0.00    -0.057 A 
ATOM     20  C   LIG d   1       5.969   0.791  -3.292  0.00  0.00    -0.058 A 
ATOM     21  H   LIG d   1       7.244   2.507  -3.292  0.00  0.00     0.062 H 
ATOM     22  C   LIG d   1       5.846  -0.545  -3.627  0.00  0.00    -0.042 A 
ATOM     23  H   LIG d   1       5.143   1.309  -2.827  0.00  0.00     0.062 H 
ATOM     24  C   LIG d   1       6.904  -1.209  -4.219  0.00  0.00    -0.058 A 
ATOM     25  C   LIG d   1       8.081  -0.536  -4.484  0.00  0.00    -0.057 A 
ATOM     26  H   LIG d   1       6.809  -2.254  -4.477  0.00  0.00     0.062 H 
ATOM     27  H   LIG d   1       8.907  -1.054  -4.950  0.00  0.00     0.062 H 
BRANCH  22  28
ATOM     28  C   LIG d   1       4.560  -1.278  -3.342  0.00  0.00    -0.013 C 
BRANCH  28  29
ATOM     29  C   LIG d   1       4.322  -1.321  -1.831  0.00  0.00    -0.056 C 
ATOM     30  H   LIG d   1       3.717  -2.192  -1.584  0.00  0.00     0.024 H 
ATOM     31  H   LIG d   1       5.280  -1.383  -1.315  0.00  0.00     0.024 H 
ATOM     32  H   LIG d   1       3.800  -0.416  -1.521  0.00  0.00     0.024 H 
ENDBRANCH  28  29
BRANCH  28  33
ATOM     33  C   LIG d   1       4.657  -2.706  -3.885  0.00  0.00    -0.056 C 
ATOM     34  H   LIG d   1       4.704  -3.408  -3.052  0.00  0.00     0.024 H 
ATOM     35  H   LIG d   1       3.779  -2.923  -4.495  0.00  0.00     0.024 H 
ATOM     36  H   LIG d   1       5.555  -2.803  -4.493  0.00  0.00     0.024 H 
ENDBRANCH  28  33
BRANCH  28  37
ATOM     37  C   LIG d   1       3.397  -0.552  -4.022  0.00  0.00    -0.056 C 
ATOM     38  H   LIG d   1       2.858   0.041  -3.283  0.00  0.00     0.024 H 
ATOM     39  H   LIG d   1       3.784   0.105  -4.801  0.00  0.00     0.024 H 
ATOM     40  H   LIG d   1       2.721  -1.283  -4.465  0.00  0.00     0.024 H 
ENDBRANCH  28  37
ENDBRANCH  22  28
ENDBRANCH  15  18
ENDBRANCH   1  15
BRANCH   4  41
ATOM     41  C   LIG d   1       9.905   7.136  -3.852  0.00  0.00     0.061 C 
ATOM     42  H   LIG d   1       8.871   7.319  -3.563  0.00  0.00     0.056 H 
BRANCH  41  43
ATOM     43  C   LIG d   1      10.215   7.892  -5.118  0.00  0.00    -0.026 A 
ATOM     44  C   LIG d   1       9.448   8.984  -5.477  0.00  0.00    -0.057 A 
ATOM     45  C   LIG d   1       9.736   9.680  -6.635  0.00  0.00    -0.061 A 
ATOM     46  H   LIG d   1       8.625   9.295  -4.849  0.00  0.00     0.062 H 
ATOM     47  C   LIG d   1      10.784   9.279  -7.441  0.00  0.00    -0.062 A 
ATOM     48  H   LIG d   1       9.138  10.536  -6.913  0.00  0.00     0.062 H 
ATOM     49  C   LIG d   1      11.550   8.183  -7.084  0.00  0.00    -0.061 A 
ATOM     50  H   LIG d   1      11.008   9.821  -8.348  0.00  0.00     0.062 H 
ATOM     51  C   LIG d   1      11.265   7.490  -5.923  0.00  0.00    -0.057 A 
ATOM     52  H   LIG d   1      12.371   7.871  -7.713  0.00  0.00     0.062 H 
ATOM     53  H   LIG d   1      11.862   6.635  -5.645  0.00  0.00     0.062 H 
ENDBRANCH  41  43
BRANCH  41  54
ATOM     54  C   LIG d   1      10.825   7.600  -2.751  0.00  0.00    -0.026 A 
ATOM     55  C   LIG d   1      12.183   7.354  -2.837  0.00  0.00    -0.055 A 
ATOM     56  C   LIG d   1      13.028   7.784  -1.831  0.00  0.00    -0.043 A 
ATOM     57  H   LIG d   1      12.584   6.829  -3.692  0.00  0.00     0.062 H 
ATOM     58  C   LIG d   1      12.513   8.450  -0.734  0.00  0.00     0.041 A 
ATOM     59  H   LIG d   1      14.089   7.596  -1.900  0.00  0.00     0.063 H 
ATOM     60  C   LIG d   1      11.154   8.692  -0.647  0.00  0.00    -0.043 A 
ATOM     61 CL   LIG d   1      13.573   8.985   0.534  0.00  0.00    -0.084 Cl
ATOM     62  C   LIG d   1      10.311   8.266  -1.655  0.00  0.00    -0.055 A 
ATOM     63  H   LIG d   1      10.751   9.212   0.210  0.00  0.00     0.063 H 
ATOM     64  H   LIG d   1       9.249   8.454  -1.587  0.00  0.00     0.062 H 
ENDBRANCH  41  54
ENDBRANCH   4  41
TORSDOF 9
ENDMDL
MODEL 10
REMARK VINA RESULT:      -6.1      3.527     10.120
REMARK  9 active torsions:
REMARK  status: ('A' for Active; 'I' for Inactive)
REMARK    1  A    between atoms: C_1  and  C_2 
REMARK    2  A    between atoms: C_2  and  C_3 
REMARK    3  A    between atoms: C_2  and  C_4 
REMARK    4  A    between atoms: C_2  and  C_5 
REMARK    5  A    between atoms: C_8  and  C_11 
REMARK    6  A    between atoms: C_11  and  N_12 
REMARK    7  A    between atoms: N_15  and  C_18 
REMARK    8  A    between atoms: C_18  and  C_20 
REMARK    9  A    between atoms: C_18  and  C_26 
ROOT
ATOM      1  N   LIG d   1       8.520   0.547  -6.284  0.00  0.00    -0.296 N 
ATOM      2  C   LIG d   1       7.922   0.392  -4.951  0.00  0.00     0.012 C 
ATOM      3  C   LIG d   1       6.531  -0.231  -5.089  0.00  0.00     0.013 C 
ATOM      4  N   LIG d   1       6.643  -1.529  -5.766  0.00  0.00    -0.289 N 
ATOM      5  C   LIG d   1       7.241  -1.375  -7.100  0.00  0.00     0.013 C 
ATOM      6  C   LIG d   1       8.633  -0.751  -6.962  0.00  0.00     0.012 C 
ATOM      7  H   LIG d   1       8.552  -0.256  -4.343  0.00  0.00     0.044 H 
ATOM      8  H   LIG d   1       7.837   1.369  -4.474  0.00  0.00     0.044 H 
ATOM      9  H   LIG d   1       6.096  -0.374  -4.099  0.00  0.00     0.044 H 
ATOM     10  H   LIG d   1       5.892   0.431  -5.674  0.00  0.00     0.044 H 
ATOM     11  H   LIG d   1       7.326  -2.352  -7.576  0.00  0.00     0.044 H 
ATOM     12  H   LIG d   1       6.611  -0.726  -7.708  0.00  0.00     0.044 H 
ATOM     13  H   LIG d   1       9.067  -0.609  -7.951  0.00  0.00     0.044 H 
ATOM     14  H   LIG d   1       9.272  -1.413  -6.376  0.00  0.00     0.044 H 
ENDROOT
BRANCH   1  15
ATOM     15  C   LIG d   1       9.828   1.213  -6.200  0.00  0.00     0.024 C 
ATOM     16  H   LIG d   1      10.589   0.574  -6.648  0.00  0.00     0.048 H 
ATOM     17  H   LIG d   1      10.075   1.396  -5.155  0.00  0.00     0.048 H 
BRANCH  15  18
ATOM     18  C   LIG d   1       9.772   2.523  -6.941  0.00  0.00    -0.033 A 
ATOM     19  C   LIG d   1      10.449   3.624  -6.451  0.00  0.00    -0.057 A 
ATOM     20  C   LIG d   1      10.400   4.827  -7.130  0.00  0.00    -0.058 A 
ATOM     21  H   LIG d   1      11.018   3.545  -5.536  0.00  0.00     0.062 H 
ATOM     22  C   LIG d   1       9.672   4.928  -8.302  0.00  0.00    -0.042 A 
ATOM     23  H   LIG d   1      10.929   5.686  -6.748  0.00  0.00     0.062 H 
ATOM     24  C   LIG d   1       8.991   3.829  -8.790  0.00  0.00    -0.058 A 
ATOM     25  C   LIG d   1       9.045   2.626  -8.113  0.00  0.00    -0.057 A 
ATOM     26  H   LIG d   1       8.419   3.910  -9.703  0.00  0.00     0.062 H 
ATOM     27  H   LIG d   1       8.516   1.765  -8.495  0.00  0.00     0.062 H 
BRANCH  22  28
ATOM     28  C   LIG d   1       9.618   6.239  -9.044  0.00  0.00    -0.013 C 
BRANCH  28  29
ATOM     29  C   LIG d   1      10.952   6.480  -9.753  0.00  0.00    -0.056 C 
ATOM     30  H   LIG d   1      11.412   7.387  -9.363  0.00  0.00     0.024 H 
ATOM     31  H   LIG d   1      11.614   5.631  -9.579  0.00  0.00     0.024 H 
ATOM     32  H   LIG d   1      10.778   6.592 -10.823  0.00  0.00     0.024 H 
ENDBRANCH  28  29
BRANCH  28  33
ATOM     33  C   LIG d   1       9.354   7.375  -8.052  0.00  0.00    -0.056 C 
ATOM     34  H   LIG d   1      10.117   7.360  -7.273  0.00  0.00     0.024 H 
ATOM     35  H   LIG d   1       9.388   8.330  -8.576  0.00  0.00     0.024 H 
ATOM     36  H   LIG d   1       8.372   7.241  -7.600  0.00  0.00     0.024 H 
ENDBRANCH  28  33
BRANCH  28  37
ATOM     37  C   LIG d   1       8.491   6.194 -10.077  0.00  0.00    -0.056 C 
ATOM     38  H   LIG d   1       8.191   5.159 -10.242  0.00  0.00     0.024 H 
ATOM     39  H   LIG d   1       7.637   6.765  -9.711  0.00  0.00     0.024 H 
ATOM     40  H   LIG d   1       8.840   6.625 -11.016  0.00  0.00     0.024 H 
ENDBRANCH  28  37
ENDBRANCH  22  28
ENDBRANCH  15  18
ENDBRANCH   1  15
BRANCH   4  41
ATOM     41  C   LIG d   1       5.336  -2.195  -5.850  0.00  0.00     0.061 C 
ATOM     42  H   LIG d   1       4.856  -1.933  -6.792  0.00  0.00     0.056 H 
BRANCH  41  43
ATOM     43  C   LIG d   1       4.470  -1.746  -4.702  0.00  0.00    -0.026 A 
ATOM     44  C   LIG d   1       3.551  -0.730  -4.885  0.00  0.00    -0.057 A 
ATOM     45  C   LIG d   1       2.753  -0.321  -3.833  0.00  0.00    -0.061 A 
ATOM     46  H   LIG d   1       3.455  -0.257  -5.852  0.00  0.00     0.062 H 
ATOM     47  C   LIG d   1       2.880  -0.922  -2.595  0.00  0.00    -0.062 A 
ATOM     48  H   LIG d   1       2.032   0.470  -3.978  0.00  0.00     0.062 H 
ATOM     49  C   LIG d   1       3.802  -1.936  -2.410  0.00  0.00    -0.061 A 
ATOM     50  H   LIG d   1       2.258  -0.601  -1.772  0.00  0.00     0.062 H 
ATOM     51  C   LIG d   1       4.597  -2.348  -3.463  0.00  0.00    -0.057 A 
ATOM     52  H   LIG d   1       3.900  -2.406  -1.443  0.00  0.00     0.062 H 
ATOM     53  H   LIG d   1       5.317  -3.139  -3.319  0.00  0.00     0.062 H 
ENDBRANCH  41  43
BRANCH  41  54
ATOM     54  C   LIG d   1       5.527  -3.689  -5.781  0.00  0.00    -0.026 A 
ATOM     55  C   LIG d   1       6.759  -4.211  -5.431  0.00  0.00    -0.055 A 
ATOM     56  C   LIG d   1       6.934  -5.581  -5.363  0.00  0.00    -0.043 A 
ATOM     57  H   LIG d   1       7.583  -3.549  -5.209  0.00  0.00     0.062 H 
ATOM     58  C   LIG d   1       5.880  -6.428  -5.654  0.00  0.00     0.041 A 
ATOM     59  H   LIG d   1       7.895  -5.989  -5.085  0.00  0.00     0.063 H 
ATOM     60  C   LIG d   1       4.650  -5.904  -6.008  0.00  0.00    -0.043 A 
ATOM     61 CL   LIG d   1       6.101  -8.148  -5.574  0.00  0.00    -0.084 Cl
ATOM     62  C   LIG d   1       4.474  -4.535  -6.071  0.00  0.00    -0.055 A 
ATOM     63  H   LIG d   1       3.826  -6.565  -6.236  0.00  0.00     0.063 H 
ATOM     64  H   LIG d   1       3.514  -4.126  -6.348  0.00  0.00     0.062 H 
ENDBRANCH  41  54
ENDBRANCH   4  41
TORSDOF 9
ENDMDL
