MODEL 1
REMARK VINA RESULT:      -5.7      0.000      0.000
REMARK  1 active torsions:
REMARK  status: ('A' for Active; 'I' for Inactive)
REMARK    1  A    between atoms: C_1  and  C_2 
REMARK       I    between atoms: C_2  and  N_4 
ROOT
ATOM      1  C   LIG d   1       9.053  -0.032  -5.286  0.00  0.00     0.226 C 
ATOM      2  O   LIG d   1       9.521   1.023  -5.643  0.00  0.00    -0.275 OA
ATOM      3  N   LIG d   1       7.945  -0.053  -4.520  0.00  0.00    -0.172 N 
ATOM      4  C   LIG d   1       7.349  -1.173  -4.072  0.00  0.00     0.260 A 
ATOM      5  O   LIG d   1       7.719  -2.308  -4.291  0.00  0.00    -0.269 OA
ATOM      6  C   LIG d   1       6.172  -0.791  -3.265  0.00  0.00     0.050 A 
ATOM      7  C   LIG d   1       5.204  -1.497  -2.570  0.00  0.00    -0.049 A 
ATOM      8  C   LIG d   1       4.201  -0.813  -1.902  0.00  0.00    -0.061 A 
ATOM      9  C   LIG d   1       4.159   0.569  -1.925  0.00  0.00    -0.061 A 
ATOM     10  C   LIG d   1       5.120   1.289  -2.617  0.00  0.00    -0.049 A 
ATOM     11  C   LIG d   1       6.130   0.619  -3.290  0.00  0.00     0.050 A 
ATOM     12  C   LIG d   1       7.286   1.044  -4.105  0.00  0.00     0.260 A 
ATOM     13  O   LIG d   1       7.590   2.192  -4.360  0.00  0.00    -0.269 OA
ATOM     14  H   LIG d   1       5.231  -2.577  -2.548  0.00  0.00     0.062 H 
ATOM     15  H   LIG d   1       3.445  -1.363  -1.360  0.00  0.00     0.062 H 
ATOM     16  H   LIG d   1       3.372   1.091  -1.402  0.00  0.00     0.062 H 
ATOM     17  H   LIG d   1       5.082   2.368  -2.632  0.00  0.00     0.062 H 
ENDROOT
BRANCH   1  18
ATOM     18  C   LIG d   1       9.712  -1.325  -5.693  0.00  0.00     0.013 C 
ATOM     19  H   LIG d   1       9.268  -1.682  -6.622  0.00  0.00     0.032 H 
ATOM     20  H   LIG d   1      10.778  -1.159  -5.840  0.00  0.00     0.032 H 
ATOM     21  H   LIG d   1       9.565  -2.070  -4.911  0.00  0.00     0.032 H 
ENDBRANCH   1  18
TORSDOF 1
ENDMDL
MODEL 2
REMARK VINA RESULT:      -5.7      0.693      2.463
REMARK  1 active torsions:
REMARK  status: ('A' for Active; 'I' for Inactive)
REMARK    1  A    between atoms: C_1  and  C_2 
REMARK       I    between atoms: C_2  and  N_4 
ROOT
ATOM      1  C   LIG d   1       9.043  -0.053  -5.313  0.00  0.00     0.226 C 
ATOM      2  O   LIG d   1       9.566  -1.093  -5.639  0.00  0.00    -0.275 OA
ATOM      3  N   LIG d   1       7.941  -0.067  -4.538  0.00  0.00    -0.172 N 
ATOM      4  C   LIG d   1       7.288   1.033  -4.124  0.00  0.00     0.260 A 
ATOM      5  O   LIG d   1       7.593   2.179  -4.385  0.00  0.00    -0.269 OA
ATOM      6  C   LIG d   1       6.134   0.615  -3.302  0.00  0.00     0.050 A 
ATOM      7  C   LIG d   1       5.130   1.291  -2.626  0.00  0.00    -0.049 A 
ATOM      8  C   LIG d   1       4.174   0.576  -1.922  0.00  0.00    -0.061 A 
ATOM      9  C   LIG d   1       4.216  -0.805  -1.887  0.00  0.00    -0.061 A 
ATOM     10  C   LIG d   1       5.214  -1.495  -2.556  0.00  0.00    -0.049 A 
ATOM     11  C   LIG d   1       6.177  -0.795  -3.265  0.00  0.00     0.050 A 
ATOM     12  C   LIG d   1       7.351  -1.183  -4.073  0.00  0.00     0.260 A 
ATOM     13  O   LIG d   1       7.724  -2.320  -4.280  0.00  0.00    -0.269 OA
ATOM     14  H   LIG d   1       5.092   2.370  -2.650  0.00  0.00     0.062 H 
ATOM     15  H   LIG d   1       3.392   1.103  -1.395  0.00  0.00     0.062 H 
ATOM     16  H   LIG d   1       3.466  -1.350  -1.333  0.00  0.00     0.062 H 
ATOM     17  H   LIG d   1       5.242  -2.574  -2.526  0.00  0.00     0.062 H 
ENDROOT
BRANCH   1  18
ATOM     18  C   LIG d   1       9.620   1.258  -5.779  0.00  0.00     0.013 C 
ATOM     19  H   LIG d   1      10.627   1.096  -6.162  0.00  0.00     0.032 H 
ATOM     20  H   LIG d   1       8.994   1.671  -6.570  0.00  0.00     0.032 H 
ATOM     21  H   LIG d   1       9.657   1.957  -4.943  0.00  0.00     0.032 H 
ENDBRANCH   1  18
TORSDOF 1
ENDMDL
MODEL 3
REMARK VINA RESULT:      -5.7      4.005      4.917
REMARK  1 active torsions:
REMARK  status: ('A' for Active; 'I' for Inactive)
REMARK    1  A    between atoms: C_1  and  C_2 
REMARK       I    between atoms: C_2  and  N_4 
ROOT
ATOM      1  C   LIG d   1       3.614   0.441  -8.022  0.00  0.00     0.226 C 
ATOM      2  O   LIG d   1       4.139  -0.130  -8.948  0.00  0.00    -0.275 OA
ATOM      3  N   LIG d   1       3.675  -0.086  -6.784  0.00  0.00    -0.172 N 
ATOM      4  C   LIG d   1       3.124   0.472  -5.690  0.00  0.00     0.260 A 
ATOM      5  O   LIG d   1       2.501   1.514  -5.664  0.00  0.00    -0.269 OA
ATOM      6  C   LIG d   1       3.399  -0.397  -4.528  0.00  0.00     0.050 A 
ATOM      7  C   LIG d   1       3.087  -0.338  -3.179  0.00  0.00    -0.049 A 
ATOM      8  C   LIG d   1       3.516  -1.346  -2.330  0.00  0.00    -0.061 A 
ATOM      9  C   LIG d   1       4.253  -2.409  -2.818  0.00  0.00    -0.061 A 
ATOM     10  C   LIG d   1       4.572  -2.482  -4.165  0.00  0.00    -0.049 A 
ATOM     11  C   LIG d   1       4.151  -1.482  -5.027  0.00  0.00     0.050 A 
ATOM     12  C   LIG d   1       4.301  -1.237  -6.476  0.00  0.00     0.260 A 
ATOM     13  O   LIG d   1       4.891  -1.953  -7.259  0.00  0.00    -0.269 OA
ATOM     14  H   LIG d   1       2.512   0.490  -2.791  0.00  0.00     0.062 H 
ATOM     15  H   LIG d   1       3.274  -1.300  -1.278  0.00  0.00     0.062 H 
ATOM     16  H   LIG d   1       4.582  -3.187  -2.146  0.00  0.00     0.062 H 
ATOM     17  H   LIG d   1       5.148  -3.314  -4.541  0.00  0.00     0.062 H 
ENDROOT
BRANCH   1  18
ATOM     18  C   LIG d   1       2.884   1.739  -8.253  0.00  0.00     0.013 C 
ATOM     19  H   LIG d   1       2.331   2.010  -7.354  0.00  0.00     0.032 H 
ATOM     20  H   LIG d   1       3.603   2.524  -8.487  0.00  0.00     0.032 H 
ATOM     21  H   LIG d   1       2.190   1.623  -9.086  0.00  0.00     0.032 H 
ENDBRANCH   1  18
TORSDOF 1
ENDMDL
MODEL 4
REMARK VINA RESULT:      -5.7      2.014      3.433
REMARK  1 active torsions:
REMARK  status: ('A' for Active; 'I' for Inactive)
REMARK    1  A    between atoms: C_1  and  C_2 
REMARK       I    between atoms: C_2  and  N_4 
ROOT
ATOM      1  C   LIG d   1       7.045  -3.539  -4.805  0.00  0.00     0.226 C 
ATOM      2  O   LIG d   1       6.545  -4.591  -5.129  0.00  0.00    -0.275 OA
ATOM      3  N   LIG d   1       6.290  -2.584  -4.229  0.00  0.00    -0.172 N 
ATOM      4  C   LIG d   1       6.751  -1.383  -3.834  0.00  0.00     0.260 A 
ATOM      5  O   LIG d   1       7.896  -0.995  -3.938  0.00  0.00    -0.269 OA
ATOM      6  C   LIG d   1       5.630  -0.615  -3.256  0.00  0.00     0.050 A 
ATOM      7  C   LIG d   1       5.506   0.650  -2.701  0.00  0.00    -0.049 A 
ATOM      8  C   LIG d   1       4.274   1.076  -2.231  0.00  0.00    -0.061 A 
ATOM      9  C   LIG d   1       3.168   0.251  -2.312  0.00  0.00    -0.061 A 
ATOM     10  C   LIG d   1       3.276  -1.016  -2.864  0.00  0.00    -0.049 A 
ATOM     11  C   LIG d   1       4.501  -1.458  -3.338  0.00  0.00     0.050 A 
ATOM     12  C   LIG d   1       4.975  -2.706  -3.969  0.00  0.00     0.260 A 
ATOM     13  O   LIG d   1       4.293  -3.681  -4.211  0.00  0.00    -0.269 OA
ATOM     14  H   LIG d   1       6.367   1.299  -2.635  0.00  0.00     0.062 H 
ATOM     15  H   LIG d   1       4.178   2.061  -1.798  0.00  0.00     0.062 H 
ATOM     16  H   LIG d   1       2.214   0.595  -1.942  0.00  0.00     0.062 H 
ATOM     17  H   LIG d   1       2.409  -1.657  -2.924  0.00  0.00     0.062 H 
ENDROOT
BRANCH   1  18
ATOM     18  C   LIG d   1       8.511  -3.294  -5.051  0.00  0.00     0.013 C 
ATOM     19  H   LIG d   1       8.630  -2.448  -5.728  0.00  0.00     0.032 H 
ATOM     20  H   LIG d   1       9.006  -3.074  -4.106  0.00  0.00     0.032 H 
ATOM     21  H   LIG d   1       8.958  -4.182  -5.498  0.00  0.00     0.032 H 
ENDBRANCH   1  18
TORSDOF 1
ENDMDL
MODEL 5
REMARK VINA RESULT:      -5.6      2.108      2.926
REMARK  1 active torsions:
REMARK  status: ('A' for Active; 'I' for Inactive)
REMARK    1  A    between atoms: C_1  and  C_2 
REMARK       I    between atoms: C_2  and  N_4 
ROOT
ATOM      1  C   LIG d   1       7.037  -3.517  -4.910  0.00  0.00     0.226 C 
ATOM      2  O   LIG d   1       8.210  -3.309  -5.118  0.00  0.00    -0.275 OA
ATOM      3  N   LIG d   1       6.283  -2.575  -4.311  0.00  0.00    -0.172 N 
ATOM      4  C   LIG d   1       4.973  -2.710  -4.036  0.00  0.00     0.260 A 
ATOM      5  O   LIG d   1       4.293  -3.685  -4.285  0.00  0.00    -0.269 OA
ATOM      6  C   LIG d   1       4.499  -1.476  -3.378  0.00  0.00     0.050 A 
ATOM      7  C   LIG d   1       3.277  -1.050  -2.880  0.00  0.00    -0.049 A 
ATOM      8  C   LIG d   1       3.168   0.209  -2.312  0.00  0.00    -0.061 A 
ATOM      9  C   LIG d   1       4.267   1.044  -2.239  0.00  0.00    -0.061 A 
ATOM     10  C   LIG d   1       5.496   0.633  -2.733  0.00  0.00    -0.049 A 
ATOM     11  C   LIG d   1       5.621  -0.624  -3.304  0.00  0.00     0.050 A 
ATOM     12  C   LIG d   1       6.738  -1.373  -3.913  0.00  0.00     0.260 A 
ATOM     13  O   LIG d   1       7.878  -0.972  -4.037  0.00  0.00    -0.269 OA
ATOM     14  H   LIG d   1       2.415  -1.698  -2.935  0.00  0.00     0.062 H 
ATOM     15  H   LIG d   1       2.216   0.541  -1.925  0.00  0.00     0.062 H 
ATOM     16  H   LIG d   1       4.169   2.023  -1.794  0.00  0.00     0.062 H 
ATOM     17  H   LIG d   1       6.351   1.289  -2.672  0.00  0.00     0.062 H 
ENDROOT
BRANCH   1  18
ATOM     18  C   LIG d   1       6.421  -4.832  -5.314  0.00  0.00     0.013 C 
ATOM     19  H   LIG d   1       7.191  -5.480  -5.733  0.00  0.00     0.032 H 
ATOM     20  H   LIG d   1       5.980  -5.310  -4.441  0.00  0.00     0.032 H 
ATOM     21  H   LIG d   1       5.648  -4.656  -6.062  0.00  0.00     0.032 H 
ENDBRANCH   1  18
TORSDOF 1
ENDMDL
MODEL 6
REMARK VINA RESULT:      -5.5      3.786      4.136
REMARK  1 active torsions:
REMARK  status: ('A' for Active; 'I' for Inactive)
REMARK    1  A    between atoms: C_1  and  C_2 
REMARK       I    between atoms: C_2  and  N_4 
ROOT
ATOM      1  C   LIG d   1       3.561  -0.852  -7.803  0.00  0.00     0.226 C 
ATOM      2  O   LIG d   1       3.045   0.077  -8.380  0.00  0.00    -0.275 OA
ATOM      3  N   LIG d   1       3.717  -0.811  -6.467  0.00  0.00    -0.172 N 
ATOM      4  C   LIG d   1       4.278  -1.791  -5.735  0.00  0.00     0.260 A 
ATOM      5  O   LIG d   1       4.716  -2.837  -6.169  0.00  0.00    -0.269 OA
ATOM      6  C   LIG d   1       4.275  -1.381  -4.316  0.00  0.00     0.050 A 
ATOM      7  C   LIG d   1       4.711  -1.966  -3.137  0.00  0.00    -0.049 A 
ATOM      8  C   LIG d   1       4.548  -1.295  -1.936  0.00  0.00    -0.061 A 
ATOM      9  C   LIG d   1       3.954  -0.047  -1.904  0.00  0.00    -0.061 A 
ATOM     10  C   LIG d   1       3.513   0.550  -3.074  0.00  0.00    -0.049 A 
ATOM     11  C   LIG d   1       3.669  -0.108  -4.284  0.00  0.00     0.050 A 
ATOM     12  C   LIG d   1       3.330   0.214  -5.685  0.00  0.00     0.260 A 
ATOM     13  O   LIG d   1       2.790   1.232  -6.069  0.00  0.00    -0.269 OA
ATOM     14  H   LIG d   1       5.175  -2.941  -3.156  0.00  0.00     0.062 H 
ATOM     15  H   LIG d   1       4.887  -1.751  -1.017  0.00  0.00     0.062 H 
ATOM     16  H   LIG d   1       3.832   0.465  -0.961  0.00  0.00     0.062 H 
ATOM     17  H   LIG d   1       3.050   1.526  -3.043  0.00  0.00     0.062 H 
ENDROOT
BRANCH   1  18
ATOM     18  C   LIG d   1       4.033  -2.053  -8.581  0.00  0.00     0.013 C 
ATOM     19  H   LIG d   1       3.961  -1.846  -9.649  0.00  0.00     0.032 H 
ATOM     20  H   LIG d   1       5.069  -2.268  -8.323  0.00  0.00     0.032 H 
ATOM     21  H   LIG d   1       3.411  -2.914  -8.335  0.00  0.00     0.032 H 
ENDBRANCH   1  18
TORSDOF 1
ENDMDL
MODEL 7
REMARK VINA RESULT:      -5.2      2.596      4.467
REMARK  1 active torsions:
REMARK  status: ('A' for Active; 'I' for Inactive)
REMARK    1  A    between atoms: C_1  and  C_2 
REMARK       I    between atoms: C_2  and  N_4 
ROOT
ATOM      1  C   LIG d   1       4.935   0.647  -2.742  0.00  0.00     0.226 C 
ATOM      2  O   LIG d   1       5.782   1.479  -2.515  0.00  0.00    -0.275 OA
ATOM      3  N   LIG d   1       5.273  -0.515  -3.332  0.00  0.00    -0.172 N 
ATOM      4  C   LIG d   1       4.405  -1.501  -3.625  0.00  0.00     0.260 A 
ATOM      5  O   LIG d   1       3.212  -1.485  -3.403  0.00  0.00    -0.269 OA
ATOM      6  C   LIG d   1       5.147  -2.606  -4.266  0.00  0.00     0.050 A 
ATOM      7  C   LIG d   1       4.791  -3.848  -4.770  0.00  0.00    -0.049 A 
ATOM      8  C   LIG d   1       5.763  -4.672  -5.316  0.00  0.00    -0.061 A 
ATOM      9  C   LIG d   1       7.083  -4.265  -5.360  0.00  0.00    -0.061 A 
ATOM     10  C   LIG d   1       7.454  -3.027  -4.859  0.00  0.00    -0.049 A 
ATOM     11  C   LIG d   1       6.495  -2.192  -4.310  0.00  0.00     0.050 A 
ATOM     12  C   LIG d   1       6.524  -0.846  -3.701  0.00  0.00     0.260 A 
ATOM     13  O   LIG d   1       7.511  -0.155  -3.556  0.00  0.00    -0.269 OA
ATOM     14  H   LIG d   1       3.761  -4.171  -4.737  0.00  0.00     0.062 H 
ATOM     15  H   LIG d   1       5.486  -5.639  -5.708  0.00  0.00     0.062 H 
ATOM     16  H   LIG d   1       7.831  -4.917  -5.787  0.00  0.00     0.062 H 
ATOM     17  H   LIG d   1       8.487  -2.715  -4.897  0.00  0.00     0.062 H 
ENDROOT
BRANCH   1  18
ATOM     18  C   LIG d   1       3.499   0.914  -2.369  0.00  0.00     0.013 C 
ATOM     19  H   LIG d   1       2.846   0.580  -3.176  0.00  0.00     0.032 H 
ATOM     20  H   LIG d   1       3.254   0.372  -1.457  0.00  0.00     0.032 H 
ATOM     21  H   LIG d   1       3.358   1.983  -2.206  0.00  0.00     0.032 H 
ENDBRANCH   1  18
TORSDOF 1
ENDMDL
MODEL 8
REMARK VINA RESULT:      -4.9      2.379      2.455
REMARK  1 active torsions:
REMARK  status: ('A' for Active; 'I' for Inactive)
REMARK    1  A    between atoms: C_1  and  C_2 
REMARK       I    between atoms: C_2  and  N_4 
ROOT
ATOM      1  C   LIG d   1       7.020  -1.094  -6.819  0.00  0.00     0.226 C 
ATOM      2  O   LIG d   1       8.217  -0.921  -6.810  0.00  0.00    -0.275 OA
ATOM      3  N   LIG d   1       6.273  -0.690  -5.774  0.00  0.00    -0.172 N 
ATOM      4  C   LIG d   1       4.939  -0.837  -5.690  0.00  0.00     0.260 A 
ATOM      5  O   LIG d   1       4.227  -1.347  -6.531  0.00  0.00    -0.269 OA
ATOM      6  C   LIG d   1       4.483  -0.278  -4.400  0.00  0.00     0.050 A 
ATOM      7  C   LIG d   1       3.250  -0.152  -3.780  0.00  0.00    -0.049 A 
ATOM      8  C   LIG d   1       3.166   0.446  -2.533  0.00  0.00    -0.061 A 
ATOM      9  C   LIG d   1       4.302   0.920  -1.904  0.00  0.00    -0.061 A 
ATOM     10  C   LIG d   1       5.542   0.803  -2.512  0.00  0.00    -0.049 A 
ATOM     11  C   LIG d   1       5.643   0.206  -3.759  0.00  0.00     0.050 A 
ATOM     12  C   LIG d   1       6.763  -0.082  -4.678  0.00  0.00     0.260 A 
ATOM     13  O   LIG d   1       7.930   0.186  -4.479  0.00  0.00    -0.269 OA
ATOM     14  H   LIG d   1       2.358  -0.521  -4.267  0.00  0.00     0.062 H 
ATOM     15  H   LIG d   1       2.205   0.545  -2.050  0.00  0.00     0.062 H 
ATOM     16  H   LIG d   1       4.222   1.386  -0.933  0.00  0.00     0.062 H 
ATOM     17  H   LIG d   1       6.426   1.174  -2.016  0.00  0.00     0.062 H 
ENDROOT
BRANCH   1  18
ATOM     18  C   LIG d   1       6.366  -1.767  -7.998  0.00  0.00     0.013 C 
ATOM     19  H   LIG d   1       6.150  -1.025  -8.766  0.00  0.00     0.032 H 
ATOM     20  H   LIG d   1       7.037  -2.524  -8.403  0.00  0.00     0.032 H 
ATOM     21  H   LIG d   1       5.437  -2.239  -7.677  0.00  0.00     0.032 H 
ENDBRANCH   1  18
TORSDOF 1
ENDMDL
MODEL 9
REMARK VINA RESULT:      -4.9      4.573      6.011
REMARK  1 active torsions:
REMARK  status: ('A' for Active; 'I' for Inactive)
REMARK    1  A    between atoms: C_1  and  C_2 
REMARK       I    between atoms: C_2  and  N_4 
ROOT
ATOM      1  C   LIG d   1       3.814  -0.827  -3.660  0.00  0.00     0.226 C 
ATOM      2  O   LIG d   1       4.408  -1.796  -3.250  0.00  0.00    -0.275 OA
ATOM      3  N   LIG d   1       3.733  -0.597  -4.985  0.00  0.00    -0.172 N 
ATOM      4  C   LIG d   1       3.096   0.450  -5.539  0.00  0.00     0.260 A 
ATOM      5  O   LIG d   1       2.511   1.325  -4.934  0.00  0.00    -0.269 OA
ATOM      6  C   LIG d   1       3.230   0.360  -7.007  0.00  0.00     0.050 A 
ATOM      7  C   LIG d   1       2.793   1.136  -8.069  0.00  0.00    -0.049 A 
ATOM      8  C   LIG d   1       3.095   0.757  -9.367  0.00  0.00    -0.061 A 
ATOM      9  C   LIG d   1       3.827  -0.391  -9.611  0.00  0.00    -0.061 A 
ATOM     10  C   LIG d   1       4.270  -1.177  -8.559  0.00  0.00    -0.049 A 
ATOM     11  C   LIG d   1       3.977  -0.811  -7.255  0.00  0.00     0.050 A 
ATOM     12  C   LIG d   1       4.276  -1.388  -5.929  0.00  0.00     0.260 A 
ATOM     13  O   LIG d   1       4.904  -2.407  -5.724  0.00  0.00    -0.269 OA
ATOM     14  H   LIG d   1       2.221   2.034  -7.885  0.00  0.00     0.062 H 
ATOM     15  H   LIG d   1       2.754   1.361 -10.195  0.00  0.00     0.062 H 
ATOM     16  H   LIG d   1       4.054  -0.676 -10.627  0.00  0.00     0.062 H 
ATOM     17  H   LIG d   1       4.841  -2.072  -8.756  0.00  0.00     0.062 H 
ENDROOT
BRANCH   1  18
ATOM     18  C   LIG d   1       3.167   0.127  -2.689  0.00  0.00     0.013 C 
ATOM     19  H   LIG d   1       3.080  -0.351  -1.714  0.00  0.00     0.032 H 
ATOM     20  H   LIG d   1       3.779   1.024  -2.600  0.00  0.00     0.032 H 
ATOM     21  H   LIG d   1       2.175   0.398  -3.051  0.00  0.00     0.032 H 
ENDBRANCH   1  18
TORSDOF 1
ENDMDL
MODEL 10
REMARK VINA RESULT:      -4.7      7.129      8.837
REMARK  1 active torsions:
REMARK  status: ('A' for Active; 'I' for Inactive)
REMARK    1  A    between atoms: C_1  and  C_2 
REMARK       I    between atoms: C_2  and  N_4 
ROOT
ATOM      1  C   LIG d   1      11.059   7.948   0.503  0.00  0.00     0.226 C 
ATOM      2  O   LIG d   1      11.579   7.426   1.462  0.00  0.00    -0.275 OA
ATOM      3  N   LIG d   1      10.710   7.203  -0.562  0.00  0.00    -0.172 N 
ATOM      4  C   LIG d   1      10.128   7.689  -1.674  0.00  0.00     0.260 A 
ATOM      5  O   LIG d   1       9.839   8.852  -1.872  0.00  0.00    -0.269 OA
ATOM      6  C   LIG d   1       9.903   6.573  -2.615  0.00  0.00     0.050 A 
ATOM      7  C   LIG d   1       9.354   6.471  -3.884  0.00  0.00    -0.049 A 
ATOM      8  C   LIG d   1       9.285   5.234  -4.505  0.00  0.00    -0.061 A 
ATOM      9  C   LIG d   1       9.757   4.102  -3.868  0.00  0.00    -0.061 A 
ATOM     10  C   LIG d   1      10.308   4.188  -2.599  0.00  0.00    -0.049 A 
ATOM     11  C   LIG d   1      10.384   5.417  -1.965  0.00  0.00     0.050 A 
ATOM     12  C   LIG d   1      10.891   5.873  -0.654  0.00  0.00     0.260 A 
ATOM     13  O   LIG d   1      11.388   5.166   0.199  0.00  0.00    -0.269 OA
ATOM     14  H   LIG d   1       8.983   7.353  -4.386  0.00  0.00     0.062 H 
ATOM     15  H   LIG d   1       8.857   5.155  -5.494  0.00  0.00     0.062 H 
ATOM     16  H   LIG d   1       9.696   3.144  -4.363  0.00  0.00     0.062 H 
ATOM     17  H   LIG d   1      10.675   3.300  -2.107  0.00  0.00     0.062 H 
ENDROOT
BRANCH   1  18
ATOM     18  C   LIG d   1      10.809   9.435   0.499  0.00  0.00     0.013 C 
ATOM     19  H   LIG d   1      11.368   9.900   1.310  0.00  0.00     0.032 H 
ATOM     20  H   LIG d   1      11.132   9.855  -0.453  0.00  0.00     0.032 H 
ATOM     21  H   LIG d   1       9.744   9.624   0.636  0.00  0.00     0.032 H 
ENDBRANCH   1  18
TORSDOF 1
ENDMDL
