MODEL 1
REMARK VINA RESULT:      -7.5      0.000      0.000
REMARK  3 active torsions:
REMARK  status: ('A' for Active; 'I' for Inactive)
REMARK    1  A    between atoms: C_4  and  C_7 
REMARK    2  A    between atoms: C_7  and  C_8 
REMARK    3  A    between atoms: C_12  and  C_14 
ROOT
ATOM      1  C   LIG d   1       3.072   0.139  -6.391  0.00  0.00     0.152 A 
ATOM      2  C   LIG d   1       4.492  -0.056  -6.742  0.00  0.00     0.364 A 
ATOM      3  O   LIG d   1       5.459   0.096  -6.021  0.00  0.00    -0.243 OA
ATOM      4  O   LIG d   1       4.486  -0.439  -8.038  0.00  0.00    -0.402 OA
ATOM      5  C   LIG d   1       3.211  -0.486  -8.469  0.00  0.00     0.232 A 
ATOM      6  N   LIG d   1       2.372  -0.158  -7.524  0.00  0.00    -0.205 NA
ENDROOT
BRANCH   1   7
ATOM      7  C   LIG d   1       2.560   0.531  -5.173  0.00  0.00    -0.022 C 
ATOM      8  H   LIG d   1       1.679   1.156  -5.134  0.00  0.00     0.065 H 
BRANCH   7   9
ATOM      9  C   LIG d   1       3.210   0.100  -3.931  0.00  0.00    -0.023 A 
ATOM     10  C   LIG d   1       3.250  -1.259  -3.592  0.00  0.00    -0.054 A 
ATOM     11  C   LIG d   1       3.868  -1.654  -2.425  0.00  0.00    -0.061 A 
ATOM     12  H   LIG d   1       2.802  -1.994  -4.244  0.00  0.00     0.062 H 
ATOM     13  C   LIG d   1       4.444  -0.715  -1.588  0.00  0.00    -0.062 A 
ATOM     14  H   LIG d   1       3.904  -2.702  -2.165  0.00  0.00     0.062 H 
ATOM     15  C   LIG d   1       4.404   0.631  -1.914  0.00  0.00    -0.061 A 
ATOM     16  H   LIG d   1       4.927  -1.033  -0.676  0.00  0.00     0.062 H 
ATOM     17  C   LIG d   1       3.789   1.046  -3.075  0.00  0.00    -0.054 A 
ATOM     18  H   LIG d   1       4.856   1.358  -1.254  0.00  0.00     0.062 H 
ATOM     19  H   LIG d   1       3.760   2.094  -3.327  0.00  0.00     0.062 H 
ENDBRANCH   7   9
ENDBRANCH   1   7
BRANCH   5  20
ATOM     20  C   LIG d   1       2.811  -0.866  -9.838  0.00  0.00     0.037 A 
ATOM     21  C   LIG d   1       1.459  -0.943 -10.177  0.00  0.00    -0.048 A 
ATOM     22  C   LIG d   1       1.091  -1.299 -11.458  0.00  0.00    -0.043 A 
ATOM     23  H   LIG d   1       0.702  -0.723  -9.439  0.00  0.00     0.063 H 
ATOM     24  C   LIG d   1       2.060  -1.581 -12.407  0.00  0.00     0.041 A 
ATOM     25  H   LIG d   1       0.046  -1.358 -11.722  0.00  0.00     0.063 H 
ATOM     26  C   LIG d   1       3.404  -1.508 -12.076  0.00  0.00    -0.043 A 
ATOM     27 CL   LIG d   1       1.590  -2.028 -14.016  0.00  0.00    -0.084 Cl
ATOM     28  C   LIG d   1       3.784  -1.147 -10.800  0.00  0.00    -0.048 A 
ATOM     29  H   LIG d   1       4.155  -1.729 -12.820  0.00  0.00     0.063 H 
ATOM     30  H   LIG d   1       4.831  -1.085 -10.545  0.00  0.00     0.063 H 
ENDBRANCH   5  20
TORSDOF 3
ENDMDL
MODEL 2
REMARK VINA RESULT:      -7.1      6.306      8.515
REMARK  3 active torsions:
REMARK  status: ('A' for Active; 'I' for Inactive)
REMARK    1  A    between atoms: C_4  and  C_7 
REMARK    2  A    between atoms: C_7  and  C_8 
REMARK    3  A    between atoms: C_12  and  C_14 
ROOT
ATOM      1  C   LIG d   1       9.491   3.005  -4.117  0.00  0.00     0.152 A 
ATOM      2  C   LIG d   1       8.908   2.924  -5.471  0.00  0.00     0.364 A 
ATOM      3  O   LIG d   1       9.278   3.509  -6.470  0.00  0.00    -0.243 OA
ATOM      4  O   LIG d   1       7.876   2.060  -5.360  0.00  0.00    -0.402 OA
ATOM      5  C   LIG d   1       7.803   1.635  -4.084  0.00  0.00     0.232 A 
ATOM      6  N   LIG d   1       8.738   2.169  -3.346  0.00  0.00    -0.205 NA
ENDROOT
BRANCH   1   7
ATOM      7  C   LIG d   1      10.572   3.761  -3.718  0.00  0.00    -0.022 C 
ATOM      8  H   LIG d   1      11.561   3.522  -4.080  0.00  0.00     0.065 H 
BRANCH   7   9
ATOM      9  C   LIG d   1      10.379   4.889  -2.801  0.00  0.00    -0.023 A 
ATOM     10  C   LIG d   1       9.643   6.010  -3.208  0.00  0.00    -0.054 A 
ATOM     11  C   LIG d   1       9.463   7.063  -2.338  0.00  0.00    -0.061 A 
ATOM     12  H   LIG d   1       9.216   6.046  -4.200  0.00  0.00     0.062 H 
ATOM     13  C   LIG d   1      10.009   7.018  -1.067  0.00  0.00    -0.062 A 
ATOM     14  H   LIG d   1       8.892   7.925  -2.649  0.00  0.00     0.062 H 
ATOM     15  C   LIG d   1      10.742   5.916  -0.658  0.00  0.00    -0.061 A 
ATOM     16  H   LIG d   1       9.863   7.847  -0.390  0.00  0.00     0.062 H 
ATOM     17  C   LIG d   1      10.934   4.854  -1.515  0.00  0.00    -0.054 A 
ATOM     18  H   LIG d   1      11.165   5.890   0.336  0.00  0.00     0.062 H 
ATOM     19  H   LIG d   1      11.505   3.997  -1.194  0.00  0.00     0.062 H 
ENDBRANCH   7   9
ENDBRANCH   1   7
BRANCH   5  20
ATOM     20  C   LIG d   1       6.796   0.678  -3.584  0.00  0.00     0.037 A 
ATOM     21  C   LIG d   1       5.670   1.141  -2.899  0.00  0.00    -0.048 A 
ATOM     22  C   LIG d   1       4.733   0.242  -2.434  0.00  0.00    -0.043 A 
ATOM     23  H   LIG d   1       5.534   2.199  -2.735  0.00  0.00     0.063 H 
ATOM     24  C   LIG d   1       4.906  -1.116  -2.644  0.00  0.00     0.041 A 
ATOM     25  H   LIG d   1       3.862   0.598  -1.904  0.00  0.00     0.063 H 
ATOM     26  C   LIG d   1       6.022  -1.581  -3.322  0.00  0.00    -0.043 A 
ATOM     27 CL   LIG d   1       3.723  -2.240  -2.055  0.00  0.00    -0.084 Cl
ATOM     28  C   LIG d   1       6.963  -0.692  -3.798  0.00  0.00    -0.048 A 
ATOM     29  H   LIG d   1       6.151  -2.641  -3.483  0.00  0.00     0.063 H 
ATOM     30  H   LIG d   1       7.829  -1.055  -4.330  0.00  0.00     0.063 H 
ENDBRANCH   5  20
TORSDOF 3
ENDMDL
MODEL 3
REMARK VINA RESULT:      -6.8      6.385      8.462
REMARK  3 active torsions:
REMARK  status: ('A' for Active; 'I' for Inactive)
REMARK    1  A    between atoms: C_4  and  C_7 
REMARK    2  A    between atoms: C_7  and  C_8 
REMARK    3  A    between atoms: C_12  and  C_14 
ROOT
ATOM      1  C   LIG d   1       7.545   0.627  -4.045  0.00  0.00     0.152 A 
ATOM      2  C   LIG d   1       7.472   0.903  -5.494  0.00  0.00     0.364 A 
ATOM      3  O   LIG d   1       6.960   0.211  -6.352  0.00  0.00    -0.243 OA
ATOM      4  O   LIG d   1       8.097   2.090  -5.659  0.00  0.00    -0.402 OA
ATOM      5  C   LIG d   1       8.521   2.525  -4.458  0.00  0.00     0.232 A 
ATOM      6  N   LIG d   1       8.206   1.691  -3.505  0.00  0.00    -0.205 NA
ENDROOT
BRANCH   1   7
ATOM      7  C   LIG d   1       7.045  -0.470  -3.379  0.00  0.00    -0.022 C 
ATOM      8  H   LIG d   1       7.711  -1.261  -3.065  0.00  0.00     0.065 H 
BRANCH   7   9
ATOM      9  C   LIG d   1       5.610  -0.564  -3.094  0.00  0.00    -0.023 A 
ATOM     10  C   LIG d   1       4.847   0.599  -2.924  0.00  0.00    -0.054 A 
ATOM     11  C   LIG d   1       3.498   0.500  -2.662  0.00  0.00    -0.061 A 
ATOM     12  H   LIG d   1       5.315   1.570  -3.002  0.00  0.00     0.062 H 
ATOM     13  C   LIG d   1       2.896  -0.742  -2.562  0.00  0.00    -0.062 A 
ATOM     14  H   LIG d   1       2.908   1.396  -2.536  0.00  0.00     0.062 H 
ATOM     15  C   LIG d   1       3.643  -1.897  -2.724  0.00  0.00    -0.061 A 
ATOM     16  H   LIG d   1       1.838  -0.811  -2.357  0.00  0.00     0.062 H 
ATOM     17  C   LIG d   1       4.994  -1.818  -2.985  0.00  0.00    -0.054 A 
ATOM     18  H   LIG d   1       3.165  -2.863  -2.643  0.00  0.00     0.062 H 
ATOM     19  H   LIG d   1       5.574  -2.719  -3.110  0.00  0.00     0.062 H 
ENDBRANCH   7   9
ENDBRANCH   1   7
BRANCH   5  20
ATOM     20  C   LIG d   1       9.248   3.792  -4.245  0.00  0.00     0.037 A 
ATOM     21  C   LIG d   1       9.801   4.082  -2.995  0.00  0.00    -0.048 A 
ATOM     22  C   LIG d   1      10.478   5.267  -2.802  0.00  0.00    -0.043 A 
ATOM     23  H   LIG d   1       9.698   3.379  -2.183  0.00  0.00     0.063 H 
ATOM     24  C   LIG d   1      10.612   6.170  -3.844  0.00  0.00     0.041 A 
ATOM     25  H   LIG d   1      10.907   5.492  -1.837  0.00  0.00     0.063 H 
ATOM     26  C   LIG d   1      10.065   5.889  -5.086  0.00  0.00    -0.043 A 
ATOM     27 CL   LIG d   1      11.466   7.660  -3.593  0.00  0.00    -0.084 Cl
ATOM     28  C   LIG d   1       9.390   4.705  -5.293  0.00  0.00    -0.048 A 
ATOM     29  H   LIG d   1      10.173   6.597  -5.894  0.00  0.00     0.063 H 
ATOM     30  H   LIG d   1       8.969   4.485  -6.263  0.00  0.00     0.063 H 
ENDBRANCH   5  20
TORSDOF 3
ENDMDL
MODEL 4
REMARK VINA RESULT:      -6.7      1.760      2.379
REMARK  3 active torsions:
REMARK  status: ('A' for Active; 'I' for Inactive)
REMARK    1  A    between atoms: C_4  and  C_7 
REMARK    2  A    between atoms: C_7  and  C_8 
REMARK    3  A    between atoms: C_12  and  C_14 
ROOT
ATOM      1  C   LIG d   1       3.692  -0.367  -7.535  0.00  0.00     0.152 A 
ATOM      2  C   LIG d   1       2.958   0.836  -7.978  0.00  0.00     0.364 A 
ATOM      3  O   LIG d   1       3.030   1.957  -7.514  0.00  0.00    -0.243 OA
ATOM      4  O   LIG d   1       2.190   0.421  -9.009  0.00  0.00    -0.402 OA
ATOM      5  C   LIG d   1       2.405  -0.893  -9.207  0.00  0.00     0.232 A 
ATOM      6  N   LIG d   1       3.279  -1.370  -8.362  0.00  0.00    -0.205 NA
ENDROOT
BRANCH   1   7
ATOM      7  C   LIG d   1       4.604  -0.456  -6.507  0.00  0.00    -0.022 C 
ATOM      8  H   LIG d   1       5.645  -0.224  -6.687  0.00  0.00     0.065 H 
BRANCH   7   9
ATOM      9  C   LIG d   1       4.165  -0.863  -5.169  0.00  0.00    -0.023 A 
ATOM     10  C   LIG d   1       3.180  -0.128  -4.496  0.00  0.00    -0.054 A 
ATOM     11  C   LIG d   1       2.769  -0.523  -3.241  0.00  0.00    -0.061 A 
ATOM     12  H   LIG d   1       2.741   0.742  -4.962  0.00  0.00     0.062 H 
ATOM     13  C   LIG d   1       3.329  -1.638  -2.643  0.00  0.00    -0.062 A 
ATOM     14  H   LIG d   1       2.006   0.040  -2.724  0.00  0.00     0.062 H 
ATOM     15  C   LIG d   1       4.307  -2.368  -3.299  0.00  0.00    -0.061 A 
ATOM     16  H   LIG d   1       3.001  -1.942  -1.660  0.00  0.00     0.062 H 
ATOM     17  C   LIG d   1       4.731  -1.988  -4.554  0.00  0.00    -0.054 A 
ATOM     18  H   LIG d   1       4.738  -3.237  -2.824  0.00  0.00     0.062 H 
ATOM     19  H   LIG d   1       5.493  -2.558  -5.063  0.00  0.00     0.062 H 
ENDBRANCH   7   9
ENDBRANCH   1   7
BRANCH   5  20
ATOM     20  C   LIG d   1       1.739  -1.695 -10.252  0.00  0.00     0.037 A 
ATOM     21  C   LIG d   1       1.639  -3.081 -10.115  0.00  0.00    -0.048 A 
ATOM     22  C   LIG d   1       1.016  -3.824 -11.095  0.00  0.00    -0.043 A 
ATOM     23  H   LIG d   1       2.048  -3.569  -9.244  0.00  0.00     0.063 H 
ATOM     24  C   LIG d   1       0.490  -3.200 -12.214  0.00  0.00     0.041 A 
ATOM     25  H   LIG d   1       0.937  -4.896 -10.991  0.00  0.00     0.063 H 
ATOM     26  C   LIG d   1       0.587  -1.825 -12.356  0.00  0.00    -0.043 A 
ATOM     27 CL   LIG d   1      -0.292  -4.142 -13.443  0.00  0.00    -0.084 Cl
ATOM     28  C   LIG d   1       1.202  -1.069 -11.380  0.00  0.00    -0.048 A 
ATOM     29  H   LIG d   1       0.175  -1.343 -13.231  0.00  0.00     0.063 H 
ATOM     30  H   LIG d   1       1.273   0.002 -11.490  0.00  0.00     0.063 H 
ENDBRANCH   5  20
TORSDOF 3
ENDMDL
MODEL 5
REMARK VINA RESULT:      -6.6      3.126      7.512
REMARK  3 active torsions:
REMARK  status: ('A' for Active; 'I' for Inactive)
REMARK    1  A    between atoms: C_4  and  C_7 
REMARK    2  A    between atoms: C_7  and  C_8 
REMARK    3  A    between atoms: C_12  and  C_14 
ROOT
ATOM      1  C   LIG d   1       3.923   0.429  -9.805  0.00  0.00     0.152 A 
ATOM      2  C   LIG d   1       3.613   1.755  -9.235  0.00  0.00     0.364 A 
ATOM      3  O   LIG d   1       3.461   2.800  -9.837  0.00  0.00    -0.243 OA
ATOM      4  O   LIG d   1       3.535   1.557  -7.901  0.00  0.00    -0.402 OA
ATOM      5  C   LIG d   1       3.767   0.256  -7.643  0.00  0.00     0.232 A 
ATOM      6  N   LIG d   1       3.991  -0.419  -8.738  0.00  0.00    -0.205 NA
ENDROOT
BRANCH   1   7
ATOM      7  C   LIG d   1       4.101   0.113 -11.134  0.00  0.00    -0.022 C 
ATOM      8  H   LIG d   1       4.989   0.443 -11.654  0.00  0.00     0.065 H 
BRANCH   7   9
ATOM      9  C   LIG d   1       3.085  -0.673 -11.843  0.00  0.00    -0.023 A 
ATOM     10  C   LIG d   1       1.799  -0.812 -11.304  0.00  0.00    -0.054 A 
ATOM     11  C   LIG d   1       0.850  -1.547 -11.981  0.00  0.00    -0.061 A 
ATOM     12  H   LIG d   1       1.552  -0.341 -10.364  0.00  0.00     0.062 H 
ATOM     13  C   LIG d   1       1.165  -2.150 -13.187  0.00  0.00    -0.062 A 
ATOM     14  H   LIG d   1      -0.143  -1.651 -11.570  0.00  0.00     0.062 H 
ATOM     15  C   LIG d   1       2.435  -2.022 -13.723  0.00  0.00    -0.061 A 
ATOM     16  H   LIG d   1       0.415  -2.724 -13.711  0.00  0.00     0.062 H 
ATOM     17  C   LIG d   1       3.398  -1.292 -13.060  0.00  0.00    -0.054 A 
ATOM     18  H   LIG d   1       2.672  -2.497 -14.664  0.00  0.00     0.062 H 
ATOM     19  H   LIG d   1       4.387  -1.193 -13.481  0.00  0.00     0.062 H 
ENDBRANCH   7   9
ENDBRANCH   1   7
BRANCH   5  20
ATOM     20  C   LIG d   1       3.765  -0.336  -6.290  0.00  0.00     0.037 A 
ATOM     21  C   LIG d   1       2.951   0.203  -5.292  0.00  0.00    -0.048 A 
ATOM     22  C   LIG d   1       2.953  -0.354  -4.030  0.00  0.00    -0.043 A 
ATOM     23  H   LIG d   1       2.321   1.053  -5.507  0.00  0.00     0.063 H 
ATOM     24  C   LIG d   1       3.760  -1.445  -3.752  0.00  0.00     0.041 A 
ATOM     25  H   LIG d   1       2.324   0.061  -3.256  0.00  0.00     0.063 H 
ATOM     26  C   LIG d   1       4.570  -1.983  -4.738  0.00  0.00    -0.043 A 
ATOM     27 CL   LIG d   1       3.757  -2.140  -2.162  0.00  0.00    -0.084 Cl
ATOM     28  C   LIG d   1       4.573  -1.439  -6.006  0.00  0.00    -0.048 A 
ATOM     29  H   LIG d   1       5.198  -2.834  -4.516  0.00  0.00     0.063 H 
ATOM     30  H   LIG d   1       5.201  -1.863  -6.775  0.00  0.00     0.063 H 
ENDBRANCH   5  20
TORSDOF 3
ENDMDL
MODEL 6
REMARK VINA RESULT:      -6.5      1.745      2.224
REMARK  3 active torsions:
REMARK  status: ('A' for Active; 'I' for Inactive)
REMARK    1  A    between atoms: C_4  and  C_7 
REMARK    2  A    between atoms: C_7  and  C_8 
REMARK    3  A    between atoms: C_12  and  C_14 
ROOT
ATOM      1  C   LIG d   1       5.917  -0.506  -6.386  0.00  0.00     0.152 A 
ATOM      2  C   LIG d   1       6.415   0.644  -7.165  0.00  0.00     0.364 A 
ATOM      3  O   LIG d   1       7.341   1.380  -6.884  0.00  0.00    -0.243 OA
ATOM      4  O   LIG d   1       5.621   0.703  -8.256  0.00  0.00    -0.402 OA
ATOM      5  C   LIG d   1       4.718  -0.293  -8.187  0.00  0.00     0.232 A 
ATOM      6  N   LIG d   1       4.876  -1.012  -7.108  0.00  0.00    -0.205 NA
ENDROOT
BRANCH   1   7
ATOM      7  C   LIG d   1       6.404  -0.975  -5.185  0.00  0.00    -0.022 C 
ATOM      8  H   LIG d   1       7.297  -1.584  -5.165  0.00  0.00     0.065 H 
BRANCH   7   9
ATOM      9  C   LIG d   1       5.712  -0.646  -3.935  0.00  0.00    -0.023 A 
ATOM     10  C   LIG d   1       5.030  -1.643  -3.224  0.00  0.00    -0.054 A 
ATOM     11  C   LIG d   1       4.388  -1.325  -2.047  0.00  0.00    -0.061 A 
ATOM     12  H   LIG d   1       5.011  -2.657  -3.595  0.00  0.00     0.062 H 
ATOM     13  C   LIG d   1       4.411  -0.027  -1.568  0.00  0.00    -0.062 A 
ATOM     14  H   LIG d   1       3.866  -2.093  -1.495  0.00  0.00     0.062 H 
ATOM     15  C   LIG d   1       5.078   0.966  -2.267  0.00  0.00    -0.061 A 
ATOM     16  H   LIG d   1       3.905   0.214  -0.644  0.00  0.00     0.062 H 
ATOM     17  C   LIG d   1       5.725   0.667  -3.447  0.00  0.00    -0.054 A 
ATOM     18  H   LIG d   1       5.091   1.976  -1.887  0.00  0.00     0.062 H 
ATOM     19  H   LIG d   1       6.245   1.442  -3.990  0.00  0.00     0.062 H 
ENDBRANCH   7   9
ENDBRANCH   1   7
BRANCH   5  20
ATOM     20  C   LIG d   1       3.680  -0.546  -9.206  0.00  0.00     0.037 A 
ATOM     21  C   LIG d   1       4.045  -0.785 -10.533  0.00  0.00    -0.048 A 
ATOM     22  C   LIG d   1       3.071  -1.020 -11.481  0.00  0.00    -0.043 A 
ATOM     23  H   LIG d   1       5.087  -0.787 -10.816  0.00  0.00     0.063 H 
ATOM     24  C   LIG d   1       1.734  -1.018 -11.120  0.00  0.00     0.041 A 
ATOM     25  H   LIG d   1       3.352  -1.206 -12.507  0.00  0.00     0.063 H 
ATOM     26  C   LIG d   1       1.366  -0.780  -9.806  0.00  0.00    -0.043 A 
ATOM     27 CL   LIG d   1       0.515  -1.314 -12.319  0.00  0.00    -0.084 Cl
ATOM     28  C   LIG d   1       2.330  -0.550  -8.847  0.00  0.00    -0.048 A 
ATOM     29  H   LIG d   1       0.321  -0.780  -9.530  0.00  0.00     0.063 H 
ATOM     30  H   LIG d   1       2.042  -0.370  -7.822  0.00  0.00     0.063 H 
ENDBRANCH   5  20
TORSDOF 3
ENDMDL
MODEL 7
REMARK VINA RESULT:      -6.4      6.184      8.174
REMARK  3 active torsions:
REMARK  status: ('A' for Active; 'I' for Inactive)
REMARK    1  A    between atoms: C_4  and  C_7 
REMARK    2  A    between atoms: C_7  and  C_8 
REMARK    3  A    between atoms: C_12  and  C_14 
ROOT
ATOM      1  C   LIG d   1       5.430  -5.593  -6.005  0.00  0.00     0.152 A 
ATOM      2  C   LIG d   1       4.165  -5.154  -6.627  0.00  0.00     0.364 A 
ATOM      3  O   LIG d   1       3.551  -5.706  -7.520  0.00  0.00    -0.243 OA
ATOM      4  O   LIG d   1       3.838  -4.008  -5.992  0.00  0.00    -0.402 OA
ATOM      5  C   LIG d   1       4.781  -3.741  -5.069  0.00  0.00     0.232 A 
ATOM      6  N   LIG d   1       5.714  -4.654  -5.057  0.00  0.00    -0.205 NA
ENDROOT
BRANCH   1   7
ATOM      7  C   LIG d   1       6.164  -6.717  -6.312  0.00  0.00    -0.022 C 
ATOM      8  H   LIG d   1       6.535  -6.863  -7.317  0.00  0.00     0.065 H 
BRANCH   7   9
ATOM      9  C   LIG d   1       6.444  -7.717  -5.275  0.00  0.00    -0.023 A 
ATOM     10  C   LIG d   1       5.468  -8.658  -4.923  0.00  0.00    -0.054 A 
ATOM     11  C   LIG d   1       5.743  -9.597  -3.952  0.00  0.00    -0.061 A 
ATOM     12  H   LIG d   1       4.506  -8.651  -5.413  0.00  0.00     0.062 H 
ATOM     13  C   LIG d   1       6.975  -9.608  -3.322  0.00  0.00    -0.062 A 
ATOM     14  H   LIG d   1       4.993 -10.326  -3.682  0.00  0.00     0.062 H 
ATOM     15  C   LIG d   1       7.944  -8.678  -3.661  0.00  0.00    -0.061 A 
ATOM     16  H   LIG d   1       7.183 -10.348  -2.562  0.00  0.00     0.062 H 
ATOM     17  C   LIG d   1       7.687  -7.731  -4.629  0.00  0.00    -0.054 A 
ATOM     18  H   LIG d   1       8.903  -8.695  -3.164  0.00  0.00     0.062 H 
ATOM     19  H   LIG d   1       8.443  -7.008  -4.892  0.00  0.00     0.062 H 
ENDBRANCH   7   9
ENDBRANCH   1   7
BRANCH   5  20
ATOM     20  C   LIG d   1       4.760  -2.565  -4.177  0.00  0.00     0.037 A 
ATOM     21  C   LIG d   1       4.013  -2.593  -2.998  0.00  0.00    -0.048 A 
ATOM     22  C   LIG d   1       3.997  -1.491  -2.169  0.00  0.00    -0.043 A 
ATOM     23  H   LIG d   1       3.449  -3.475  -2.735  0.00  0.00     0.063 H 
ATOM     24  C   LIG d   1       4.720  -0.358  -2.503  0.00  0.00     0.041 A 
ATOM     25  H   LIG d   1       3.420  -1.511  -1.256  0.00  0.00     0.063 H 
ATOM     26  C   LIG d   1       5.463  -0.324  -3.672  0.00  0.00    -0.043 A 
ATOM     27 CL   LIG d   1       4.696   1.025  -1.455  0.00  0.00    -0.084 Cl
ATOM     28  C   LIG d   1       5.492  -1.422  -4.507  0.00  0.00    -0.048 A 
ATOM     29  H   LIG d   1       6.025   0.562  -3.928  0.00  0.00     0.063 H 
ATOM     30  H   LIG d   1       6.075  -1.396  -5.415  0.00  0.00     0.063 H 
ENDBRANCH   5  20
TORSDOF 3
ENDMDL
MODEL 8
REMARK VINA RESULT:      -6.4      6.286      8.762
REMARK  3 active torsions:
REMARK  status: ('A' for Active; 'I' for Inactive)
REMARK    1  A    between atoms: C_4  and  C_7 
REMARK    2  A    between atoms: C_7  and  C_8 
REMARK    3  A    between atoms: C_12  and  C_14 
ROOT
ATOM      1  C   LIG d   1       9.411   2.641  -5.353  0.00  0.00     0.152 A 
ATOM      2  C   LIG d   1       9.377   3.330  -4.048  0.00  0.00     0.364 A 
ATOM      3  O   LIG d   1      10.037   4.292  -3.703  0.00  0.00    -0.243 OA
ATOM      4  O   LIG d   1       8.457   2.662  -3.318  0.00  0.00    -0.402 OA
ATOM      5  C   LIG d   1       7.957   1.661  -4.067  0.00  0.00     0.232 A 
ATOM      6  N   LIG d   1       8.495   1.635  -5.256  0.00  0.00    -0.205 NA
ENDROOT
BRANCH   1   7
ATOM      7  C   LIG d   1      10.196   2.953  -6.441  0.00  0.00    -0.022 C 
ATOM      8  H   LIG d   1      11.114   2.410  -6.618  0.00  0.00     0.065 H 
BRANCH   7   9
ATOM      9  C   LIG d   1       9.786   4.020  -7.360  0.00  0.00    -0.023 A 
ATOM     10  C   LIG d   1       9.085   3.709  -8.532  0.00  0.00    -0.054 A 
ATOM     11  C   LIG d   1       8.699   4.720  -9.386  0.00  0.00    -0.061 A 
ATOM     12  H   LIG d   1       8.845   2.682  -8.764  0.00  0.00     0.062 H 
ATOM     13  C   LIG d   1       9.005   6.037  -9.091  0.00  0.00    -0.062 A 
ATOM     14  H   LIG d   1       8.155   4.482 -10.288  0.00  0.00     0.062 H 
ATOM     15  C   LIG d   1       9.702   6.352  -7.936  0.00  0.00    -0.061 A 
ATOM     16  H   LIG d   1       8.699   6.823  -9.765  0.00  0.00     0.062 H 
ATOM     17  C   LIG d   1      10.097   5.355  -7.071  0.00  0.00    -0.054 A 
ATOM     18  H   LIG d   1       9.937   7.383  -7.714  0.00  0.00     0.062 H 
ATOM     19  H   LIG d   1      10.640   5.603  -6.172  0.00  0.00     0.062 H 
ENDBRANCH   7   9
ENDBRANCH   1   7
BRANCH   5  20
ATOM     20  C   LIG d   1       6.923   0.714  -3.603  0.00  0.00     0.037 A 
ATOM     21  C   LIG d   1       7.096  -0.659  -3.790  0.00  0.00    -0.048 A 
ATOM     22  C   LIG d   1       6.127  -1.538  -3.355  0.00  0.00    -0.043 A 
ATOM     23  H   LIG d   1       7.986  -1.031  -4.274  0.00  0.00     0.063 H 
ATOM     24  C   LIG d   1       4.984  -1.063  -2.734  0.00  0.00     0.041 A 
ATOM     25  H   LIG d   1       6.259  -2.600  -3.498  0.00  0.00     0.063 H 
ATOM     26  C   LIG d   1       4.806   0.298  -2.546  0.00  0.00    -0.043 A 
ATOM     27 CL   LIG d   1       3.769  -2.176  -2.189  0.00  0.00    -0.084 Cl
ATOM     28  C   LIG d   1       5.771   1.188  -2.971  0.00  0.00    -0.048 A 
ATOM     29  H   LIG d   1       3.913   0.663  -2.061  0.00  0.00     0.063 H 
ATOM     30  H   LIG d   1       5.634   2.248  -2.820  0.00  0.00     0.063 H 
ENDBRANCH   5  20
TORSDOF 3
ENDMDL
MODEL 9
REMARK VINA RESULT:      -6.3      6.503      8.785
REMARK  3 active torsions:
REMARK  status: ('A' for Active; 'I' for Inactive)
REMARK    1  A    between atoms: C_4  and  C_7 
REMARK    2  A    between atoms: C_7  and  C_8 
REMARK    3  A    between atoms: C_12  and  C_14 
ROOT
ATOM      1  C   LIG d   1       9.253   3.043  -5.148  0.00  0.00     0.152 A 
ATOM      2  C   LIG d   1       9.858   2.919  -3.807  0.00  0.00     0.364 A 
ATOM      3  O   LIG d   1      10.873   3.452  -3.403  0.00  0.00    -0.243 OA
ATOM      4  O   LIG d   1       9.041   2.086  -3.126  0.00  0.00    -0.402 OA
ATOM      5  C   LIG d   1       8.029   1.718  -3.934  0.00  0.00     0.232 A 
ATOM      6  N   LIG d   1       8.131   2.267  -5.114  0.00  0.00    -0.205 NA
ENDROOT
BRANCH   1   7
ATOM      7  C   LIG d   1       9.719   3.789  -6.208  0.00  0.00    -0.022 C 
ATOM      8  H   LIG d   1      10.166   3.297  -7.060  0.00  0.00     0.065 H 
BRANCH   7   9
ATOM      9  C   LIG d   1       9.608   5.251  -6.181  0.00  0.00    -0.023 A 
ATOM     10  C   LIG d   1       9.830   5.996  -7.346  0.00  0.00    -0.054 A 
ATOM     11  C   LIG d   1       9.717   7.369  -7.312  0.00  0.00    -0.061 A 
ATOM     12  H   LIG d   1      10.084   5.496  -8.269  0.00  0.00     0.062 H 
ATOM     13  C   LIG d   1       9.390   8.013  -6.130  0.00  0.00    -0.062 A 
ATOM     14  H   LIG d   1       9.883   7.945  -8.210  0.00  0.00     0.062 H 
ATOM     15  C   LIG d   1       9.174   7.284  -4.973  0.00  0.00    -0.061 A 
ATOM     16  H   LIG d   1       9.303   9.089  -6.112  0.00  0.00     0.062 H 
ATOM     17  C   LIG d   1       9.283   5.910  -4.988  0.00  0.00    -0.054 A 
ATOM     18  H   LIG d   1       8.920   7.795  -4.055  0.00  0.00     0.062 H 
ATOM     19  H   LIG d   1       9.114   5.344  -4.084  0.00  0.00     0.062 H 
ENDBRANCH   7   9
ENDBRANCH   1   7
BRANCH   5  20
ATOM     20  C   LIG d   1       6.936   0.809  -3.534  0.00  0.00     0.037 A 
ATOM     21  C   LIG d   1       5.774   1.322  -2.954  0.00  0.00    -0.048 A 
ATOM     22  C   LIG d   1       4.757   0.468  -2.582  0.00  0.00    -0.043 A 
ATOM     23  H   LIG d   1       5.672   2.386  -2.797  0.00  0.00     0.063 H 
ATOM     24  C   LIG d   1       4.886  -0.896  -2.782  0.00  0.00     0.041 A 
ATOM     25  H   LIG d   1       3.858   0.864  -2.134  0.00  0.00     0.063 H 
ATOM     26  C   LIG d   1       6.037  -1.412  -3.356  0.00  0.00    -0.043 A 
ATOM     27 CL   LIG d   1       3.602  -1.964  -2.312  0.00  0.00    -0.084 Cl
ATOM     28  C   LIG d   1       7.059  -0.568  -3.738  0.00  0.00    -0.048 A 
ATOM     29  H   LIG d   1       6.132  -2.477  -3.510  0.00  0.00     0.063 H 
ATOM     30  H   LIG d   1       7.953  -0.970  -4.190  0.00  0.00     0.063 H 
ENDBRANCH   5  20
TORSDOF 3
ENDMDL
MODEL 10
REMARK VINA RESULT:      -6.1      7.506     10.302
REMARK  3 active torsions:
REMARK  status: ('A' for Active; 'I' for Inactive)
REMARK    1  A    between atoms: C_4  and  C_7 
REMARK    2  A    between atoms: C_7  and  C_8 
REMARK    3  A    between atoms: C_12  and  C_14 
ROOT
ATOM      1  C   LIG d   1       8.916   2.065  -4.080  0.00  0.00     0.152 A 
ATOM      2  C   LIG d   1      10.348   1.708  -4.066  0.00  0.00     0.364 A 
ATOM      3  O   LIG d   1      10.871   0.732  -4.571  0.00  0.00    -0.243 OA
ATOM      4  O   LIG d   1      10.953   2.697  -3.372  0.00  0.00    -0.402 OA
ATOM      5  C   LIG d   1      10.019   3.586  -2.985  0.00  0.00     0.232 A 
ATOM      6  N   LIG d   1       8.828   3.240  -3.391  0.00  0.00    -0.205 NA
ENDROOT
BRANCH   1   7
ATOM      7  C   LIG d   1       7.887   1.365  -4.668  0.00  0.00    -0.022 C 
ATOM      8  H   LIG d   1       7.785   1.355  -5.744  0.00  0.00     0.065 H 
BRANCH   7   9
ATOM      9  C   LIG d   1       6.929   0.630  -3.835  0.00  0.00    -0.023 A 
ATOM     10  C   LIG d   1       6.978  -0.768  -3.771  0.00  0.00    -0.054 A 
ATOM     11  C   LIG d   1       6.077  -1.449  -2.981  0.00  0.00    -0.061 A 
ATOM     12  H   LIG d   1       7.721  -1.311  -4.336  0.00  0.00     0.062 H 
ATOM     13  C   LIG d   1       5.123  -0.756  -2.256  0.00  0.00    -0.062 A 
ATOM     14  H   LIG d   1       6.117  -2.527  -2.927  0.00  0.00     0.062 H 
ATOM     15  C   LIG d   1       5.064   0.627  -2.317  0.00  0.00    -0.061 A 
ATOM     16  H   LIG d   1       4.421  -1.296  -1.638  0.00  0.00     0.062 H 
ATOM     17  C   LIG d   1       5.956   1.324  -3.103  0.00  0.00    -0.054 A 
ATOM     18  H   LIG d   1       4.316   1.159  -1.748  0.00  0.00     0.062 H 
ATOM     19  H   LIG d   1       5.909   2.401  -3.149  0.00  0.00     0.062 H 
ENDBRANCH   7   9
ENDBRANCH   1   7
BRANCH   5  20
ATOM     20  C   LIG d   1      10.308   4.805  -2.204  0.00  0.00     0.037 A 
ATOM     21  C   LIG d   1       9.648   6.000  -2.500  0.00  0.00    -0.048 A 
ATOM     22  C   LIG d   1       9.922   7.135  -1.766  0.00  0.00    -0.043 A 
ATOM     23  H   LIG d   1       8.925   6.034  -3.300  0.00  0.00     0.063 H 
ATOM     24  C   LIG d   1      10.850   7.092  -0.738  0.00  0.00     0.041 A 
ATOM     25  H   LIG d   1       9.413   8.059  -1.993  0.00  0.00     0.063 H 
ATOM     26  C   LIG d   1      11.508   5.910  -0.440  0.00  0.00    -0.043 A 
ATOM     27 CL   LIG d   1      11.189   8.525   0.180  0.00  0.00    -0.084 Cl
ATOM     28  C   LIG d   1      11.239   4.766  -1.163  0.00  0.00    -0.048 A 
ATOM     29  H   LIG d   1      12.230   5.883   0.362  0.00  0.00     0.063 H 
ATOM     30  H   LIG d   1      11.748   3.845  -0.926  0.00  0.00     0.063 H 
ENDBRANCH   5  20
TORSDOF 3
ENDMDL
