MODEL 1
REMARK VINA RESULT:      -5.9      0.000      0.000
REMARK  2 active torsions:
REMARK  status: ('A' for Active; 'I' for Inactive)
REMARK    1  A    between atoms: C_1  and  C_2 
REMARK    2  A    between atoms: C_13  and  O_16 
ROOT
ATOM      1  C   LIG d   1       4.468  -0.913  -2.580  0.00  0.00    -0.036 A 
ATOM      2  C   LIG d   1       3.832   0.202  -2.049  0.00  0.00    -0.040 A 
ATOM      3  C   LIG d   1       4.417   1.444  -2.189  0.00  0.00     0.029 A 
ATOM      4  N   LIG d   1       5.568   1.594  -2.818  0.00  0.00    -0.254 NA
ATOM      5  C   LIG d   1       6.217   0.566  -3.343  0.00  0.00     0.083 A 
ATOM      6  C   LIG d   1       5.681  -0.728  -3.239  0.00  0.00     0.051 A 
ATOM      7  C   LIG d   1       6.611  -1.665  -3.910  0.00  0.00     0.196 A 
ATOM      8  O   LIG d   1       6.472  -2.867  -4.016  0.00  0.00    -0.287 OA
ATOM      9  C   LIG d   1       7.741  -0.861  -4.425  0.00  0.00     0.032 A 
ATOM     10  C   LIG d   1       7.504   0.483  -4.085  0.00  0.00     0.015 A 
ATOM     11  C   LIG d   1       8.420   1.454  -4.454  0.00  0.00    -0.010 A 
ATOM     12  C   LIG d   1       9.567   1.097  -5.159  0.00  0.00     0.117 A 
ATOM     13  C   LIG d   1       9.801  -0.231  -5.488  0.00  0.00    -0.019 A 
ATOM     14  C   LIG d   1       8.891  -1.207  -5.129  0.00  0.00    -0.047 A 
ATOM     15  H   LIG d   1       2.889   0.097  -1.531  0.00  0.00     0.064 H 
ATOM     16  H   LIG d   1       3.922   2.311  -1.776  0.00  0.00     0.083 H 
ATOM     17  H   LIG d   1       8.244   2.488  -4.195  0.00  0.00     0.066 H 
ATOM     18  H   LIG d   1      10.695  -0.501  -6.030  0.00  0.00     0.065 H 
ATOM     19  H   LIG d   1       9.073  -2.239  -5.391  0.00  0.00     0.063 H 
ENDROOT
BRANCH   1  20
ATOM     20  C   LIG d   1       3.862  -2.287  -2.448  0.00  0.00    -0.039 C 
ATOM     21  H   LIG d   1       3.168  -2.299  -1.607  0.00  0.00     0.028 H 
ATOM     22  H   LIG d   1       3.326  -2.538  -3.364  0.00  0.00     0.028 H 
ATOM     23  H   LIG d   1       4.652  -3.018  -2.278  0.00  0.00     0.028 H 
ENDBRANCH   1  20
BRANCH  12  24
ATOM     24  O   LIG d   1      10.462   2.050  -5.521  0.00  0.00    -0.507 OA
ATOM     25  H   LIG d   1      11.214   2.131  -4.918  0.00  0.00     0.292 HD
ENDBRANCH  12  24
TORSDOF 2
ENDMDL
MODEL 2
REMARK VINA RESULT:      -5.8      2.827      5.038
REMARK  2 active torsions:
REMARK  status: ('A' for Active; 'I' for Inactive)
REMARK    1  A    between atoms: C_1  and  C_2 
REMARK    2  A    between atoms: C_13  and  O_16 
ROOT
ATOM      1  C   LIG d   1       7.308  -4.246  -5.440  0.00  0.00    -0.036 A 
ATOM      2  C   LIG d   1       8.648  -3.912  -5.584  0.00  0.00    -0.040 A 
ATOM      3  C   LIG d   1       9.118  -2.742  -5.021  0.00  0.00     0.029 A 
ATOM      4  N   LIG d   1       8.319  -1.936  -4.347  0.00  0.00    -0.254 NA
ATOM      5  C   LIG d   1       7.034  -2.206  -4.180  0.00  0.00     0.083 A 
ATOM      6  C   LIG d   1       6.486  -3.379  -4.724  0.00  0.00     0.051 A 
ATOM      7  C   LIG d   1       5.046  -3.416  -4.381  0.00  0.00     0.196 A 
ATOM      8  O   LIG d   1       4.254  -4.284  -4.686  0.00  0.00    -0.287 OA
ATOM      9  C   LIG d   1       4.756  -2.195  -3.596  0.00  0.00     0.032 A 
ATOM     10  C   LIG d   1       5.952  -1.467  -3.473  0.00  0.00     0.015 A 
ATOM     11  C   LIG d   1       5.956  -0.270  -2.776  0.00  0.00    -0.010 A 
ATOM     12  C   LIG d   1       4.779   0.204  -2.201  0.00  0.00     0.117 A 
ATOM     13  C   LIG d   1       3.599  -0.513  -2.329  0.00  0.00    -0.019 A 
ATOM     14  C   LIG d   1       3.585  -1.712  -3.018  0.00  0.00    -0.047 A 
ATOM     15  H   LIG d   1       9.316  -4.562  -6.132  0.00  0.00     0.064 H 
ATOM     16  H   LIG d   1      10.160  -2.483  -5.133  0.00  0.00     0.083 H 
ATOM     17  H   LIG d   1       6.871   0.296  -2.679  0.00  0.00     0.066 H 
ATOM     18  H   LIG d   1       2.689  -0.138  -1.884  0.00  0.00     0.065 H 
ATOM     19  H   LIG d   1       2.666  -2.271  -3.111  0.00  0.00     0.063 H 
ENDROOT
BRANCH   1  20
ATOM     20  C   LIG d   1       6.756  -5.514  -6.039  0.00  0.00    -0.039 C 
ATOM     21  H   LIG d   1       6.262  -5.284  -6.984  0.00  0.00     0.028 H 
ATOM     22  H   LIG d   1       7.570  -6.217  -6.218  0.00  0.00     0.028 H 
ATOM     23  H   LIG d   1       6.036  -5.958  -5.352  0.00  0.00     0.028 H 
ENDBRANCH   1  20
BRANCH  12  24
ATOM     24  O   LIG d   1       4.786   1.377  -1.518  0.00  0.00    -0.507 OA
ATOM     25  H   LIG d   1       4.830   1.271  -0.557  0.00  0.00     0.292 HD
ENDBRANCH  12  24
TORSDOF 2
ENDMDL
MODEL 3
REMARK VINA RESULT:      -5.7      3.424      4.966
REMARK  2 active torsions:
REMARK  status: ('A' for Active; 'I' for Inactive)
REMARK    1  A    between atoms: C_1  and  C_2 
REMARK    2  A    between atoms: C_13  and  O_16 
ROOT
ATOM      1  C   LIG d   1       4.784  -2.244  -7.709  0.00  0.00    -0.036 A 
ATOM      2  C   LIG d   1       5.021  -1.198  -8.592  0.00  0.00    -0.040 A 
ATOM      3  C   LIG d   1       5.170   0.083  -8.098  0.00  0.00     0.029 A 
ATOM      4  N   LIG d   1       5.092   0.333  -6.804  0.00  0.00    -0.254 NA
ATOM      5  C   LIG d   1       4.868  -0.626  -5.919  0.00  0.00     0.083 A 
ATOM      6  C   LIG d   1       4.707  -1.953  -6.349  0.00  0.00     0.051 A 
ATOM      7  C   LIG d   1       4.473  -2.797  -5.155  0.00  0.00     0.196 A 
ATOM      8  O   LIG d   1       4.292  -3.998  -5.144  0.00  0.00    -0.287 OA
ATOM      9  C   LIG d   1       4.502  -1.901  -3.977  0.00  0.00     0.032 A 
ATOM     10  C   LIG d   1       4.741  -0.593  -4.437  0.00  0.00     0.015 A 
ATOM     11  C   LIG d   1       4.816   0.448  -3.527  0.00  0.00    -0.010 A 
ATOM     12  C   LIG d   1       4.656   0.197  -2.166  0.00  0.00     0.117 A 
ATOM     13  C   LIG d   1       4.415  -1.093  -1.716  0.00  0.00    -0.019 A 
ATOM     14  C   LIG d   1       4.344  -2.141  -2.615  0.00  0.00    -0.047 A 
ATOM     15  H   LIG d   1       5.088  -1.386  -9.654  0.00  0.00     0.064 H 
ATOM     16  H   LIG d   1       5.354   0.896  -8.784  0.00  0.00     0.083 H 
ATOM     17  H   LIG d   1       4.998   1.456  -3.873  0.00  0.00     0.066 H 
ATOM     18  H   LIG d   1       4.288  -1.281  -0.660  0.00  0.00     0.065 H 
ATOM     19  H   LIG d   1       4.160  -3.145  -2.262  0.00  0.00     0.063 H 
ENDROOT
BRANCH   1  20
ATOM     20  C   LIG d   1       4.617  -3.656  -8.207  0.00  0.00    -0.039 C 
ATOM     21  H   LIG d   1       3.928  -4.192  -7.554  0.00  0.00     0.028 H 
ATOM     22  H   LIG d   1       4.215  -3.639  -9.221  0.00  0.00     0.028 H 
ATOM     23  H   LIG d   1       5.583  -4.159  -8.208  0.00  0.00     0.028 H 
ENDBRANCH   1  20
BRANCH  12  24
ATOM     24  O   LIG d   1       4.732   1.219  -1.277  0.00  0.00    -0.507 OA
ATOM     25  H   LIG d   1       3.992   1.254  -0.655  0.00  0.00     0.292 HD
ENDBRANCH  12  24
TORSDOF 2
ENDMDL
MODEL 4
REMARK VINA RESULT:      -5.5      4.566      5.499
REMARK  2 active torsions:
REMARK  status: ('A' for Active; 'I' for Inactive)
REMARK    1  A    between atoms: C_1  and  C_2 
REMARK    2  A    between atoms: C_13  and  O_16 
ROOT
ATOM      1  C   LIG d   1       3.867  -0.714  -3.423  0.00  0.00    -0.036 A 
ATOM      2  C   LIG d   1       4.528  -1.864  -3.012  0.00  0.00    -0.040 A 
ATOM      3  C   LIG d   1       4.979  -2.760  -3.961  0.00  0.00     0.029 A 
ATOM      4  N   LIG d   1       4.795  -2.545  -5.250  0.00  0.00    -0.254 NA
ATOM      5  C   LIG d   1       4.171  -1.466  -5.697  0.00  0.00     0.083 A 
ATOM      6  C   LIG d   1       3.685  -0.510  -4.789  0.00  0.00     0.051 A 
ATOM      7  C   LIG d   1       3.042   0.574  -5.565  0.00  0.00     0.196 A 
ATOM      8  O   LIG d   1       2.512   1.568  -5.111  0.00  0.00    -0.287 OA
ATOM      9  C   LIG d   1       3.167   0.218  -6.996  0.00  0.00     0.032 A 
ATOM     10  C   LIG d   1       3.848  -1.009  -7.076  0.00  0.00     0.015 A 
ATOM     11  C   LIG d   1       4.100  -1.573  -8.316  0.00  0.00    -0.010 A 
ATOM     12  C   LIG d   1       3.679  -0.922  -9.474  0.00  0.00     0.117 A 
ATOM     13  C   LIG d   1       3.002   0.286  -9.391  0.00  0.00    -0.019 A 
ATOM     14  C   LIG d   1       2.752   0.860  -8.159  0.00  0.00    -0.047 A 
ATOM     15  H   LIG d   1       4.688  -2.055  -1.961  0.00  0.00     0.064 H 
ATOM     16  H   LIG d   1       5.494  -3.654  -3.642  0.00  0.00     0.083 H 
ATOM     17  H   LIG d   1       4.621  -2.516  -8.386  0.00  0.00     0.066 H 
ATOM     18  H   LIG d   1       2.675   0.783 -10.293  0.00  0.00     0.065 H 
ATOM     19  H   LIG d   1       2.229   1.803  -8.098  0.00  0.00     0.063 H 
ENDROOT
BRANCH   1  20
ATOM     20  C   LIG d   1       3.359   0.289  -2.419  0.00  0.00    -0.039 C 
ATOM     21  H   LIG d   1       3.779   1.270  -2.641  0.00  0.00     0.028 H 
ATOM     22  H   LIG d   1       2.271   0.339  -2.474  0.00  0.00     0.028 H 
ATOM     23  H   LIG d   1       3.659  -0.016  -1.417  0.00  0.00     0.028 H 
ENDBRANCH   1  20
BRANCH  12  24
ATOM     24  O   LIG d   1       3.927  -1.475 -10.688  0.00  0.00    -0.507 OA
ATOM     25  H   LIG d   1       4.046  -0.829 -11.397  0.00  0.00     0.292 HD
ENDBRANCH  12  24
TORSDOF 2
ENDMDL
MODEL 5
REMARK VINA RESULT:      -5.5      1.960      2.946
REMARK  2 active torsions:
REMARK  status: ('A' for Active; 'I' for Inactive)
REMARK    1  A    between atoms: C_1  and  C_2 
REMARK    2  A    between atoms: C_13  and  O_16 
ROOT
ATOM      1  C   LIG d   1       4.400  -0.024  -2.562  0.00  0.00    -0.036 A 
ATOM      2  C   LIG d   1       3.599  -1.140  -2.358  0.00  0.00    -0.040 A 
ATOM      3  C   LIG d   1       4.020  -2.370  -2.825  0.00  0.00     0.029 A 
ATOM      4  N   LIG d   1       5.169  -2.505  -3.461  0.00  0.00    -0.254 NA
ATOM      5  C   LIG d   1       5.970  -1.475  -3.684  0.00  0.00     0.083 A 
ATOM      6  C   LIG d   1       5.607  -0.194  -3.236  0.00  0.00     0.051 A 
ATOM      7  C   LIG d   1       6.682   0.748  -3.620  0.00  0.00     0.196 A 
ATOM      8  O   LIG d   1       6.709   1.942  -3.397  0.00  0.00    -0.287 OA
ATOM      9  C   LIG d   1       7.718  -0.039  -4.327  0.00  0.00     0.032 A 
ATOM     10  C   LIG d   1       7.290  -1.378  -4.364  0.00  0.00     0.015 A 
ATOM     11  C   LIG d   1       8.085  -2.333  -4.976  0.00  0.00    -0.010 A 
ATOM     12  C   LIG d   1       9.301  -1.964  -5.548  0.00  0.00     0.117 A 
ATOM     13  C   LIG d   1       9.717  -0.641  -5.515  0.00  0.00    -0.019 A 
ATOM     14  C   LIG d   1       8.934   0.319  -4.902  0.00  0.00    -0.047 A 
ATOM     15  H   LIG d   1       2.656  -1.047  -1.838  0.00  0.00     0.064 H 
ATOM     16  H   LIG d   1       3.397  -3.238  -2.666  0.00  0.00     0.083 H 
ATOM     17  H   LIG d   1       7.762  -3.363  -5.009  0.00  0.00     0.066 H 
ATOM     18  H   LIG d   1      10.658  -0.361  -5.964  0.00  0.00     0.065 H 
ATOM     19  H   LIG d   1       9.263   1.347  -4.873  0.00  0.00     0.063 H 
ENDROOT
BRANCH   1  20
ATOM     20  C   LIG d   1       3.976   1.335  -2.068  0.00  0.00    -0.039 C 
ATOM     21  H   LIG d   1       4.246   1.439  -1.016  0.00  0.00     0.028 H 
ATOM     22  H   LIG d   1       4.481   2.107  -2.649  0.00  0.00     0.028 H 
ATOM     23  H   LIG d   1       2.898   1.442  -2.178  0.00  0.00     0.028 H 
ENDBRANCH   1  20
BRANCH  12  24
ATOM     24  O   LIG d   1      10.078  -2.902  -6.145  0.00  0.00    -0.507 OA
ATOM     25  H   LIG d   1      10.718  -2.540  -6.773  0.00  0.00     0.292 HD
ENDBRANCH  12  24
TORSDOF 2
ENDMDL
MODEL 6
REMARK VINA RESULT:      -5.3      1.975      4.800
REMARK  2 active torsions:
REMARK  status: ('A' for Active; 'I' for Inactive)
REMARK    1  A    between atoms: C_1  and  C_2 
REMARK    2  A    between atoms: C_13  and  O_16 
ROOT
ATOM      1  C   LIG d   1       9.257  -1.414  -5.271  0.00  0.00    -0.036 A 
ATOM      2  C   LIG d   1       9.974  -0.273  -5.606  0.00  0.00    -0.040 A 
ATOM      3  C   LIG d   1       9.484   0.965  -5.240  0.00  0.00     0.029 A 
ATOM      4  N   LIG d   1       8.349   1.085  -4.578  0.00  0.00    -0.254 NA
ATOM      5  C   LIG d   1       7.626   0.031  -4.233  0.00  0.00     0.083 A 
ATOM      6  C   LIG d   1       8.063  -1.260  -4.572  0.00  0.00     0.051 A 
ATOM      7  C   LIG d   1       7.066  -2.229  -4.063  0.00  0.00     0.196 A 
ATOM      8  O   LIG d   1       7.114  -3.438  -4.172  0.00  0.00    -0.287 OA
ATOM      9  C   LIG d   1       6.000  -1.448  -3.397  0.00  0.00     0.032 A 
ATOM     10  C   LIG d   1       6.337  -0.087  -3.498  0.00  0.00     0.015 A 
ATOM     11  C   LIG d   1       5.497   0.869  -2.950  0.00  0.00    -0.010 A 
ATOM     12  C   LIG d   1       4.327   0.477  -2.302  0.00  0.00     0.117 A 
ATOM     13  C   LIG d   1       3.994  -0.866  -2.210  0.00  0.00    -0.019 A 
ATOM     14  C   LIG d   1       4.829  -1.828  -2.748  0.00  0.00    -0.047 A 
ATOM     15  H   LIG d   1      10.906  -0.354  -6.148  0.00  0.00     0.064 H 
ATOM     16  H   LIG d   1      10.042   1.853  -5.501  0.00  0.00     0.083 H 
ATOM     17  H   LIG d   1       5.749   1.917  -3.024  0.00  0.00     0.066 H 
ATOM     18  H   LIG d   1       3.084  -1.162  -1.710  0.00  0.00     0.065 H 
ATOM     19  H   LIG d   1       4.569  -2.873  -2.670  0.00  0.00     0.063 H 
ENDROOT
BRANCH   1  20
ATOM     20  C   LIG d   1       9.758  -2.784  -5.652  0.00  0.00    -0.039 C 
ATOM     21  H   LIG d   1       8.918  -3.479  -5.690  0.00  0.00     0.028 H 
ATOM     22  H   LIG d   1      10.235  -2.737  -6.631  0.00  0.00     0.028 H 
ATOM     23  H   LIG d   1      10.480  -3.126  -4.912  0.00  0.00     0.028 H 
ENDBRANCH   1  20
BRANCH  12  24
ATOM     24  O   LIG d   1       3.507   1.415  -1.765  0.00  0.00    -0.507 OA
ATOM     25  H   LIG d   1       2.634   1.079  -1.519  0.00  0.00     0.292 HD
ENDBRANCH  12  24
TORSDOF 2
ENDMDL
MODEL 7
REMARK VINA RESULT:      -5.3      1.905      2.831
REMARK  2 active torsions:
REMARK  status: ('A' for Active; 'I' for Inactive)
REMARK    1  A    between atoms: C_1  and  C_2 
REMARK    2  A    between atoms: C_13  and  O_16 
ROOT
ATOM      1  C   LIG d   1       4.713  -1.509  -3.240  0.00  0.00    -0.036 A 
ATOM      2  C   LIG d   1       4.664  -2.790  -3.776  0.00  0.00    -0.040 A 
ATOM      3  C   LIG d   1       5.694  -3.224  -4.587  0.00  0.00     0.029 A 
ATOM      4  N   LIG d   1       6.725  -2.446  -4.862  0.00  0.00    -0.254 NA
ATOM      5  C   LIG d   1       6.822  -1.217  -4.379  0.00  0.00     0.083 A 
ATOM      6  C   LIG d   1       5.811  -0.709  -3.546  0.00  0.00     0.051 A 
ATOM      7  C   LIG d   1       6.184   0.671  -3.161  0.00  0.00     0.196 A 
ATOM      8  O   LIG d   1       5.546   1.418  -2.447  0.00  0.00    -0.287 OA
ATOM      9  C   LIG d   1       7.481   0.967  -3.810  0.00  0.00     0.032 A 
ATOM     10  C   LIG d   1       7.866  -0.170  -4.542  0.00  0.00     0.015 A 
ATOM     11  C   LIG d   1       9.056  -0.156  -5.251  0.00  0.00    -0.010 A 
ATOM     12  C   LIG d   1       9.863   0.979  -5.235  0.00  0.00     0.117 A 
ATOM     13  C   LIG d   1       9.477   2.102  -4.517  0.00  0.00    -0.019 A 
ATOM     14  C   LIG d   1       8.295   2.096  -3.801  0.00  0.00    -0.047 A 
ATOM     15  H   LIG d   1       3.828  -3.440  -3.560  0.00  0.00     0.064 H 
ATOM     16  H   LIG d   1       5.656  -4.220  -5.003  0.00  0.00     0.083 H 
ATOM     17  H   LIG d   1       9.357  -1.026  -5.817  0.00  0.00     0.066 H 
ATOM     18  H   LIG d   1      10.105   2.980  -4.512  0.00  0.00     0.065 H 
ATOM     19  H   LIG d   1       7.999   2.970  -3.239  0.00  0.00     0.063 H 
ENDROOT
BRANCH   1  20
ATOM     20  C   LIG d   1       3.608  -0.999  -2.351  0.00  0.00    -0.039 C 
ATOM     21  H   LIG d   1       2.678  -1.511  -2.598  0.00  0.00     0.028 H 
ATOM     22  H   LIG d   1       3.863  -1.190  -1.309  0.00  0.00     0.028 H 
ATOM     23  H   LIG d   1       3.484   0.073  -2.505  0.00  0.00     0.028 H 
ENDBRANCH   1  20
BRANCH  12  24
ATOM     24  O   LIG d   1      11.029   0.989  -5.929  0.00  0.00    -0.507 OA
ATOM     25  H   LIG d   1      11.232   0.151  -6.367  0.00  0.00     0.292 HD
ENDBRANCH  12  24
TORSDOF 2
ENDMDL
MODEL 8
REMARK VINA RESULT:      -5.2      6.803      9.138
REMARK  2 active torsions:
REMARK  status: ('A' for Active; 'I' for Inactive)
REMARK    1  A    between atoms: C_1  and  C_2 
REMARK    2  A    between atoms: C_13  and  O_16 
ROOT
ATOM      1  C   LIG d   1       9.528   6.464  -4.625  0.00  0.00    -0.036 A 
ATOM      2  C   LIG d   1       9.370   5.110  -4.892  0.00  0.00    -0.040 A 
ATOM      3  C   LIG d   1       9.576   4.193  -3.881  0.00  0.00     0.029 A 
ATOM      4  N   LIG d   1       9.920   4.577  -2.666  0.00  0.00    -0.254 NA
ATOM      5  C   LIG d   1      10.085   5.854  -2.357  0.00  0.00     0.083 A 
ATOM      6  C   LIG d   1       9.892   6.843  -3.335  0.00  0.00     0.051 A 
ATOM      7  C   LIG d   1      10.142   8.161  -2.710  0.00  0.00     0.196 A 
ATOM      8  O   LIG d   1      10.068   9.244  -3.256  0.00  0.00    -0.287 OA
ATOM      9  C   LIG d   1      10.499   7.911  -1.296  0.00  0.00     0.032 A 
ATOM     10  C   LIG d   1      10.463   6.522  -1.082  0.00  0.00     0.015 A 
ATOM     11  C   LIG d   1      10.760   6.015   0.172  0.00  0.00    -0.010 A 
ATOM     12  C   LIG d   1      11.090   6.881   1.213  0.00  0.00     0.117 A 
ATOM     13  C   LIG d   1      11.130   8.251   0.997  0.00  0.00    -0.019 A 
ATOM     14  C   LIG d   1      10.830   8.767  -0.249  0.00  0.00    -0.047 A 
ATOM     15  H   LIG d   1       9.088   4.779  -5.881  0.00  0.00     0.064 H 
ATOM     16  H   LIG d   1       9.452   3.140  -4.089  0.00  0.00     0.083 H 
ATOM     17  H   LIG d   1      10.736   4.948   0.344  0.00  0.00     0.066 H 
ATOM     18  H   LIG d   1      11.391   8.916   1.807  0.00  0.00     0.065 H 
ATOM     19  H   LIG d   1      10.857   9.834  -0.413  0.00  0.00     0.063 H 
ENDROOT
BRANCH   1  20
ATOM     20  C   LIG d   1       9.313   7.497  -5.701  0.00  0.00    -0.039 C 
ATOM     21  H   LIG d   1      10.163   8.179  -5.725  0.00  0.00     0.028 H 
ATOM     22  H   LIG d   1       9.219   7.001  -6.668  0.00  0.00     0.028 H 
ATOM     23  H   LIG d   1       8.403   8.057  -5.491  0.00  0.00     0.028 H 
ENDBRANCH   1  20
BRANCH  12  24
ATOM     24  O   LIG d   1      11.380   6.382   2.441  0.00  0.00    -0.507 OA
ATOM     25  H   LIG d   1      11.540   7.059   3.112  0.00  0.00     0.292 HD
ENDBRANCH  12  24
TORSDOF 2
ENDMDL
MODEL 9
REMARK VINA RESULT:      -5.2      3.196      5.346
REMARK  2 active torsions:
REMARK  status: ('A' for Active; 'I' for Inactive)
REMARK    1  A    between atoms: C_1  and  C_2 
REMARK    2  A    between atoms: C_13  and  O_16 
ROOT
ATOM      1  C   LIG d   1       6.946  -4.920  -5.466  0.00  0.00    -0.036 A 
ATOM      2  C   LIG d   1       5.962  -5.835  -5.819  0.00  0.00    -0.040 A 
ATOM      3  C   LIG d   1       4.642  -5.555  -5.524  0.00  0.00     0.029 A 
ATOM      4  N   LIG d   1       4.298  -4.436  -4.914  0.00  0.00    -0.254 NA
ATOM      5  C   LIG d   1       5.195  -3.531  -4.555  0.00  0.00     0.083 A 
ATOM      6  C   LIG d   1       6.556  -3.747  -4.824  0.00  0.00     0.051 A 
ATOM      7  C   LIG d   1       7.315  -2.582  -4.317  0.00  0.00     0.196 A 
ATOM      8  O   LIG d   1       8.518  -2.423  -4.376  0.00  0.00    -0.287 OA
ATOM      9  C   LIG d   1       6.332  -1.647  -3.726  0.00  0.00     0.032 A 
ATOM     10  C   LIG d   1       5.055  -2.217  -3.870  0.00  0.00     0.015 A 
ATOM     11  C   LIG d   1       3.944  -1.538  -3.395  0.00  0.00    -0.010 A 
ATOM     12  C   LIG d   1       4.098  -0.298  -2.780  0.00  0.00     0.117 A 
ATOM     13  C   LIG d   1       5.360   0.260  -2.634  0.00  0.00    -0.019 A 
ATOM     14  C   LIG d   1       6.473  -0.407  -3.109  0.00  0.00    -0.047 A 
ATOM     15  H   LIG d   1       6.227  -6.755  -6.319  0.00  0.00     0.064 H 
ATOM     16  H   LIG d   1       3.877  -6.266  -5.799  0.00  0.00     0.083 H 
ATOM     17  H   LIG d   1       2.960  -1.971  -3.502  0.00  0.00     0.066 H 
ATOM     18  H   LIG d   1       5.472   1.220  -2.152  0.00  0.00     0.065 H 
ATOM     19  H   LIG d   1       7.454   0.032  -2.999  0.00  0.00     0.063 H 
ENDROOT
BRANCH   1  20
ATOM     20  C   LIG d   1       8.398  -5.188  -5.770  0.00  0.00    -0.039 C 
ATOM     21  H   LIG d   1       8.617  -6.241  -5.593  0.00  0.00     0.028 H 
ATOM     22  H   LIG d   1       8.601  -4.945  -6.814  0.00  0.00     0.028 H 
ATOM     23  H   LIG d   1       9.024  -4.573  -5.125  0.00  0.00     0.028 H 
ENDBRANCH   1  20
BRANCH  12  24
ATOM     24  O   LIG d   1       3.008   0.366  -2.317  0.00  0.00    -0.507 OA
ATOM     25  H   LIG d   1       3.203   0.994  -1.609  0.00  0.00     0.292 HD
ENDBRANCH  12  24
TORSDOF 2
ENDMDL
MODEL 10
REMARK VINA RESULT:      -5.0      4.431      6.456
REMARK  2 active torsions:
REMARK  status: ('A' for Active; 'I' for Inactive)
REMARK    1  A    between atoms: C_1  and  C_2 
REMARK    2  A    between atoms: C_13  and  O_16 
ROOT
ATOM      1  C   LIG d   1       4.868  -0.038  -9.144  0.00  0.00    -0.036 A 
ATOM      2  C   LIG d   1       5.798  -0.959  -9.607  0.00  0.00    -0.040 A 
ATOM      3  C   LIG d   1       6.218  -1.974  -8.770  0.00  0.00     0.029 A 
ATOM      4  N   LIG d   1       5.752  -2.086  -7.540  0.00  0.00    -0.254 NA
ATOM      5  C   LIG d   1       4.865  -1.235  -7.048  0.00  0.00     0.083 A 
ATOM      6  C   LIG d   1       4.392  -0.178  -7.843  0.00  0.00     0.051 A 
ATOM      7  C   LIG d   1       3.421   0.600  -7.041  0.00  0.00     0.196 A 
ATOM      8  O   LIG d   1       2.811   1.585  -7.404  0.00  0.00    -0.287 OA
ATOM      9  C   LIG d   1       3.335  -0.049  -5.714  0.00  0.00     0.032 A 
ATOM     10  C   LIG d   1       4.203  -1.155  -5.718  0.00  0.00     0.015 A 
ATOM     11  C   LIG d   1       4.312  -1.944  -4.584  0.00  0.00    -0.010 A 
ATOM     12  C   LIG d   1       3.563  -1.639  -3.450  0.00  0.00     0.117 A 
ATOM     13  C   LIG d   1       2.712  -0.544  -3.447  0.00  0.00    -0.019 A 
ATOM     14  C   LIG d   1       2.591   0.246  -4.575  0.00  0.00    -0.047 A 
ATOM     15  H   LIG d   1       6.189  -0.882 -10.611  0.00  0.00     0.064 H 
ATOM     16  H   LIG d   1       6.941  -2.691  -9.130  0.00  0.00     0.083 H 
ATOM     17  H   LIG d   1       4.978  -2.794  -4.580  0.00  0.00     0.066 H 
ATOM     18  H   LIG d   1       2.137  -0.311  -2.562  0.00  0.00     0.065 H 
ATOM     19  H   LIG d   1       1.924   1.095  -4.571  0.00  0.00     0.063 H 
ENDROOT
BRANCH   1  20
ATOM     20  C   LIG d   1       4.384   1.084 -10.027  0.00  0.00    -0.039 C 
ATOM     21  H   LIG d   1       3.294   1.077 -10.058  0.00  0.00     0.028 H 
ATOM     22  H   LIG d   1       4.728   2.038  -9.624  0.00  0.00     0.028 H 
ATOM     23  H   LIG d   1       4.778   0.951 -11.033  0.00  0.00     0.028 H 
ENDBRANCH   1  20
BRANCH  12  24
ATOM     24  O   LIG d   1       3.671  -2.414  -2.341  0.00  0.00    -0.507 OA
ATOM     25  H   LIG d   1       2.937  -2.315  -1.720  0.00  0.00     0.292 HD
ENDBRANCH  12  24
TORSDOF 2
ENDMDL
