MODEL 1
REMARK VINA RESULT:      -5.9      0.000      0.000
REMARK  3 active torsions:
REMARK  status: ('A' for Active; 'I' for Inactive)
REMARK    1  A    between atoms: C_4  and  C_7 
REMARK    2  A    between atoms: C_8  and  C_14 
REMARK    3  A    between atoms: C_14  and  O_15 
ROOT
ATOM      1  C   LIG d   1       3.884  -0.406  -5.835  0.00  0.00     0.237 A 
ATOM      2  C   LIG d   1       4.884  -0.347  -6.741  0.00  0.00     0.122 A 
ATOM      3  N   LIG d   1       4.302  -0.206  -8.001  0.00  0.00    -0.277 N 
ATOM      4  C   LIG d   1       2.961  -0.188  -7.780  0.00  0.00     0.321 A 
ATOM      5  S   LIG d   1       2.180  -0.009  -9.367  0.00  0.00    -0.035 SA
ATOM      6  C   LIG d   1       3.674   0.050 -10.426  0.00  0.00     0.024 A 
ATOM      7  C   LIG d   1       4.787  -0.086  -9.374  0.00  0.00     0.039 A 
ATOM      8  H   LIG d   1       3.745   1.003 -10.951  0.00  0.00     0.040 H 
ATOM      9  H   LIG d   1       3.692  -0.784 -11.127  0.00  0.00     0.040 H 
ATOM     10  H   LIG d   1       5.433   0.790  -9.438  0.00  0.00     0.050 H 
ATOM     11  H   LIG d   1       5.378  -0.970  -9.612  0.00  0.00     0.050 H 
ATOM     12  N   LIG d   1       2.714  -0.306  -6.505  0.00  0.00    -0.182 N 
ATOM     13  H   LIG d   1       1.780  -0.320  -6.078  0.00  0.00     0.456 HD
ENDROOT
BRANCH   1  14
ATOM     14  C   LIG d   1       4.044  -0.559  -4.368  0.00  0.00     0.048 A 
ATOM     15  C   LIG d   1       4.218   0.564  -3.562  0.00  0.00    -0.048 A 
ATOM     16  C   LIG d   1       4.367   0.415  -2.198  0.00  0.00    -0.061 A 
ATOM     17  H   LIG d   1       4.238   1.549  -4.004  0.00  0.00     0.063 H 
ATOM     18  C   LIG d   1       4.342  -0.847  -1.631  0.00  0.00    -0.062 A 
ATOM     19  H   LIG d   1       4.501   1.284  -1.572  0.00  0.00     0.062 H 
ATOM     20  C   LIG d   1       4.170  -1.965  -2.427  0.00  0.00    -0.061 A 
ATOM     21  H   LIG d   1       4.459  -0.959  -0.563  0.00  0.00     0.062 H 
ATOM     22  C   LIG d   1       4.015  -1.828  -3.791  0.00  0.00    -0.048 A 
ATOM     23  H   LIG d   1       4.151  -2.948  -1.978  0.00  0.00     0.062 H 
ATOM     24  H   LIG d   1       3.877  -2.701  -4.410  0.00  0.00     0.063 H 
ENDBRANCH   1  14
BRANCH   2  25
ATOM     25  C   LIG d   1       6.360  -0.419  -6.446  0.00  0.00     0.091 C 
ATOM     26  H   LIG d   1       6.524  -1.047  -5.571  0.00  0.00     0.062 H 
ATOM     27  H   LIG d   1       6.881  -0.845  -7.303  0.00  0.00     0.062 H 
BRANCH  25  28
ATOM     28  O   LIG d   1       6.859   0.896  -6.190  0.00  0.00    -0.389 OA
ATOM     29  H   LIG d   1       6.947   1.106  -5.251  0.00  0.00     0.210 HD
ENDBRANCH  25  28
ENDBRANCH   2  25
TORSDOF 3
ENDMDL
MODEL 2
REMARK VINA RESULT:      -5.8      3.651      4.334
REMARK  3 active torsions:
REMARK  status: ('A' for Active; 'I' for Inactive)
REMARK    1  A    between atoms: C_4  and  C_7 
REMARK    2  A    between atoms: C_8  and  C_14 
REMARK    3  A    between atoms: C_14  and  O_15 
ROOT
ATOM      1  C   LIG d   1       4.915  -2.257  -4.168  0.00  0.00     0.237 A 
ATOM      2  C   LIG d   1       6.190  -2.620  -4.434  0.00  0.00     0.122 A 
ATOM      3  N   LIG d   1       6.152  -3.882  -5.027  0.00  0.00    -0.277 N 
ATOM      4  C   LIG d   1       4.836  -4.216  -5.087  0.00  0.00     0.321 A 
ATOM      5  S   LIG d   1       4.747  -5.824  -5.839  0.00  0.00    -0.035 SA
ATOM      6  C   LIG d   1       6.533  -6.122  -6.112  0.00  0.00     0.024 A 
ATOM      7  C   LIG d   1       7.139  -4.827  -5.546  0.00  0.00     0.039 A 
ATOM      8  H   LIG d   1       6.756  -6.227  -7.174  0.00  0.00     0.040 H 
ATOM      9  H   LIG d   1       6.877  -6.993  -5.554  0.00  0.00     0.040 H 
ATOM     10  H   LIG d   1       7.707  -4.335  -6.336  0.00  0.00     0.050 H 
ATOM     11  H   LIG d   1       7.824  -5.091  -4.740  0.00  0.00     0.050 H 
ATOM     12  N   LIG d   1       4.107  -3.260  -4.581  0.00  0.00    -0.182 N 
ATOM     13  H   LIG d   1       3.082  -3.267  -4.509  0.00  0.00     0.456 HD
ENDROOT
BRANCH   1  14
ATOM     14  C   LIG d   1       4.483  -0.989  -3.532  0.00  0.00     0.048 A 
ATOM     15  C   LIG d   1       3.719  -0.071  -4.250  0.00  0.00    -0.048 A 
ATOM     16  C   LIG d   1       3.320   1.108  -3.652  0.00  0.00    -0.061 A 
ATOM     17  H   LIG d   1       3.439  -0.282  -5.271  0.00  0.00     0.063 H 
ATOM     18  C   LIG d   1       3.679   1.378  -2.344  0.00  0.00    -0.062 A 
ATOM     19  H   LIG d   1       2.727   1.819  -4.206  0.00  0.00     0.062 H 
ATOM     20  C   LIG d   1       4.438   0.471  -1.627  0.00  0.00    -0.061 A 
ATOM     21  H   LIG d   1       3.365   2.302  -1.880  0.00  0.00     0.062 H 
ATOM     22  C   LIG d   1       4.837  -0.713  -2.212  0.00  0.00    -0.048 A 
ATOM     23  H   LIG d   1       4.714   0.687  -0.605  0.00  0.00     0.062 H 
ATOM     24  H   LIG d   1       5.427  -1.422  -1.651  0.00  0.00     0.063 H 
ENDBRANCH   1  14
BRANCH   2  25
ATOM     25  C   LIG d   1       7.425  -1.808  -4.143  0.00  0.00     0.091 C 
ATOM     26  H   LIG d   1       8.084  -1.827  -5.011  0.00  0.00     0.062 H 
ATOM     27  H   LIG d   1       7.140  -0.780  -3.925  0.00  0.00     0.062 H 
BRANCH  25  28
ATOM     28  O   LIG d   1       8.106  -2.364  -3.016  0.00  0.00    -0.389 OA
ATOM     29  H   LIG d   1       8.131  -1.781  -2.246  0.00  0.00     0.210 HD
ENDBRANCH  25  28
ENDBRANCH   2  25
TORSDOF 3
ENDMDL
MODEL 3
REMARK VINA RESULT:      -5.7      4.455      5.373
REMARK  3 active torsions:
REMARK  status: ('A' for Active; 'I' for Inactive)
REMARK    1  A    between atoms: C_4  and  C_7 
REMARK    2  A    between atoms: C_8  and  C_14 
REMARK    3  A    between atoms: C_14  and  O_15 
ROOT
ATOM      1  C   LIG d   1       6.763  -2.200  -3.740  0.00  0.00     0.237 A 
ATOM      2  C   LIG d   1       6.427  -2.925  -4.830  0.00  0.00     0.122 A 
ATOM      3  N   LIG d   1       7.452  -3.843  -5.056  0.00  0.00    -0.277 N 
ATOM      4  C   LIG d   1       8.364  -3.617  -4.074  0.00  0.00     0.321 A 
ATOM      5  S   LIG d   1       9.692  -4.772  -4.328  0.00  0.00    -0.035 SA
ATOM      6  C   LIG d   1       9.053  -5.633  -5.814  0.00  0.00     0.024 A 
ATOM      7  C   LIG d   1       7.723  -4.895  -6.034  0.00  0.00     0.039 A 
ATOM      8  H   LIG d   1       8.885  -6.692  -5.612  0.00  0.00     0.040 H 
ATOM      9  H   LIG d   1       9.722  -5.499  -6.664  0.00  0.00     0.040 H 
ATOM     10  H   LIG d   1       6.911  -5.622  -5.995  0.00  0.00     0.050 H 
ATOM     11  H   LIG d   1       7.738  -4.448  -7.029  0.00  0.00     0.050 H 
ATOM     12  N   LIG d   1       7.959  -2.650  -3.299  0.00  0.00    -0.182 N 
ATOM     13  H   LIG d   1       8.467  -2.288  -2.483  0.00  0.00     0.456 HD
ENDROOT
BRANCH   1  14
ATOM     14  C   LIG d   1       5.963  -1.104  -3.141  0.00  0.00     0.048 A 
ATOM     15  C   LIG d   1       4.858  -1.399  -2.345  0.00  0.00    -0.048 A 
ATOM     16  C   LIG d   1       4.117  -0.374  -1.791  0.00  0.00    -0.061 A 
ATOM     17  H   LIG d   1       4.581  -2.427  -2.163  0.00  0.00     0.063 H 
ATOM     18  C   LIG d   1       4.471   0.943  -2.024  0.00  0.00    -0.062 A 
ATOM     19  H   LIG d   1       3.261  -0.601  -1.173  0.00  0.00     0.062 H 
ATOM     20  C   LIG d   1       5.567   1.241  -2.813  0.00  0.00    -0.061 A 
ATOM     21  H   LIG d   1       3.889   1.741  -1.588  0.00  0.00     0.062 H 
ATOM     22  C   LIG d   1       6.318   0.225  -3.368  0.00  0.00    -0.048 A 
ATOM     23  H   LIG d   1       5.838   2.271  -2.992  0.00  0.00     0.062 H 
ATOM     24  H   LIG d   1       7.175   0.459  -3.982  0.00  0.00     0.063 H 
ENDBRANCH   1  14
BRANCH   2  25
ATOM     25  C   LIG d   1       5.173  -2.770  -5.651  0.00  0.00     0.091 C 
ATOM     26  H   LIG d   1       4.869  -1.724  -5.655  0.00  0.00     0.062 H 
ATOM     27  H   LIG d   1       5.366  -3.096  -6.673  0.00  0.00     0.062 H 
BRANCH  25  28
ATOM     28  O   LIG d   1       4.131  -3.568  -5.085  0.00  0.00    -0.389 OA
ATOM     29  H   LIG d   1       3.824  -4.279  -5.662  0.00  0.00     0.210 HD
ENDBRANCH  25  28
ENDBRANCH   2  25
TORSDOF 3
ENDMDL
MODEL 4
REMARK VINA RESULT:      -5.6      1.998      2.098
REMARK  3 active torsions:
REMARK  status: ('A' for Active; 'I' for Inactive)
REMARK    1  A    between atoms: C_4  and  C_7 
REMARK    2  A    between atoms: C_8  and  C_14 
REMARK    3  A    between atoms: C_14  and  O_15 
ROOT
ATOM      1  C   LIG d   1       3.852  -0.287  -5.848  0.00  0.00     0.237 A 
ATOM      2  C   LIG d   1       4.187  -1.452  -6.446  0.00  0.00     0.122 A 
ATOM      3  N   LIG d   1       3.711  -1.405  -7.756  0.00  0.00    -0.277 N 
ATOM      4  C   LIG d   1       3.104  -0.195  -7.877  0.00  0.00     0.321 A 
ATOM      5  S   LIG d   1       2.481  -0.096  -9.539  0.00  0.00    -0.035 SA
ATOM      6  C   LIG d   1       3.028  -1.730 -10.157  0.00  0.00     0.024 A 
ATOM      7  C   LIG d   1       3.727  -2.299  -8.911  0.00  0.00     0.039 A 
ATOM      8  H   LIG d   1       3.731  -1.622 -10.985  0.00  0.00     0.040 H 
ATOM      9  H   LIG d   1       2.178  -2.347 -10.446  0.00  0.00     0.040 H 
ATOM     10  H   LIG d   1       4.764  -2.519  -9.164  0.00  0.00     0.050 H 
ATOM     11  H   LIG d   1       3.233  -3.231  -8.636  0.00  0.00     0.050 H 
ATOM     12  N   LIG d   1       3.186   0.464  -6.754  0.00  0.00    -0.182 N 
ATOM     13  H   LIG d   1       2.806   1.403  -6.586  0.00  0.00     0.456 HD
ENDROOT
BRANCH   1  14
ATOM     14  C   LIG d   1       4.155   0.094  -4.447  0.00  0.00     0.048 A 
ATOM     15  C   LIG d   1       5.477   0.230  -4.030  0.00  0.00    -0.048 A 
ATOM     16  C   LIG d   1       5.753   0.585  -2.724  0.00  0.00    -0.061 A 
ATOM     17  H   LIG d   1       6.285   0.059  -4.726  0.00  0.00     0.063 H 
ATOM     18  C   LIG d   1       4.719   0.804  -1.832  0.00  0.00    -0.062 A 
ATOM     19  H   LIG d   1       6.777   0.692  -2.400  0.00  0.00     0.062 H 
ATOM     20  C   LIG d   1       3.405   0.670  -2.241  0.00  0.00    -0.061 A 
ATOM     21  H   LIG d   1       4.940   1.081  -0.811  0.00  0.00     0.062 H 
ATOM     22  C   LIG d   1       3.117   0.321  -3.544  0.00  0.00    -0.048 A 
ATOM     23  H   LIG d   1       2.602   0.843  -1.539  0.00  0.00     0.062 H 
ATOM     24  H   LIG d   1       2.091   0.220  -3.863  0.00  0.00     0.063 H 
ENDBRANCH   1  14
BRANCH   2  25
ATOM     25  C   LIG d   1       4.941  -2.593  -5.812  0.00  0.00     0.091 C 
ATOM     26  H   LIG d   1       5.476  -3.146  -6.583  0.00  0.00     0.062 H 
ATOM     27  H   LIG d   1       5.651  -2.199  -5.086  0.00  0.00     0.062 H 
BRANCH  25  28
ATOM     28  O   LIG d   1       4.019  -3.465  -5.153  0.00  0.00    -0.389 OA
ATOM     29  H   LIG d   1       4.365  -3.860  -4.342  0.00  0.00     0.210 HD
ENDBRANCH  25  28
ENDBRANCH   2  25
TORSDOF 3
ENDMDL
MODEL 5
REMARK VINA RESULT:      -5.4      3.338      3.773
REMARK  3 active torsions:
REMARK  status: ('A' for Active; 'I' for Inactive)
REMARK    1  A    between atoms: C_4  and  C_7 
REMARK    2  A    between atoms: C_8  and  C_14 
REMARK    3  A    between atoms: C_14  and  O_15 
ROOT
ATOM      1  C   LIG d   1       4.542  -2.306  -4.694  0.00  0.00     0.237 A 
ATOM      2  C   LIG d   1       4.505  -2.278  -6.045  0.00  0.00     0.122 A 
ATOM      3  N   LIG d   1       4.592  -3.596  -6.495  0.00  0.00    -0.277 N 
ATOM      4  C   LIG d   1       4.678  -4.358  -5.372  0.00  0.00     0.321 A 
ATOM      5  S   LIG d   1       4.790  -6.050  -5.905  0.00  0.00    -0.035 SA
ATOM      6  C   LIG d   1       4.724  -5.792  -7.717  0.00  0.00     0.024 A 
ATOM      7  C   LIG d   1       4.608  -4.262  -7.795  0.00  0.00     0.039 A 
ATOM      8  H   LIG d   1       3.847  -6.275  -8.151  0.00  0.00     0.040 H 
ATOM      9  H   LIG d   1       5.638  -6.142  -8.198  0.00  0.00     0.040 H 
ATOM     10  H   LIG d   1       3.689  -4.010  -8.325  0.00  0.00     0.050 H 
ATOM     11  H   LIG d   1       5.453  -3.881  -8.370  0.00  0.00     0.050 H 
ATOM     12  N   LIG d   1       4.648  -3.599  -4.311  0.00  0.00    -0.182 N 
ATOM     13  H   LIG d   1       4.698  -3.931  -3.340  0.00  0.00     0.456 HD
ENDROOT
BRANCH   1  14
ATOM     14  C   LIG d   1       4.482  -1.128  -3.795  0.00  0.00     0.048 A 
ATOM     15  C   LIG d   1       5.650  -0.453  -3.448  0.00  0.00    -0.048 A 
ATOM     16  C   LIG d   1       5.588   0.643  -2.611  0.00  0.00    -0.061 A 
ATOM     17  H   LIG d   1       6.603  -0.787  -3.831  0.00  0.00     0.063 H 
ATOM     18  C   LIG d   1       4.368   1.071  -2.118  0.00  0.00    -0.062 A 
ATOM     19  H   LIG d   1       6.492   1.168  -2.341  0.00  0.00     0.062 H 
ATOM     20  C   LIG d   1       3.205   0.405  -2.460  0.00  0.00    -0.061 A 
ATOM     21  H   LIG d   1       4.324   1.930  -1.464  0.00  0.00     0.062 H 
ATOM     22  C   LIG d   1       3.255  -0.688  -3.300  0.00  0.00    -0.048 A 
ATOM     23  H   LIG d   1       2.256   0.745  -2.072  0.00  0.00     0.062 H 
ATOM     24  H   LIG d   1       2.347  -1.206  -3.569  0.00  0.00     0.063 H 
ENDBRANCH   1  14
BRANCH   2  25
ATOM     25  C   LIG d   1       4.390  -1.048  -6.907  0.00  0.00     0.091 C 
ATOM     26  H   LIG d   1       4.929  -0.225  -6.439  0.00  0.00     0.062 H 
ATOM     27  H   LIG d   1       4.818  -1.253  -7.888  0.00  0.00     0.062 H 
BRANCH  25  28
ATOM     28  O   LIG d   1       3.013  -0.695  -7.052  0.00  0.00    -0.389 OA
ATOM     29  H   LIG d   1       2.659  -0.848  -7.938  0.00  0.00     0.210 HD
ENDBRANCH  25  28
ENDBRANCH   2  25
TORSDOF 3
ENDMDL
MODEL 6
REMARK VINA RESULT:      -5.3      2.525      5.677
REMARK  3 active torsions:
REMARK  status: ('A' for Active; 'I' for Inactive)
REMARK    1  A    between atoms: C_4  and  C_7 
REMARK    2  A    between atoms: C_8  and  C_14 
REMARK    3  A    between atoms: C_14  and  O_15 
ROOT
ATOM      1  C   LIG d   1       3.730  -0.155  -6.682  0.00  0.00     0.237 A 
ATOM      2  C   LIG d   1       4.248  -1.302  -6.188  0.00  0.00     0.122 A 
ATOM      3  N   LIG d   1       4.094  -1.269  -4.801  0.00  0.00    -0.277 N 
ATOM      4  C   LIG d   1       3.483  -0.085  -4.532  0.00  0.00     0.321 A 
ATOM      5  S   LIG d   1       3.268  -0.005  -2.770  0.00  0.00    -0.035 SA
ATOM      6  C   LIG d   1       4.017  -1.612  -2.309  0.00  0.00     0.024 A 
ATOM      7  C   LIG d   1       4.422  -2.157  -3.688  0.00  0.00     0.039 A 
ATOM      8  H   LIG d   1       3.284  -2.263  -1.830  0.00  0.00     0.040 H 
ATOM      9  H   LIG d   1       4.889  -1.472  -1.670  0.00  0.00     0.040 H 
ATOM     10  H   LIG d   1       3.919  -3.111  -3.846  0.00  0.00     0.050 H 
ATOM     11  H   LIG d   1       5.498  -2.329  -3.686  0.00  0.00     0.050 H 
ATOM     12  N   LIG d   1       3.269   0.571  -5.639  0.00  0.00    -0.182 N 
ATOM     13  H   LIG d   1       2.820   1.493  -5.708  0.00  0.00     0.456 HD
ENDROOT
BRANCH   1  14
ATOM     14  C   LIG d   1       3.685   0.235  -8.112  0.00  0.00     0.048 A 
ATOM     15  C   LIG d   1       2.695  -0.279  -8.946  0.00  0.00    -0.048 A 
ATOM     16  C   LIG d   1       2.657   0.088 -10.277  0.00  0.00    -0.061 A 
ATOM     17  H   LIG d   1       1.958  -0.965  -8.554  0.00  0.00     0.063 H 
ATOM     18  C   LIG d   1       3.600   0.966 -10.780  0.00  0.00    -0.062 A 
ATOM     19  H   LIG d   1       1.890  -0.309 -10.924  0.00  0.00     0.062 H 
ATOM     20  C   LIG d   1       4.585   1.480  -9.956  0.00  0.00    -0.061 A 
ATOM     21  H   LIG d   1       3.567   1.251 -11.822  0.00  0.00     0.062 H 
ATOM     22  C   LIG d   1       4.629   1.124  -8.624  0.00  0.00    -0.048 A 
ATOM     23  H   LIG d   1       5.318   2.166 -10.356  0.00  0.00     0.062 H 
ATOM     24  H   LIG d   1       5.396   1.528  -7.981  0.00  0.00     0.063 H 
ENDBRANCH   1  14
BRANCH   2  25
ATOM     25  C   LIG d   1       4.875  -2.414  -6.988  0.00  0.00     0.091 C 
ATOM     26  H   LIG d   1       5.113  -2.052  -7.987  0.00  0.00     0.062 H 
ATOM     27  H   LIG d   1       5.788  -2.745  -6.494  0.00  0.00     0.062 H 
BRANCH  25  28
ATOM     28  O   LIG d   1       3.960  -3.508  -7.082  0.00  0.00    -0.389 OA
ATOM     29  H   LIG d   1       3.614  -3.805  -6.230  0.00  0.00     0.210 HD
ENDBRANCH  25  28
ENDBRANCH   2  25
TORSDOF 3
ENDMDL
MODEL 7
REMARK VINA RESULT:      -5.2      4.119      4.924
REMARK  3 active torsions:
REMARK  status: ('A' for Active; 'I' for Inactive)
REMARK    1  A    between atoms: C_4  and  C_7 
REMARK    2  A    between atoms: C_8  and  C_14 
REMARK    3  A    between atoms: C_14  and  O_15 
ROOT
ATOM      1  C   LIG d   1       6.608   0.454  -3.856  0.00  0.00     0.237 A 
ATOM      2  C   LIG d   1       7.668  -0.161  -4.427  0.00  0.00     0.122 A 
ATOM      3  N   LIG d   1       8.662   0.801  -4.610  0.00  0.00    -0.277 N 
ATOM      4  C   LIG d   1       8.138   1.960  -4.133  0.00  0.00     0.321 A 
ATOM      5  S   LIG d   1       9.379   3.214  -4.349  0.00  0.00    -0.035 SA
ATOM      6  C   LIG d   1      10.695   2.197  -5.116  0.00  0.00     0.024 A 
ATOM      7  C   LIG d   1      10.018   0.818  -5.156  0.00  0.00     0.039 A 
ATOM      8  H   LIG d   1      11.589   2.177  -4.492  0.00  0.00     0.040 H 
ATOM      9  H   LIG d   1      10.929   2.549  -6.121  0.00  0.00     0.040 H 
ATOM     10  H   LIG d   1      10.628   0.114  -4.590  0.00  0.00     0.050 H 
ATOM     11  H   LIG d   1       9.978   0.484  -6.193  0.00  0.00     0.050 H 
ATOM     12  N   LIG d   1       6.928   1.757  -3.688  0.00  0.00    -0.182 N 
ATOM     13  H   LIG d   1       6.317   2.472  -3.277  0.00  0.00     0.456 HD
ENDROOT
BRANCH   1  14
ATOM     14  C   LIG d   1       5.323  -0.188  -3.487  0.00  0.00     0.048 A 
ATOM     15  C   LIG d   1       4.152   0.153  -4.160  0.00  0.00    -0.048 A 
ATOM     16  C   LIG d   1       2.958  -0.448  -3.812  0.00  0.00    -0.061 A 
ATOM     17  H   LIG d   1       4.177   0.887  -4.952  0.00  0.00     0.063 H 
ATOM     18  C   LIG d   1       2.925  -1.387  -2.797  0.00  0.00    -0.062 A 
ATOM     19  H   LIG d   1       2.050  -0.185  -4.333  0.00  0.00     0.062 H 
ATOM     20  C   LIG d   1       4.085  -1.730  -2.125  0.00  0.00    -0.061 A 
ATOM     21  H   LIG d   1       1.990  -1.855  -2.527  0.00  0.00     0.062 H 
ATOM     22  C   LIG d   1       5.284  -1.140  -2.469  0.00  0.00    -0.048 A 
ATOM     23  H   LIG d   1       4.053  -2.464  -1.334  0.00  0.00     0.062 H 
ATOM     24  H   LIG d   1       6.189  -1.410  -1.946  0.00  0.00     0.063 H 
ENDBRANCH   1  14
BRANCH   2  25
ATOM     25  C   LIG d   1       7.760  -1.618  -4.797  0.00  0.00     0.091 C 
ATOM     26  H   LIG d   1       6.760  -2.009  -4.984  0.00  0.00     0.062 H 
ATOM     27  H   LIG d   1       8.367  -1.727  -5.695  0.00  0.00     0.062 H 
BRANCH  25  28
ATOM     28  O   LIG d   1       8.362  -2.345  -3.723  0.00  0.00    -0.389 OA
ATOM     29  H   LIG d   1       8.683  -1.787  -3.003  0.00  0.00     0.210 HD
ENDBRANCH  25  28
ENDBRANCH   2  25
TORSDOF 3
ENDMDL
MODEL 8
REMARK VINA RESULT:      -5.0      3.569      4.551
REMARK  3 active torsions:
REMARK  status: ('A' for Active; 'I' for Inactive)
REMARK    1  A    between atoms: C_4  and  C_7 
REMARK    2  A    between atoms: C_8  and  C_14 
REMARK    3  A    between atoms: C_14  and  O_15 
ROOT
ATOM      1  C   LIG d   1       7.181  -1.104  -4.471  0.00  0.00     0.237 A 
ATOM      2  C   LIG d   1       7.051  -1.145  -5.816  0.00  0.00     0.122 A 
ATOM      3  N   LIG d   1       8.248  -1.634  -6.338  0.00  0.00    -0.277 N 
ATOM      4  C   LIG d   1       9.046  -1.865  -5.263  0.00  0.00     0.321 A 
ATOM      5  S   LIG d   1      10.587  -2.492  -5.889  0.00  0.00    -0.035 SA
ATOM      6  C   LIG d   1      10.208  -2.468  -7.681  0.00  0.00     0.024 A 
ATOM      7  C   LIG d   1       8.771  -1.922  -7.672  0.00  0.00     0.039 A 
ATOM      8  H   LIG d   1      10.243  -3.473  -8.103  0.00  0.00     0.040 H 
ATOM      9  H   LIG d   1      10.879  -1.797  -8.216  0.00  0.00     0.040 H 
ATOM     10  H   LIG d   1       8.118  -2.654  -8.149  0.00  0.00     0.050 H 
ATOM     11  H   LIG d   1       8.748  -1.004  -8.260  0.00  0.00     0.050 H 
ATOM     12  N   LIG d   1       8.418  -1.552  -4.162  0.00  0.00    -0.182 N 
ATOM     13  H   LIG d   1       8.803  -1.635  -3.214  0.00  0.00     0.456 HD
ENDROOT
BRANCH   1  14
ATOM     14  C   LIG d   1       6.150  -0.642  -3.509  0.00  0.00     0.048 A 
ATOM     15  C   LIG d   1       5.311  -1.565  -2.888  0.00  0.00    -0.048 A 
ATOM     16  C   LIG d   1       4.353  -1.130  -1.993  0.00  0.00    -0.061 A 
ATOM     17  H   LIG d   1       5.408  -2.618  -3.106  0.00  0.00     0.063 H 
ATOM     18  C   LIG d   1       4.228   0.219  -1.713  0.00  0.00    -0.062 A 
ATOM     19  H   LIG d   1       3.703  -1.843  -1.510  0.00  0.00     0.062 H 
ATOM     20  C   LIG d   1       5.059   1.139  -2.327  0.00  0.00    -0.061 A 
ATOM     21  H   LIG d   1       3.477   0.556  -1.013  0.00  0.00     0.062 H 
ATOM     22  C   LIG d   1       6.022   0.715  -3.219  0.00  0.00    -0.048 A 
ATOM     23  H   LIG d   1       4.956   2.191  -2.104  0.00  0.00     0.062 H 
ATOM     24  H   LIG d   1       6.672   1.433  -3.695  0.00  0.00     0.063 H 
ENDBRANCH   1  14
BRANCH   2  25
ATOM     25  C   LIG d   1       5.835  -0.737  -6.606  0.00  0.00     0.091 C 
ATOM     26  H   LIG d   1       5.738  -1.379  -7.481  0.00  0.00     0.062 H 
ATOM     27  H   LIG d   1       4.947  -0.836  -5.982  0.00  0.00     0.062 H 
BRANCH  25  28
ATOM     28  O   LIG d   1       5.973   0.623  -7.025  0.00  0.00    -0.389 OA
ATOM     29  H   LIG d   1       6.655   1.113  -6.548  0.00  0.00     0.210 HD
ENDBRANCH  25  28
ENDBRANCH   2  25
TORSDOF 3
ENDMDL
MODEL 9
REMARK VINA RESULT:      -5.0      3.579      4.566
REMARK  3 active torsions:
REMARK  status: ('A' for Active; 'I' for Inactive)
REMARK    1  A    between atoms: C_4  and  C_7 
REMARK    2  A    between atoms: C_8  and  C_14 
REMARK    3  A    between atoms: C_14  and  O_15 
ROOT
ATOM      1  C   LIG d   1       6.703   0.090  -4.252  0.00  0.00     0.237 A 
ATOM      2  C   LIG d   1       6.997   0.075  -5.571  0.00  0.00     0.122 A 
ATOM      3  N   LIG d   1       8.269   0.629  -5.724  0.00  0.00    -0.277 N 
ATOM      4  C   LIG d   1       8.677   0.952  -4.468  0.00  0.00     0.321 A 
ATOM      5  S   LIG d   1      10.299   1.663  -4.620  0.00  0.00    -0.035 SA
ATOM      6  C   LIG d   1      10.500   1.552  -6.437  0.00  0.00     0.024 A 
ATOM      7  C   LIG d   1       9.165   0.907  -6.844  0.00  0.00     0.039 A 
ATOM      8  H   LIG d   1      11.341   0.910  -6.701  0.00  0.00     0.040 H 
ATOM      9  H   LIG d   1      10.610   2.541  -6.882  0.00  0.00     0.040 H 
ATOM     10  H   LIG d   1       9.375  -0.030  -7.360  0.00  0.00     0.050 H 
ATOM     11  H   LIG d   1       8.656   1.577  -7.537  0.00  0.00     0.050 H 
ATOM     12  N   LIG d   1       7.755   0.635  -3.601  0.00  0.00    -0.182 N 
ATOM     13  H   LIG d   1       7.819   0.776  -2.586  0.00  0.00     0.456 HD
ENDROOT
BRANCH   1  14
ATOM     14  C   LIG d   1       5.447  -0.400  -3.633  0.00  0.00     0.048 A 
ATOM     15  C   LIG d   1       5.299  -1.751  -3.326  0.00  0.00    -0.048 A 
ATOM     16  C   LIG d   1       4.128  -2.201  -2.751  0.00  0.00    -0.061 A 
ATOM     17  H   LIG d   1       6.099  -2.445  -3.538  0.00  0.00     0.063 H 
ATOM     18  C   LIG d   1       3.103  -1.313  -2.479  0.00  0.00    -0.062 A 
ATOM     19  H   LIG d   1       4.012  -3.247  -2.511  0.00  0.00     0.062 H 
ATOM     20  C   LIG d   1       3.244   0.029  -2.782  0.00  0.00    -0.061 A 
ATOM     21  H   LIG d   1       2.188  -1.669  -2.029  0.00  0.00     0.062 H 
ATOM     22  C   LIG d   1       4.412   0.491  -3.352  0.00  0.00    -0.048 A 
ATOM     23  H   LIG d   1       2.440   0.718  -2.567  0.00  0.00     0.062 H 
ATOM     24  H   LIG d   1       4.523   1.539  -3.586  0.00  0.00     0.063 H 
ENDBRANCH   1  14
BRANCH   2  25
ATOM     25  C   LIG d   1       6.114  -0.444  -6.676  0.00  0.00     0.091 C 
ATOM     26  H   LIG d   1       6.733  -0.849  -7.475  0.00  0.00     0.062 H 
ATOM     27  H   LIG d   1       5.467  -1.229  -6.283  0.00  0.00     0.062 H 
BRANCH  25  28
ATOM     28  O   LIG d   1       5.313   0.623  -7.187  0.00  0.00    -0.389 OA
ATOM     29  H   LIG d   1       4.364   0.442  -7.174  0.00  0.00     0.210 HD
ENDBRANCH  25  28
ENDBRANCH   2  25
TORSDOF 3
ENDMDL
MODEL 10
REMARK VINA RESULT:      -4.7      3.907      4.760
REMARK  3 active torsions:
REMARK  status: ('A' for Active; 'I' for Inactive)
REMARK    1  A    between atoms: C_4  and  C_7 
REMARK    2  A    between atoms: C_8  and  C_14 
REMARK    3  A    between atoms: C_14  and  O_15 
ROOT
ATOM      1  C   LIG d   1       6.674  -1.013  -4.134  0.00  0.00     0.237 A 
ATOM      2  C   LIG d   1       7.700  -0.451  -4.813  0.00  0.00     0.122 A 
ATOM      3  N   LIG d   1       8.613  -1.464  -5.107  0.00  0.00    -0.277 N 
ATOM      4  C   LIG d   1       8.079  -2.598  -4.581  0.00  0.00     0.321 A 
ATOM      5  S   LIG d   1       9.217  -3.916  -4.936  0.00  0.00    -0.035 SA
ATOM      6  C   LIG d   1      10.498  -2.965  -5.835  0.00  0.00     0.024 A 
ATOM      7  C   LIG d   1       9.899  -1.550  -5.796  0.00  0.00     0.039 A 
ATOM      8  H   LIG d   1      10.602  -3.318  -6.862  0.00  0.00     0.040 H 
ATOM      9  H   LIG d   1      11.454  -3.001  -5.313  0.00  0.00     0.040 H 
ATOM     10  H   LIG d   1       9.767  -1.200  -6.820  0.00  0.00     0.050 H 
ATOM     11  H   LIG d   1      10.606  -0.890  -5.294  0.00  0.00     0.050 H 
ATOM     12  N   LIG d   1       6.937  -2.333  -4.008  0.00  0.00    -0.182 N 
ATOM     13  H   LIG d   1       6.335  -3.018  -3.536  0.00  0.00     0.456 HD
ENDROOT
BRANCH   1  14
ATOM     14  C   LIG d   1       5.478  -0.303  -3.617  0.00  0.00     0.048 A 
ATOM     15  C   LIG d   1       4.283  -0.335  -4.332  0.00  0.00    -0.048 A 
ATOM     16  C   LIG d   1       3.174   0.328  -3.845  0.00  0.00    -0.061 A 
ATOM     17  H   LIG d   1       4.224  -0.875  -5.265  0.00  0.00     0.063 H 
ATOM     18  C   LIG d   1       3.248   1.021  -2.650  0.00  0.00    -0.062 A 
ATOM     19  H   LIG d   1       2.246   0.304  -4.397  0.00  0.00     0.062 H 
ATOM     20  C   LIG d   1       4.433   1.055  -1.937  0.00  0.00    -0.061 A 
ATOM     21  H   LIG d   1       2.378   1.538  -2.273  0.00  0.00     0.062 H 
ATOM     22  C   LIG d   1       5.546   0.392  -2.411  0.00  0.00    -0.048 A 
ATOM     23  H   LIG d   1       4.484   1.597  -1.004  0.00  0.00     0.062 H 
ATOM     24  H   LIG d   1       6.469   0.417  -1.851  0.00  0.00     0.063 H 
ENDBRANCH   1  14
BRANCH   2  25
ATOM     25  C   LIG d   1       7.832   1.003  -5.184  0.00  0.00     0.091 C 
ATOM     26  H   LIG d   1       7.425   1.620  -4.384  0.00  0.00     0.062 H 
ATOM     27  H   LIG d   1       8.884   1.245  -5.332  0.00  0.00     0.062 H 
BRANCH  25  28
ATOM     28  O   LIG d   1       7.111   1.253  -6.393  0.00  0.00    -0.389 OA
ATOM     29  H   LIG d   1       7.669   1.528  -7.133  0.00  0.00     0.210 HD
ENDBRANCH  25  28
ENDBRANCH   2  25
TORSDOF 3
ENDMDL
