MODEL 1
REMARK VINA RESULT:      -8.3      0.000      0.000
REMARK  3 active torsions:
REMARK  status: ('A' for Active; 'I' for Inactive)
REMARK    1  A    between atoms: C_1  and  C_2 
REMARK    2  A    between atoms: C_18  and  O_23 
REMARK    3  A    between atoms: C_24  and  C_30 
ROOT
ATOM      1  C   LIG d   1       3.275  -0.710  -9.849  0.00  0.00     0.101 C 
ATOM      2  H   LIG d   1       4.087  -0.261 -10.421  0.00  0.00     0.073 H 
ATOM      3  C   LIG d   1       2.522  -1.725 -10.716  0.00  0.00    -0.015 C 
ATOM      4  C   LIG d   1       2.062  -1.072 -12.019  0.00  0.00    -0.043 C 
ATOM      5  C   LIG d   1       1.052  -1.989 -12.713  0.00  0.00     0.006 C 
ATOM      6  C   LIG d   1       1.743  -3.249 -13.166  0.00  0.00     0.133 C 
ATOM      7  O   LIG d   1       2.507  -3.213 -14.100  0.00  0.00    -0.297 OA
ATOM      8  C   LIG d   1       1.486  -4.553 -12.455  0.00  0.00     0.006 C 
ATOM      9  C   LIG d   1       2.617  -5.537 -12.760  0.00  0.00    -0.043 C 
ATOM     10  C   LIG d   1       2.590  -6.682 -11.746  0.00  0.00    -0.034 C 
ATOM     11  C   LIG d   1       3.626  -6.436 -10.677  0.00  0.00    -0.083 C 
ATOM     12  C   LIG d   1       3.567  -5.337  -9.943  0.00  0.00    -0.058 C 
ATOM     13  C   LIG d   1       4.567  -5.051  -8.898  0.00  0.00    -0.004 A 
ATOM     14  C   LIG d   1       5.452  -6.018  -8.448  0.00  0.00    -0.011 A 
ATOM     15  C   LIG d   1       6.384  -5.702  -7.468  0.00  0.00     0.140 A 
ATOM     16  C   LIG d   1       6.444  -4.418  -6.941  0.00  0.00     0.045 A 
ATOM     17  C   LIG d   1       5.567  -3.439  -7.376  0.00  0.00     0.139 A 
ATOM     18  C   LIG d   1       4.611  -3.745  -8.352  0.00  0.00     0.108 A 
ATOM     19  C   LIG d   1       3.634  -2.762  -8.807  0.00  0.00     0.344 C 
ATOM     20  O   LIG d   1       2.598  -3.171  -9.295  0.00  0.00    -0.245 OA
ATOM     21  O   LIG d   1       3.810  -1.433  -8.719  0.00  0.00    -0.458 OA
ATOM     22  C   LIG d   1       7.480  -4.098  -5.893  0.00  0.00     0.031 C 
ATOM     23  H   LIG d   1       8.434  -3.888  -6.374  0.00  0.00     0.041 H 
ATOM     24  C   LIG d   1       7.628  -5.303  -4.963  0.00  0.00     0.057 C 
ATOM     25  C   LIG d   1       7.668  -6.585  -5.747  0.00  0.00     0.313 C 
ATOM     26  O   LIG d   1       8.094  -7.585  -5.217  0.00  0.00    -0.250 OA
ATOM     27  O   LIG d   1       7.246  -6.648  -7.015  0.00  0.00    -0.425 OA
ATOM     28  H   LIG d   1       3.180  -2.562 -10.946  0.00  0.00     0.030 H 
ATOM     29  H   LIG d   1       1.653  -2.091 -10.171  0.00  0.00     0.030 H 
ATOM     30  H   LIG d   1       1.593  -0.112 -11.799  0.00  0.00     0.027 H 
ATOM     31  H   LIG d   1       2.922  -0.916 -12.671  0.00  0.00     0.027 H 
ATOM     32  H   LIG d   1       0.253  -2.243 -12.017  0.00  0.00     0.034 H 
ATOM     33  H   LIG d   1       0.630  -1.475 -13.579  0.00  0.00     0.034 H 
ATOM     34  H   LIG d   1       1.437  -4.377 -11.381  0.00  0.00     0.034 H 
ATOM     35  H   LIG d   1       0.539  -4.971 -12.798  0.00  0.00     0.034 H 
ATOM     36  H   LIG d   1       2.487  -5.939 -13.765  0.00  0.00     0.027 H 
ATOM     37  H   LIG d   1       3.574  -5.020 -12.698  0.00  0.00     0.027 H 
ATOM     38  H   LIG d   1       1.603  -6.739 -11.289  0.00  0.00     0.031 H 
ATOM     39  H   LIG d   1       2.809  -7.621 -12.254  0.00  0.00     0.031 H 
ATOM     40  H   LIG d   1       4.410  -7.157 -10.513  0.00  0.00     0.057 H 
ATOM     41  H   LIG d   1       2.754  -4.633 -10.099  0.00  0.00     0.062 H 
ATOM     42  H   LIG d   1       5.416  -7.016  -8.859  0.00  0.00     0.066 H 
ATOM     43  H   LIG d   1       8.550  -5.202  -4.392  0.00  0.00     0.039 H 
ATOM     44  H   LIG d   1       6.783  -5.330  -4.274  0.00  0.00     0.039 H 
ENDROOT
BRANCH  22  45
ATOM     45  C   LIG d   1       7.039  -2.896  -5.097  0.00  0.00     0.026 A 
ATOM     46  C   LIG d   1       7.709  -1.666  -5.274  0.00  0.00     0.256 A 
ATOM     47  N   LIG d   1       7.345  -0.563  -4.587  0.00  0.00    -0.307 N 
ATOM     48  O   LIG d   1       8.632  -1.598  -6.067  0.00  0.00    -0.267 OA
ATOM     49  C   LIG d   1       6.315  -0.650  -3.697  0.00  0.00     0.055 A 
ATOM     50  C   LIG d   1       7.852   0.818  -4.575  0.00  0.00     0.031 A 
ATOM     51  C   LIG d   1       5.609  -1.835  -3.464  0.00  0.00    -0.001 A 
ATOM     52  C   LIG d   1       6.014   0.522  -3.038  0.00  0.00    -0.021 A 
ATOM     53  C   LIG d   1       6.007  -3.023  -4.220  0.00  0.00    -0.044 A 
ATOM     54  C   LIG d   1       4.568  -1.822  -2.531  0.00  0.00    -0.053 A 
ATOM     55  H   LIG d   1       5.501  -3.968  -4.085  0.00  0.00     0.063 H 
ATOM     56  C   LIG d   1       4.276  -0.654  -1.878  0.00  0.00    -0.061 A 
ATOM     57  H   LIG d   1       4.003  -2.720  -2.329  0.00  0.00     0.062 H 
ATOM     58  C   LIG d   1       4.987   0.516  -2.121  0.00  0.00    -0.057 A 
ATOM     59  H   LIG d   1       3.473  -0.643  -1.155  0.00  0.00     0.062 H 
ATOM     60  H   LIG d   1       4.732   1.422  -1.591  0.00  0.00     0.062 H 
ATOM     61  C   LIG d   1       6.977   1.567  -3.546  0.00  0.00    -0.008 A 
ATOM     62  H   LIG d   1       6.435   2.382  -4.028  0.00  0.00     0.033 H 
ATOM     63  H   LIG d   1       7.592   1.948  -2.732  0.00  0.00     0.033 H 
ATOM     64  H   LIG d   1       8.896   0.834  -4.266  0.00  0.00     0.050 H 
ATOM     65  H   LIG d   1       7.742   1.268  -5.561  0.00  0.00     0.050 H 
ENDBRANCH  22  45
BRANCH  17  66
ATOM     66  O   LIG d   1       5.633  -2.187  -6.858  0.00  0.00    -0.505 OA
ATOM     67  H   LIG d   1       4.827  -1.907  -6.404  0.00  0.00     0.292 HD
ENDBRANCH  17  66
BRANCH   1  68
ATOM     68  C   LIG d   1       2.314   0.378  -9.365  0.00  0.00    -0.028 C 
ATOM     69  H   LIG d   1       1.343  -0.066  -9.147  0.00  0.00     0.026 H 
ATOM     70  H   LIG d   1       2.714   0.841  -8.462  0.00  0.00     0.026 H 
ATOM     71  H   LIG d   1       2.202   1.134 -10.142  0.00  0.00     0.026 H 
ENDBRANCH   1  68
TORSDOF 3
ENDMDL
MODEL 2
REMARK VINA RESULT:      -7.5      3.506      5.353
REMARK  3 active torsions:
REMARK  status: ('A' for Active; 'I' for Inactive)
REMARK    1  A    between atoms: C_1  and  C_2 
REMARK    2  A    between atoms: C_18  and  O_23 
REMARK    3  A    between atoms: C_24  and  C_30 
ROOT
ATOM      1  C   LIG d   1       7.507  -0.860 -10.626  0.00  0.00     0.101 C 
ATOM      2  H   LIG d   1       7.816  -1.897 -10.500  0.00  0.00     0.073 H 
ATOM      3  C   LIG d   1       6.174  -0.799 -11.381  0.00  0.00    -0.015 C 
ATOM      4  C   LIG d   1       6.273  -1.570 -12.697  0.00  0.00    -0.043 C 
ATOM      5  C   LIG d   1       5.063  -1.233 -13.572  0.00  0.00     0.006 C 
ATOM      6  C   LIG d   1       3.811  -1.773 -12.930  0.00  0.00     0.133 C 
ATOM      7  O   LIG d   1       3.605  -2.963 -12.924  0.00  0.00    -0.297 OA
ATOM      8  C   LIG d   1       2.818  -0.835 -12.294  0.00  0.00     0.006 C 
ATOM      9  C   LIG d   1       1.925  -1.612 -11.324  0.00  0.00    -0.043 C 
ATOM     10  C   LIG d   1       1.211  -0.636 -10.387  0.00  0.00    -0.034 C 
ATOM     11  C   LIG d   1       1.932  -0.587  -9.062  0.00  0.00    -0.083 C 
ATOM     12  C   LIG d   1       3.205  -0.227  -9.017  0.00  0.00    -0.058 C 
ATOM     13  C   LIG d   1       3.950  -0.180  -7.745  0.00  0.00    -0.004 A 
ATOM     14  C   LIG d   1       3.308  -0.249  -6.519  0.00  0.00    -0.011 A 
ATOM     15  C   LIG d   1       4.051  -0.211  -5.345  0.00  0.00     0.140 A 
ATOM     16  C   LIG d   1       5.436  -0.115  -5.392  0.00  0.00     0.045 A 
ATOM     17  C   LIG d   1       6.094  -0.043  -6.607  0.00  0.00     0.139 A 
ATOM     18  C   LIG d   1       5.360  -0.064  -7.799  0.00  0.00     0.108 A 
ATOM     19  C   LIG d   1       6.004   0.058  -9.102  0.00  0.00     0.344 C 
ATOM     20  O   LIG d   1       5.335   0.464 -10.033  0.00  0.00    -0.245 OA
ATOM     21  O   LIG d   1       7.290  -0.250  -9.336  0.00  0.00    -0.458 OA
ATOM     22  C   LIG d   1       6.218  -0.096  -4.102  0.00  0.00     0.031 C 
ATOM     23  H   LIG d   1       6.353  -1.115  -3.742  0.00  0.00     0.041 H 
ATOM     24  C   LIG d   1       5.440   0.715  -3.066  0.00  0.00     0.057 C 
ATOM     25  C   LIG d   1       3.977   0.367  -3.098  0.00  0.00     0.313 C 
ATOM     26  O   LIG d   1       3.282   0.665  -2.155  0.00  0.00    -0.250 OA
ATOM     27  O   LIG d   1       3.427  -0.266  -4.141  0.00  0.00    -0.425 OA
ATOM     28  H   LIG d   1       5.389  -1.237 -10.765  0.00  0.00     0.030 H 
ATOM     29  H   LIG d   1       5.925   0.241 -11.592  0.00  0.00     0.030 H 
ATOM     30  H   LIG d   1       7.189  -1.286 -13.216  0.00  0.00     0.027 H 
ATOM     31  H   LIG d   1       6.288  -2.640 -12.491  0.00  0.00     0.027 H 
ATOM     32  H   LIG d   1       4.980  -0.151 -13.675  0.00  0.00     0.034 H 
ATOM     33  H   LIG d   1       5.190  -1.683 -14.557  0.00  0.00     0.034 H 
ATOM     34  H   LIG d   1       3.351  -0.056 -11.751  0.00  0.00     0.034 H 
ATOM     35  H   LIG d   1       2.201  -0.381 -13.069  0.00  0.00     0.034 H 
ATOM     36  H   LIG d   1       1.184  -2.180 -11.888  0.00  0.00     0.027 H 
ATOM     37  H   LIG d   1       2.537  -2.297 -10.737  0.00  0.00     0.027 H 
ATOM     38  H   LIG d   1       1.206   0.358 -10.834  0.00  0.00     0.031 H 
ATOM     39  H   LIG d   1       0.185  -0.968 -10.230  0.00  0.00     0.031 H 
ATOM     40  H   LIG d   1       1.408  -0.845  -8.156  0.00  0.00     0.057 H 
ATOM     41  H   LIG d   1       3.712   0.059  -9.934  0.00  0.00     0.062 H 
ATOM     42  H   LIG d   1       2.232  -0.332  -6.475  0.00  0.00     0.066 H 
ATOM     43  H   LIG d   1       5.838   0.504  -2.074  0.00  0.00     0.039 H 
ATOM     44  H   LIG d   1       5.559   1.778  -3.280  0.00  0.00     0.039 H 
ENDROOT
BRANCH  22  45
ATOM     45  C   LIG d   1       7.564   0.541  -4.337  0.00  0.00     0.026 A 
ATOM     46  C   LIG d   1       8.689  -0.283  -4.562  0.00  0.00     0.256 A 
ATOM     47  N   LIG d   1       9.912   0.245  -4.781  0.00  0.00    -0.307 N 
ATOM     48  O   LIG d   1       8.552  -1.493  -4.562  0.00  0.00    -0.267 OA
ATOM     49  C   LIG d   1      10.057   1.601  -4.773  0.00  0.00     0.055 A 
ATOM     50  C   LIG d   1      11.227  -0.360  -5.042  0.00  0.00     0.031 A 
ATOM     51  C   LIG d   1       8.991   2.478  -4.551  0.00  0.00    -0.001 A 
ATOM     52  C   LIG d   1      11.339   2.050  -5.002  0.00  0.00    -0.021 A 
ATOM     53  C   LIG d   1       7.668   1.897  -4.321  0.00  0.00    -0.044 A 
ATOM     54  C   LIG d   1       9.242   3.854  -4.562  0.00  0.00    -0.053 A 
ATOM     55  H   LIG d   1       6.805   2.522  -4.144  0.00  0.00     0.063 H 
ATOM     56  C   LIG d   1      10.519   4.294  -4.788  0.00  0.00    -0.061 A 
ATOM     57  H   LIG d   1       8.441   4.558  -4.395  0.00  0.00     0.062 H 
ATOM     58  C   LIG d   1      11.569   3.408  -5.008  0.00  0.00    -0.057 A 
ATOM     59  H   LIG d   1      10.716   5.356  -4.795  0.00  0.00     0.062 H 
ATOM     60  H   LIG d   1      12.565   3.785  -5.184  0.00  0.00     0.062 H 
ATOM     61  C   LIG d   1      12.202   0.827  -5.195  0.00  0.00    -0.008 A 
ATOM     62  H   LIG d   1      12.648   0.829  -6.190  0.00  0.00     0.033 H 
ATOM     63  H   LIG d   1      12.977   0.782  -4.430  0.00  0.00     0.033 H 
ATOM     64  H   LIG d   1      11.525  -0.990  -4.204  0.00  0.00     0.050 H 
ATOM     65  H   LIG d   1      11.198  -0.944  -5.962  0.00  0.00     0.050 H 
ENDBRANCH  22  45
BRANCH  17  66
ATOM     66  O   LIG d   1       7.447   0.049  -6.644  0.00  0.00    -0.505 OA
ATOM     67  H   LIG d   1       7.780   0.957  -6.628  0.00  0.00     0.292 HD
ENDBRANCH  17  66
BRANCH   1  68
ATOM     68  C   LIG d   1       8.579  -0.085 -11.396  0.00  0.00    -0.028 C 
ATOM     69  H   LIG d   1       8.387  -0.167 -12.466  0.00  0.00     0.026 H 
ATOM     70  H   LIG d   1       8.553   0.963 -11.101  0.00  0.00     0.026 H 
ATOM     71  H   LIG d   1       9.560  -0.503 -11.171  0.00  0.00     0.026 H 
ENDBRANCH   1  68
TORSDOF 3
ENDMDL
MODEL 3
REMARK VINA RESULT:      -7.5      4.825      8.796
REMARK  3 active torsions:
REMARK  status: ('A' for Active; 'I' for Inactive)
REMARK    1  A    between atoms: C_1  and  C_2 
REMARK    2  A    between atoms: C_18  and  O_23 
REMARK    3  A    between atoms: C_24  and  C_30 
ROOT
ATOM      1  C   LIG d   1       7.285  -1.232  -8.389  0.00  0.00     0.101 C 
ATOM      2  H   LIG d   1       8.153  -1.890  -8.357  0.00  0.00     0.073 H 
ATOM      3  C   LIG d   1       6.215  -1.728  -7.410  0.00  0.00    -0.015 C 
ATOM      4  C   LIG d   1       5.880  -3.192  -7.687  0.00  0.00    -0.043 C 
ATOM      5  C   LIG d   1       4.604  -3.570  -6.929  0.00  0.00     0.006 C 
ATOM      6  C   LIG d   1       4.870  -3.535  -5.446  0.00  0.00     0.133 C 
ATOM      7  O   LIG d   1       5.549  -4.394  -4.937  0.00  0.00    -0.297 OA
ATOM      8  C   LIG d   1       4.293  -2.431  -4.598  0.00  0.00     0.006 C 
ATOM      9  C   LIG d   1       5.069  -2.335  -3.282  0.00  0.00    -0.043 C 
ATOM     10  C   LIG d   1       4.778  -0.992  -2.610  0.00  0.00    -0.034 C 
ATOM     11  C   LIG d   1       5.908  -0.032  -2.888  0.00  0.00    -0.083 C 
ATOM     12  C   LIG d   1       6.218   0.278  -4.136  0.00  0.00    -0.058 C 
ATOM     13  C   LIG d   1       7.324   1.200  -4.452  0.00  0.00    -0.004 A 
ATOM     14  C   LIG d   1       7.918   1.989  -3.480  0.00  0.00    -0.011 A 
ATOM     15  C   LIG d   1       8.965   2.838  -3.820  0.00  0.00     0.140 A 
ATOM     16  C   LIG d   1       9.428   2.895  -5.129  0.00  0.00     0.045 A 
ATOM     17  C   LIG d   1       8.845   2.116  -6.114  0.00  0.00     0.139 A 
ATOM     18  C   LIG d   1       7.780   1.267  -5.791  0.00  0.00     0.108 A 
ATOM     19  C   LIG d   1       7.102   0.464  -6.803  0.00  0.00     0.344 C 
ATOM     20  O   LIG d   1       5.962   0.105  -6.576  0.00  0.00    -0.245 OA
ATOM     21  O   LIG d   1       7.660   0.097  -7.968  0.00  0.00    -0.458 OA
ATOM     22  C   LIG d   1      10.578   3.810  -5.465  0.00  0.00     0.031 C 
ATOM     23  H   LIG d   1      11.519   3.324  -5.209  0.00  0.00     0.041 H 
ATOM     24  C   LIG d   1      10.432   5.101  -4.660  0.00  0.00     0.057 C 
ATOM     25  C   LIG d   1      10.047   4.807  -3.237  0.00  0.00     0.313 C 
ATOM     26  O   LIG d   1      10.199   5.664  -2.398  0.00  0.00    -0.250 OA
ATOM     27  O   LIG d   1       9.543   3.621  -2.874  0.00  0.00    -0.425 OA
ATOM     28  H   LIG d   1       6.586  -1.630  -6.390  0.00  0.00     0.030 H 
ATOM     29  H   LIG d   1       5.315  -1.125  -7.523  0.00  0.00     0.030 H 
ATOM     30  H   LIG d   1       5.724  -3.334  -8.757  0.00  0.00     0.027 H 
ATOM     31  H   LIG d   1       6.703  -3.824  -7.352  0.00  0.00     0.027 H 
ATOM     32  H   LIG d   1       3.813  -2.861  -7.174  0.00  0.00     0.034 H 
ATOM     33  H   LIG d   1       4.293  -4.575  -7.219  0.00  0.00     0.034 H 
ATOM     34  H   LIG d   1       4.367  -1.485  -5.133  0.00  0.00     0.034 H 
ATOM     35  H   LIG d   1       3.245  -2.647  -4.386  0.00  0.00     0.034 H 
ATOM     36  H   LIG d   1       4.762  -3.146  -2.620  0.00  0.00     0.027 H 
ATOM     37  H   LIG d   1       6.137  -2.416  -3.484  0.00  0.00     0.027 H 
ATOM     38  H   LIG d   1       3.848  -0.583  -3.005  0.00  0.00     0.031 H 
ATOM     39  H   LIG d   1       4.682  -1.138  -1.534  0.00  0.00     0.031 H 
ATOM     40  H   LIG d   1       6.459   0.400  -2.068  0.00  0.00     0.057 H 
ATOM     41  H   LIG d   1       5.636  -0.143  -4.952  0.00  0.00     0.062 H 
ATOM     42  H   LIG d   1       7.569   1.944  -2.459  0.00  0.00     0.066 H 
ATOM     43  H   LIG d   1      11.379   5.639  -4.672  0.00  0.00     0.039 H 
ATOM     44  H   LIG d   1       9.662   5.723  -5.118  0.00  0.00     0.039 H 
ENDROOT
BRANCH  22  45
ATOM     45  C   LIG d   1      10.557   4.127  -6.939  0.00  0.00     0.026 A 
ATOM     46  C   LIG d   1      11.533   3.554  -7.784  0.00  0.00     0.256 A 
ATOM     47  N   LIG d   1      11.549   3.806  -9.109  0.00  0.00    -0.307 N 
ATOM     48  O   LIG d   1      12.375   2.814  -7.306  0.00  0.00    -0.267 OA
ATOM     49  C   LIG d   1      10.606   4.641  -9.634  0.00  0.00     0.055 A 
ATOM     50  C   LIG d   1      12.425   3.354 -10.201  0.00  0.00     0.031 A 
ATOM     51  C   LIG d   1       9.614   5.249  -8.859  0.00  0.00    -0.001 A 
ATOM     52  C   LIG d   1      10.701   4.844 -10.993  0.00  0.00    -0.021 A 
ATOM     53  C   LIG d   1       9.601   4.964  -7.424  0.00  0.00    -0.044 A 
ATOM     54  C   LIG d   1       8.692   6.090  -9.490  0.00  0.00    -0.053 A 
ATOM     55  H   LIG d   1       8.859   5.403  -6.772  0.00  0.00     0.063 H 
ATOM     56  C   LIG d   1       8.793   6.290 -10.842  0.00  0.00    -0.061 A 
ATOM     57  H   LIG d   1       7.913   6.575  -8.921  0.00  0.00     0.062 H 
ATOM     58  C   LIG d   1       9.786   5.677 -11.599  0.00  0.00    -0.057 A 
ATOM     59  H   LIG d   1       8.083   6.940 -11.332  0.00  0.00     0.062 H 
ATOM     60  H   LIG d   1       9.839   5.853 -12.663  0.00  0.00     0.062 H 
ATOM     61  C   LIG d   1      11.879   4.033 -11.475  0.00  0.00    -0.008 A 
ATOM     62  H   LIG d   1      11.555   3.284 -12.198  0.00  0.00     0.033 H 
ATOM     63  H   LIG d   1      12.636   4.683 -11.912  0.00  0.00     0.033 H 
ATOM     64  H   LIG d   1      13.452   3.667 -10.015  0.00  0.00     0.050 H 
ATOM     65  H   LIG d   1      12.374   2.269 -10.301  0.00  0.00     0.050 H 
ENDBRANCH  22  45
BRANCH  17  66
ATOM     66  O   LIG d   1       9.305   2.176  -7.389  0.00  0.00    -0.505 OA
ATOM     67  H   LIG d   1       9.141   1.373  -7.903  0.00  0.00     0.292 HD
ENDBRANCH  17  66
BRANCH   1  68
ATOM     68  C   LIG d   1       6.714  -1.189  -9.808  0.00  0.00    -0.028 C 
ATOM     69  H   LIG d   1       5.625  -1.224  -9.763  0.00  0.00     0.026 H 
ATOM     70  H   LIG d   1       7.028  -0.268 -10.299  0.00  0.00     0.026 H 
ATOM     71  H   LIG d   1       7.081  -2.046 -10.373  0.00  0.00     0.026 H 
ENDBRANCH   1  68
TORSDOF 3
ENDMDL
MODEL 4
REMARK VINA RESULT:      -7.4      8.935     13.450
REMARK  3 active torsions:
REMARK  status: ('A' for Active; 'I' for Inactive)
REMARK    1  A    between atoms: C_1  and  C_2 
REMARK    2  A    between atoms: C_18  and  O_23 
REMARK    3  A    between atoms: C_24  and  C_30 
ROOT
ATOM      1  C   LIG d   1       9.666   4.420  -3.432  0.00  0.00     0.101 C 
ATOM      2  H   LIG d   1       8.653   4.488  -3.037  0.00  0.00     0.073 H 
ATOM      3  C   LIG d   1       9.669   3.600  -4.728  0.00  0.00    -0.015 C 
ATOM      4  C   LIG d   1       9.012   2.240  -4.497  0.00  0.00    -0.043 C 
ATOM      5  C   LIG d   1       9.309   1.328  -5.690  0.00  0.00     0.006 C 
ATOM      6  C   LIG d   1       8.615   1.861  -6.918  0.00  0.00     0.133 C 
ATOM      7  O   LIG d   1       7.414   1.770  -7.016  0.00  0.00    -0.297 OA
ATOM      8  C   LIG d   1       9.413   2.507  -8.020  0.00  0.00     0.006 C 
ATOM      9  C   LIG d   1       8.491   3.370  -8.884  0.00  0.00    -0.043 C 
ATOM     10  C   LIG d   1       9.328   4.334  -9.727  0.00  0.00    -0.034 C 
ATOM     11  C   LIG d   1       9.337   5.696  -9.077  0.00  0.00    -0.083 C 
ATOM     12  C   LIG d   1       9.801   5.836  -7.846  0.00  0.00    -0.058 C 
ATOM     13  C   LIG d   1       9.816   7.146  -7.169  0.00  0.00    -0.004 A 
ATOM     14  C   LIG d   1       9.599   8.327  -7.859  0.00  0.00    -0.011 A 
ATOM     15  C   LIG d   1       9.612   9.539  -7.180  0.00  0.00     0.140 A 
ATOM     16  C   LIG d   1       9.831   9.575  -5.808  0.00  0.00     0.045 A 
ATOM     17  C   LIG d   1      10.051   8.405  -5.102  0.00  0.00     0.139 A 
ATOM     18  C   LIG d   1      10.057   7.177  -5.774  0.00  0.00     0.108 A 
ATOM     19  C   LIG d   1      10.333   5.922  -5.082  0.00  0.00     0.344 C 
ATOM     20  O   LIG d   1      10.749   4.988  -5.741  0.00  0.00    -0.245 OA
ATOM     21  O   LIG d   1      10.155   5.737  -3.764  0.00  0.00    -0.458 OA
ATOM     22  C   LIG d   1       9.818  10.902  -5.093  0.00  0.00     0.031 C 
ATOM     23  H   LIG d   1       8.790  11.196  -4.884  0.00  0.00     0.041 H 
ATOM     24  C   LIG d   1      10.479  11.950  -5.990  0.00  0.00     0.057 C 
ATOM     25  C   LIG d   1      10.009  11.815  -7.412  0.00  0.00     0.313 C 
ATOM     26  O   LIG d   1      10.173  12.737  -8.175  0.00  0.00    -0.250 OA
ATOM     27  O   LIG d   1       9.412  10.701  -7.853  0.00  0.00    -0.425 OA
ATOM     28  H   LIG d   1       9.119   4.140  -5.498  0.00  0.00     0.030 H 
ATOM     29  H   LIG d   1      10.696   3.451  -5.059  0.00  0.00     0.030 H 
ATOM     30  H   LIG d   1       9.412   1.793  -3.587  0.00  0.00     0.027 H 
ATOM     31  H   LIG d   1       7.934   2.370  -4.397  0.00  0.00     0.027 H 
ATOM     32  H   LIG d   1      10.384   1.297  -5.865  0.00  0.00     0.034 H 
ATOM     33  H   LIG d   1       8.946   0.321  -5.476  0.00  0.00     0.034 H 
ATOM     34  H   LIG d   1      10.192   3.133  -7.585  0.00  0.00     0.034 H 
ATOM     35  H   LIG d   1       9.870   1.734  -8.637  0.00  0.00     0.034 H 
ATOM     36  H   LIG d   1       7.905   2.727  -9.543  0.00  0.00     0.027 H 
ATOM     37  H   LIG d   1       7.818   3.938  -8.242  0.00  0.00     0.027 H 
ATOM     38  H   LIG d   1      10.348   3.960  -9.800  0.00  0.00     0.031 H 
ATOM     39  H   LIG d   1       8.897   4.411 -10.725  0.00  0.00     0.031 H 
ATOM     40  H   LIG d   1       8.967   6.551  -9.618  0.00  0.00     0.057 H 
ATOM     41  H   LIG d   1      10.199   4.970  -7.323  0.00  0.00     0.062 H 
ATOM     42  H   LIG d   1       9.421   8.307  -8.924  0.00  0.00     0.066 H 
ATOM     43  H   LIG d   1      10.228  12.945  -5.622  0.00  0.00     0.039 H 
ATOM     44  H   LIG d   1      11.561  11.820  -5.956  0.00  0.00     0.039 H 
ENDROOT
BRANCH  22  45
ATOM     45  C   LIG d   1      10.586  10.787  -3.801  0.00  0.00     0.026 A 
ATOM     46  C   LIG d   1       9.882  10.804  -2.576  0.00  0.00     0.256 A 
ATOM     47  N   LIG d   1      10.527  10.699  -1.395  0.00  0.00    -0.307 N 
ATOM     48  O   LIG d   1       8.668  10.912  -2.586  0.00  0.00    -0.267 OA
ATOM     49  C   LIG d   1      11.887  10.584  -1.394  0.00  0.00     0.055 A 
ATOM     50  C   LIG d   1      10.060  10.684  -0.001  0.00  0.00     0.031 A 
ATOM     51  C   LIG d   1      12.649  10.567  -2.565  0.00  0.00    -0.001 A 
ATOM     52  C   LIG d   1      12.461  10.486  -0.145  0.00  0.00    -0.021 A 
ATOM     53  C   LIG d   1      11.940  10.675  -3.840  0.00  0.00    -0.044 A 
ATOM     54  C   LIG d   1      14.038  10.446  -2.458  0.00  0.00    -0.053 A 
ATOM     55  H   LIG d   1      12.473  10.666  -4.780  0.00  0.00     0.063 H 
ATOM     56  C   LIG d   1      14.603  10.351  -1.214  0.00  0.00    -0.061 A 
ATOM     57  H   LIG d   1      14.656  10.429  -3.344  0.00  0.00     0.062 H 
ATOM     58  C   LIG d   1      13.830  10.369  -0.058  0.00  0.00    -0.057 A 
ATOM     59  H   LIG d   1      15.676  10.259  -1.129  0.00  0.00     0.062 H 
ATOM     60  H   LIG d   1      14.304  10.291   0.909  0.00  0.00     0.062 H 
ATOM     61  C   LIG d   1      11.334  10.541   0.859  0.00  0.00    -0.008 A 
ATOM     62  H   LIG d   1      11.300   9.620   1.442  0.00  0.00     0.033 H 
ATOM     63  H   LIG d   1      11.449  11.404   1.514  0.00  0.00     0.033 H 
ATOM     64  H   LIG d   1       9.546  11.615   0.235  0.00  0.00     0.050 H 
ATOM     65  H   LIG d   1       9.396   9.835   0.166  0.00  0.00     0.050 H 
ENDBRANCH  22  45
BRANCH  17  66
ATOM     66  O   LIG d   1      10.261   8.448  -3.763  0.00  0.00    -0.505 OA
ATOM     67  H   LIG d   1      10.152   7.595  -3.320  0.00  0.00     0.292 HD
ENDBRANCH  17  66
BRANCH   1  68
ATOM     68  C   LIG d   1      10.586   3.766  -2.399  0.00  0.00    -0.028 C 
ATOM     69  H   LIG d   1      11.388   4.457  -2.139  0.00  0.00     0.026 H 
ATOM     70  H   LIG d   1      10.013   3.521  -1.505  0.00  0.00     0.026 H 
ATOM     71  H   LIG d   1      11.014   2.856  -2.819  0.00  0.00     0.026 H 
ENDBRANCH   1  68
TORSDOF 3
ENDMDL
MODEL 5
REMARK VINA RESULT:      -7.4      9.011     12.288
REMARK  3 active torsions:
REMARK  status: ('A' for Active; 'I' for Inactive)
REMARK    1  A    between atoms: C_1  and  C_2 
REMARK    2  A    between atoms: C_18  and  O_23 
REMARK    3  A    between atoms: C_24  and  C_30 
ROOT
ATOM      1  C   LIG d   1      12.441   9.882  -7.452  0.00  0.00     0.101 C 
ATOM      2  H   LIG d   1      13.488   9.578  -7.478  0.00  0.00     0.073 H 
ATOM      3  C   LIG d   1      11.798   9.664  -8.826  0.00  0.00    -0.015 C 
ATOM      4  C   LIG d   1      12.611  10.370  -9.910  0.00  0.00    -0.043 C 
ATOM      5  C   LIG d   1      11.793  10.415 -11.204  0.00  0.00     0.006 C 
ATOM      6  C   LIG d   1      11.617   9.016 -11.738  0.00  0.00     0.133 C 
ATOM      7  O   LIG d   1      12.556   8.438 -12.230  0.00  0.00    -0.297 OA
ATOM      8  C   LIG d   1      10.274   8.337 -11.657  0.00  0.00     0.006 C 
ATOM      9  C   LIG d   1      10.454   6.824 -11.800  0.00  0.00    -0.043 C 
ATOM     10  C   LIG d   1       9.192   6.107 -11.316  0.00  0.00    -0.034 C 
ATOM     11  C   LIG d   1       9.405   5.600  -9.912  0.00  0.00    -0.083 C 
ATOM     12  C   LIG d   1       9.702   6.450  -8.941  0.00  0.00    -0.058 C 
ATOM     13  C   LIG d   1       9.932   5.995  -7.558  0.00  0.00    -0.004 A 
ATOM     14  C   LIG d   1       9.597   4.716  -7.144  0.00  0.00    -0.011 A 
ATOM     15  C   LIG d   1       9.840   4.326  -5.833  0.00  0.00     0.140 A 
ATOM     16  C   LIG d   1      10.428   5.207  -4.934  0.00  0.00     0.045 A 
ATOM     17  C   LIG d   1      10.767   6.490  -5.328  0.00  0.00     0.139 A 
ATOM     18  C   LIG d   1      10.514   6.904  -6.642  0.00  0.00     0.108 A 
ATOM     19  C   LIG d   1      10.809   8.260  -7.091  0.00  0.00     0.344 C 
ATOM     20  O   LIG d   1      10.196   8.688  -8.050  0.00  0.00    -0.245 OA
ATOM     21  O   LIG d   1      11.715   9.063  -6.510  0.00  0.00    -0.458 OA
ATOM     22  C   LIG d   1      10.699   4.750  -3.523  0.00  0.00     0.031 C 
ATOM     23  H   LIG d   1      11.629   4.183  -3.494  0.00  0.00     0.041 H 
ATOM     24  C   LIG d   1       9.543   3.862  -3.062  0.00  0.00     0.057 C 
ATOM     25  C   LIG d   1       9.144   2.895  -4.142  0.00  0.00     0.313 C 
ATOM     26  O   LIG d   1       8.482   1.926  -3.850  0.00  0.00    -0.250 OA
ATOM     27  O   LIG d   1       9.504   3.078  -5.419  0.00  0.00    -0.425 OA
ATOM     28  H   LIG d   1      11.759   8.597  -9.042  0.00  0.00     0.030 H 
ATOM     29  H   LIG d   1      10.785  10.065  -8.818  0.00  0.00     0.030 H 
ATOM     30  H   LIG d   1      12.841  11.386  -9.589  0.00  0.00     0.027 H 
ATOM     31  H   LIG d   1      13.538   9.823 -10.084  0.00  0.00     0.027 H 
ATOM     32  H   LIG d   1      10.816  10.852 -11.001  0.00  0.00     0.034 H 
ATOM     33  H   LIG d   1      12.317  11.023 -11.944  0.00  0.00     0.034 H 
ATOM     34  H   LIG d   1       9.813   8.558 -10.695  0.00  0.00     0.034 H 
ATOM     35  H   LIG d   1       9.634   8.703 -12.459  0.00  0.00     0.034 H 
ATOM     36  H   LIG d   1      10.632   6.578 -12.848  0.00  0.00     0.027 H 
ATOM     37  H   LIG d   1      11.307   6.501 -11.202  0.00  0.00     0.027 H 
ATOM     38  H   LIG d   1       8.353   6.802 -11.328  0.00  0.00     0.031 H 
ATOM     39  H   LIG d   1       8.977   5.267 -11.976  0.00  0.00     0.031 H 
ATOM     40  H   LIG d   1       9.315   4.547  -9.701  0.00  0.00     0.057 H 
ATOM     41  H   LIG d   1       9.761   7.513  -9.162  0.00  0.00     0.062 H 
ATOM     42  H   LIG d   1       9.147   4.023  -7.840  0.00  0.00     0.066 H 
ATOM     43  H   LIG d   1       9.850   3.305  -2.178  0.00  0.00     0.039 H 
ATOM     44  H   LIG d   1       8.687   4.489  -2.809  0.00  0.00     0.039 H 
ENDROOT
BRANCH  22  45
ATOM     45  C   LIG d   1      10.808   5.949  -2.615  0.00  0.00     0.026 A 
ATOM     46  C   LIG d   1      12.068   6.299  -2.082  0.00  0.00     0.256 A 
ATOM     47  N   LIG d   1      12.213   7.367  -1.269  0.00  0.00    -0.307 N 
ATOM     48  O   LIG d   1      13.043   5.626  -2.363  0.00  0.00    -0.267 OA
ATOM     49  C   LIG d   1      11.114   8.111  -0.954  0.00  0.00     0.055 A 
ATOM     50  C   LIG d   1      13.378   7.952  -0.589  0.00  0.00     0.031 A 
ATOM     51  C   LIG d   1       9.835   7.821  -1.440  0.00  0.00    -0.001 A 
ATOM     52  C   LIG d   1      11.354   9.179  -0.117  0.00  0.00    -0.021 A 
ATOM     53  C   LIG d   1       9.689   6.665  -2.325  0.00  0.00    -0.044 A 
ATOM     54  C   LIG d   1       8.771   8.645  -1.058  0.00  0.00    -0.053 A 
ATOM     55  H   LIG d   1       8.727   6.390  -2.733  0.00  0.00     0.063 H 
ATOM     56  C   LIG d   1       9.016   9.703  -0.224  0.00  0.00    -0.061 A 
ATOM     57  H   LIG d   1       7.771   8.448  -1.416  0.00  0.00     0.062 H 
ATOM     58  C   LIG d   1      10.294   9.979   0.250  0.00  0.00    -0.057 A 
ATOM     59  H   LIG d   1       8.196  10.340   0.073  0.00  0.00     0.062 H 
ATOM     60  H   LIG d   1      10.457  10.821   0.905  0.00  0.00     0.062 H 
ATOM     61  C   LIG d   1      12.832   9.169   0.189  0.00  0.00    -0.008 A 
ATOM     62  H   LIG d   1      13.300  10.089  -0.163  0.00  0.00     0.033 H 
ATOM     63  H   LIG d   1      12.999   9.041   1.258  0.00  0.00     0.033 H 
ATOM     64  H   LIG d   1      13.817   7.229   0.097  0.00  0.00     0.050 H 
ATOM     65  H   LIG d   1      14.119   8.275  -1.321  0.00  0.00     0.050 H 
ENDBRANCH  22  45
BRANCH  17  66
ATOM     66  O   LIG d   1      11.342   7.344  -4.445  0.00  0.00    -0.505 OA
ATOM     67  H   LIG d   1      11.135   8.274  -4.607  0.00  0.00     0.292 HD
ENDBRANCH  17  66
BRANCH   1  68
ATOM     68  C   LIG d   1      12.336  11.355  -7.053  0.00  0.00    -0.028 C 
ATOM     69  H   LIG d   1      11.462  11.497  -6.417  0.00  0.00     0.026 H 
ATOM     70  H   LIG d   1      13.234  11.650  -6.511  0.00  0.00     0.026 H 
ATOM     71  H   LIG d   1      12.235  11.967  -7.950  0.00  0.00     0.026 H 
ENDBRANCH   1  68
TORSDOF 3
ENDMDL
MODEL 6
REMARK VINA RESULT:      -7.3      7.035     12.901
REMARK  3 active torsions:
REMARK  status: ('A' for Active; 'I' for Inactive)
REMARK    1  A    between atoms: C_1  and  C_2 
REMARK    2  A    between atoms: C_18  and  O_23 
REMARK    3  A    between atoms: C_24  and  C_30 
ROOT
ATOM      1  C   LIG d   1      11.535   6.024  -2.003  0.00  0.00     0.101 C 
ATOM      2  H   LIG d   1      12.612   6.012  -2.172  0.00  0.00     0.073 H 
ATOM      3  C   LIG d   1      11.056   7.463  -1.782  0.00  0.00    -0.015 C 
ATOM      4  C   LIG d   1      11.857   8.122  -0.660  0.00  0.00    -0.043 C 
ATOM      5  C   LIG d   1      11.162   9.421  -0.241  0.00  0.00     0.006 C 
ATOM      6  C   LIG d   1      11.233  10.418  -1.369  0.00  0.00     0.133 C 
ATOM      7  O   LIG d   1      12.284  10.947  -1.638  0.00  0.00    -0.297 OA
ATOM      8  C   LIG d   1       9.997  10.754  -2.163  0.00  0.00     0.006 C 
ATOM      9  C   LIG d   1      10.399  11.379  -3.500  0.00  0.00    -0.043 C 
ATOM     10  C   LIG d   1       9.211  11.342  -4.464  0.00  0.00    -0.034 C 
ATOM     11  C   LIG d   1       9.365  10.179  -5.412  0.00  0.00    -0.083 C 
ATOM     12  C   LIG d   1       9.450   8.947  -4.937  0.00  0.00    -0.058 C 
ATOM     13  C   LIG d   1       9.615   7.784  -5.828  0.00  0.00    -0.004 A 
ATOM     14  C   LIG d   1       9.426   7.880  -7.197  0.00  0.00    -0.011 A 
ATOM     15  C   LIG d   1       9.601   6.760  -8.001  0.00  0.00     0.140 A 
ATOM     16  C   LIG d   1       9.975   5.545  -7.442  0.00  0.00     0.045 A 
ATOM     17  C   LIG d   1      10.166   5.429  -6.077  0.00  0.00     0.139 A 
ATOM     18  C   LIG d   1       9.979   6.544  -5.250  0.00  0.00     0.108 A 
ATOM     19  C   LIG d   1      10.120   6.460  -3.801  0.00  0.00     0.344 C 
ATOM     20  O   LIG d   1       9.543   7.289  -3.123  0.00  0.00    -0.245 OA
ATOM     21  O   LIG d   1      10.848   5.524  -3.170  0.00  0.00    -0.458 OA
ATOM     22  C   LIG d   1      10.179   4.351  -8.341  0.00  0.00     0.031 C 
ATOM     23  H   LIG d   1      11.172   4.393  -8.786  0.00  0.00     0.041 H 
ATOM     24  C   LIG d   1       9.121   4.380  -9.445  0.00  0.00     0.057 C 
ATOM     25  C   LIG d   1       8.961   5.768 -10.000  0.00  0.00     0.313 C 
ATOM     26  O   LIG d   1       8.418   5.915 -11.070  0.00  0.00    -0.250 OA
ATOM     27  O   LIG d   1       9.406   6.845  -9.342  0.00  0.00    -0.425 OA
ATOM     28  H   LIG d   1      11.187   8.033  -2.701  0.00  0.00     0.030 H 
ATOM     29  H   LIG d   1      10.001   7.455  -1.513  0.00  0.00     0.030 H 
ATOM     30  H   LIG d   1      11.913   7.446   0.193  0.00  0.00     0.027 H 
ATOM     31  H   LIG d   1      12.864   8.346  -1.015  0.00  0.00     0.027 H 
ATOM     32  H   LIG d   1      10.119   9.214  -0.003  0.00  0.00     0.034 H 
ATOM     33  H   LIG d   1      11.661   9.831   0.639  0.00  0.00     0.034 H 
ATOM     34  H   LIG d   1       9.424   9.845  -2.344  0.00  0.00     0.034 H 
ATOM     35  H   LIG d   1       9.387  11.461  -1.600  0.00  0.00     0.034 H 
ATOM     36  H   LIG d   1      10.704  12.414  -3.340  0.00  0.00     0.027 H 
ATOM     37  H   LIG d   1      11.230  10.818  -3.927  0.00  0.00     0.027 H 
ATOM     38  H   LIG d   1       8.288  11.229  -3.896  0.00  0.00     0.031 H 
ATOM     39  H   LIG d   1       9.176  12.272  -5.032  0.00  0.00     0.031 H 
ATOM     40  H   LIG d   1       9.404  10.355  -6.475  0.00  0.00     0.057 H 
ATOM     41  H   LIG d   1       9.379   8.782  -3.865  0.00  0.00     0.062 H 
ATOM     42  H   LIG d   1       9.143   8.824  -7.639  0.00  0.00     0.066 H 
ATOM     43  H   LIG d   1       9.422   3.706 -10.246  0.00  0.00     0.039 H 
ATOM     44  H   LIG d   1       8.167   4.046  -9.036  0.00  0.00     0.039 H 
ENDROOT
BRANCH  22  45
ATOM     45  C   LIG d   1      10.035   3.083  -7.538  0.00  0.00     0.026 A 
ATOM     46  C   LIG d   1      11.194   2.365  -7.168  0.00  0.00     0.256 A 
ATOM     47  N   LIG d   1      11.114   1.228  -6.445  0.00  0.00    -0.307 N 
ATOM     48  O   LIG d   1      12.288   2.783  -7.505  0.00  0.00    -0.267 OA
ATOM     49  C   LIG d   1       9.885   0.766  -6.077  0.00  0.00     0.055 A 
ATOM     50  C   LIG d   1      12.132   0.301  -5.928  0.00  0.00     0.031 A 
ATOM     51  C   LIG d   1       8.695   1.419  -6.412  0.00  0.00    -0.001 A 
ATOM     52  C   LIG d   1       9.898  -0.401  -5.345  0.00  0.00    -0.021 A 
ATOM     53  C   LIG d   1       8.793   2.654  -7.190  0.00  0.00    -0.044 A 
ATOM     54  C   LIG d   1       7.484   0.864  -5.988  0.00  0.00    -0.053 A 
ATOM     55  H   LIG d   1       7.910   3.205  -7.479  0.00  0.00     0.063 H 
ATOM     56  C   LIG d   1       7.503  -0.298  -5.263  0.00  0.00    -0.061 A 
ATOM     57  H   LIG d   1       6.547   1.344  -6.230  0.00  0.00     0.062 H 
ATOM     58  C   LIG d   1       8.696  -0.935  -4.937  0.00  0.00    -0.057 A 
ATOM     59  H   LIG d   1       6.568  -0.729  -4.935  0.00  0.00     0.062 H 
ATOM     60  H   LIG d   1       8.679  -1.850  -4.362  0.00  0.00     0.062 H 
ATOM     61  C   LIG d   1      11.345  -0.801  -5.186  0.00  0.00    -0.008 A 
ATOM     62  H   LIG d   1      11.620  -0.821  -4.131  0.00  0.00     0.033 H 
ATOM     63  H   LIG d   1      11.526  -1.771  -5.646  0.00  0.00     0.033 H 
ATOM     64  H   LIG d   1      12.702  -0.130  -6.751  0.00  0.00     0.050 H 
ATOM     65  H   LIG d   1      12.798   0.818  -5.237  0.00  0.00     0.050 H 
ENDBRANCH  22  45
BRANCH  17  66
ATOM     66  O   LIG d   1      10.533   4.239  -5.539  0.00  0.00    -0.505 OA
ATOM     67  H   LIG d   1      10.176   4.080  -4.655  0.00  0.00     0.292 HD
ENDBRANCH  17  66
BRANCH   1  68
ATOM     68  C   LIG d   1      11.189   5.165  -0.785  0.00  0.00    -0.028 C 
ATOM     69  H   LIG d   1      10.180   4.768  -0.897  0.00  0.00     0.026 H 
ATOM     70  H   LIG d   1      11.898   4.341  -0.708  0.00  0.00     0.026 H 
ATOM     71  H   LIG d   1      11.241   5.776   0.116  0.00  0.00     0.026 H 
ENDBRANCH   1  68
TORSDOF 3
ENDMDL
MODEL 7
REMARK VINA RESULT:      -7.2      4.813      9.176
REMARK  3 active torsions:
REMARK  status: ('A' for Active; 'I' for Inactive)
REMARK    1  A    between atoms: C_1  and  C_2 
REMARK    2  A    between atoms: C_18  and  O_23 
REMARK    3  A    between atoms: C_24  and  C_30 
ROOT
ATOM      1  C   LIG d   1      11.705   0.139  -7.833  0.00  0.00     0.101 C 
ATOM      2  H   LIG d   1      11.145   0.049  -8.763  0.00  0.00     0.073 H 
ATOM      3  C   LIG d   1      12.101   1.601  -7.599  0.00  0.00    -0.015 C 
ATOM      4  C   LIG d   1      12.845   2.151  -8.814  0.00  0.00    -0.043 C 
ATOM      5  C   LIG d   1      13.504   3.482  -8.443  0.00  0.00     0.006 C 
ATOM      6  C   LIG d   1      12.439   4.514  -8.174  0.00  0.00     0.133 C 
ATOM      7  O   LIG d   1      11.799   4.970  -9.091  0.00  0.00    -0.297 OA
ATOM      8  C   LIG d   1      12.169   4.977  -6.766  0.00  0.00     0.006 C 
ATOM      9  C   LIG d   1      10.783   5.622  -6.693  0.00  0.00    -0.043 C 
ATOM     10  C   LIG d   1      10.335   5.716  -5.234  0.00  0.00    -0.034 C 
ATOM     11  C   LIG d   1       9.390   4.584  -4.920  0.00  0.00    -0.083 C 
ATOM     12  C   LIG d   1       9.790   3.331  -5.068  0.00  0.00    -0.058 C 
ATOM     13  C   LIG d   1       8.893   2.194  -4.786  0.00  0.00    -0.004 A 
ATOM     14  C   LIG d   1       7.695   2.359  -4.109  0.00  0.00    -0.011 A 
ATOM     15  C   LIG d   1       6.876   1.262  -3.873  0.00  0.00     0.140 A 
ATOM     16  C   LIG d   1       7.245  -0.001  -4.321  0.00  0.00     0.045 A 
ATOM     17  C   LIG d   1       8.439  -0.185  -4.996  0.00  0.00     0.139 A 
ATOM     18  C   LIG d   1       9.283   0.907  -5.229  0.00  0.00     0.108 A 
ATOM     19  C   LIG d   1      10.573   0.756  -5.893  0.00  0.00     0.344 C 
ATOM     20  O   LIG d   1      11.424   1.599  -5.685  0.00  0.00    -0.245 OA
ATOM     21  O   LIG d   1      10.877  -0.259  -6.719  0.00  0.00    -0.458 OA
ATOM     22  C   LIG d   1       6.327  -1.170  -4.069  0.00  0.00     0.031 C 
ATOM     23  H   LIG d   1       5.542  -1.189  -4.825  0.00  0.00     0.041 H 
ATOM     24  C   LIG d   1       5.700  -1.015  -2.683  0.00  0.00     0.057 C 
ATOM     25  C   LIG d   1       5.255   0.403  -2.450  0.00  0.00     0.313 C 
ATOM     26  O   LIG d   1       4.469   0.634  -1.562  0.00  0.00    -0.250 OA
ATOM     27  O   LIG d   1       5.707   1.415  -3.201  0.00  0.00    -0.425 OA
ATOM     28  H   LIG d   1      11.204   2.195  -7.427  0.00  0.00     0.030 H 
ATOM     29  H   LIG d   1      12.746   1.665  -6.723  0.00  0.00     0.030 H 
ATOM     30  H   LIG d   1      13.610   1.439  -9.125  0.00  0.00     0.027 H 
ATOM     31  H   LIG d   1      12.141   2.309  -9.631  0.00  0.00     0.027 H 
ATOM     32  H   LIG d   1      14.114   3.348  -7.549  0.00  0.00     0.034 H 
ATOM     33  H   LIG d   1      14.135   3.817  -9.267  0.00  0.00     0.034 H 
ATOM     34  H   LIG d   1      12.209   4.125  -6.089  0.00  0.00     0.034 H 
ATOM     35  H   LIG d   1      12.924   5.708  -6.474  0.00  0.00     0.034 H 
ATOM     36  H   LIG d   1      10.825   6.622  -7.125  0.00  0.00     0.027 H 
ATOM     37  H   LIG d   1      10.071   5.015  -7.253  0.00  0.00     0.027 H 
ATOM     38  H   LIG d   1      11.207   5.653  -4.582  0.00  0.00     0.031 H 
ATOM     39  H   LIG d   1       9.829   6.667  -5.071  0.00  0.00     0.031 H 
ATOM     40  H   LIG d   1       8.391   4.797  -4.575  0.00  0.00     0.057 H 
ATOM     41  H   LIG d   1      10.808   3.129  -5.388  0.00  0.00     0.062 H 
ATOM     42  H   LIG d   1       7.399   3.339  -3.765  0.00  0.00     0.066 H 
ATOM     43  H   LIG d   1       4.840  -1.678  -2.603  0.00  0.00     0.039 H 
ATOM     44  H   LIG d   1       6.434  -1.289  -1.925  0.00  0.00     0.039 H 
ENDROOT
BRANCH  22  45
ATOM     45  C   LIG d   1       7.116  -2.453  -4.126  0.00  0.00     0.026 A 
ATOM     46  C   LIG d   1       6.885  -3.360  -5.184  0.00  0.00     0.256 A 
ATOM     47  N   LIG d   1       7.572  -4.518  -5.278  0.00  0.00    -0.307 N 
ATOM     48  O   LIG d   1       6.053  -3.088  -6.032  0.00  0.00    -0.267 OA
ATOM     49  C   LIG d   1       8.497  -4.816  -4.321  0.00  0.00     0.055 A 
ATOM     50  C   LIG d   1       7.542  -5.620  -6.252  0.00  0.00     0.031 A 
ATOM     51  C   LIG d   1       8.774  -3.971  -3.241  0.00  0.00    -0.001 A 
ATOM     52  C   LIG d   1       9.147  -6.019  -4.494  0.00  0.00    -0.021 A 
ATOM     53  C   LIG d   1       8.029  -2.715  -3.153  0.00  0.00    -0.044 A 
ATOM     54  C   LIG d   1       9.740  -4.367  -2.312  0.00  0.00    -0.053 A 
ATOM     55  H   LIG d   1       8.198  -2.020  -2.343  0.00  0.00     0.063 H 
ATOM     56  C   LIG d   1      10.381  -5.564  -2.488  0.00  0.00    -0.061 A 
ATOM     57  H   LIG d   1       9.978  -3.737  -1.467  0.00  0.00     0.062 H 
ATOM     58  C   LIG d   1      10.095  -6.393  -3.568  0.00  0.00    -0.057 A 
ATOM     59  H   LIG d   1      11.127  -5.872  -1.771  0.00  0.00     0.062 H 
ATOM     60  H   LIG d   1      10.617  -7.332  -3.681  0.00  0.00     0.062 H 
ATOM     61  C   LIG d   1       8.588  -6.639  -5.751  0.00  0.00    -0.008 A 
ATOM     62  H   LIG d   1       9.377  -6.772  -6.493  0.00  0.00     0.033 H 
ATOM     63  H   LIG d   1       8.111  -7.593  -5.527  0.00  0.00     0.033 H 
ATOM     64  H   LIG d   1       6.552  -6.074  -6.276  0.00  0.00     0.050 H 
ATOM     65  H   LIG d   1       7.815  -5.256  -7.242  0.00  0.00     0.050 H 
ENDBRANCH  22  45
BRANCH  17  66
ATOM     66  O   LIG d   1       8.790  -1.421  -5.432  0.00  0.00    -0.505 OA
ATOM     67  H   LIG d   1       9.732  -1.514  -5.632  0.00  0.00     0.292 HD
ENDBRANCH  17  66
BRANCH   1  68
ATOM     68  C   LIG d   1      12.958  -0.738  -7.892  0.00  0.00    -0.028 C 
ATOM     69  H   LIG d   1      12.814  -1.527  -8.630  0.00  0.00     0.026 H 
ATOM     70  H   LIG d   1      13.816  -0.128  -8.174  0.00  0.00     0.026 H 
ATOM     71  H   LIG d   1      13.135  -1.184  -6.913  0.00  0.00     0.026 H 
ENDBRANCH   1  68
TORSDOF 3
ENDMDL
MODEL 8
REMARK VINA RESULT:      -7.2      8.181     13.198
REMARK  3 active torsions:
REMARK  status: ('A' for Active; 'I' for Inactive)
REMARK    1  A    between atoms: C_1  and  C_2 
REMARK    2  A    between atoms: C_18  and  O_23 
REMARK    3  A    between atoms: C_24  and  C_30 
ROOT
ATOM      1  C   LIG d   1       9.589   9.877  -6.095  0.00  0.00     0.101 C 
ATOM      2  H   LIG d   1       8.521   9.998  -6.277  0.00  0.00     0.073 H 
ATOM      3  C   LIG d   1       9.869   9.905  -4.588  0.00  0.00    -0.015 C 
ATOM      4  C   LIG d   1       9.283  11.169  -3.963  0.00  0.00    -0.043 C 
ATOM      5  C   LIG d   1       9.842  11.337  -2.547  0.00  0.00     0.006 C 
ATOM      6  C   LIG d   1       9.328  10.227  -1.667  0.00  0.00     0.133 C 
ATOM      7  O   LIG d   1       8.171  10.222  -1.320  0.00  0.00    -0.297 OA
ATOM      8  C   LIG d   1      10.251   9.123  -1.221  0.00  0.00     0.006 C 
ATOM      9  C   LIG d   1       9.427   7.914  -0.773  0.00  0.00    -0.043 C 
ATOM     10  C   LIG d   1      10.322   6.674  -0.715  0.00  0.00    -0.034 C 
ATOM     11  C   LIG d   1      10.123   5.848  -1.962  0.00  0.00    -0.083 C 
ATOM     12  C   LIG d   1      10.362   6.380  -3.150  0.00  0.00    -0.058 C 
ATOM     13  C   LIG d   1      10.167   5.612  -4.394  0.00  0.00    -0.004 A 
ATOM     14  C   LIG d   1       9.985   4.239  -4.385  0.00  0.00    -0.011 A 
ATOM     15  C   LIG d   1       9.795   3.557  -5.580  0.00  0.00     0.140 A 
ATOM     16  C   LIG d   1       9.777   4.244  -6.787  0.00  0.00     0.045 A 
ATOM     17  C   LIG d   1       9.959   5.616  -6.817  0.00  0.00     0.139 A 
ATOM     18  C   LIG d   1      10.167   6.316  -5.623  0.00  0.00     0.108 A 
ATOM     19  C   LIG d   1      10.413   7.754  -5.607  0.00  0.00     0.344 C 
ATOM     20  O   LIG d   1      11.001   8.221  -4.650  0.00  0.00    -0.245 OA
ATOM     21  O   LIG d   1      10.030   8.592  -6.584  0.00  0.00    -0.458 OA
ATOM     22  C   LIG d   1       9.548   3.481  -8.068  0.00  0.00     0.031 C 
ATOM     23  H   LIG d   1       8.481   3.312  -8.207  0.00  0.00     0.041 H 
ATOM     24  C   LIG d   1      10.272   2.137  -7.976  0.00  0.00     0.057 C 
ATOM     25  C   LIG d   1      10.059   1.502  -6.629  0.00  0.00     0.313 C 
ATOM     26  O   LIG d   1      10.283   0.322  -6.494  0.00  0.00    -0.250 OA
ATOM     27  O   LIG d   1       9.627   2.210  -5.578  0.00  0.00    -0.425 OA
ATOM     28  H   LIG d   1       9.419   9.030  -4.121  0.00  0.00     0.030 H 
ATOM     29  H   LIG d   1      10.945   9.887  -4.421  0.00  0.00     0.030 H 
ATOM     30  H   LIG d   1       9.555  12.035  -4.567  0.00  0.00     0.027 H 
ATOM     31  H   LIG d   1       8.197  11.083  -3.918  0.00  0.00     0.027 H 
ATOM     32  H   LIG d   1      10.931  11.300  -2.580  0.00  0.00     0.034 H 
ATOM     33  H   LIG d   1       9.523  12.299  -2.142  0.00  0.00     0.034 H 
ATOM     34  H   LIG d   1      10.898   8.834  -2.048  0.00  0.00     0.034 H 
ATOM     35  H   LIG d   1      10.860   9.475  -0.388  0.00  0.00     0.034 H 
ATOM     36  H   LIG d   1       9.010   8.106   0.216  0.00  0.00     0.027 H 
ATOM     37  H   LIG d   1       8.617   7.744  -1.482  0.00  0.00     0.027 H 
ATOM     38  H   LIG d   1      11.365   6.982  -0.647  0.00  0.00     0.031 H 
ATOM     39  H   LIG d   1      10.061   6.079   0.160  0.00  0.00     0.031 H 
ATOM     40  H   LIG d   1       9.788   4.827  -1.882  0.00  0.00     0.057 H 
ATOM     41  H   LIG d   1      10.727   7.401  -3.215  0.00  0.00     0.062 H 
ATOM     42  H   LIG d   1       9.990   3.699  -3.449  0.00  0.00     0.066 H 
ATOM     43  H   LIG d   1       9.891   1.472  -8.750  0.00  0.00     0.039 H 
ATOM     44  H   LIG d   1      11.340   2.294  -8.133  0.00  0.00     0.039 H 
ENDROOT
BRANCH  22  45
ATOM     45  C   LIG d   1      10.093   4.270  -9.231  0.00  0.00     0.026 A 
ATOM     46  C   LIG d   1       9.197   4.952 -10.083  0.00  0.00     0.256 A 
ATOM     47  N   LIG d   1       9.640   5.675 -11.133  0.00  0.00    -0.307 N 
ATOM     48  O   LIG d   1       8.000   4.890  -9.864  0.00  0.00    -0.267 OA
ATOM     49  C   LIG d   1      10.982   5.733 -11.375  0.00  0.00     0.055 A 
ATOM     50  C   LIG d   1       8.950   6.471 -12.159  0.00  0.00     0.031 A 
ATOM     51  C   LIG d   1      11.927   5.080 -10.578  0.00  0.00    -0.001 A 
ATOM     52  C   LIG d   1      11.343   6.490 -12.468  0.00  0.00    -0.021 A 
ATOM     53  C   LIG d   1      11.436   4.305  -9.438  0.00  0.00    -0.044 A 
ATOM     54  C   LIG d   1      13.280   5.201 -10.909  0.00  0.00    -0.053 A 
ATOM     55  H   LIG d   1      12.117   3.777  -8.785  0.00  0.00     0.063 H 
ATOM     56  C   LIG d   1      13.633   5.953 -11.998  0.00  0.00    -0.061 A 
ATOM     57  H   LIG d   1      14.035   4.709 -10.313  0.00  0.00     0.062 H 
ATOM     58  C   LIG d   1      12.681   6.597 -12.780  0.00  0.00    -0.057 A 
ATOM     59  H   LIG d   1      14.678   6.047 -12.256  0.00  0.00     0.062 H 
ATOM     60  H   LIG d   1      12.989   7.184 -13.632  0.00  0.00     0.062 H 
ATOM     61  C   LIG d   1      10.067   7.030 -13.067  0.00  0.00    -0.008 A 
ATOM     62  H   LIG d   1      10.068   8.120 -13.043  0.00  0.00     0.033 H 
ATOM     63  H   LIG d   1       9.942   6.670 -14.087  0.00  0.00     0.033 H 
ATOM     64  H   LIG d   1       8.274   5.839 -12.735  0.00  0.00     0.050 H 
ATOM     65  H   LIG d   1       8.398   7.288 -11.695  0.00  0.00     0.050 H 
ENDBRANCH  22  45
BRANCH  17  66
ATOM     66  O   LIG d   1       9.938   6.280  -8.000  0.00  0.00    -0.505 OA
ATOM     67  H   LIG d   1      10.111   7.228  -7.921  0.00  0.00     0.292 HD
ENDBRANCH  17  66
BRANCH   1  68
ATOM     68  C   LIG d   1      10.367  10.996  -6.792  0.00  0.00    -0.028 C 
ATOM     69  H   LIG d   1      11.292  10.592  -7.204  0.00  0.00     0.026 H 
ATOM     70  H   LIG d   1       9.762  11.413  -7.596  0.00  0.00     0.026 H 
ATOM     71  H   LIG d   1      10.602  11.778  -6.070  0.00  0.00     0.026 H 
ENDBRANCH   1  68
TORSDOF 3
ENDMDL
MODEL 9
REMARK VINA RESULT:      -7.0      3.619      8.965
REMARK  3 active torsions:
REMARK  status: ('A' for Active; 'I' for Inactive)
REMARK    1  A    between atoms: C_1  and  C_2 
REMARK    2  A    between atoms: C_18  and  O_23 
REMARK    3  A    between atoms: C_24  and  C_30 
ROOT
ATOM      1  C   LIG d   1       8.723   2.791  -8.833  0.00  0.00     0.101 C 
ATOM      2  H   LIG d   1       8.053   3.639  -8.978  0.00  0.00     0.073 H 
ATOM      3  C   LIG d   1       9.908   3.204  -7.953  0.00  0.00    -0.015 C 
ATOM      4  C   LIG d   1      10.599   4.435  -8.537  0.00  0.00    -0.043 C 
ATOM      5  C   LIG d   1      11.947   4.635  -7.840  0.00  0.00     0.006 C 
ATOM      6  C   LIG d   1      11.718   5.001  -6.395  0.00  0.00     0.133 C 
ATOM      7  O   LIG d   1      11.294   6.095  -6.113  0.00  0.00    -0.297 OA
ATOM      8  C   LIG d   1      12.015   4.005  -5.304  0.00  0.00     0.006 C 
ATOM      9  C   LIG d   1      11.273   4.405  -4.027  0.00  0.00    -0.043 C 
ATOM     10  C   LIG d   1      11.228   3.218  -3.064  0.00  0.00    -0.034 C 
ATOM     11  C   LIG d   1       9.883   2.540  -3.160  0.00  0.00    -0.083 C 
ATOM     12  C   LIG d   1       9.473   2.049  -4.318  0.00  0.00    -0.058 C 
ATOM     13  C   LIG d   1       8.161   1.391  -4.458  0.00  0.00    -0.004 A 
ATOM     14  C   LIG d   1       7.409   1.017  -3.356  0.00  0.00    -0.011 A 
ATOM     15  C   LIG d   1       6.173   0.409  -3.534  0.00  0.00     0.140 A 
ATOM     16  C   LIG d   1       5.678   0.181  -4.813  0.00  0.00     0.045 A 
ATOM     17  C   LIG d   1       6.416   0.546  -5.925  0.00  0.00     0.139 A 
ATOM     18  C   LIG d   1       7.670   1.146  -5.764  0.00  0.00     0.108 A 
ATOM     19  C   LIG d   1       8.506   1.503  -6.905  0.00  0.00     0.344 C 
ATOM     20  O   LIG d   1       9.705   1.601  -6.725  0.00  0.00    -0.245 OA
ATOM     21  O   LIG d   1       8.031   1.730  -8.141  0.00  0.00    -0.458 OA
ATOM     22  C   LIG d   1       4.324  -0.462  -4.976  0.00  0.00     0.031 C 
ATOM     23  H   LIG d   1       3.545   0.292  -4.866  0.00  0.00     0.041 H 
ATOM     24  C   LIG d   1       4.156  -1.535  -3.900  0.00  0.00     0.057 C 
ATOM     25  C   LIG d   1       4.638  -1.038  -2.565  0.00  0.00     0.313 C 
ATOM     26  O   LIG d   1       4.293  -1.618  -1.562  0.00  0.00    -0.250 OA
ATOM     27  O   LIG d   1       5.437   0.030  -2.458  0.00  0.00    -0.425 OA
ATOM     28  H   LIG d   1       9.550   3.434  -6.950  0.00  0.00     0.030 H 
ATOM     29  H   LIG d   1      10.621   2.383  -7.899  0.00  0.00     0.030 H 
ATOM     30  H   LIG d   1      10.759   4.290  -9.606  0.00  0.00     0.027 H 
ATOM     31  H   LIG d   1       9.973   5.313  -8.379  0.00  0.00     0.027 H 
ATOM     32  H   LIG d   1      12.524   3.712  -7.894  0.00  0.00     0.034 H 
ATOM     33  H   LIG d   1      12.497   5.437  -8.335  0.00  0.00     0.034 H 
ATOM     34  H   LIG d   1      11.688   3.014  -5.618  0.00  0.00     0.034 H 
ATOM     35  H   LIG d   1      13.088   3.989  -5.111  0.00  0.00     0.034 H 
ATOM     36  H   LIG d   1      11.793   5.238  -3.552  0.00  0.00     0.027 H 
ATOM     37  H   LIG d   1      10.257   4.709  -4.278  0.00  0.00     0.027 H 
ATOM     38  H   LIG d   1      12.012   2.508  -3.327  0.00  0.00     0.031 H 
ATOM     39  H   LIG d   1      11.384   3.571  -2.045  0.00  0.00     0.031 H 
ATOM     40  H   LIG d   1       9.261   2.456  -2.284  0.00  0.00     0.057 H 
ATOM     41  H   LIG d   1      10.124   2.114  -5.186  0.00  0.00     0.062 H 
ATOM     42  H   LIG d   1       7.784   1.199  -2.359  0.00  0.00     0.066 H 
ATOM     43  H   LIG d   1       3.103  -1.803  -3.824  0.00  0.00     0.039 H 
ATOM     44  H   LIG d   1       4.729  -2.418  -4.181  0.00  0.00     0.039 H 
ENDROOT
BRANCH  22  45
ATOM     45  C   LIG d   1       4.227  -1.095  -6.340  0.00  0.00     0.026 A 
ATOM     46  C   LIG d   1       3.454  -0.465  -7.341  0.00  0.00     0.256 A 
ATOM     47  N   LIG d   1       3.343  -0.994  -8.578  0.00  0.00    -0.307 N 
ATOM     48  O   LIG d   1       2.879   0.577  -7.083  0.00  0.00    -0.267 OA
ATOM     49  C   LIG d   1       3.985  -2.165  -8.855  0.00  0.00     0.055 A 
ATOM     50  C   LIG d   1       2.626  -0.561  -9.787  0.00  0.00     0.031 A 
ATOM     51  C   LIG d   1       4.762  -2.847  -7.914  0.00  0.00    -0.001 A 
ATOM     52  C   LIG d   1       3.814  -2.632 -10.140  0.00  0.00    -0.021 A 
ATOM     53  C   LIG d   1       4.882  -2.263  -6.578  0.00  0.00    -0.044 A 
ATOM     54  C   LIG d   1       5.381  -4.042  -8.296  0.00  0.00    -0.053 A 
ATOM     55  H   LIG d   1       5.468  -2.742  -5.808  0.00  0.00     0.063 H 
ATOM     56  C   LIG d   1       5.204  -4.502  -9.574  0.00  0.00    -0.061 A 
ATOM     57  H   LIG d   1       5.988  -4.593  -7.593  0.00  0.00     0.062 H 
ATOM     58  C   LIG d   1       4.429  -3.811 -10.499  0.00  0.00    -0.057 A 
ATOM     59  H   LIG d   1       5.680  -5.426  -9.871  0.00  0.00     0.062 H 
ATOM     60  H   LIG d   1       4.309  -4.198 -11.500  0.00  0.00     0.062 H 
ATOM     61  C   LIG d   1       2.924  -1.640 -10.850  0.00  0.00    -0.008 A 
ATOM     62  H   LIG d   1       3.447  -1.203 -11.702  0.00  0.00     0.033 H 
ATOM     63  H   LIG d   1       2.001  -2.119 -11.174  0.00  0.00     0.033 H 
ATOM     64  H   LIG d   1       1.556  -0.508  -9.592  0.00  0.00     0.050 H 
ATOM     65  H   LIG d   1       2.998   0.408 -10.120  0.00  0.00     0.050 H 
ENDBRANCH  22  45
BRANCH  17  66
ATOM     66  O   LIG d   1       5.925   0.322  -7.170  0.00  0.00    -0.505 OA
ATOM     67  H   LIG d   1       5.043   0.691  -7.317  0.00  0.00     0.292 HD
ENDBRANCH  17  66
BRANCH   1  68
ATOM     68  C   LIG d   1       9.228   2.289 -10.187  0.00  0.00    -0.028 C 
ATOM     69  H   LIG d   1      10.266   1.968 -10.091  0.00  0.00     0.026 H 
ATOM     70  H   LIG d   1       8.617   1.448 -10.515  0.00  0.00     0.026 H 
ATOM     71  H   LIG d   1       9.164   3.093 -10.920  0.00  0.00     0.026 H 
ENDBRANCH   1  68
TORSDOF 3
ENDMDL
MODEL 10
REMARK VINA RESULT:      -6.8      7.904     13.564
REMARK  3 active torsions:
REMARK  status: ('A' for Active; 'I' for Inactive)
REMARK    1  A    between atoms: C_1  and  C_2 
REMARK    2  A    between atoms: C_18  and  O_23 
REMARK    3  A    between atoms: C_24  and  C_30 
ROOT
ATOM      1  C   LIG d   1      10.888   5.601  -3.162  0.00  0.00     0.101 C 
ATOM      2  H   LIG d   1      11.976   5.560  -3.122  0.00  0.00     0.073 H 
ATOM      3  C   LIG d   1      10.392   6.921  -2.560  0.00  0.00    -0.015 C 
ATOM      4  C   LIG d   1      10.959   7.110  -1.154  0.00  0.00    -0.043 C 
ATOM      5  C   LIG d   1      10.210   8.250  -0.457  0.00  0.00     0.006 C 
ATOM      6  C   LIG d   1      10.518   9.553  -1.149  0.00  0.00     0.133 C 
ATOM      7  O   LIG d   1      11.609  10.056  -1.024  0.00  0.00    -0.297 OA
ATOM      8  C   LIG d   1       9.472  10.228  -1.997  0.00  0.00     0.006 C 
ATOM      9  C   LIG d   1      10.142  11.223  -2.946  0.00  0.00    -0.043 C 
ATOM     10  C   LIG d   1       9.173  11.600  -4.068  0.00  0.00    -0.034 C 
ATOM     11  C   LIG d   1       9.499  10.804  -5.307  0.00  0.00    -0.083 C 
ATOM     12  C   LIG d   1       9.472   9.482  -5.269  0.00  0.00    -0.058 C 
ATOM     13  C   LIG d   1       9.798   8.666  -6.453  0.00  0.00    -0.004 A 
ATOM     14  C   LIG d   1       9.890   9.221  -7.719  0.00  0.00    -0.011 A 
ATOM     15  C   LIG d   1      10.209   8.417  -8.807  0.00  0.00     0.140 A 
ATOM     16  C   LIG d   1      10.448   7.060  -8.632  0.00  0.00     0.045 A 
ATOM     17  C   LIG d   1      10.359   6.488  -7.375  0.00  0.00     0.139 A 
ATOM     18  C   LIG d   1      10.023   7.280  -6.271  0.00  0.00     0.108 A 
ATOM     19  C   LIG d   1       9.869   6.715  -4.935  0.00  0.00     0.344 C 
ATOM     20  O   LIG d   1       9.177   7.318  -4.137  0.00  0.00    -0.245 OA
ATOM     21  O   LIG d   1      10.443   5.569  -4.535  0.00  0.00    -0.458 OA
ATOM     22  C   LIG d   1      10.814   6.215  -9.827  0.00  0.00     0.031 C 
ATOM     23  H   LIG d   1      11.877   6.322 -10.039  0.00  0.00     0.041 H 
ATOM     24  C   LIG d   1      10.001   6.689 -11.032  0.00  0.00     0.057 C 
ATOM     25  C   LIG d   1       9.973   8.191 -11.105  0.00  0.00     0.313 C 
ATOM     26  O   LIG d   1       9.658   8.723 -12.144  0.00  0.00    -0.250 OA
ATOM     27  O   LIG d   1      10.290   8.953 -10.051  0.00  0.00    -0.425 OA
ATOM     28  H   LIG d   1      10.712   7.749  -3.192  0.00  0.00     0.030 H 
ATOM     29  H   LIG d   1       9.304   6.909  -2.511  0.00  0.00     0.030 H 
ATOM     30  H   LIG d   1      10.833   6.189  -0.585  0.00  0.00     0.027 H 
ATOM     31  H   LIG d   1      12.018   7.357  -1.219  0.00  0.00     0.027 H 
ATOM     32  H   LIG d   1       9.137   8.060  -0.501  0.00  0.00     0.034 H 
ATOM     33  H   LIG d   1      10.526   8.308   0.585  0.00  0.00     0.034 H 
ATOM     34  H   LIG d   1       8.936   9.478  -2.578  0.00  0.00     0.034 H 
ATOM     35  H   LIG d   1       8.770  10.758  -1.352  0.00  0.00     0.034 H 
ATOM     36  H   LIG d   1      10.422  12.120  -2.392  0.00  0.00     0.027 H 
ATOM     37  H   LIG d   1      11.036  10.770  -3.375  0.00  0.00     0.027 H 
ATOM     38  H   LIG d   1       8.152  11.380  -3.754  0.00  0.00     0.031 H 
ATOM     39  H   LIG d   1       9.264  12.664  -4.285  0.00  0.00     0.031 H 
ATOM     40  H   LIG d   1       9.754  11.315  -6.221  0.00  0.00     0.057 H 
ATOM     41  H   LIG d   1       9.185   8.980  -4.348  0.00  0.00     0.062 H 
ATOM     42  H   LIG d   1       9.713  10.277  -7.861  0.00  0.00     0.066 H 
ATOM     43  H   LIG d   1      10.448   6.294 -11.943  0.00  0.00     0.039 H 
ATOM     44  H   LIG d   1       8.980   6.316 -10.944  0.00  0.00     0.039 H 
ENDROOT
BRANCH  22  45
ATOM     45  C   LIG d   1      10.496   4.770  -9.540  0.00  0.00     0.026 A 
ATOM     46  C   LIG d   1      11.555   3.850  -9.374  0.00  0.00     0.256 A 
ATOM     47  N   LIG d   1      11.318   2.547  -9.111  0.00  0.00    -0.307 N 
ATOM     48  O   LIG d   1      12.705   4.241  -9.466  0.00  0.00    -0.267 OA
ATOM     49  C   LIG d   1      10.026   2.118  -9.016  0.00  0.00     0.055 A 
ATOM     50  C   LIG d   1      12.206   1.396  -8.892  0.00  0.00     0.031 A 
ATOM     51  C   LIG d   1       8.928   2.969  -9.174  0.00  0.00    -0.001 A 
ATOM     52  C   LIG d   1       9.878   0.775  -8.749  0.00  0.00    -0.021 A 
ATOM     53  C   LIG d   1       9.197   4.381  -9.452  0.00  0.00    -0.044 A 
ATOM     54  C   LIG d   1       7.643   2.432  -9.058  0.00  0.00    -0.053 A 
ATOM     55  H   LIG d   1       8.391   5.088  -9.584  0.00  0.00     0.063 H 
ATOM     56  C   LIG d   1       7.502   1.096  -8.795  0.00  0.00    -0.061 A 
ATOM     57  H   LIG d   1       6.774   3.063  -9.174  0.00  0.00     0.062 H 
ATOM     58  C   LIG d   1       8.605   0.262  -8.639  0.00  0.00    -0.057 A 
ATOM     59  H   LIG d   1       6.510   0.678  -8.706  0.00  0.00     0.062 H 
ATOM     60  H   LIG d   1       8.463  -0.788  -8.431  0.00  0.00     0.062 H 
ATOM     61  C   LIG d   1      11.268   0.194  -8.646  0.00  0.00    -0.008 A 
ATOM     62  H   LIG d   1      11.434  -0.222  -7.652  0.00  0.00     0.033 H 
ATOM     63  H   LIG d   1      11.421  -0.568  -9.409  0.00  0.00     0.033 H 
ATOM     64  H   LIG d   1      12.822   1.222  -9.774  0.00  0.00     0.050 H 
ATOM     65  H   LIG d   1      12.837   1.566  -8.019  0.00  0.00     0.050 H 
ENDBRANCH  22  45
BRANCH  17  66
ATOM     66  O   LIG d   1      10.596   5.162  -7.213  0.00  0.00    -0.505 OA
ATOM     67  H   LIG d   1       9.795   4.622  -7.166  0.00  0.00     0.292 HD
ENDBRANCH  17  66
BRANCH   1  68
ATOM     68  C   LIG d   1      10.292   4.420  -2.392  0.00  0.00    -0.028 C 
ATOM     69  H   LIG d   1      11.083   3.711  -2.148  0.00  0.00     0.026 H 
ATOM     70  H   LIG d   1       9.831   4.781  -1.473  0.00  0.00     0.026 H 
ATOM     71  H   LIG d   1       9.540   3.928  -3.008  0.00  0.00     0.026 H 
ENDBRANCH   1  68
TORSDOF 3
ENDMDL
