MODEL 1
REMARK VINA RESULT:      -5.8      0.000      0.000
REMARK  12 active torsions:
REMARK  status: ('A' for Active; 'I' for Inactive)
REMARK    1  A    between atoms: C_1  and  C_2 
REMARK    2  A    between atoms: C_5  and  C_8 
REMARK    3  A    between atoms: C_8  and  C_10 
REMARK    4  A    between atoms: C_8  and  C_18 
REMARK    5  A    between atoms: C_10  and  C_11 
REMARK    6  A    between atoms: C_11  and  N_55 
REMARK    7  A    between atoms: C_12  and  C_13 
REMARK    8  A    between atoms: C_12  and  N_55 
REMARK    9  A    between atoms: C_21  and  O_24 
REMARK   10  A    between atoms: O_24  and  C_25 
REMARK   11  A    between atoms: C_25  and  C_26 
REMARK   12  A    between atoms: C_25  and  C_27 
ROOT
ATOM      1  C   LIG d   1       6.243  -0.496  -5.128  0.00  0.00     0.014 C 
ATOM      2  H   LIG d   1       5.531  -0.416  -4.307  0.00  0.00     0.040 H 
ENDROOT
BRANCH   1   3
ATOM      3  C   LIG d   1       6.990  -1.800  -5.019  0.00  0.00    -0.040 A 
ATOM      4  C   LIG d   1       7.464  -2.225  -3.792  0.00  0.00    -0.058 A 
ATOM      5  C   LIG d   1       8.150  -3.421  -3.691  0.00  0.00    -0.059 A 
ATOM      6  H   LIG d   1       7.299  -1.622  -2.910  0.00  0.00     0.062 H 
ATOM      7  C   LIG d   1       8.361  -4.193  -4.819  0.00  0.00    -0.050 A 
ATOM      8  H   LIG d   1       8.520  -3.753  -2.732  0.00  0.00     0.062 H 
ATOM      9  C   LIG d   1       7.887  -3.769  -6.045  0.00  0.00    -0.059 A 
ATOM     10  C   LIG d   1       7.197  -2.575  -6.145  0.00  0.00    -0.058 A 
ATOM     11  H   LIG d   1       8.051  -4.372  -6.926  0.00  0.00     0.062 H 
ATOM     12  H   LIG d   1       6.823  -2.246  -7.103  0.00  0.00     0.062 H 
BRANCH   7  13
ATOM     13  C   LIG d   1       9.108  -5.497  -4.710  0.00  0.00    -0.040 C 
ATOM     14  H   LIG d   1       8.809  -6.012  -3.797  0.00  0.00     0.028 H 
ATOM     15  H   LIG d   1       8.877  -6.121  -5.573  0.00  0.00     0.028 H 
ATOM     16  H   LIG d   1      10.180  -5.301  -4.680  0.00  0.00     0.028 H 
ENDBRANCH   7  13
ENDBRANCH   1   3
BRANCH   1  17
ATOM     17  C   LIG d   1       5.492  -0.449  -6.461  0.00  0.00    -0.002 C 
ATOM     18  H   LIG d   1       5.628   0.531  -6.919  0.00  0.00     0.033 H 
ATOM     19  H   LIG d   1       5.884  -1.218  -7.126  0.00  0.00     0.033 H 
BRANCH  17  20
ATOM     20  C   LIG d   1       4.003  -0.695  -6.217  0.00  0.00    -0.032 C 
ATOM     21  H   LIG d   1       3.552  -1.118  -7.115  0.00  0.00     0.081 H 
ATOM     22  H   LIG d   1       3.880  -1.391  -5.386  0.00  0.00     0.081 H 
BRANCH  20  23
ATOM     23  N   LIG d   1       3.348   0.585  -5.890  0.00  0.00     0.233 N 
ATOM     24  H   LIG d   1       2.794   0.898  -6.697  0.00  0.00     0.202 HD
ATOM     25  H   LIG d   1       4.065   1.288  -5.674  0.00  0.00     0.202 HD
BRANCH  23  26
ATOM     26  C   LIG d   1       2.460   0.424  -4.723  0.00  0.00     0.026 C 
ATOM     27  H   LIG d   1       1.785   1.279  -4.656  0.00  0.00     0.090 H 
ATOM     28  H   LIG d   1       1.878  -0.491  -4.830  0.00  0.00     0.090 H 
BRANCH  26  29
ATOM     29  C   LIG d   1       3.297   0.345  -3.473  0.00  0.00     0.149 A 
ATOM     30  O   LIG d   1       3.633  -0.780  -2.822  0.00  0.00    -0.463 OA
ATOM     31  C   LIG d   1       4.387  -0.472  -1.754  0.00  0.00     0.092 A 
ATOM     32  C   LIG d   1       4.531   0.865  -1.708  0.00  0.00    -0.024 A 
ATOM     33  H   LIG d   1       4.802  -1.177  -1.050  0.00  0.00     0.103 H 
ATOM     34  C   LIG d   1       3.829   1.392  -2.816  0.00  0.00    -0.015 A 
ATOM     35  H   LIG d   1       5.079   1.427  -0.966  0.00  0.00     0.065 H 
ATOM     36  H   LIG d   1       3.738   2.435  -3.083  0.00  0.00     0.065 H 
ENDBRANCH  26  29
ENDBRANCH  23  26
ENDBRANCH  20  23
ENDBRANCH  17  20
ENDBRANCH   1  17
BRANCH   1  37
ATOM     37  C   LIG d   1       7.220   0.649  -5.060  0.00  0.00    -0.040 A 
ATOM     38  C   LIG d   1       7.496   1.249  -3.846  0.00  0.00    -0.054 A 
ATOM     39  C   LIG d   1       8.391   2.299  -3.781  0.00  0.00    -0.020 A 
ATOM     40  H   LIG d   1       7.012   0.897  -2.946  0.00  0.00     0.062 H 
ATOM     41  C   LIG d   1       9.013   2.751  -4.935  0.00  0.00     0.121 A 
ATOM     42  H   LIG d   1       8.607   2.767  -2.831  0.00  0.00     0.065 H 
ATOM     43  C   LIG d   1       8.734   2.149  -6.153  0.00  0.00    -0.020 A 
ATOM     44  C   LIG d   1       7.842   1.095  -6.212  0.00  0.00    -0.054 A 
ATOM     45  H   LIG d   1       9.216   2.499  -7.053  0.00  0.00     0.065 H 
ATOM     46  H   LIG d   1       7.628   0.621  -7.158  0.00  0.00     0.062 H 
BRANCH  41  47
ATOM     47  O   LIG d   1       9.894   3.784  -4.874  0.00  0.00    -0.489 OA
BRANCH  47  48
ATOM     48  C   LIG d   1       9.347   5.100  -4.768  0.00  0.00     0.095 C 
ATOM     49  H   LIG d   1       8.258   5.041  -4.767  0.00  0.00     0.073 H 
BRANCH  48  50
ATOM     50  C   LIG d   1       9.823   5.748  -3.467  0.00  0.00    -0.028 C 
ATOM     51  H   LIG d   1      10.708   5.225  -3.103  0.00  0.00     0.026 H 
ATOM     52  H   LIG d   1      10.070   6.794  -3.652  0.00  0.00     0.026 H 
ATOM     53  H   LIG d   1       9.033   5.688  -2.720  0.00  0.00     0.026 H 
ENDBRANCH  48  50
BRANCH  48  54
ATOM     54  C   LIG d   1       9.811   5.942  -5.958  0.00  0.00    -0.028 C 
ATOM     55  H   LIG d   1      10.668   6.548  -5.663  0.00  0.00     0.026 H 
ATOM     56  H   LIG d   1      10.097   5.285  -6.779  0.00  0.00     0.026 H 
ATOM     57  H   LIG d   1       8.999   6.595  -6.280  0.00  0.00     0.026 H 
ENDBRANCH  48  54
ENDBRANCH  47  48
ENDBRANCH  41  47
ENDBRANCH   1  37
TORSDOF 12
ENDMDL
MODEL 2
REMARK VINA RESULT:      -5.5      3.363      6.914
REMARK  12 active torsions:
REMARK  status: ('A' for Active; 'I' for Inactive)
REMARK    1  A    between atoms: C_1  and  C_2 
REMARK    2  A    between atoms: C_5  and  C_8 
REMARK    3  A    between atoms: C_8  and  C_10 
REMARK    4  A    between atoms: C_8  and  C_18 
REMARK    5  A    between atoms: C_10  and  C_11 
REMARK    6  A    between atoms: C_11  and  N_55 
REMARK    7  A    between atoms: C_12  and  C_13 
REMARK    8  A    between atoms: C_12  and  N_55 
REMARK    9  A    between atoms: C_21  and  O_24 
REMARK   10  A    between atoms: O_24  and  C_25 
REMARK   11  A    between atoms: C_25  and  C_26 
REMARK   12  A    between atoms: C_25  and  C_27 
ROOT
ATOM      1  C   LIG d   1       4.115   0.972  -9.172  0.00  0.00     0.014 C 
ATOM      2  H   LIG d   1       3.858   2.028  -9.251  0.00  0.00     0.040 H 
ENDROOT
BRANCH   1   3
ATOM      3  C   LIG d   1       3.261   0.175 -10.123  0.00  0.00    -0.040 A 
ATOM      4  C   LIG d   1       1.983  -0.203  -9.753  0.00  0.00    -0.058 A 
ATOM      5  C   LIG d   1       1.198  -0.935 -10.625  0.00  0.00    -0.059 A 
ATOM      6  H   LIG d   1       1.597   0.074  -8.783  0.00  0.00     0.062 H 
ATOM      7  C   LIG d   1       1.693  -1.289 -11.867  0.00  0.00    -0.050 A 
ATOM      8  H   LIG d   1       0.200  -1.229 -10.337  0.00  0.00     0.062 H 
ATOM      9  C   LIG d   1       2.969  -0.912 -12.237  0.00  0.00    -0.059 A 
ATOM     10  C   LIG d   1       3.752  -0.175 -11.367  0.00  0.00    -0.058 A 
ATOM     11  H   LIG d   1       3.355  -1.188 -13.206  0.00  0.00     0.062 H 
ATOM     12  H   LIG d   1       4.748   0.123 -11.657  0.00  0.00     0.062 H 
BRANCH   7  13
ATOM     13  C   LIG d   1       0.838  -2.087 -12.818  0.00  0.00    -0.040 C 
ATOM     14  H   LIG d   1       0.717  -3.100 -12.436  0.00  0.00     0.028 H 
ATOM     15  H   LIG d   1      -0.139  -1.614 -12.912  0.00  0.00     0.028 H 
ATOM     16  H   LIG d   1       1.319  -2.123 -13.796  0.00  0.00     0.028 H 
ENDBRANCH   7  13
ENDBRANCH   1   3
BRANCH   1  17
ATOM     17  C   LIG d   1       5.591   0.778  -9.527  0.00  0.00    -0.002 C 
ATOM     18  H   LIG d   1       5.918  -0.206  -9.193  0.00  0.00     0.033 H 
ATOM     19  H   LIG d   1       5.717   0.855 -10.607  0.00  0.00     0.033 H 
BRANCH  17  20
ATOM     20  C   LIG d   1       6.428   1.856  -8.837  0.00  0.00    -0.032 C 
ATOM     21  H   LIG d   1       6.590   2.686  -9.525  0.00  0.00     0.081 H 
ATOM     22  H   LIG d   1       5.902   2.215  -7.952  0.00  0.00     0.081 H 
BRANCH  20  23
ATOM     23  N   LIG d   1       7.727   1.280  -8.441  0.00  0.00     0.233 N 
ATOM     24  H   LIG d   1       8.351   1.259  -9.256  0.00  0.00     0.202 HD
ATOM     25  H   LIG d   1       7.582   0.323  -8.096  0.00  0.00     0.202 HD
BRANCH  23  26
ATOM     26  C   LIG d   1       8.345   2.092  -7.375  0.00  0.00     0.026 C 
ATOM     27  H   LIG d   1       9.428   2.095  -7.500  0.00  0.00     0.090 H 
ATOM     28  H   LIG d   1       7.969   3.113  -7.430  0.00  0.00     0.090 H 
BRANCH  26  29
ATOM     29  C   LIG d   1       7.994   1.498  -6.036  0.00  0.00     0.149 A 
ATOM     30  O   LIG d   1       7.684   2.189  -4.927  0.00  0.00    -0.463 OA
ATOM     31  C   LIG d   1       7.424   1.334  -3.925  0.00  0.00     0.092 A 
ATOM     32  C   LIG d   1       7.578   0.079  -4.385  0.00  0.00    -0.024 A 
ATOM     33  H   LIG d   1       7.145   1.607  -2.918  0.00  0.00     0.103 H 
ATOM     34  C   LIG d   1       7.945   0.185  -5.747  0.00  0.00    -0.015 A 
ATOM     35  H   LIG d   1       7.446  -0.833  -3.823  0.00  0.00     0.065 H 
ATOM     36  H   LIG d   1       8.147  -0.632  -6.424  0.00  0.00     0.065 H 
ENDBRANCH  26  29
ENDBRANCH  23  26
ENDBRANCH  20  23
ENDBRANCH  17  20
ENDBRANCH   1  17
BRANCH   1  37
ATOM     37  C   LIG d   1       3.871   0.500  -7.762  0.00  0.00    -0.040 A 
ATOM     38  C   LIG d   1       2.912   1.120  -6.982  0.00  0.00    -0.054 A 
ATOM     39  C   LIG d   1       2.687   0.689  -5.690  0.00  0.00    -0.020 A 
ATOM     40  H   LIG d   1       2.338   1.942  -7.385  0.00  0.00     0.062 H 
ATOM     41  C   LIG d   1       3.425  -0.367  -5.173  0.00  0.00     0.121 A 
ATOM     42  H   LIG d   1       1.937   1.173  -5.081  0.00  0.00     0.065 H 
ATOM     43  C   LIG d   1       4.387  -0.986  -5.955  0.00  0.00    -0.020 A 
ATOM     44  C   LIG d   1       4.605  -0.556  -7.251  0.00  0.00    -0.054 A 
ATOM     45  H   LIG d   1       4.963  -1.807  -5.556  0.00  0.00     0.065 H 
ATOM     46  H   LIG d   1       5.350  -1.041  -7.863  0.00  0.00     0.062 H 
BRANCH  41  47
ATOM     47  O   LIG d   1       3.204  -0.793  -3.902  0.00  0.00    -0.489 OA
BRANCH  47  48
ATOM     48  C   LIG d   1       4.217  -0.503  -2.935  0.00  0.00     0.095 C 
ATOM     49  H   LIG d   1       5.174  -0.375  -3.441  0.00  0.00     0.073 H 
BRANCH  48  50
ATOM     50  C   LIG d   1       3.858   0.782  -2.189  0.00  0.00    -0.028 C 
ATOM     51  H   LIG d   1       3.315   1.451  -2.857  0.00  0.00     0.026 H 
ATOM     52  H   LIG d   1       3.231   0.540  -1.330  0.00  0.00     0.026 H 
ATOM     53  H   LIG d   1       4.769   1.271  -1.847  0.00  0.00     0.026 H 
ENDBRANCH  48  50
BRANCH  48  54
ATOM     54  C   LIG d   1       4.317  -1.661  -1.940  0.00  0.00    -0.028 C 
ATOM     55  H   LIG d   1       3.490  -2.352  -2.101  0.00  0.00     0.026 H 
ATOM     56  H   LIG d   1       5.262  -2.185  -2.086  0.00  0.00     0.026 H 
ATOM     57  H   LIG d   1       4.271  -1.271  -0.923  0.00  0.00     0.026 H 
ENDBRANCH  48  54
ENDBRANCH  47  48
ENDBRANCH  41  47
ENDBRANCH   1  37
TORSDOF 12
ENDMDL
MODEL 3
REMARK VINA RESULT:      -5.5      3.181      7.534
REMARK  12 active torsions:
REMARK  status: ('A' for Active; 'I' for Inactive)
REMARK    1  A    between atoms: C_1  and  C_2 
REMARK    2  A    between atoms: C_5  and  C_8 
REMARK    3  A    between atoms: C_8  and  C_10 
REMARK    4  A    between atoms: C_8  and  C_18 
REMARK    5  A    between atoms: C_10  and  C_11 
REMARK    6  A    between atoms: C_11  and  N_55 
REMARK    7  A    between atoms: C_12  and  C_13 
REMARK    8  A    between atoms: C_12  and  N_55 
REMARK    9  A    between atoms: C_21  and  O_24 
REMARK   10  A    between atoms: O_24  and  C_25 
REMARK   11  A    between atoms: C_25  and  C_26 
REMARK   12  A    between atoms: C_25  and  C_27 
ROOT
ATOM      1  C   LIG d   1       5.411  -1.758  -5.995  0.00  0.00     0.014 C 
ATOM      2  H   LIG d   1       5.085  -1.364  -5.033  0.00  0.00     0.040 H 
ENDROOT
BRANCH   1   3
ATOM      3  C   LIG d   1       4.375  -1.447  -7.043  0.00  0.00    -0.040 A 
ATOM      4  C   LIG d   1       3.511  -0.381  -6.867  0.00  0.00    -0.058 A 
ATOM      5  C   LIG d   1       2.560  -0.095  -7.828  0.00  0.00    -0.059 A 
ATOM      6  H   LIG d   1       3.580   0.228  -5.977  0.00  0.00     0.062 H 
ATOM      7  C   LIG d   1       2.473  -0.875  -8.967  0.00  0.00    -0.050 A 
ATOM      8  H   LIG d   1       1.886   0.737  -7.691  0.00  0.00     0.062 H 
ATOM      9  C   LIG d   1       3.335  -1.939  -9.144  0.00  0.00    -0.059 A 
ATOM     10  C   LIG d   1       4.290  -2.223  -8.185  0.00  0.00    -0.058 A 
ATOM     11  H   LIG d   1       3.268  -2.548 -10.033  0.00  0.00     0.062 H 
ATOM     12  H   LIG d   1       4.967  -3.051  -8.325  0.00  0.00     0.062 H 
BRANCH   7  13
ATOM     13  C   LIG d   1       1.436  -0.564 -10.015  0.00  0.00    -0.040 C 
ATOM     14  H   LIG d   1       0.577  -1.221  -9.883  0.00  0.00     0.028 H 
ATOM     15  H   LIG d   1       1.119   0.474  -9.915  0.00  0.00     0.028 H 
ATOM     16  H   LIG d   1       1.863  -0.719 -11.007  0.00  0.00     0.028 H 
ENDBRANCH   7  13
ENDBRANCH   1   3
BRANCH   1  17
ATOM     17  C   LIG d   1       6.742  -1.111  -6.386  0.00  0.00    -0.002 C 
ATOM     18  H   LIG d   1       7.430  -1.880  -6.737  0.00  0.00     0.033 H 
ATOM     19  H   LIG d   1       6.573  -0.385  -7.180  0.00  0.00     0.033 H 
BRANCH  17  20
ATOM     20  C   LIG d   1       7.343  -0.405  -5.169  0.00  0.00    -0.032 C 
ATOM     21  H   LIG d   1       7.451  -1.119  -4.352  0.00  0.00     0.081 H 
ATOM     22  H   LIG d   1       8.321   0.000  -5.429  0.00  0.00     0.081 H 
BRANCH  20  23
ATOM     23  N   LIG d   1       6.446   0.690  -4.754  0.00  0.00     0.233 N 
ATOM     24  H   LIG d   1       5.555   0.608  -5.257  0.00  0.00     0.202 HD
ATOM     25  H   LIG d   1       6.885   1.591  -4.980  0.00  0.00     0.202 HD
BRANCH  23  26
ATOM     26  C   LIG d   1       6.194   0.624  -3.301  0.00  0.00     0.026 C 
ATOM     27  H   LIG d   1       7.069   0.212  -2.797  0.00  0.00     0.090 H 
ATOM     28  H   LIG d   1       5.991   1.624  -2.919  0.00  0.00     0.090 H 
BRANCH  26  29
ATOM     29  C   LIG d   1       5.003  -0.264  -3.047  0.00  0.00     0.149 A 
ATOM     30  O   LIG d   1       3.730   0.020  -3.365  0.00  0.00    -0.463 OA
ATOM     31  C   LIG d   1       2.938  -0.999  -2.995  0.00  0.00     0.092 A 
ATOM     32  C   LIG d   1       3.704  -1.946  -2.422  0.00  0.00    -0.024 A 
ATOM     33  H   LIG d   1       1.867  -1.048  -3.128  0.00  0.00     0.103 H 
ATOM     34  C   LIG d   1       5.035  -1.472  -2.457  0.00  0.00    -0.015 A 
ATOM     35  H   LIG d   1       3.365  -2.887  -2.016  0.00  0.00     0.065 H 
ATOM     36  H   LIG d   1       5.910  -1.983  -2.081  0.00  0.00     0.065 H 
ENDBRANCH  26  29
ENDBRANCH  23  26
ENDBRANCH  20  23
ENDBRANCH  17  20
ENDBRANCH   1  17
BRANCH   1  37
ATOM     37  C   LIG d   1       5.589  -3.251  -5.893  0.00  0.00    -0.040 A 
ATOM     38  C   LIG d   1       4.550  -4.040  -5.436  0.00  0.00    -0.054 A 
ATOM     39  C   LIG d   1       4.710  -5.408  -5.342  0.00  0.00    -0.020 A 
ATOM     40  H   LIG d   1       3.611  -3.586  -5.153  0.00  0.00     0.062 H 
ATOM     41  C   LIG d   1       5.916  -5.991  -5.705  0.00  0.00     0.121 A 
ATOM     42  H   LIG d   1       3.897  -6.025  -4.985  0.00  0.00     0.065 H 
ATOM     43  C   LIG d   1       6.957  -5.198  -6.162  0.00  0.00    -0.020 A 
ATOM     44  C   LIG d   1       6.790  -3.829  -6.261  0.00  0.00    -0.054 A 
ATOM     45  H   LIG d   1       7.897  -5.649  -6.445  0.00  0.00     0.065 H 
ATOM     46  H   LIG d   1       7.599  -3.212  -6.622  0.00  0.00     0.062 H 
BRANCH  41  47
ATOM     47  O   LIG d   1       6.075  -7.338  -5.614  0.00  0.00    -0.489 OA
BRANCH  47  48
ATOM     48  C   LIG d   1       4.888  -8.133  -5.602  0.00  0.00     0.095 C 
ATOM     49  H   LIG d   1       4.034  -7.506  -5.344  0.00  0.00     0.073 H 
BRANCH  48  50
ATOM     50  C   LIG d   1       4.670  -8.745  -6.987  0.00  0.00    -0.028 C 
ATOM     51  H   LIG d   1       3.702  -9.245  -7.015  0.00  0.00     0.026 H 
ATOM     52  H   LIG d   1       4.695  -7.958  -7.740  0.00  0.00     0.026 H 
ATOM     53  H   LIG d   1       5.459  -9.469  -7.192  0.00  0.00     0.026 H 
ENDBRANCH  48  50
BRANCH  48  54
ATOM     54  C   LIG d   1       5.033  -9.250  -4.567  0.00  0.00    -0.028 C 
ATOM     55  H   LIG d   1       5.455  -8.843  -3.648  0.00  0.00     0.026 H 
ATOM     56  H   LIG d   1       4.053  -9.679  -4.357  0.00  0.00     0.026 H 
ATOM     57  H   LIG d   1       5.693 -10.025  -4.958  0.00  0.00     0.026 H 
ENDBRANCH  48  54
ENDBRANCH  47  48
ENDBRANCH  41  47
ENDBRANCH   1  37
TORSDOF 12
ENDMDL
MODEL 4
REMARK VINA RESULT:      -5.5      3.436      7.443
REMARK  12 active torsions:
REMARK  status: ('A' for Active; 'I' for Inactive)
REMARK    1  A    between atoms: C_1  and  C_2 
REMARK    2  A    between atoms: C_5  and  C_8 
REMARK    3  A    between atoms: C_8  and  C_10 
REMARK    4  A    between atoms: C_8  and  C_18 
REMARK    5  A    between atoms: C_10  and  C_11 
REMARK    6  A    between atoms: C_11  and  N_55 
REMARK    7  A    between atoms: C_12  and  C_13 
REMARK    8  A    between atoms: C_12  and  N_55 
REMARK    9  A    between atoms: C_21  and  O_24 
REMARK   10  A    between atoms: O_24  and  C_25 
REMARK   11  A    between atoms: C_25  and  C_26 
REMARK   12  A    between atoms: C_25  and  C_27 
ROOT
ATOM      1  C   LIG d   1       8.480  -3.014  -4.518  0.00  0.00     0.014 C 
ATOM      2  H   LIG d   1       9.183  -2.208  -4.310  0.00  0.00     0.040 H 
ENDROOT
BRANCH   1   3
ATOM      3  C   LIG d   1       7.097  -2.596  -4.089  0.00  0.00    -0.040 A 
ATOM      4  C   LIG d   1       6.925  -1.462  -3.316  0.00  0.00    -0.058 A 
ATOM      5  C   LIG d   1       5.657  -1.079  -2.922  0.00  0.00    -0.059 A 
ATOM      6  H   LIG d   1       7.783  -0.876  -3.019  0.00  0.00     0.062 H 
ATOM      7  C   LIG d   1       4.560  -1.829  -3.302  0.00  0.00    -0.050 A 
ATOM      8  H   LIG d   1       5.523  -0.193  -2.319  0.00  0.00     0.062 H 
ATOM      9  C   LIG d   1       4.730  -2.962  -4.075  0.00  0.00    -0.059 A 
ATOM     10  C   LIG d   1       5.998  -3.342  -4.473  0.00  0.00    -0.058 A 
ATOM     11  H   LIG d   1       3.873  -3.547  -4.373  0.00  0.00     0.062 H 
ATOM     12  H   LIG d   1       6.131  -4.225  -5.081  0.00  0.00     0.062 H 
BRANCH   7  13
ATOM     13  C   LIG d   1       3.177  -1.411  -2.874  0.00  0.00    -0.040 C 
ATOM     14  H   LIG d   1       2.443  -1.806  -3.577  0.00  0.00     0.028 H 
ATOM     15  H   LIG d   1       2.972  -1.801  -1.877  0.00  0.00     0.028 H 
ATOM     16  H   LIG d   1       3.114  -0.323  -2.857  0.00  0.00     0.028 H 
ENDBRANCH   7  13
ENDBRANCH   1   3
BRANCH   1  17
ATOM     17  C   LIG d   1       8.479  -3.315  -6.019  0.00  0.00    -0.002 C 
ATOM     18  H   LIG d   1       9.012  -4.248  -6.202  0.00  0.00     0.033 H 
ATOM     19  H   LIG d   1       7.452  -3.408  -6.369  0.00  0.00     0.033 H 
BRANCH  17  20
ATOM     20  C   LIG d   1       9.172  -2.176  -6.767  0.00  0.00    -0.032 C 
ATOM     21  H   LIG d   1       9.549  -1.446  -6.051  0.00  0.00     0.081 H 
ATOM     22  H   LIG d   1      10.003  -2.575  -7.350  0.00  0.00     0.081 H 
BRANCH  20  23
ATOM     23  N   LIG d   1       8.201  -1.528  -7.669  0.00  0.00     0.233 N 
ATOM     24  H   LIG d   1       7.475  -2.206  -7.928  0.00  0.00     0.202 HD
ATOM     25  H   LIG d   1       8.687  -1.207  -8.516  0.00  0.00     0.202 HD
BRANCH  23  26
ATOM     26  C   LIG d   1       7.573  -0.372  -7.002  0.00  0.00     0.026 C 
ATOM     27  H   LIG d   1       7.939  -0.298  -5.978  0.00  0.00     0.090 H 
ATOM     28  H   LIG d   1       7.820   0.541  -7.544  0.00  0.00     0.090 H 
BRANCH  26  29
ATOM     29  C   LIG d   1       6.079  -0.561  -6.990  0.00  0.00     0.149 A 
ATOM     30  O   LIG d   1       5.199   0.180  -6.297  0.00  0.00    -0.463 OA
ATOM     31  C   LIG d   1       3.955  -0.271  -6.527  0.00  0.00     0.092 A 
ATOM     32  C   LIG d   1       4.031  -1.318  -7.367  0.00  0.00    -0.024 A 
ATOM     33  H   LIG d   1       3.047   0.135  -6.105  0.00  0.00     0.103 H 
ATOM     34  C   LIG d   1       5.400  -1.505  -7.666  0.00  0.00    -0.015 A 
ATOM     35  H   LIG d   1       3.205  -1.904  -7.743  0.00  0.00     0.065 H 
ATOM     36  H   LIG d   1       5.820  -2.262  -8.314  0.00  0.00     0.065 H 
ENDBRANCH  26  29
ENDBRANCH  23  26
ENDBRANCH  20  23
ENDBRANCH  17  20
ENDBRANCH   1  17
BRANCH   1  37
ATOM     37  C   LIG d   1       8.889  -4.248  -3.758  0.00  0.00    -0.040 A 
ATOM     38  C   LIG d   1       8.805  -5.490  -4.361  0.00  0.00    -0.054 A 
ATOM     39  C   LIG d   1       9.180  -6.623  -3.666  0.00  0.00    -0.020 A 
ATOM     40  H   LIG d   1       8.447  -5.574  -5.376  0.00  0.00     0.062 H 
ATOM     41  C   LIG d   1       9.640  -6.515  -2.361  0.00  0.00     0.121 A 
ATOM     42  H   LIG d   1       9.114  -7.593  -4.138  0.00  0.00     0.065 H 
ATOM     43  C   LIG d   1       9.723  -5.270  -1.758  0.00  0.00    -0.020 A 
ATOM     44  C   LIG d   1       9.353  -4.137  -2.459  0.00  0.00    -0.054 A 
ATOM     45  H   LIG d   1      10.080  -5.182  -0.743  0.00  0.00     0.065 H 
ATOM     46  H   LIG d   1       9.422  -3.167  -1.992  0.00  0.00     0.062 H 
BRANCH  41  47
ATOM     47  O   LIG d   1      10.010  -7.629  -1.676  0.00  0.00    -0.489 OA
BRANCH  47  48
ATOM     48  C   LIG d   1      11.352  -7.673  -1.185  0.00  0.00     0.095 C 
ATOM     49  H   LIG d   1      11.820  -6.698  -1.320  0.00  0.00     0.073 H 
BRANCH  48  50
ATOM     50  C   LIG d   1      11.339  -8.032   0.302  0.00  0.00    -0.028 C 
ATOM     51  H   LIG d   1      12.346  -8.303   0.619  0.00  0.00     0.026 H 
ATOM     52  H   LIG d   1      10.994  -7.174   0.879  0.00  0.00     0.026 H 
ATOM     53  H   LIG d   1      10.667  -8.874   0.467  0.00  0.00     0.026 H 
ENDBRANCH  48  50
BRANCH  48  54
ATOM     54  C   LIG d   1      12.143  -8.730  -1.958  0.00  0.00    -0.028 C 
ATOM     55  H   LIG d   1      11.633  -9.692  -1.886  0.00  0.00     0.026 H 
ATOM     56  H   LIG d   1      12.215  -8.436  -3.005  0.00  0.00     0.026 H 
ATOM     57  H   LIG d   1      13.143  -8.818  -1.535  0.00  0.00     0.026 H 
ENDBRANCH  48  54
ENDBRANCH  47  48
ENDBRANCH  41  47
ENDBRANCH   1  37
TORSDOF 12
ENDMDL
MODEL 5
REMARK VINA RESULT:      -5.4      2.463      4.428
REMARK  12 active torsions:
REMARK  status: ('A' for Active; 'I' for Inactive)
REMARK    1  A    between atoms: C_1  and  C_2 
REMARK    2  A    between atoms: C_5  and  C_8 
REMARK    3  A    between atoms: C_8  and  C_10 
REMARK    4  A    between atoms: C_8  and  C_18 
REMARK    5  A    between atoms: C_10  and  C_11 
REMARK    6  A    between atoms: C_11  and  N_55 
REMARK    7  A    between atoms: C_12  and  C_13 
REMARK    8  A    between atoms: C_12  and  N_55 
REMARK    9  A    between atoms: C_21  and  O_24 
REMARK   10  A    between atoms: O_24  and  C_25 
REMARK   11  A    between atoms: C_25  and  C_26 
REMARK   12  A    between atoms: C_25  and  C_27 
ROOT
ATOM      1  C   LIG d   1       8.314   1.597  -5.186  0.00  0.00     0.014 C 
ATOM      2  H   LIG d   1       7.768   2.104  -5.980  0.00  0.00     0.040 H 
ENDROOT
BRANCH   1   3
ATOM      3  C   LIG d   1       7.343   0.867  -4.295  0.00  0.00    -0.040 A 
ATOM      4  C   LIG d   1       6.345   1.565  -3.640  0.00  0.00    -0.058 A 
ATOM      5  C   LIG d   1       5.454   0.896  -2.823  0.00  0.00    -0.059 A 
ATOM      6  H   LIG d   1       6.262   2.635  -3.767  0.00  0.00     0.062 H 
ATOM      7  C   LIG d   1       5.561  -0.473  -2.660  0.00  0.00    -0.050 A 
ATOM      8  H   LIG d   1       4.675   1.441  -2.312  0.00  0.00     0.062 H 
ATOM      9  C   LIG d   1       6.557  -1.172  -3.314  0.00  0.00    -0.059 A 
ATOM     10  C   LIG d   1       7.445  -0.503  -4.136  0.00  0.00    -0.058 A 
ATOM     11  H   LIG d   1       6.640  -2.241  -3.188  0.00  0.00     0.062 H 
ATOM     12  H   LIG d   1       8.221  -1.049  -4.650  0.00  0.00     0.062 H 
BRANCH   7  13
ATOM     13  C   LIG d   1       4.589  -1.204  -1.769  0.00  0.00    -0.040 C 
ATOM     14  H   LIG d   1       4.549  -2.254  -2.060  0.00  0.00     0.028 H 
ATOM     15  H   LIG d   1       4.917  -1.125  -0.733  0.00  0.00     0.028 H 
ATOM     16  H   LIG d   1       3.598  -0.761  -1.871  0.00  0.00     0.028 H 
ENDBRANCH   7  13
ENDBRANCH   1   3
BRANCH   1  17
ATOM     17  C   LIG d   1       9.295   0.595  -5.800  0.00  0.00    -0.002 C 
ATOM     18  H   LIG d   1      10.308   0.834  -5.476  0.00  0.00     0.033 H 
ATOM     19  H   LIG d   1       9.037  -0.411  -5.473  0.00  0.00     0.033 H 
BRANCH  17  20
ATOM     20  C   LIG d   1       9.215   0.674  -7.325  0.00  0.00    -0.032 C 
ATOM     21  H   LIG d   1       8.770   1.625  -7.617  0.00  0.00     0.081 H 
ATOM     22  H   LIG d   1      10.218   0.597  -7.747  0.00  0.00     0.081 H 
BRANCH  20  23
ATOM     23  N   LIG d   1       8.382  -0.436  -7.823  0.00  0.00     0.233 N 
ATOM     24  H   LIG d   1       8.181  -1.083  -7.051  0.00  0.00     0.202 HD
ATOM     25  H   LIG d   1       8.889  -0.935  -8.565  0.00  0.00     0.202 HD
BRANCH  23  26
ATOM     26  C   LIG d   1       7.111   0.080  -8.368  0.00  0.00     0.026 C 
ATOM     27  H   LIG d   1       7.134   1.170  -8.377  0.00  0.00     0.090 H 
ATOM     28  H   LIG d   1       6.972  -0.289  -9.384  0.00  0.00     0.090 H 
BRANCH  26  29
ATOM     29  C   LIG d   1       5.974  -0.392  -7.500  0.00  0.00     0.149 A 
ATOM     30  O   LIG d   1       5.046   0.390  -6.926  0.00  0.00    -0.463 OA
ATOM     31  C   LIG d   1       4.187  -0.372  -6.229  0.00  0.00     0.092 A 
ATOM     32  C   LIG d   1       4.569  -1.656  -6.343  0.00  0.00    -0.024 A 
ATOM     33  H   LIG d   1       3.337  -0.013  -5.667  0.00  0.00     0.103 H 
ATOM     34  C   LIG d   1       5.721  -1.670  -7.163  0.00  0.00    -0.015 A 
ATOM     35  H   LIG d   1       4.087  -2.513  -5.895  0.00  0.00     0.065 H 
ATOM     36  H   LIG d   1       6.288  -2.540  -7.461  0.00  0.00     0.065 H 
ENDBRANCH  26  29
ENDBRANCH  23  26
ENDBRANCH  20  23
ENDBRANCH  17  20
ENDBRANCH   1  17
BRANCH   1  37
ATOM     37  C   LIG d   1       9.075   2.612  -4.372  0.00  0.00    -0.040 A 
ATOM     38  C   LIG d   1       8.940   3.960  -4.648  0.00  0.00    -0.054 A 
ATOM     39  C   LIG d   1       9.637   4.891  -3.904  0.00  0.00    -0.020 A 
ATOM     40  H   LIG d   1       8.288   4.284  -5.446  0.00  0.00     0.062 H 
ATOM     41  C   LIG d   1      10.473   4.474  -2.879  0.00  0.00     0.121 A 
ATOM     42  H   LIG d   1       9.530   5.945  -4.120  0.00  0.00     0.065 H 
ATOM     43  C   LIG d   1      10.609   3.122  -2.604  0.00  0.00    -0.020 A 
ATOM     44  C   LIG d   1       9.905   2.193  -3.348  0.00  0.00    -0.054 A 
ATOM     45  H   LIG d   1      11.260   2.794  -1.808  0.00  0.00     0.065 H 
ATOM     46  H   LIG d   1      10.006   1.140  -3.131  0.00  0.00     0.062 H 
BRANCH  41  47
ATOM     47  O   LIG d   1      11.159   5.389  -2.145  0.00  0.00    -0.489 OA
BRANCH  47  48
ATOM     48  C   LIG d   1      10.569   5.807  -0.912  0.00  0.00     0.095 C 
ATOM     49  H   LIG d   1       9.732   5.153  -0.671  0.00  0.00     0.073 H 
BRANCH  48  50
ATOM     50  C   LIG d   1      11.613   5.733   0.204  0.00  0.00    -0.028 C 
ATOM     51  H   LIG d   1      11.603   4.736   0.644  0.00  0.00     0.026 H 
ATOM     52  H   LIG d   1      12.600   5.938  -0.208  0.00  0.00     0.026 H 
ATOM     53  H   LIG d   1      11.378   6.471   0.970  0.00  0.00     0.026 H 
ENDBRANCH  48  50
BRANCH  48  54
ATOM     54  C   LIG d   1      10.069   7.247  -1.048  0.00  0.00    -0.028 C 
ATOM     55  H   LIG d   1      10.922   7.923  -1.121  0.00  0.00     0.026 H 
ATOM     56  H   LIG d   1       9.459   7.336  -1.947  0.00  0.00     0.026 H 
ATOM     57  H   LIG d   1       9.472   7.508  -0.175  0.00  0.00     0.026 H 
ENDBRANCH  48  54
ENDBRANCH  47  48
ENDBRANCH  41  47
ENDBRANCH   1  37
TORSDOF 12
ENDMDL
MODEL 6
REMARK VINA RESULT:      -5.4      4.063      7.752
REMARK  12 active torsions:
REMARK  status: ('A' for Active; 'I' for Inactive)
REMARK    1  A    between atoms: C_1  and  C_2 
REMARK    2  A    between atoms: C_5  and  C_8 
REMARK    3  A    between atoms: C_8  and  C_10 
REMARK    4  A    between atoms: C_8  and  C_18 
REMARK    5  A    between atoms: C_10  and  C_11 
REMARK    6  A    between atoms: C_11  and  N_55 
REMARK    7  A    between atoms: C_12  and  C_13 
REMARK    8  A    between atoms: C_12  and  N_55 
REMARK    9  A    between atoms: C_21  and  O_24 
REMARK   10  A    between atoms: O_24  and  C_25 
REMARK   11  A    between atoms: C_25  and  C_26 
REMARK   12  A    between atoms: C_25  and  C_27 
ROOT
ATOM      1  C   LIG d   1       4.756  -1.097  -7.859  0.00  0.00     0.014 C 
ATOM      2  H   LIG d   1       5.688  -1.578  -8.155  0.00  0.00     0.040 H 
ENDROOT
BRANCH   1   3
ATOM      3  C   LIG d   1       4.497  -1.361  -6.398  0.00  0.00    -0.040 A 
ATOM      4  C   LIG d   1       4.896  -2.557  -5.830  0.00  0.00    -0.058 A 
ATOM      5  C   LIG d   1       4.658  -2.799  -4.489  0.00  0.00    -0.059 A 
ATOM      6  H   LIG d   1       5.393  -3.302  -6.433  0.00  0.00     0.062 H 
ATOM      7  C   LIG d   1       4.022  -1.845  -3.717  0.00  0.00    -0.050 A 
ATOM      8  H   LIG d   1       4.970  -3.733  -4.046  0.00  0.00     0.062 H 
ATOM      9  C   LIG d   1       3.624  -0.649  -4.284  0.00  0.00    -0.059 A 
ATOM     10  C   LIG d   1       3.866  -0.405  -5.623  0.00  0.00    -0.058 A 
ATOM     11  H   LIG d   1       3.128   0.096  -3.681  0.00  0.00     0.062 H 
ATOM     12  H   LIG d   1       3.559   0.531  -6.066  0.00  0.00     0.062 H 
BRANCH   7  13
ATOM     13  C   LIG d   1       3.763  -2.108  -2.256  0.00  0.00    -0.040 C 
ATOM     14  H   LIG d   1       3.635  -1.160  -1.733  0.00  0.00     0.028 H 
ATOM     15  H   LIG d   1       2.859  -2.707  -2.150  0.00  0.00     0.028 H 
ATOM     16  H   LIG d   1       4.609  -2.647  -1.828  0.00  0.00     0.028 H 
ENDBRANCH   7  13
ENDBRANCH   1   3
BRANCH   1  17
ATOM     17  C   LIG d   1       4.865   0.411  -8.093  0.00  0.00    -0.002 C 
ATOM     18  H   LIG d   1       4.096   0.725  -8.800  0.00  0.00     0.033 H 
ATOM     19  H   LIG d   1       4.724   0.936  -7.149  0.00  0.00     0.033 H 
BRANCH  17  20
ATOM     20  C   LIG d   1       6.246   0.741  -8.660  0.00  0.00    -0.032 C 
ATOM     21  H   LIG d   1       6.811  -0.180  -8.799  0.00  0.00     0.081 H 
ATOM     22  H   LIG d   1       6.134   1.248  -9.619  0.00  0.00     0.081 H 
BRANCH  20  23
ATOM     23  N   LIG d   1       6.959   1.622  -7.715  0.00  0.00     0.233 N 
ATOM     24  H   LIG d   1       6.293   1.987  -7.024  0.00  0.00     0.202 HD
ATOM     25  H   LIG d   1       7.379   2.404  -8.232  0.00  0.00     0.202 HD
BRANCH  23  26
ATOM     26  C   LIG d   1       8.022   0.873  -7.019  0.00  0.00     0.026 C 
ATOM     27  H   LIG d   1       8.166  -0.094  -7.503  0.00  0.00     0.090 H 
ATOM     28  H   LIG d   1       8.953   1.440  -7.056  0.00  0.00     0.090 H 
BRANCH  26  29
ATOM     29  C   LIG d   1       7.618   0.661  -5.583  0.00  0.00     0.149 A 
ATOM     30  O   LIG d   1       7.056   1.581  -4.782  0.00  0.00    -0.463 OA
ATOM     31  C   LIG d   1       6.829   1.042  -3.573  0.00  0.00     0.092 A 
ATOM     32  C   LIG d   1       7.258  -0.233  -3.589  0.00  0.00    -0.024 A 
ATOM     33  H   LIG d   1       6.384   1.548  -2.729  0.00  0.00     0.103 H 
ATOM     34  C   LIG d   1       7.766  -0.479  -4.885  0.00  0.00    -0.015 A 
ATOM     35  H   LIG d   1       7.219  -0.935  -2.768  0.00  0.00     0.065 H 
ATOM     36  H   LIG d   1       8.191  -1.405  -5.244  0.00  0.00     0.065 H 
ENDBRANCH  26  29
ENDBRANCH  23  26
ENDBRANCH  20  23
ENDBRANCH  17  20
ENDBRANCH   1  17
BRANCH   1  37
ATOM     37  C   LIG d   1       3.620  -1.653  -8.678  0.00  0.00    -0.040 A 
ATOM     38  C   LIG d   1       2.577  -0.830  -9.060  0.00  0.00    -0.054 A 
ATOM     39  C   LIG d   1       1.535  -1.338  -9.810  0.00  0.00    -0.020 A 
ATOM     40  H   LIG d   1       2.577   0.211  -8.770  0.00  0.00     0.062 H 
ATOM     41  C   LIG d   1       1.535  -2.674 -10.181  0.00  0.00     0.121 A 
ATOM     42  H   LIG d   1       0.720  -0.694 -10.109  0.00  0.00     0.065 H 
ATOM     43  C   LIG d   1       2.582  -3.499  -9.797  0.00  0.00    -0.020 A 
ATOM     44  C   LIG d   1       3.626  -2.985  -9.051  0.00  0.00    -0.054 A 
ATOM     45  H   LIG d   1       2.585  -4.540 -10.084  0.00  0.00     0.065 H 
ATOM     46  H   LIG d   1       4.444  -3.625  -8.756  0.00  0.00     0.062 H 
BRANCH  41  47
ATOM     47  O   LIG d   1       0.511  -3.175 -10.921  0.00  0.00    -0.489 OA
BRANCH  47  48
ATOM     48  C   LIG d   1       0.721  -3.285 -12.330  0.00  0.00     0.095 C 
ATOM     49  H   LIG d   1       1.776  -3.129 -12.553  0.00  0.00     0.073 H 
BRANCH  48  50
ATOM     50  C   LIG d   1       0.301  -4.679 -12.801  0.00  0.00    -0.028 C 
ATOM     51  H   LIG d   1      -0.182  -4.603 -13.776  0.00  0.00     0.026 H 
ATOM     52  H   LIG d   1       1.182  -5.316 -12.881  0.00  0.00     0.026 H 
ATOM     53  H   LIG d   1      -0.396  -5.110 -12.083  0.00  0.00     0.026 H 
ENDBRANCH  48  50
BRANCH  48  54
ATOM     54  C   LIG d   1      -0.115  -2.229 -13.054  0.00  0.00    -0.028 C 
ATOM     55  H   LIG d   1       0.193  -2.173 -14.099  0.00  0.00     0.026 H 
ATOM     56  H   LIG d   1      -1.169  -2.501 -13.001  0.00  0.00     0.026 H 
ATOM     57  H   LIG d   1       0.034  -1.259 -12.580  0.00  0.00     0.026 H 
ENDBRANCH  48  54
ENDBRANCH  47  48
ENDBRANCH  41  47
ENDBRANCH   1  37
TORSDOF 12
ENDMDL
MODEL 7
REMARK VINA RESULT:      -5.4      2.698      6.603
REMARK  12 active torsions:
REMARK  status: ('A' for Active; 'I' for Inactive)
REMARK    1  A    between atoms: C_1  and  C_2 
REMARK    2  A    between atoms: C_5  and  C_8 
REMARK    3  A    between atoms: C_8  and  C_10 
REMARK    4  A    between atoms: C_8  and  C_18 
REMARK    5  A    between atoms: C_10  and  C_11 
REMARK    6  A    between atoms: C_11  and  N_55 
REMARK    7  A    between atoms: C_12  and  C_13 
REMARK    8  A    between atoms: C_12  and  N_55 
REMARK    9  A    between atoms: C_21  and  O_24 
REMARK   10  A    between atoms: O_24  and  C_25 
REMARK   11  A    between atoms: C_25  and  C_26 
REMARK   12  A    between atoms: C_25  and  C_27 
ROOT
ATOM      1  C   LIG d   1       7.340  -2.635  -4.728  0.00  0.00     0.014 C 
ATOM      2  H   LIG d   1       7.133  -2.883  -5.769  0.00  0.00     0.040 H 
ENDROOT
BRANCH   1   3
ATOM      3  C   LIG d   1       7.903  -1.239  -4.647  0.00  0.00    -0.040 A 
ATOM      4  C   LIG d   1       7.223  -0.258  -3.949  0.00  0.00    -0.058 A 
ATOM      5  C   LIG d   1       7.739   1.022  -3.875  0.00  0.00    -0.059 A 
ATOM      6  H   LIG d   1       6.287  -0.492  -3.462  0.00  0.00     0.062 H 
ATOM      7  C   LIG d   1       8.936   1.321  -4.499  0.00  0.00    -0.050 A 
ATOM      8  H   LIG d   1       7.208   1.788  -3.329  0.00  0.00     0.062 H 
ATOM      9  C   LIG d   1       9.616   0.341  -5.196  0.00  0.00    -0.059 A 
ATOM     10  C   LIG d   1       9.103  -0.941  -5.267  0.00  0.00    -0.058 A 
ATOM     11  H   LIG d   1      10.551   0.574  -5.683  0.00  0.00     0.062 H 
ATOM     12  H   LIG d   1       9.636  -1.707  -5.808  0.00  0.00     0.062 H 
BRANCH   7  13
ATOM     13  C   LIG d   1       9.500   2.716  -4.418  0.00  0.00    -0.040 C 
ATOM     14  H   LIG d   1       8.867   3.397  -4.987  0.00  0.00     0.028 H 
ATOM     15  H   LIG d   1       9.533   3.034  -3.377  0.00  0.00     0.028 H 
ATOM     16  H   LIG d   1      10.508   2.726  -4.834  0.00  0.00     0.028 H 
ENDBRANCH   7  13
ENDBRANCH   1   3
BRANCH   1  17
ATOM     17  C   LIG d   1       6.043  -2.708  -3.919  0.00  0.00    -0.002 C 
ATOM     18  H   LIG d   1       6.141  -3.469  -3.144  0.00  0.00     0.033 H 
ATOM     19  H   LIG d   1       5.849  -1.741  -3.456  0.00  0.00     0.033 H 
BRANCH  17  20
ATOM     20  C   LIG d   1       4.883  -3.072  -4.846  0.00  0.00    -0.032 C 
ATOM     21  H   LIG d   1       5.175  -2.892  -5.882  0.00  0.00     0.081 H 
ATOM     22  H   LIG d   1       4.629  -4.125  -4.718  0.00  0.00     0.081 H 
BRANCH  20  23
ATOM     23  N   LIG d   1       3.714  -2.237  -4.510  0.00  0.00     0.233 N 
ATOM     24  H   LIG d   1       2.861  -2.692  -4.856  0.00  0.00     0.202 HD
ATOM     25  H   LIG d   1       3.816  -1.317  -4.956  0.00  0.00     0.202 HD
BRANCH  23  26
ATOM     26  C   LIG d   1       3.614  -2.060  -3.049  0.00  0.00     0.026 C 
ATOM     27  H   LIG d   1       2.634  -2.394  -2.707  0.00  0.00     0.090 H 
ATOM     28  H   LIG d   1       4.390  -2.644  -2.555  0.00  0.00     0.090 H 
BRANCH  26  29
ATOM     29  C   LIG d   1       3.792  -0.602  -2.715  0.00  0.00     0.149 A 
ATOM     30  O   LIG d   1       3.287   0.431  -3.408  0.00  0.00    -0.463 OA
ATOM     31  C   LIG d   1       3.644   1.584  -2.819  0.00  0.00     0.092 A 
ATOM     32  C   LIG d   1       4.397   1.295  -1.743  0.00  0.00    -0.024 A 
ATOM     33  H   LIG d   1       3.378   2.574  -3.157  0.00  0.00     0.103 H 
ATOM     34  C   LIG d   1       4.492  -0.113  -1.675  0.00  0.00    -0.015 A 
ATOM     35  H   LIG d   1       4.842   2.004  -1.060  0.00  0.00     0.065 H 
ATOM     36  H   LIG d   1       5.025  -0.687  -0.930  0.00  0.00     0.065 H 
ENDBRANCH  26  29
ENDBRANCH  23  26
ENDBRANCH  20  23
ENDBRANCH  17  20
ENDBRANCH   1  17
BRANCH   1  37
ATOM     37  C   LIG d   1       8.339  -3.613  -4.167  0.00  0.00    -0.040 A 
ATOM     38  C   LIG d   1       8.823  -4.636  -4.960  0.00  0.00    -0.054 A 
ATOM     39  C   LIG d   1       9.739  -5.534  -4.447  0.00  0.00    -0.020 A 
ATOM     40  H   LIG d   1       8.485  -4.734  -5.981  0.00  0.00     0.062 H 
ATOM     41  C   LIG d   1      10.173  -5.408  -3.136  0.00  0.00     0.121 A 
ATOM     42  H   LIG d   1      10.117  -6.334  -5.068  0.00  0.00     0.065 H 
ATOM     43  C   LIG d   1       9.686  -4.381  -2.342  0.00  0.00    -0.020 A 
ATOM     44  C   LIG d   1       8.774  -3.481  -2.860  0.00  0.00    -0.054 A 
ATOM     45  H   LIG d   1      10.022  -4.281  -1.320  0.00  0.00     0.065 H 
ATOM     46  H   LIG d   1       8.398  -2.678  -2.245  0.00  0.00     0.062 H 
BRANCH  41  47
ATOM     47  O   LIG d   1      11.075  -6.290  -2.630  0.00  0.00    -0.489 OA
BRANCH  47  48
ATOM     48  C   LIG d   1      10.648  -7.095  -1.529  0.00  0.00     0.095 C 
ATOM     49  H   LIG d   1      10.236  -6.455  -0.749  0.00  0.00     0.073 H 
BRANCH  48  50
ATOM     50  C   LIG d   1       9.575  -8.078  -2.002  0.00  0.00    -0.028 C 
ATOM     51  H   LIG d   1       9.843  -8.464  -2.985  0.00  0.00     0.026 H 
ATOM     52  H   LIG d   1       9.502  -8.904  -1.295  0.00  0.00     0.026 H 
ATOM     53  H   LIG d   1       8.615  -7.566  -2.062  0.00  0.00     0.026 H 
ENDBRANCH  48  50
BRANCH  48  54
ATOM     54  C   LIG d   1      11.842  -7.873  -0.973  0.00  0.00    -0.028 C 
ATOM     55  H   LIG d   1      11.559  -8.352  -0.035  0.00  0.00     0.026 H 
ATOM     56  H   LIG d   1      12.146  -8.635  -1.691  0.00  0.00     0.026 H 
ATOM     57  H   LIG d   1      12.671  -7.189  -0.796  0.00  0.00     0.026 H 
ENDBRANCH  48  54
ENDBRANCH  47  48
ENDBRANCH  41  47
ENDBRANCH   1  37
TORSDOF 12
ENDMDL
MODEL 8
REMARK VINA RESULT:      -5.3      3.861      6.990
REMARK  12 active torsions:
REMARK  status: ('A' for Active; 'I' for Inactive)
REMARK    1  A    between atoms: C_1  and  C_2 
REMARK    2  A    between atoms: C_5  and  C_8 
REMARK    3  A    between atoms: C_8  and  C_10 
REMARK    4  A    between atoms: C_8  and  C_18 
REMARK    5  A    between atoms: C_10  and  C_11 
REMARK    6  A    between atoms: C_11  and  N_55 
REMARK    7  A    between atoms: C_12  and  C_13 
REMARK    8  A    between atoms: C_12  and  N_55 
REMARK    9  A    between atoms: C_21  and  O_24 
REMARK   10  A    between atoms: O_24  and  C_25 
REMARK   11  A    between atoms: C_25  and  C_26 
REMARK   12  A    between atoms: C_25  and  C_27 
ROOT
ATOM      1  C   LIG d   1       5.999  -3.384  -5.152  0.00  0.00     0.014 C 
ATOM      2  H   LIG d   1       6.122  -3.000  -6.164  0.00  0.00     0.040 H 
ENDROOT
BRANCH   1   3
ATOM      3  C   LIG d   1       5.601  -2.259  -4.232  0.00  0.00    -0.040 A 
ATOM      4  C   LIG d   1       6.125  -0.993  -4.421  0.00  0.00    -0.058 A 
ATOM      5  C   LIG d   1       5.761   0.039  -3.578  0.00  0.00    -0.059 A 
ATOM      6  H   LIG d   1       6.820  -0.812  -5.228  0.00  0.00     0.062 H 
ATOM      7  C   LIG d   1       4.872  -0.194  -2.544  0.00  0.00    -0.050 A 
ATOM      8  H   LIG d   1       6.170   1.028  -3.725  0.00  0.00     0.062 H 
ATOM      9  C   LIG d   1       4.348  -1.458  -2.355  0.00  0.00    -0.059 A 
ATOM     10  C   LIG d   1       4.708  -2.490  -3.202  0.00  0.00    -0.058 A 
ATOM     11  H   LIG d   1       3.653  -1.640  -1.549  0.00  0.00     0.062 H 
ATOM     12  H   LIG d   1       4.295  -3.477  -3.057  0.00  0.00     0.062 H 
BRANCH   7  13
ATOM     13  C   LIG d   1       4.474   0.932  -1.625  0.00  0.00    -0.040 C 
ATOM     14  H   LIG d   1       3.416   1.155  -1.760  0.00  0.00     0.028 H 
ATOM     15  H   LIG d   1       4.654   0.637  -0.591  0.00  0.00     0.028 H 
ATOM     16  H   LIG d   1       5.064   1.818  -1.858  0.00  0.00     0.028 H 
ENDBRANCH   7  13
ENDBRANCH   1   3
BRANCH   1  17
ATOM     17  C   LIG d   1       4.909  -4.459  -5.143  0.00  0.00    -0.002 C 
ATOM     18  H   LIG d   1       5.349  -5.420  -4.875  0.00  0.00     0.033 H 
ATOM     19  H   LIG d   1       4.144  -4.194  -4.414  0.00  0.00     0.033 H 
BRANCH  17  20
ATOM     20  C   LIG d   1       4.278  -4.556  -6.532  0.00  0.00    -0.032 C 
ATOM     21  H   LIG d   1       4.286  -5.595  -6.864  0.00  0.00     0.081 H 
ATOM     22  H   LIG d   1       3.250  -4.196  -6.492  0.00  0.00     0.081 H 
BRANCH  20  23
ATOM     23  N   LIG d   1       5.055  -3.730  -7.476  0.00  0.00     0.233 N 
ATOM     24  H   LIG d   1       5.858  -4.272  -7.819  0.00  0.00     0.202 HD
ATOM     25  H   LIG d   1       5.392  -2.889  -6.992  0.00  0.00     0.202 HD
BRANCH  23  26
ATOM     26  C   LIG d   1       4.214  -3.328  -8.619  0.00  0.00     0.026 C 
ATOM     27  H   LIG d   1       4.826  -3.267  -9.520  0.00  0.00     0.090 H 
ATOM     28  H   LIG d   1       3.422  -4.062  -8.767  0.00  0.00     0.090 H 
BRANCH  26  29
ATOM     29  C   LIG d   1       3.604  -1.981  -8.333  0.00  0.00     0.149 A 
ATOM     30  O   LIG d   1       2.547  -1.446  -8.967  0.00  0.00    -0.463 OA
ATOM     31  C   LIG d   1       2.278  -0.237  -8.448  0.00  0.00     0.092 A 
ATOM     32  C   LIG d   1       3.175   0.018  -7.479  0.00  0.00    -0.024 A 
ATOM     33  H   LIG d   1       1.481   0.421  -8.761  0.00  0.00     0.103 H 
ATOM     34  C   LIG d   1       4.029  -1.106  -7.404  0.00  0.00    -0.015 A 
ATOM     35  H   LIG d   1       3.231   0.910  -6.873  0.00  0.00     0.065 H 
ATOM     36  H   LIG d   1       4.863  -1.237  -6.730  0.00  0.00     0.065 H 
ENDBRANCH  26  29
ENDBRANCH  23  26
ENDBRANCH  20  23
ENDBRANCH  17  20
ENDBRANCH   1  17
BRANCH   1  37
ATOM     37  C   LIG d   1       7.299  -3.983  -4.679  0.00  0.00    -0.040 A 
ATOM     38  C   LIG d   1       8.120  -3.266  -3.829  0.00  0.00    -0.054 A 
ATOM     39  C   LIG d   1       9.312  -3.812  -3.395  0.00  0.00    -0.020 A 
ATOM     40  H   LIG d   1       7.829  -2.277  -3.504  0.00  0.00     0.062 H 
ATOM     41  C   LIG d   1       9.685  -5.082  -3.813  0.00  0.00     0.121 A 
ATOM     42  H   LIG d   1       9.953  -3.251  -2.730  0.00  0.00     0.065 H 
ATOM     43  C   LIG d   1       8.861  -5.799  -4.666  0.00  0.00    -0.020 A 
ATOM     44  C   LIG d   1       7.665  -5.251  -5.093  0.00  0.00    -0.054 A 
ATOM     45  H   LIG d   1       9.148  -6.787  -4.993  0.00  0.00     0.065 H 
ATOM     46  H   LIG d   1       7.021  -5.811  -5.753  0.00  0.00     0.062 H 
BRANCH  41  47
ATOM     47  O   LIG d   1      10.857  -5.621  -3.386  0.00  0.00    -0.489 OA
BRANCH  47  48
ATOM     48  C   LIG d   1      10.809  -6.954  -2.872  0.00  0.00     0.095 C 
ATOM     49  H   LIG d   1      10.069  -7.530  -3.427  0.00  0.00     0.073 H 
BRANCH  48  50
ATOM     50  C   LIG d   1      12.183  -7.609  -3.023  0.00  0.00    -0.028 C 
ATOM     51  H   LIG d   1      12.687  -7.621  -2.056  0.00  0.00     0.026 H 
ATOM     52  H   LIG d   1      12.061  -8.631  -3.382  0.00  0.00     0.026 H 
ATOM     53  H   LIG d   1      12.779  -7.042  -3.736  0.00  0.00     0.026 H 
ENDBRANCH  48  50
BRANCH  48  54
ATOM     54  C   LIG d   1      10.421  -6.916  -1.392  0.00  0.00    -0.028 C 
ATOM     55  H   LIG d   1       9.777  -6.056  -1.207  0.00  0.00     0.026 H 
ATOM     56  H   LIG d   1       9.888  -7.831  -1.133  0.00  0.00     0.026 H 
ATOM     57  H   LIG d   1      11.321  -6.834  -0.783  0.00  0.00     0.026 H 
ENDBRANCH  48  54
ENDBRANCH  47  48
ENDBRANCH  41  47
ENDBRANCH   1  37
TORSDOF 12
ENDMDL
MODEL 9
REMARK VINA RESULT:      -5.2      3.139      6.747
REMARK  12 active torsions:
REMARK  status: ('A' for Active; 'I' for Inactive)
REMARK    1  A    between atoms: C_1  and  C_2 
REMARK    2  A    between atoms: C_5  and  C_8 
REMARK    3  A    between atoms: C_8  and  C_10 
REMARK    4  A    between atoms: C_8  and  C_18 
REMARK    5  A    between atoms: C_10  and  C_11 
REMARK    6  A    between atoms: C_11  and  N_55 
REMARK    7  A    between atoms: C_12  and  C_13 
REMARK    8  A    between atoms: C_12  and  N_55 
REMARK    9  A    between atoms: C_21  and  O_24 
REMARK   10  A    between atoms: O_24  and  C_25 
REMARK   11  A    between atoms: C_25  and  C_26 
REMARK   12  A    between atoms: C_25  and  C_27 
ROOT
ATOM      1  C   LIG d   1       9.462   4.746  -4.188  0.00  0.00     0.014 C 
ATOM      2  H   LIG d   1       8.533   4.875  -3.633  0.00  0.00     0.040 H 
ENDROOT
BRANCH   1   3
ATOM      3  C   LIG d   1      10.633   4.980  -3.269  0.00  0.00    -0.040 A 
ATOM      4  C   LIG d   1      10.418   5.350  -1.955  0.00  0.00    -0.058 A 
ATOM      5  C   LIG d   1      11.492   5.565  -1.111  0.00  0.00    -0.059 A 
ATOM      6  H   LIG d   1       9.409   5.471  -1.586  0.00  0.00     0.062 H 
ATOM      7  C   LIG d   1      12.782   5.409  -1.584  0.00  0.00    -0.050 A 
ATOM      8  H   LIG d   1      11.323   5.854  -0.085  0.00  0.00     0.062 H 
ATOM      9  C   LIG d   1      12.998   5.039  -2.897  0.00  0.00    -0.059 A 
ATOM     10  C   LIG d   1      11.924   4.819  -3.739  0.00  0.00    -0.058 A 
ATOM     11  H   LIG d   1      14.005   4.917  -3.265  0.00  0.00     0.062 H 
ATOM     12  H   LIG d   1      12.092   4.525  -4.764  0.00  0.00     0.062 H 
BRANCH   7  13
ATOM     13  C   LIG d   1      13.953   5.643  -0.665  0.00  0.00    -0.040 C 
ATOM     14  H   LIG d   1      14.634   6.362  -1.120  0.00  0.00     0.028 H 
ATOM     15  H   LIG d   1      13.595   6.033   0.288  0.00  0.00     0.028 H 
ATOM     16  H   LIG d   1      14.478   4.702  -0.498  0.00  0.00     0.028 H 
ENDBRANCH   7  13
ENDBRANCH   1   3
BRANCH   1  17
ATOM     17  C   LIG d   1       9.528   3.322  -4.746  0.00  0.00    -0.002 C 
ATOM     18  H   LIG d   1       8.980   3.275  -5.687  0.00  0.00     0.033 H 
ATOM     19  H   LIG d   1      10.568   3.047  -4.917  0.00  0.00     0.033 H 
BRANCH  17  20
ATOM     20  C   LIG d   1       8.903   2.352  -3.743  0.00  0.00    -0.032 C 
ATOM     21  H   LIG d   1       9.496   1.438  -3.703  0.00  0.00     0.081 H 
ATOM     22  H   LIG d   1       8.879   2.813  -2.756  0.00  0.00     0.081 H 
BRANCH  20  23
ATOM     23  N   LIG d   1       7.528   2.031  -4.173  0.00  0.00     0.233 N 
ATOM     24  H   LIG d   1       7.474   2.079  -5.197  0.00  0.00     0.202 HD
ATOM     25  H   LIG d   1       6.878   2.712  -3.763  0.00  0.00     0.202 HD
BRANCH  23  26
ATOM     26  C   LIG d   1       7.155   0.675  -3.728  0.00  0.00     0.026 C 
ATOM     27  H   LIG d   1       7.165  -0.005  -4.581  0.00  0.00     0.090 H 
ATOM     28  H   LIG d   1       7.865   0.327  -2.978  0.00  0.00     0.090 H 
BRANCH  26  29
ATOM     29  C   LIG d   1       5.772   0.714  -3.133  0.00  0.00     0.149 A 
ATOM     30  O   LIG d   1       4.929   1.758  -3.171  0.00  0.00    -0.463 OA
ATOM     31  C   LIG d   1       3.787   1.435  -2.543  0.00  0.00     0.092 A 
ATOM     32  C   LIG d   1       3.896   0.176  -2.085  0.00  0.00    -0.024 A 
ATOM     33  H   LIG d   1       2.929   2.080  -2.422  0.00  0.00     0.103 H 
ATOM     34  C   LIG d   1       5.175  -0.290  -2.465  0.00  0.00    -0.015 A 
ATOM     35  H   LIG d   1       3.148  -0.375  -1.533  0.00  0.00     0.065 H 
ATOM     36  H   LIG d   1       5.592  -1.265  -2.259  0.00  0.00     0.065 H 
ENDBRANCH  26  29
ENDBRANCH  23  26
ENDBRANCH  20  23
ENDBRANCH  17  20
ENDBRANCH   1  17
BRANCH   1  37
ATOM     37  C   LIG d   1       9.510   5.734  -5.325  0.00  0.00    -0.040 A 
ATOM     38  C   LIG d   1       9.256   7.072  -5.088  0.00  0.00    -0.054 A 
ATOM     39  C   LIG d   1       9.299   7.979  -6.128  0.00  0.00    -0.020 A 
ATOM     40  H   LIG d   1       9.023   7.408  -4.088  0.00  0.00     0.062 H 
ATOM     41  C   LIG d   1       9.599   7.547  -7.412  0.00  0.00     0.121 A 
ATOM     42  H   LIG d   1       9.101   9.025  -5.941  0.00  0.00     0.065 H 
ATOM     43  C   LIG d   1       9.854   6.205  -7.648  0.00  0.00    -0.020 A 
ATOM     44  C   LIG d   1       9.815   5.301  -6.603  0.00  0.00    -0.054 A 
ATOM     45  H   LIG d   1      10.087   5.866  -8.646  0.00  0.00     0.065 H 
ATOM     46  H   LIG d   1      10.018   4.257  -6.785  0.00  0.00     0.062 H 
BRANCH  41  47
ATOM     47  O   LIG d   1       9.644   8.439  -8.436  0.00  0.00    -0.489 OA
BRANCH  47  48
ATOM     48  C   LIG d   1      10.788   8.389  -9.291  0.00  0.00     0.095 C 
ATOM     49  H   LIG d   1      11.407   7.534  -9.019  0.00  0.00     0.073 H 
BRANCH  48  50
ATOM     50  C   LIG d   1      10.334   8.248 -10.745  0.00  0.00    -0.028 C 
ATOM     51  H   LIG d   1       9.362   8.724 -10.869  0.00  0.00     0.026 H 
ATOM     52  H   LIG d   1      11.061   8.727 -11.400  0.00  0.00     0.026 H 
ATOM     53  H   LIG d   1      10.257   7.191 -11.000  0.00  0.00     0.026 H 
ENDBRANCH  48  50
BRANCH  48  54
ATOM     54  C   LIG d   1      11.599   9.677  -9.133  0.00  0.00    -0.028 C 
ATOM     55  H   LIG d   1      12.498   9.472  -8.550  0.00  0.00     0.026 H 
ATOM     56  H   LIG d   1      11.882  10.051 -10.117  0.00  0.00     0.026 H 
ATOM     57  H   LIG d   1      10.996  10.426  -8.619  0.00  0.00     0.026 H 
ENDBRANCH  48  54
ENDBRANCH  47  48
ENDBRANCH  41  47
ENDBRANCH   1  37
TORSDOF 12
ENDMDL
MODEL 10
REMARK VINA RESULT:      -5.2      4.360      8.581
REMARK  12 active torsions:
REMARK  status: ('A' for Active; 'I' for Inactive)
REMARK    1  A    between atoms: C_1  and  C_2 
REMARK    2  A    between atoms: C_5  and  C_8 
REMARK    3  A    between atoms: C_8  and  C_10 
REMARK    4  A    between atoms: C_8  and  C_18 
REMARK    5  A    between atoms: C_10  and  C_11 
REMARK    6  A    between atoms: C_11  and  N_55 
REMARK    7  A    between atoms: C_12  and  C_13 
REMARK    8  A    between atoms: C_12  and  N_55 
REMARK    9  A    between atoms: C_21  and  O_24 
REMARK   10  A    between atoms: O_24  and  C_25 
REMARK   11  A    between atoms: C_25  and  C_26 
REMARK   12  A    between atoms: C_25  and  C_27 
ROOT
ATOM      1  C   LIG d   1       6.411  -4.041  -6.075  0.00  0.00     0.014 C 
ATOM      2  H   LIG d   1       7.461  -3.823  -6.275  0.00  0.00     0.040 H 
ENDROOT
BRANCH   1   3
ATOM      3  C   LIG d   1       5.932  -3.193  -4.925  0.00  0.00    -0.040 A 
ATOM      4  C   LIG d   1       6.841  -2.476  -4.170  0.00  0.00    -0.058 A 
ATOM      5  C   LIG d   1       6.402  -1.698  -3.114  0.00  0.00    -0.059 A 
ATOM      6  H   LIG d   1       7.895  -2.523  -4.404  0.00  0.00     0.062 H 
ATOM      7  C   LIG d   1       5.054  -1.638  -2.815  0.00  0.00    -0.050 A 
ATOM      8  H   LIG d   1       7.112  -1.138  -2.524  0.00  0.00     0.062 H 
ATOM      9  C   LIG d   1       4.145  -2.354  -3.570  0.00  0.00    -0.059 A 
ATOM     10  C   LIG d   1       4.583  -3.128  -4.629  0.00  0.00    -0.058 A 
ATOM     11  H   LIG d   1       3.092  -2.307  -3.337  0.00  0.00     0.062 H 
ATOM     12  H   LIG d   1       3.873  -3.684  -5.222  0.00  0.00     0.062 H 
BRANCH   7  13
ATOM     13  C   LIG d   1       4.574  -0.790  -1.665  0.00  0.00    -0.040 C 
ATOM     14  H   LIG d   1       5.426  -0.295  -1.199  0.00  0.00     0.028 H 
ATOM     15  H   LIG d   1       3.874  -0.041  -2.033  0.00  0.00     0.028 H 
ATOM     16  H   LIG d   1       4.076  -1.423  -0.929  0.00  0.00     0.028 H 
ENDBRANCH   7  13
ENDBRANCH   1   3
BRANCH   1  17
ATOM     17  C   LIG d   1       5.580  -3.726  -7.321  0.00  0.00    -0.002 C 
ATOM     18  H   LIG d   1       5.719  -4.517  -8.059  0.00  0.00     0.033 H 
ATOM     19  H   LIG d   1       4.527  -3.665  -7.049  0.00  0.00     0.033 H 
BRANCH  17  20
ATOM     20  C   LIG d   1       6.033  -2.392  -7.913  0.00  0.00    -0.032 C 
ATOM     21  H   LIG d   1       6.110  -1.649  -7.119  0.00  0.00     0.081 H 
ATOM     22  H   LIG d   1       7.006  -2.515  -8.390  0.00  0.00     0.081 H 
BRANCH  20  23
ATOM     23  N   LIG d   1       5.045  -1.946  -8.914  0.00  0.00     0.233 N 
ATOM     24  H   LIG d   1       4.735  -2.754  -9.467  0.00  0.00     0.202 HD
ATOM     25  H   LIG d   1       5.481  -1.253  -9.534  0.00  0.00     0.202 HD
BRANCH  23  26
ATOM     26  C   LIG d   1       3.879  -1.336  -8.247  0.00  0.00     0.026 C 
ATOM     27  H   LIG d   1       2.985  -1.922  -8.464  0.00  0.00     0.090 H 
ATOM     28  H   LIG d   1       4.045  -1.311  -7.170  0.00  0.00     0.090 H 
BRANCH  26  29
ATOM     29  C   LIG d   1       3.696   0.069  -8.760  0.00  0.00     0.149 A 
ATOM     30  O   LIG d   1       4.107   0.529  -9.953  0.00  0.00    -0.463 OA
ATOM     31  C   LIG d   1       3.772   1.824 -10.073  0.00  0.00     0.092 A 
ATOM     32  C   LIG d   1       3.149   2.208  -8.944  0.00  0.00    -0.024 A 
ATOM     33  H   LIG d   1       3.973   2.452 -10.928  0.00  0.00     0.103 H 
ATOM     34  C   LIG d   1       3.100   1.077  -8.098  0.00  0.00    -0.015 A 
ATOM     35  H   LIG d   1       2.761   3.192  -8.726  0.00  0.00     0.065 H 
ATOM     36  H   LIG d   1       2.666   1.031  -7.109  0.00  0.00     0.065 H 
ENDBRANCH  26  29
ENDBRANCH  23  26
ENDBRANCH  20  23
ENDBRANCH  17  20
ENDBRANCH   1  17
BRANCH   1  37
ATOM     37  C   LIG d   1       6.258  -5.498  -5.723  0.00  0.00    -0.040 A 
ATOM     38  C   LIG d   1       5.024  -6.109  -5.837  0.00  0.00    -0.054 A 
ATOM     39  C   LIG d   1       4.881  -7.444  -5.514  0.00  0.00    -0.020 A 
ATOM     40  H   LIG d   1       4.170  -5.542  -6.179  0.00  0.00     0.062 H 
ATOM     41  C   LIG d   1       5.978  -8.172  -5.075  0.00  0.00     0.121 A 
ATOM     42  H   LIG d   1       3.916  -7.922  -5.604  0.00  0.00     0.065 H 
ATOM     43  C   LIG d   1       7.215  -7.557  -4.960  0.00  0.00    -0.020 A 
ATOM     44  C   LIG d   1       7.355  -6.222  -5.290  0.00  0.00    -0.054 A 
ATOM     45  H   LIG d   1       8.070  -8.121  -4.618  0.00  0.00     0.065 H 
ATOM     46  H   LIG d   1       8.318  -5.744  -5.206  0.00  0.00     0.062 H 
BRANCH  41  47
ATOM     47  O   LIG d   1       5.839  -9.486  -4.758  0.00  0.00    -0.489 OA
BRANCH  47  48
ATOM     48  C   LIG d   1       4.511  -9.964  -4.537  0.00  0.00     0.095 C 
ATOM     49  H   LIG d   1       3.795  -9.202  -4.844  0.00  0.00     0.073 H 
BRANCH  48  50
ATOM     50  C   LIG d   1       4.284 -11.237  -5.355  0.00  0.00    -0.028 C 
ATOM     51  H   LIG d   1       3.213 -11.406  -5.474  0.00  0.00     0.026 H 
ATOM     52  H   LIG d   1       4.746 -11.125  -6.336  0.00  0.00     0.026 H 
ATOM     53  H   LIG d   1       4.730 -12.086  -4.838  0.00  0.00     0.026 H 
ENDBRANCH  48  50
BRANCH  48  54
ATOM     54  C   LIG d   1       4.321 -10.273  -3.050  0.00  0.00    -0.028 C 
ATOM     55  H   LIG d   1       4.689  -9.437  -2.455  0.00  0.00     0.026 H 
ATOM     56  H   LIG d   1       3.261 -10.426  -2.844  0.00  0.00     0.026 H 
ATOM     57  H   LIG d   1       4.875 -11.175  -2.792  0.00  0.00     0.026 H 
ENDBRANCH  48  54
ENDBRANCH  47  48
ENDBRANCH  41  47
ENDBRANCH   1  37
TORSDOF 12
ENDMDL
