MODEL 1
REMARK VINA RESULT:      -6.9      0.000      0.000
REMARK  8 active torsions:
REMARK  status: ('A' for Active; 'I' for Inactive)
REMARK    1  A    between atoms: C_4  and  C_7 
REMARK    2  A    between atoms: C_7  and  C_9 
REMARK    3  A    between atoms: C_7  and  N_16 
REMARK    4  A    between atoms: N_19  and  C_22 
REMARK    5  A    between atoms: C_22  and  C_23 
REMARK    6  A    between atoms: C_23  and  O_24 
REMARK    7  A    between atoms: O_24  and  C_25 
REMARK    8  A    between atoms: C_25  and  C_26 
ROOT
ATOM      1  N   LIG d   1       4.866  -2.475  -5.822  0.00  0.00    -0.281 N 
ATOM      2  C   LIG d   1       4.902  -2.887  -7.232  0.00  0.00     0.040 C 
ATOM      3  C   LIG d   1       4.275  -4.275  -7.371  0.00  0.00    -0.019 C 
ATOM      4  N   LIG d   1       5.019  -5.234  -6.544  0.00  0.00     0.239 N 
ATOM      5  C   LIG d   1       4.954  -4.824  -5.135  0.00  0.00    -0.019 C 
ATOM      6  C   LIG d   1       5.587  -3.439  -4.978  0.00  0.00     0.040 C 
ATOM      7  H   LIG d   1       4.339  -2.173  -7.834  0.00  0.00     0.048 H 
ATOM      8  H   LIG d   1       5.936  -2.919  -7.576  0.00  0.00     0.048 H 
ATOM      9  H   LIG d   1       3.236  -4.240  -7.040  0.00  0.00     0.083 H 
ATOM     10  H   LIG d   1       4.313  -4.589  -8.414  0.00  0.00     0.083 H 
ATOM     11  H   LIG d   1       3.912  -4.785  -4.816  0.00  0.00     0.083 H 
ATOM     12  H   LIG d   1       5.496  -5.543  -4.522  0.00  0.00     0.083 H 
ATOM     13  H   LIG d   1       6.632  -3.480  -5.284  0.00  0.00     0.048 H 
ATOM     14  H   LIG d   1       5.525  -3.128  -3.936  0.00  0.00     0.048 H 
ATOM     15  H   LIG d   1       5.983  -5.258  -6.843  0.00  0.00     0.203 HD
ENDROOT
BRANCH   1  16
ATOM     16  C   LIG d   1       5.409  -1.121  -5.655  0.00  0.00     0.061 C 
ATOM     17  H   LIG d   1       6.498  -1.161  -5.671  0.00  0.00     0.056 H 
BRANCH  16  18
ATOM     18  C   LIG d   1       4.947  -0.552  -4.338  0.00  0.00    -0.026 A 
ATOM     19  C   LIG d   1       3.749  -0.968  -3.787  0.00  0.00    -0.057 A 
ATOM     20  C   LIG d   1       3.326  -0.447  -2.579  0.00  0.00    -0.061 A 
ATOM     21  H   LIG d   1       3.145  -1.701  -4.301  0.00  0.00     0.062 H 
ATOM     22  C   LIG d   1       4.101   0.490  -1.920  0.00  0.00    -0.062 A 
ATOM     23  H   LIG d   1       2.390  -0.773  -2.148  0.00  0.00     0.062 H 
ATOM     24  C   LIG d   1       5.299   0.905  -2.471  0.00  0.00    -0.061 A 
ATOM     25  H   LIG d   1       3.768   0.900  -0.979  0.00  0.00     0.062 H 
ATOM     26  C   LIG d   1       5.722   0.385  -3.680  0.00  0.00    -0.057 A 
ATOM     27  H   LIG d   1       5.904   1.637  -1.956  0.00  0.00     0.062 H 
ATOM     28  H   LIG d   1       6.658   0.711  -4.110  0.00  0.00     0.062 H 
ENDBRANCH  16  18
BRANCH  16  29
ATOM     29  C   LIG d   1       4.923  -0.242  -6.780  0.00  0.00    -0.026 A 
ATOM     30  C   LIG d   1       5.830   0.319  -7.660  0.00  0.00    -0.055 A 
ATOM     31  C   LIG d   1       5.383   1.119  -8.694  0.00  0.00    -0.043 A 
ATOM     32  H   LIG d   1       6.885   0.128  -7.541  0.00  0.00     0.062 H 
ATOM     33  C   LIG d   1       4.030   1.368  -8.842  0.00  0.00     0.041 A 
ATOM     34  H   LIG d   1       6.092   1.554  -9.384  0.00  0.00     0.063 H 
ATOM     35  C   LIG d   1       3.125   0.811  -7.958  0.00  0.00    -0.043 A 
ATOM     36 CL   LIG d   1       3.471   2.378 -10.138  0.00  0.00    -0.084 Cl
ATOM     37  C   LIG d   1       3.571   0.006  -6.926  0.00  0.00    -0.055 A 
ATOM     38  H   LIG d   1       2.068   1.004  -8.073  0.00  0.00     0.063 H 
ATOM     39  H   LIG d   1       2.863  -0.429  -6.237  0.00  0.00     0.062 H 
ENDBRANCH  16  29
ENDBRANCH   1  16
BRANCH   4  40
ATOM     40  C   LIG d   1       4.428  -6.571  -6.691  0.00  0.00    -0.008 C 
ATOM     41  H   LIG d   1       3.380  -6.540  -6.392  0.00  0.00     0.084 H 
ATOM     42  H   LIG d   1       4.500  -6.887  -7.731  0.00  0.00     0.084 H 
BRANCH  40  43
ATOM     43  C   LIG d   1       5.183  -7.564  -5.804  0.00  0.00     0.088 C 
ATOM     44  H   LIG d   1       5.788  -8.221  -6.428  0.00  0.00     0.061 H 
ATOM     45  H   LIG d   1       5.827  -7.019  -5.116  0.00  0.00     0.061 H 
BRANCH  43  46
ATOM     46  O   LIG d   1       4.245  -8.347  -5.060  0.00  0.00    -0.369 OA
BRANCH  46  47
ATOM     47  C   LIG d   1       4.812  -9.508  -4.450  0.00  0.00     0.087 C 
ATOM     48  H   LIG d   1       5.116 -10.213  -5.223  0.00  0.00     0.062 H 
ATOM     49  H   LIG d   1       5.682  -9.219  -3.859  0.00  0.00     0.062 H 
BRANCH  47  50
ATOM     50  C   LIG d   1       3.788 -10.155  -3.554  0.00  0.00     0.067 C 
ATOM     51  O   LIG d   1       2.821  -9.516  -3.173  0.00  0.00    -0.547 OA
ATOM     52  O   LIG d   1       3.926 -11.316  -3.209  0.00  0.00    -0.547 OA
ENDBRANCH  47  50
ENDBRANCH  46  47
ENDBRANCH  43  46
ENDBRANCH  40  43
ENDBRANCH   4  40
TORSDOF 8
ENDMDL
MODEL 2
REMARK VINA RESULT:      -6.5      5.244      7.291
REMARK  8 active torsions:
REMARK  status: ('A' for Active; 'I' for Inactive)
REMARK    1  A    between atoms: C_4  and  C_7 
REMARK    2  A    between atoms: C_7  and  C_9 
REMARK    3  A    between atoms: C_7  and  N_16 
REMARK    4  A    between atoms: N_19  and  C_22 
REMARK    5  A    between atoms: C_22  and  C_23 
REMARK    6  A    between atoms: C_23  and  O_24 
REMARK    7  A    between atoms: O_24  and  C_25 
REMARK    8  A    between atoms: C_25  and  C_26 
ROOT
ATOM      1  N   LIG d   1       5.439  -2.176  -5.916  0.00  0.00    -0.281 N 
ATOM      2  C   LIG d   1       5.016  -3.403  -6.607  0.00  0.00     0.040 C 
ATOM      3  C   LIG d   1       4.546  -3.052  -8.020  0.00  0.00    -0.019 C 
ATOM      4  N   LIG d   1       3.428  -2.102  -7.943  0.00  0.00     0.239 N 
ATOM      5  C   LIG d   1       3.872  -0.873  -7.273  0.00  0.00    -0.019 C 
ATOM      6  C   LIG d   1       4.336  -1.206  -5.853  0.00  0.00     0.040 C 
ATOM      7  H   LIG d   1       5.855  -4.096  -6.665  0.00  0.00     0.048 H 
ATOM      8  H   LIG d   1       4.198  -3.867  -6.056  0.00  0.00     0.048 H 
ATOM      9  H   LIG d   1       5.368  -2.601  -8.575  0.00  0.00     0.083 H 
ATOM     10  H   LIG d   1       4.218  -3.959  -8.529  0.00  0.00     0.083 H 
ATOM     11  H   LIG d   1       4.699  -0.434  -7.832  0.00  0.00     0.083 H 
ATOM     12  H   LIG d   1       3.045  -0.165  -7.228  0.00  0.00     0.083 H 
ATOM     13  H   LIG d   1       3.507  -1.633  -5.290  0.00  0.00     0.048 H 
ATOM     14  H   LIG d   1       4.681  -0.297  -5.361  0.00  0.00     0.048 H 
ATOM     15  H   LIG d   1       2.671  -2.516  -7.419  0.00  0.00     0.203 HD
ENDROOT
BRANCH   1  16
ATOM     16  C   LIG d   1       5.951  -2.479  -4.573  0.00  0.00     0.061 C 
ATOM     17  H   LIG d   1       5.524  -3.419  -4.225  0.00  0.00     0.056 H 
BRANCH  16  18
ATOM     18  C   LIG d   1       5.564  -1.371  -3.627  0.00  0.00    -0.026 A 
ATOM     19  C   LIG d   1       6.108  -0.109  -3.780  0.00  0.00    -0.057 A 
ATOM     20  C   LIG d   1       5.752   0.907  -2.913  0.00  0.00    -0.061 A 
ATOM     21  H   LIG d   1       6.809   0.083  -4.578  0.00  0.00     0.062 H 
ATOM     22  C   LIG d   1       4.853   0.662  -1.892  0.00  0.00    -0.062 A 
ATOM     23  H   LIG d   1       6.177   1.893  -3.034  0.00  0.00     0.062 H 
ATOM     24  C   LIG d   1       4.309  -0.600  -1.739  0.00  0.00    -0.061 A 
ATOM     25  H   LIG d   1       4.579   1.454  -1.212  0.00  0.00     0.062 H 
ATOM     26  C   LIG d   1       4.666  -1.617  -2.606  0.00  0.00    -0.057 A 
ATOM     27  H   LIG d   1       3.607  -0.792  -0.941  0.00  0.00     0.062 H 
ATOM     28  H   LIG d   1       4.241  -2.602  -2.485  0.00  0.00     0.062 H 
ENDBRANCH  16  18
BRANCH  16  29
ATOM     29  C   LIG d   1       7.453  -2.596  -4.623  0.00  0.00    -0.026 A 
ATOM     30  C   LIG d   1       8.118  -3.364  -3.685  0.00  0.00    -0.055 A 
ATOM     31  C   LIG d   1       9.494  -3.476  -3.733  0.00  0.00    -0.043 A 
ATOM     32  H   LIG d   1       7.560  -3.879  -2.917  0.00  0.00     0.062 H 
ATOM     33  C   LIG d   1      10.208  -2.811  -4.714  0.00  0.00     0.041 A 
ATOM     34  H   LIG d   1      10.012  -4.080  -3.003  0.00  0.00     0.063 H 
ATOM     35  C   LIG d   1       9.543  -2.037  -5.648  0.00  0.00    -0.043 A 
ATOM     36 CL   LIG d   1      11.938  -2.947  -4.771  0.00  0.00    -0.084 Cl
ATOM     37  C   LIG d   1       8.166  -1.930  -5.602  0.00  0.00    -0.055 A 
ATOM     38  H   LIG d   1      10.100  -1.518  -6.415  0.00  0.00     0.063 H 
ATOM     39  H   LIG d   1       7.647  -1.327  -6.333  0.00  0.00     0.062 H 
ENDBRANCH  16  29
ENDBRANCH   1  16
BRANCH   4  40
ATOM     40  C   LIG d   1       2.965  -1.780  -9.300  0.00  0.00    -0.008 C 
ATOM     41  H   LIG d   1       2.983  -2.681  -9.913  0.00  0.00     0.084 H 
ATOM     42  H   LIG d   1       1.948  -1.390  -9.254  0.00  0.00     0.084 H 
BRANCH  40  43
ATOM     43  C   LIG d   1       3.886  -0.725  -9.916  0.00  0.00     0.088 C 
ATOM     44  H   LIG d   1       4.619  -0.405  -9.176  0.00  0.00     0.061 H 
ATOM     45  H   LIG d   1       4.400  -1.150 -10.778  0.00  0.00     0.061 H 
BRANCH  43  46
ATOM     46  O   LIG d   1       3.109   0.401 -10.333  0.00  0.00    -0.369 OA
BRANCH  46  47
ATOM     47  C   LIG d   1       3.887   1.551 -10.671  0.00  0.00     0.087 C 
ATOM     48  H   LIG d   1       4.767   1.241 -11.235  0.00  0.00     0.062 H 
ATOM     49  H   LIG d   1       3.288   2.230 -11.278  0.00  0.00     0.062 H 
BRANCH  47  50
ATOM     50  C   LIG d   1       4.320   2.253  -9.410  0.00  0.00     0.067 C 
ATOM     51  O   LIG d   1       5.482   2.597  -9.272  0.00  0.00    -0.547 OA
ATOM     52  O   LIG d   1       3.509   2.476  -8.528  0.00  0.00    -0.547 OA
ENDBRANCH  47  50
ENDBRANCH  46  47
ENDBRANCH  43  46
ENDBRANCH  40  43
ENDBRANCH   4  40
TORSDOF 8
ENDMDL
MODEL 3
REMARK VINA RESULT:      -6.4      5.461      6.915
REMARK  8 active torsions:
REMARK  status: ('A' for Active; 'I' for Inactive)
REMARK    1  A    between atoms: C_4  and  C_7 
REMARK    2  A    between atoms: C_7  and  C_9 
REMARK    3  A    between atoms: C_7  and  N_16 
REMARK    4  A    between atoms: N_19  and  C_22 
REMARK    5  A    between atoms: C_22  and  C_23 
REMARK    6  A    between atoms: C_23  and  O_24 
REMARK    7  A    between atoms: O_24  and  C_25 
REMARK    8  A    between atoms: C_25  and  C_26 
ROOT
ATOM      1  N   LIG d   1       5.682  -0.545  -6.229  0.00  0.00    -0.281 N 
ATOM      2  C   LIG d   1       5.871  -1.738  -7.067  0.00  0.00     0.040 C 
ATOM      3  C   LIG d   1       4.955  -1.649  -8.289  0.00  0.00    -0.019 C 
ATOM      4  N   LIG d   1       3.557  -1.556  -7.848  0.00  0.00     0.239 N 
ATOM      5  C   LIG d   1       3.377  -0.348  -7.032  0.00  0.00    -0.019 C 
ATOM      6  C   LIG d   1       4.281  -0.427  -5.799  0.00  0.00     0.040 C 
ATOM      7  H   LIG d   1       6.910  -1.791  -7.395  0.00  0.00     0.048 H 
ATOM      8  H   LIG d   1       5.625  -2.630  -6.492  0.00  0.00     0.048 H 
ATOM      9  H   LIG d   1       5.212  -0.764  -8.872  0.00  0.00     0.083 H 
ATOM     10  H   LIG d   1       5.083  -2.540  -8.905  0.00  0.00     0.083 H 
ATOM     11  H   LIG d   1       3.643   0.530  -7.621  0.00  0.00     0.083 H 
ATOM     12  H   LIG d   1       2.337  -0.275  -6.716  0.00  0.00     0.083 H 
ATOM     13  H   LIG d   1       4.008  -1.297  -5.203  0.00  0.00     0.048 H 
ATOM     14  H   LIG d   1       4.159   0.477  -5.202  0.00  0.00     0.048 H 
ATOM     15  H   LIG d   1       3.324  -2.371  -7.298  0.00  0.00     0.203 HD
ENDROOT
BRANCH   1  16
ATOM     16  C   LIG d   1       6.587  -0.567  -5.072  0.00  0.00     0.061 C 
ATOM     17  H   LIG d   1       7.124  -1.514  -5.048  0.00  0.00     0.056 H 
BRANCH  16  18
ATOM     18  C   LIG d   1       5.785  -0.411  -3.804  0.00  0.00    -0.026 A 
ATOM     19  C   LIG d   1       5.501   0.851  -3.317  0.00  0.00    -0.057 A 
ATOM     20  C   LIG d   1       4.765   0.993  -2.155  0.00  0.00    -0.061 A 
ATOM     21  H   LIG d   1       5.853   1.725  -3.844  0.00  0.00     0.062 H 
ATOM     22  C   LIG d   1       4.314  -0.126  -1.481  0.00  0.00    -0.062 A 
ATOM     23  H   LIG d   1       4.543   1.979  -1.774  0.00  0.00     0.062 H 
ATOM     24  C   LIG d   1       4.597  -1.388  -1.969  0.00  0.00    -0.061 A 
ATOM     25  H   LIG d   1       3.743  -0.015  -0.572  0.00  0.00     0.062 H 
ATOM     26  C   LIG d   1       5.335  -1.530  -3.131  0.00  0.00    -0.057 A 
ATOM     27  H   LIG d   1       4.245  -2.263  -1.442  0.00  0.00     0.062 H 
ATOM     28  H   LIG d   1       5.556  -2.516  -3.511  0.00  0.00     0.062 H 
ENDBRANCH  16  18
BRANCH  16  29
ATOM     29  C   LIG d   1       7.573   0.568  -5.185  0.00  0.00    -0.026 A 
ATOM     30  C   LIG d   1       8.337   0.930  -4.091  0.00  0.00    -0.055 A 
ATOM     31  C   LIG d   1       9.246   1.966  -4.197  0.00  0.00    -0.043 A 
ATOM     32  H   LIG d   1       8.227   0.401  -3.157  0.00  0.00     0.062 H 
ATOM     33  C   LIG d   1       9.383   2.648  -5.393  0.00  0.00     0.041 A 
ATOM     34  H   LIG d   1       9.846   2.246  -3.343  0.00  0.00     0.063 H 
ATOM     35  C   LIG d   1       8.613   2.288  -6.485  0.00  0.00    -0.043 A 
ATOM     36 CL   LIG d   1      10.520   3.953  -5.523  0.00  0.00    -0.084 Cl
ATOM     37  C   LIG d   1       7.709   1.249  -6.381  0.00  0.00    -0.055 A 
ATOM     38  H   LIG d   1       8.720   2.819  -7.419  0.00  0.00     0.063 H 
ATOM     39  H   LIG d   1       7.109   0.967  -7.234  0.00  0.00     0.062 H 
ENDBRANCH  16  29
ENDBRANCH   1  16
BRANCH   4  40
ATOM     40  C   LIG d   1       2.676  -1.490  -9.022  0.00  0.00    -0.008 C 
ATOM     41  H   LIG d   1       2.375  -2.497  -9.308  0.00  0.00     0.084 H 
ATOM     42  H   LIG d   1       1.792  -0.900  -8.780  0.00  0.00     0.084 H 
BRANCH  40  43
ATOM     43  C   LIG d   1       3.424  -0.831 -10.184  0.00  0.00     0.088 C 
ATOM     44  H   LIG d   1       4.492  -0.821  -9.969  0.00  0.00     0.061 H 
ATOM     45  H   LIG d   1       3.242  -1.394 -11.099  0.00  0.00     0.061 H 
BRANCH  43  46
ATOM     46  O   LIG d   1       2.959   0.511 -10.350  0.00  0.00    -0.369 OA
BRANCH  46  47
ATOM     47  C   LIG d   1       3.980   1.438 -10.723  0.00  0.00     0.087 C 
ATOM     48  H   LIG d   1       4.810   0.899 -11.181  0.00  0.00     0.062 H 
ATOM     49  H   LIG d   1       3.576   2.156 -11.437  0.00  0.00     0.062 H 
BRANCH  47  50
ATOM     50  C   LIG d   1       4.469   2.166  -9.498  0.00  0.00     0.067 C 
ATOM     51  O   LIG d   1       3.668   2.604  -8.690  0.00  0.00    -0.547 OA
ATOM     52  O   LIG d   1       5.665   2.317  -9.315  0.00  0.00    -0.547 OA
ENDBRANCH  47  50
ENDBRANCH  46  47
ENDBRANCH  43  46
ENDBRANCH  40  43
ENDBRANCH   4  40
TORSDOF 8
ENDMDL
MODEL 4
REMARK VINA RESULT:      -6.3      3.055      4.430
REMARK  8 active torsions:
REMARK  status: ('A' for Active; 'I' for Inactive)
REMARK    1  A    between atoms: C_4  and  C_7 
REMARK    2  A    between atoms: C_7  and  C_9 
REMARK    3  A    between atoms: C_7  and  N_16 
REMARK    4  A    between atoms: N_19  and  C_22 
REMARK    5  A    between atoms: C_22  and  C_23 
REMARK    6  A    between atoms: C_23  and  O_24 
REMARK    7  A    between atoms: O_24  and  C_25 
REMARK    8  A    between atoms: C_25  and  C_26 
ROOT
ATOM      1  N   LIG d   1       6.639  -3.865  -5.288  0.00  0.00    -0.281 N 
ATOM      2  C   LIG d   1       5.459  -3.554  -6.106  0.00  0.00     0.040 C 
ATOM      3  C   LIG d   1       4.604  -4.813  -6.263  0.00  0.00    -0.019 C 
ATOM      4  N   LIG d   1       5.401  -5.869  -6.902  0.00  0.00     0.239 N 
ATOM      5  C   LIG d   1       6.563  -6.187  -6.062  0.00  0.00    -0.019 C 
ATOM      6  C   LIG d   1       7.433  -4.938  -5.904  0.00  0.00     0.040 C 
ATOM      7  H   LIG d   1       4.872  -2.775  -5.618  0.00  0.00     0.048 H 
ATOM      8  H   LIG d   1       5.778  -3.206  -7.089  0.00  0.00     0.048 H 
ATOM      9  H   LIG d   1       4.273  -5.152  -5.281  0.00  0.00     0.083 H 
ATOM     10  H   LIG d   1       3.735  -4.588  -6.882  0.00  0.00     0.083 H 
ATOM     11  H   LIG d   1       6.221  -6.518  -5.081  0.00  0.00     0.083 H 
ATOM     12  H   LIG d   1       7.145  -6.979  -6.532  0.00  0.00     0.083 H 
ATOM     13  H   LIG d   1       7.786  -4.614  -6.883  0.00  0.00     0.048 H 
ATOM     14  H   LIG d   1       8.287  -5.169  -5.268  0.00  0.00     0.048 H 
ATOM     15  H   LIG d   1       5.717  -5.550  -7.807  0.00  0.00     0.203 HD
ENDROOT
BRANCH   1  16
ATOM     16  C   LIG d   1       7.458  -2.665  -5.067  0.00  0.00     0.061 C 
ATOM     17  H   LIG d   1       7.666  -2.186  -6.024  0.00  0.00     0.056 H 
BRANCH  16  18
ATOM     18  C   LIG d   1       8.756  -3.057  -4.409  0.00  0.00    -0.026 A 
ATOM     19  C   LIG d   1       8.744  -3.789  -3.236  0.00  0.00    -0.057 A 
ATOM     20  C   LIG d   1       9.935  -4.148  -2.634  0.00  0.00    -0.061 A 
ATOM     21  H   LIG d   1       7.804  -4.079  -2.792  0.00  0.00     0.062 H 
ATOM     22  C   LIG d   1      11.138  -3.776  -3.204  0.00  0.00    -0.062 A 
ATOM     23  H   LIG d   1       9.925  -4.720  -1.717  0.00  0.00     0.062 H 
ATOM     24  C   LIG d   1      11.151  -3.045  -4.377  0.00  0.00    -0.061 A 
ATOM     25  H   LIG d   1      12.068  -4.053  -2.731  0.00  0.00     0.062 H 
ATOM     26  C   LIG d   1       9.959  -2.684  -4.979  0.00  0.00    -0.057 A 
ATOM     27  H   LIG d   1      12.091  -2.755  -4.822  0.00  0.00     0.062 H 
ATOM     28  H   LIG d   1       9.969  -2.113  -5.895  0.00  0.00     0.062 H 
ENDBRANCH  16  18
BRANCH  16  29
ATOM     29  C   LIG d   1       6.712  -1.705  -4.176  0.00  0.00    -0.026 A 
ATOM     30  C   LIG d   1       7.072  -0.371  -4.142  0.00  0.00    -0.055 A 
ATOM     31  C   LIG d   1       6.385   0.510  -3.330  0.00  0.00    -0.043 A 
ATOM     32  H   LIG d   1       7.888  -0.017  -4.755  0.00  0.00     0.062 H 
ATOM     33  C   LIG d   1       5.344   0.055  -2.540  0.00  0.00     0.041 A 
ATOM     34  H   LIG d   1       6.664   1.553  -3.308  0.00  0.00     0.063 H 
ATOM     35  C   LIG d   1       4.988  -1.282  -2.570  0.00  0.00    -0.043 A 
ATOM     36 CL   LIG d   1       4.484   1.161  -1.514  0.00  0.00    -0.084 Cl
ATOM     37  C   LIG d   1       5.672  -2.162  -3.387  0.00  0.00    -0.055 A 
ATOM     38  H   LIG d   1       4.174  -1.638  -1.954  0.00  0.00     0.063 H 
ATOM     39  H   LIG d   1       5.393  -3.205  -3.410  0.00  0.00     0.062 H 
ENDBRANCH  16  29
ENDBRANCH   1  16
BRANCH   4  40
ATOM     40  C   LIG d   1       4.574  -7.073  -7.069  0.00  0.00    -0.008 C 
ATOM     41  H   LIG d   1       3.563  -6.871  -6.716  0.00  0.00     0.084 H 
ATOM     42  H   LIG d   1       4.544  -7.349  -8.123  0.00  0.00     0.084 H 
BRANCH  40  43
ATOM     43  C   LIG d   1       5.178  -8.222  -6.259  0.00  0.00     0.088 C 
ATOM     44  H   LIG d   1       5.409  -9.053  -6.925  0.00  0.00     0.061 H 
ATOM     45  H   LIG d   1       6.090  -7.883  -5.770  0.00  0.00     0.061 H 
BRANCH  43  46
ATOM     46  O   LIG d   1       4.239  -8.652  -5.270  0.00  0.00    -0.369 OA
BRANCH  46  47
ATOM     47  C   LIG d   1       4.460  -9.983  -4.798  0.00  0.00     0.087 C 
ATOM     48  H   LIG d   1       3.972 -10.691  -5.467  0.00  0.00     0.062 H 
ATOM     49  H   LIG d   1       5.531 -10.186  -4.772  0.00  0.00     0.062 H 
BRANCH  47  50
ATOM     50  C   LIG d   1       3.888 -10.125  -3.411  0.00  0.00     0.067 C 
ATOM     51  O   LIG d   1       2.807  -9.628  -3.144  0.00  0.00    -0.547 OA
ATOM     52  O   LIG d   1       4.506 -10.737  -2.557  0.00  0.00    -0.547 OA
ENDBRANCH  47  50
ENDBRANCH  46  47
ENDBRANCH  43  46
ENDBRANCH  40  43
ENDBRANCH   4  40
TORSDOF 8
ENDMDL
MODEL 5
REMARK VINA RESULT:      -6.1      2.173      4.343
REMARK  8 active torsions:
REMARK  status: ('A' for Active; 'I' for Inactive)
REMARK    1  A    between atoms: C_4  and  C_7 
REMARK    2  A    between atoms: C_7  and  C_9 
REMARK    3  A    between atoms: C_7  and  N_16 
REMARK    4  A    between atoms: N_19  and  C_22 
REMARK    5  A    between atoms: C_22  and  C_23 
REMARK    6  A    between atoms: C_23  and  O_24 
REMARK    7  A    between atoms: O_24  and  C_25 
REMARK    8  A    between atoms: C_25  and  C_26 
ROOT
ATOM      1  N   LIG d   1       4.413  -1.929  -7.230  0.00  0.00    -0.281 N 
ATOM      2  C   LIG d   1       4.570  -2.834  -6.083  0.00  0.00     0.040 C 
ATOM      3  C   LIG d   1       5.500  -3.986  -6.470  0.00  0.00    -0.019 C 
ATOM      4  N   LIG d   1       4.933  -4.711  -7.615  0.00  0.00     0.239 N 
ATOM      5  C   LIG d   1       4.806  -3.800  -8.760  0.00  0.00    -0.019 C 
ATOM      6  C   LIG d   1       3.869  -2.647  -8.392  0.00  0.00     0.040 C 
ATOM      7  H   LIG d   1       4.999  -2.287  -5.243  0.00  0.00     0.048 H 
ATOM      8  H   LIG d   1       3.596  -3.234  -5.798  0.00  0.00     0.048 H 
ATOM      9  H   LIG d   1       6.479  -3.587  -6.740  0.00  0.00     0.083 H 
ATOM     10  H   LIG d   1       5.607  -4.667  -5.625  0.00  0.00     0.083 H 
ATOM     11  H   LIG d   1       5.787  -3.402  -9.018  0.00  0.00     0.083 H 
ATOM     12  H   LIG d   1       4.396  -4.343  -9.612  0.00  0.00     0.083 H 
ATOM     13  H   LIG d   1       2.884  -3.043  -8.146  0.00  0.00     0.048 H 
ATOM     14  H   LIG d   1       3.786  -1.963  -9.235  0.00  0.00     0.048 H 
ATOM     15  H   LIG d   1       4.023  -5.070  -7.367  0.00  0.00     0.203 HD
ENDROOT
BRANCH   1  16
ATOM     16  C   LIG d   1       3.570  -0.778  -6.880  0.00  0.00     0.061 C 
ATOM     17  H   LIG d   1       2.520  -1.059  -6.962  0.00  0.00     0.056 H 
BRANCH  16  18
ATOM     18  C   LIG d   1       3.859   0.362  -7.822  0.00  0.00    -0.026 A 
ATOM     19  C   LIG d   1       5.138   0.545  -8.315  0.00  0.00    -0.057 A 
ATOM     20  C   LIG d   1       5.403   1.591  -9.179  0.00  0.00    -0.061 A 
ATOM     21  H   LIG d   1       5.930  -0.129  -8.023  0.00  0.00     0.062 H 
ATOM     22  C   LIG d   1       4.389   2.453  -9.553  0.00  0.00    -0.062 A 
ATOM     23  H   LIG d   1       6.402   1.733  -9.564  0.00  0.00     0.062 H 
ATOM     24  C   LIG d   1       3.110   2.269  -9.061  0.00  0.00    -0.061 A 
ATOM     25  H   LIG d   1       4.597   3.272 -10.224  0.00  0.00     0.062 H 
ATOM     26  C   LIG d   1       2.845   1.225  -8.195  0.00  0.00    -0.057 A 
ATOM     27  H   LIG d   1       2.318   2.944  -9.353  0.00  0.00     0.062 H 
ATOM     28  H   LIG d   1       1.846   1.082  -7.811  0.00  0.00     0.062 H 
ENDBRANCH  16  18
BRANCH  16  29
ATOM     29  C   LIG d   1       3.867  -0.349  -5.466  0.00  0.00    -0.026 A 
ATOM     30  C   LIG d   1       2.832  -0.006  -4.616  0.00  0.00    -0.055 A 
ATOM     31  C   LIG d   1       3.103   0.382  -3.318  0.00  0.00    -0.043 A 
ATOM     32  H   LIG d   1       1.811  -0.046  -4.966  0.00  0.00     0.062 H 
ATOM     33  C   LIG d   1       4.412   0.438  -2.872  0.00  0.00     0.041 A 
ATOM     34  H   LIG d   1       2.294   0.645  -2.653  0.00  0.00     0.063 H 
ATOM     35  C   LIG d   1       5.447   0.100  -3.725  0.00  0.00    -0.043 A 
ATOM     36 CL   LIG d   1       4.753   0.931  -1.243  0.00  0.00    -0.084 Cl
ATOM     37  C   LIG d   1       5.175  -0.293  -5.022  0.00  0.00    -0.055 A 
ATOM     38  H   LIG d   1       6.469   0.143  -3.377  0.00  0.00     0.063 H 
ATOM     39  H   LIG d   1       5.983  -0.557  -5.687  0.00  0.00     0.062 H 
ENDBRANCH  16  29
ENDBRANCH   1  16
BRANCH   4  40
ATOM     40  C   LIG d   1       5.818  -5.827  -7.975  0.00  0.00    -0.008 C 
ATOM     41  H   LIG d   1       5.385  -6.380  -8.807  0.00  0.00     0.084 H 
ATOM     42  H   LIG d   1       6.794  -5.438  -8.264  0.00  0.00     0.084 H 
BRANCH  40  43
ATOM     43  C   LIG d   1       5.979  -6.759  -6.771  0.00  0.00     0.088 C 
ATOM     44  H   LIG d   1       6.714  -7.529  -7.003  0.00  0.00     0.061 H 
ATOM     45  H   LIG d   1       6.312  -6.184  -5.908  0.00  0.00     0.061 H 
BRANCH  43  46
ATOM     46  O   LIG d   1       4.723  -7.376  -6.476  0.00  0.00    -0.369 OA
BRANCH  46  47
ATOM     47  C   LIG d   1       4.800  -8.790  -6.284  0.00  0.00     0.087 C 
ATOM     48  H   LIG d   1       3.922  -9.264  -6.722  0.00  0.00     0.062 H 
ATOM     49  H   LIG d   1       5.699  -9.173  -6.767  0.00  0.00     0.062 H 
BRANCH  47  50
ATOM     50  C   LIG d   1       4.853  -9.094  -4.809  0.00  0.00     0.067 C 
ATOM     51  O   LIG d   1       3.819  -9.251  -4.182  0.00  0.00    -0.547 OA
ATOM     52  O   LIG d   1       5.929  -9.183  -4.243  0.00  0.00    -0.547 OA
ENDBRANCH  47  50
ENDBRANCH  46  47
ENDBRANCH  43  46
ENDBRANCH  40  43
ENDBRANCH   4  40
TORSDOF 8
ENDMDL
MODEL 6
REMARK VINA RESULT:      -6.0      2.300      3.414
REMARK  8 active torsions:
REMARK  status: ('A' for Active; 'I' for Inactive)
REMARK    1  A    between atoms: C_4  and  C_7 
REMARK    2  A    between atoms: C_7  and  C_9 
REMARK    3  A    between atoms: C_7  and  N_16 
REMARK    4  A    between atoms: N_19  and  C_22 
REMARK    5  A    between atoms: C_22  and  C_23 
REMARK    6  A    between atoms: C_23  and  O_24 
REMARK    7  A    between atoms: O_24  and  C_25 
REMARK    8  A    between atoms: C_25  and  C_26 
ROOT
ATOM      1  N   LIG d   1       4.877  -2.644  -5.906  0.00  0.00    -0.281 N 
ATOM      2  C   LIG d   1       4.873  -2.990  -7.335  0.00  0.00     0.040 C 
ATOM      3  C   LIG d   1       4.224  -4.363  -7.522  0.00  0.00    -0.019 C 
ATOM      4  N   LIG d   1       4.975  -5.369  -6.758  0.00  0.00     0.239 N 
ATOM      5  C   LIG d   1       4.949  -5.023  -5.331  0.00  0.00    -0.019 C 
ATOM      6  C   LIG d   1       5.605  -3.656  -5.126  0.00  0.00     0.040 C 
ATOM      7  H   LIG d   1       4.307  -2.242  -7.889  0.00  0.00     0.048 H 
ATOM      8  H   LIG d   1       5.898  -3.020  -7.705  0.00  0.00     0.048 H 
ATOM      9  H   LIG d   1       3.194  -4.330  -7.164  0.00  0.00     0.083 H 
ATOM     10  H   LIG d   1       4.233  -4.628  -8.579  0.00  0.00     0.083 H 
ATOM     11  H   LIG d   1       3.916  -4.986  -4.985  0.00  0.00     0.083 H 
ATOM     12  H   LIG d   1       5.496  -5.777  -4.765  0.00  0.00     0.083 H 
ATOM     13  H   LIG d   1       6.642  -3.696  -5.459  0.00  0.00     0.048 H 
ATOM     14  H   LIG d   1       5.573  -3.392  -4.069  0.00  0.00     0.048 H 
ATOM     15  H   LIG d   1       5.930  -5.391  -7.082  0.00  0.00     0.203 HD
ENDROOT
BRANCH   1  16
ATOM     16  C   LIG d   1       5.443  -1.306  -5.691  0.00  0.00     0.061 C 
ATOM     17  H   LIG d   1       6.531  -1.361  -5.729  0.00  0.00     0.056 H 
BRANCH  16  18
ATOM     18  C   LIG d   1       5.015  -0.791  -4.340  0.00  0.00    -0.026 A 
ATOM     19  C   LIG d   1       3.908  -1.332  -3.713  0.00  0.00    -0.057 A 
ATOM     20  C   LIG d   1       3.516  -0.859  -2.475  0.00  0.00    -0.061 A 
ATOM     21  H   LIG d   1       3.350  -2.123  -4.190  0.00  0.00     0.062 H 
ATOM     22  C   LIG d   1       4.230   0.154  -1.863  0.00  0.00    -0.062 A 
ATOM     23  H   LIG d   1       2.651  -1.282  -1.984  0.00  0.00     0.062 H 
ATOM     24  C   LIG d   1       5.338   0.694  -2.490  0.00  0.00    -0.061 A 
ATOM     25  H   LIG d   1       3.921   0.526  -0.898  0.00  0.00     0.062 H 
ATOM     26  C   LIG d   1       5.729   0.223  -3.729  0.00  0.00    -0.057 A 
ATOM     27  H   LIG d   1       5.896   1.486  -2.012  0.00  0.00     0.062 H 
ATOM     28  H   LIG d   1       6.594   0.646  -4.219  0.00  0.00     0.062 H 
ENDBRANCH  16  18
BRANCH  16  29
ATOM     29  C   LIG d   1       4.948  -0.372  -6.765  0.00  0.00    -0.026 A 
ATOM     30  C   LIG d   1       3.595  -0.114  -6.887  0.00  0.00    -0.055 A 
ATOM     31  C   LIG d   1       3.142   0.746  -7.868  0.00  0.00    -0.043 A 
ATOM     32  H   LIG d   1       2.895  -0.582  -6.212  0.00  0.00     0.062 H 
ATOM     33  C   LIG d   1       4.040   1.341  -8.736  0.00  0.00     0.041 A 
ATOM     34  H   LIG d   1       2.085   0.951  -7.959  0.00  0.00     0.063 H 
ATOM     35  C   LIG d   1       5.393   1.078  -8.617  0.00  0.00    -0.043 A 
ATOM     36 CL   LIG d   1       3.469   2.418  -9.972  0.00  0.00    -0.084 Cl
ATOM     37  C   LIG d   1       5.847   0.221  -7.632  0.00  0.00    -0.055 A 
ATOM     38  H   LIG d   1       6.095   1.542  -9.294  0.00  0.00     0.063 H 
ATOM     39  H   LIG d   1       6.903   0.016  -7.540  0.00  0.00     0.062 H 
ENDBRANCH  16  29
ENDBRANCH   1  16
BRANCH   4  40
ATOM     40  C   LIG d   1       4.361  -6.690  -6.953  0.00  0.00    -0.008 C 
ATOM     41  H   LIG d   1       4.972  -7.449  -6.466  0.00  0.00     0.084 H 
ATOM     42  H   LIG d   1       3.362  -6.693  -6.519  0.00  0.00     0.084 H 
BRANCH  40  43
ATOM     43  C   LIG d   1       4.266  -6.993  -8.450  0.00  0.00     0.088 C 
ATOM     44  H   LIG d   1       4.495  -6.092  -9.018  0.00  0.00     0.061 H 
ATOM     45  H   LIG d   1       4.977  -7.777  -8.708  0.00  0.00     0.061 H 
BRANCH  43  46
ATOM     46  O   LIG d   1       2.941  -7.429  -8.765  0.00  0.00    -0.369 OA
BRANCH  46  47
ATOM     47  C   LIG d   1       2.546  -7.162 -10.112  0.00  0.00     0.087 C 
ATOM     48  H   LIG d   1       3.419  -6.868 -10.695  0.00  0.00     0.062 H 
ATOM     49  H   LIG d   1       2.105  -8.060 -10.546  0.00  0.00     0.062 H 
BRANCH  47  50
ATOM     50  C   LIG d   1       1.533  -6.047 -10.126  0.00  0.00     0.067 C 
ATOM     51  O   LIG d   1       0.342  -6.306 -10.164  0.00  0.00    -0.547 OA
ATOM     52  O   LIG d   1       1.904  -4.886 -10.101  0.00  0.00    -0.547 OA
ENDBRANCH  47  50
ENDBRANCH  46  47
ENDBRANCH  43  46
ENDBRANCH  40  43
ENDBRANCH   4  40
TORSDOF 8
ENDMDL
MODEL 7
REMARK VINA RESULT:      -6.0      6.450      9.313
REMARK  8 active torsions:
REMARK  status: ('A' for Active; 'I' for Inactive)
REMARK    1  A    between atoms: C_4  and  C_7 
REMARK    2  A    between atoms: C_7  and  C_9 
REMARK    3  A    between atoms: C_7  and  N_16 
REMARK    4  A    between atoms: N_19  and  C_22 
REMARK    5  A    between atoms: C_22  and  C_23 
REMARK    6  A    between atoms: C_23  and  O_24 
REMARK    7  A    between atoms: O_24  and  C_25 
REMARK    8  A    between atoms: C_25  and  C_26 
ROOT
ATOM      1  N   LIG d   1       7.133  -0.333  -5.011  0.00  0.00    -0.281 N 
ATOM      2  C   LIG d   1       7.563   0.358  -6.235  0.00  0.00     0.040 C 
ATOM      3  C   LIG d   1       8.618   1.407  -5.880  0.00  0.00    -0.019 C 
ATOM      4  N   LIG d   1       8.050   2.371  -4.927  0.00  0.00     0.239 N 
ATOM      5  C   LIG d   1       7.648   1.670  -3.700  0.00  0.00    -0.019 C 
ATOM      6  C   LIG d   1       6.584   0.623  -4.037  0.00  0.00     0.040 C 
ATOM      7  H   LIG d   1       7.989  -0.365  -6.930  0.00  0.00     0.048 H 
ATOM      8  H   LIG d   1       6.705   0.847  -6.698  0.00  0.00     0.048 H 
ATOM      9  H   LIG d   1       9.482   0.917  -5.430  0.00  0.00     0.083 H 
ATOM     10  H   LIG d   1       8.928   1.931  -6.785  0.00  0.00     0.083 H 
ATOM     11  H   LIG d   1       8.516   1.178  -3.262  0.00  0.00     0.083 H 
ATOM     12  H   LIG d   1       7.239   2.388  -2.990  0.00  0.00     0.083 H 
ATOM     13  H   LIG d   1       5.711   1.115  -4.463  0.00  0.00     0.048 H 
ATOM     14  H   LIG d   1       6.297   0.092  -3.130  0.00  0.00     0.048 H 
ATOM     15  H   LIG d   1       7.244   2.816  -5.340  0.00  0.00     0.203 HD
ENDROOT
BRANCH   1  16
ATOM     16  C   LIG d   1       6.159  -1.389  -5.317  0.00  0.00     0.061 C 
ATOM     17  H   LIG d   1       5.823  -1.285  -6.349  0.00  0.00     0.056 H 
BRANCH  16  18
ATOM     18  C   LIG d   1       4.977  -1.267  -4.389  0.00  0.00    -0.026 A 
ATOM     19  C   LIG d   1       3.878  -0.517  -4.764  0.00  0.00    -0.057 A 
ATOM     20  C   LIG d   1       2.794  -0.407  -3.913  0.00  0.00    -0.061 A 
ATOM     21  H   LIG d   1       3.866  -0.018  -5.722  0.00  0.00     0.062 H 
ATOM     22  C   LIG d   1       2.809  -1.046  -2.688  0.00  0.00    -0.062 A 
ATOM     23  H   LIG d   1       1.935   0.179  -4.206  0.00  0.00     0.062 H 
ATOM     24  C   LIG d   1       3.908  -1.797  -2.313  0.00  0.00    -0.061 A 
ATOM     25  H   LIG d   1       1.964  -0.956  -2.022  0.00  0.00     0.062 H 
ATOM     26  C   LIG d   1       4.993  -1.906  -3.164  0.00  0.00    -0.057 A 
ATOM     27  H   LIG d   1       3.919  -2.296  -1.356  0.00  0.00     0.062 H 
ATOM     28  H   LIG d   1       5.851  -2.493  -2.871  0.00  0.00     0.062 H 
ENDBRANCH  16  18
BRANCH  16  29
ATOM     29  C   LIG d   1       6.805  -2.738  -5.133  0.00  0.00    -0.026 A 
ATOM     30  C   LIG d   1       6.265  -3.853  -5.746  0.00  0.00    -0.055 A 
ATOM     31  C   LIG d   1       6.861  -5.089  -5.581  0.00  0.00    -0.043 A 
ATOM     32  H   LIG d   1       5.380  -3.757  -6.356  0.00  0.00     0.062 H 
ATOM     33  C   LIG d   1       7.992  -5.212  -4.794  0.00  0.00     0.041 A 
ATOM     34  H   LIG d   1       6.441  -5.959  -6.064  0.00  0.00     0.063 H 
ATOM     35  C   LIG d   1       8.529  -4.097  -4.176  0.00  0.00    -0.043 A 
ATOM     36 CL   LIG d   1       8.737  -6.766  -4.582  0.00  0.00    -0.084 Cl
ATOM     37  C   LIG d   1       7.935  -2.860  -4.345  0.00  0.00    -0.055 A 
ATOM     38  H   LIG d   1       9.412  -4.192  -3.562  0.00  0.00     0.063 H 
ATOM     39  H   LIG d   1       8.355  -1.990  -3.863  0.00  0.00     0.062 H 
ENDBRANCH  16  29
ENDBRANCH   1  16
BRANCH   4  40
ATOM     40  C   LIG d   1       9.058   3.389  -4.601  0.00  0.00    -0.008 C 
ATOM     41  H   LIG d   1       9.682   3.575  -5.474  0.00  0.00     0.084 H 
ATOM     42  H   LIG d   1       8.560   4.311  -4.305  0.00  0.00     0.084 H 
BRANCH  40  43
ATOM     43  C   LIG d   1       9.932   2.890  -3.447  0.00  0.00     0.088 C 
ATOM     44  H   LIG d   1       9.491   1.991  -3.020  0.00  0.00     0.061 H 
ATOM     45  H   LIG d   1      10.931   2.666  -3.818  0.00  0.00     0.061 H 
BRANCH  43  46
ATOM     46  O   LIG d   1      10.015   3.903  -2.441  0.00  0.00    -0.369 OA
BRANCH  46  47
ATOM     47  C   LIG d   1       9.918   5.236  -2.948  0.00  0.00     0.087 C 
ATOM     48  H   LIG d   1      10.730   5.416  -3.653  0.00  0.00     0.062 H 
ATOM     49  H   LIG d   1       8.962   5.362  -3.457  0.00  0.00     0.062 H 
BRANCH  47  50
ATOM     50  C   LIG d   1      10.014   6.216  -1.808  0.00  0.00     0.067 C 
ATOM     51  O   LIG d   1      10.976   6.185  -1.058  0.00  0.00    -0.547 OA
ATOM     52  O   LIG d   1       9.132   7.039  -1.635  0.00  0.00    -0.547 OA
ENDBRANCH  47  50
ENDBRANCH  46  47
ENDBRANCH  43  46
ENDBRANCH  40  43
ENDBRANCH   4  40
TORSDOF 8
ENDMDL
MODEL 8
REMARK VINA RESULT:      -5.9      4.616      6.407
REMARK  8 active torsions:
REMARK  status: ('A' for Active; 'I' for Inactive)
REMARK    1  A    between atoms: C_4  and  C_7 
REMARK    2  A    between atoms: C_7  and  C_9 
REMARK    3  A    between atoms: C_7  and  N_16 
REMARK    4  A    between atoms: N_19  and  C_22 
REMARK    5  A    between atoms: C_22  and  C_23 
REMARK    6  A    between atoms: C_23  and  O_24 
REMARK    7  A    between atoms: O_24  and  C_25 
REMARK    8  A    between atoms: C_25  and  C_26 
ROOT
ATOM      1  N   LIG d   1       5.641  -1.405  -6.173  0.00  0.00    -0.281 N 
ATOM      2  C   LIG d   1       5.664  -2.397  -7.258  0.00  0.00     0.040 C 
ATOM      3  C   LIG d   1       5.436  -1.690  -8.596  0.00  0.00    -0.019 C 
ATOM      4  N   LIG d   1       4.140  -0.997  -8.569  0.00  0.00     0.239 N 
ATOM      5  C   LIG d   1       4.141   0.007  -7.497  0.00  0.00    -0.019 C 
ATOM      6  C   LIG d   1       4.358  -0.686  -6.150  0.00  0.00     0.040 C 
ATOM      7  H   LIG d   1       6.632  -2.897  -7.273  0.00  0.00     0.048 H 
ATOM      8  H   LIG d   1       4.876  -3.132  -7.096  0.00  0.00     0.048 H 
ATOM      9  H   LIG d   1       6.232  -0.965  -8.764  0.00  0.00     0.083 H 
ATOM     10  H   LIG d   1       5.438  -2.425  -9.401  0.00  0.00     0.083 H 
ATOM     11  H   LIG d   1       4.945   0.723  -7.671  0.00  0.00     0.083 H 
ATOM     12  H   LIG d   1       3.184   0.528  -7.487  0.00  0.00     0.083 H 
ATOM     13  H   LIG d   1       3.549  -1.393  -5.970  0.00  0.00     0.048 H 
ATOM     14  H   LIG d   1       4.374   0.060  -5.356  0.00  0.00     0.048 H 
ATOM     15  H   LIG d   1       3.405  -1.668  -8.402  0.00  0.00     0.203 HD
ENDROOT
BRANCH   1  16
ATOM     16  C   LIG d   1       5.913  -2.038  -4.876  0.00  0.00     0.061 C 
ATOM     17  H   LIG d   1       5.361  -2.975  -4.806  0.00  0.00     0.056 H 
BRANCH  16  18
ATOM     18  C   LIG d   1       5.479  -1.115  -3.766  0.00  0.00    -0.026 A 
ATOM     19  C   LIG d   1       5.910   0.198  -3.750  0.00  0.00    -0.057 A 
ATOM     20  C   LIG d   1       5.511   1.044  -2.732  0.00  0.00    -0.061 A 
ATOM     21  H   LIG d   1       6.558   0.563  -4.533  0.00  0.00     0.062 H 
ATOM     22  C   LIG d   1       4.681   0.578  -1.730  0.00  0.00    -0.062 A 
ATOM     23  H   LIG d   1       5.848   2.071  -2.720  0.00  0.00     0.062 H 
ATOM     24  C   LIG d   1       4.248  -0.736  -1.747  0.00  0.00    -0.061 A 
ATOM     25  H   LIG d   1       4.373   1.237  -0.933  0.00  0.00     0.062 H 
ATOM     26  C   LIG d   1       4.649  -1.582  -2.764  0.00  0.00    -0.057 A 
ATOM     27  H   LIG d   1       3.600  -1.100  -0.964  0.00  0.00     0.062 H 
ATOM     28  H   LIG d   1       4.312  -2.608  -2.776  0.00  0.00     0.062 H 
ENDBRANCH  16  18
BRANCH  16  29
ATOM     29  C   LIG d   1       7.390  -2.314  -4.751  0.00  0.00    -0.026 A 
ATOM     30  C   LIG d   1       8.298  -1.541  -5.450  0.00  0.00    -0.055 A 
ATOM     31  C   LIG d   1       9.652  -1.790  -5.331  0.00  0.00    -0.043 A 
ATOM     32  H   LIG d   1       7.950  -0.740  -6.085  0.00  0.00     0.062 H 
ATOM     33  C   LIG d   1      10.098  -2.820  -4.522  0.00  0.00     0.041 A 
ATOM     34  H   LIG d   1      10.362  -1.183  -5.874  0.00  0.00     0.063 H 
ATOM     35  C   LIG d   1       9.187  -3.597  -3.828  0.00  0.00    -0.043 A 
ATOM     36 CL   LIG d   1      11.799  -3.137  -4.378  0.00  0.00    -0.084 Cl
ATOM     37  C   LIG d   1       7.834  -3.344  -3.943  0.00  0.00    -0.055 A 
ATOM     38  H   LIG d   1       9.535  -4.401  -3.196  0.00  0.00     0.063 H 
ATOM     39  H   LIG d   1       7.124  -3.950  -3.400  0.00  0.00     0.062 H 
ENDBRANCH  16  29
ENDBRANCH   1  16
BRANCH   4  40
ATOM     40  C   LIG d   1       3.913  -0.334  -9.861  0.00  0.00    -0.008 C 
ATOM     41  H   LIG d   1       4.621   0.487  -9.977  0.00  0.00     0.084 H 
ATOM     42  H   LIG d   1       4.053  -1.052 -10.668  0.00  0.00     0.084 H 
BRANCH  40  43
ATOM     43  C   LIG d   1       2.485   0.214  -9.909  0.00  0.00     0.088 C 
ATOM     44  H   LIG d   1       2.367   0.989  -9.152  0.00  0.00     0.061 H 
ATOM     45  H   LIG d   1       2.290   0.634 -10.895  0.00  0.00     0.061 H 
BRANCH  43  46
ATOM     46  O   LIG d   1       1.560  -0.846  -9.652  0.00  0.00    -0.369 OA
BRANCH  46  47
ATOM     47  C   LIG d   1       1.388  -1.746 -10.749  0.00  0.00     0.087 C 
ATOM     48  H   LIG d   1       0.402  -1.597 -11.190  0.00  0.00     0.062 H 
ATOM     49  H   LIG d   1       2.154  -1.554 -11.500  0.00  0.00     0.062 H 
BRANCH  47  50
ATOM     50  C   LIG d   1       1.509  -3.165 -10.258  0.00  0.00     0.067 C 
ATOM     51  O   LIG d   1       0.629  -3.973 -10.505  0.00  0.00    -0.547 OA
ATOM     52  O   LIG d   1       2.486  -3.507  -9.615  0.00  0.00    -0.547 OA
ENDBRANCH  47  50
ENDBRANCH  46  47
ENDBRANCH  43  46
ENDBRANCH  40  43
ENDBRANCH   4  40
TORSDOF 8
ENDMDL
MODEL 9
REMARK VINA RESULT:      -5.9      2.906      5.059
REMARK  8 active torsions:
REMARK  status: ('A' for Active; 'I' for Inactive)
REMARK    1  A    between atoms: C_4  and  C_7 
REMARK    2  A    between atoms: C_7  and  C_9 
REMARK    3  A    between atoms: C_7  and  N_16 
REMARK    4  A    between atoms: N_19  and  C_22 
REMARK    5  A    between atoms: C_22  and  C_23 
REMARK    6  A    between atoms: C_23  and  O_24 
REMARK    7  A    between atoms: O_24  and  C_25 
REMARK    8  A    between atoms: C_25  and  C_26 
ROOT
ATOM      1  N   LIG d   1       4.391  -1.891  -7.320  0.00  0.00    -0.281 N 
ATOM      2  C   LIG d   1       4.373  -2.910  -6.261  0.00  0.00     0.040 C 
ATOM      3  C   LIG d   1       5.289  -4.069  -6.658  0.00  0.00    -0.019 C 
ATOM      4  N   LIG d   1       4.826  -4.648  -7.926  0.00  0.00     0.239 N 
ATOM      5  C   LIG d   1       4.873  -3.625  -8.980  0.00  0.00    -0.019 C 
ATOM      6  C   LIG d   1       3.953  -2.462  -8.602  0.00  0.00     0.040 C 
ATOM      7  H   LIG d   1       4.726  -2.471  -5.328  0.00  0.00     0.048 H 
ATOM      8  H   LIG d   1       3.356  -3.279  -6.128  0.00  0.00     0.048 H 
ATOM      9  H   LIG d   1       6.309  -3.702  -6.776  0.00  0.00     0.083 H 
ATOM     10  H   LIG d   1       5.266  -4.833  -5.880  0.00  0.00     0.083 H 
ATOM     11  H   LIG d   1       5.895  -3.260  -9.086  0.00  0.00     0.083 H 
ATOM     12  H   LIG d   1       4.541  -4.060  -9.922  0.00  0.00     0.083 H 
ATOM     13  H   LIG d   1       2.929  -2.824  -8.508  0.00  0.00     0.048 H 
ATOM     14  H   LIG d   1       3.999  -1.697  -9.376  0.00  0.00     0.048 H 
ATOM     15  H   LIG d   1       3.878  -4.977  -7.819  0.00  0.00     0.203 HD
ENDROOT
BRANCH   1  16
ATOM     16  C   LIG d   1       3.565  -0.733  -6.950  0.00  0.00     0.061 C 
ATOM     17  H   LIG d   1       2.511  -0.995  -7.042  0.00  0.00     0.056 H 
BRANCH  16  18
ATOM     18  C   LIG d   1       3.877   0.420  -7.869  0.00  0.00    -0.026 A 
ATOM     19  C   LIG d   1       5.175   0.635  -8.293  0.00  0.00    -0.057 A 
ATOM     20  C   LIG d   1       5.461   1.693  -9.136  0.00  0.00    -0.061 A 
ATOM     21  H   LIG d   1       5.966  -0.023  -7.965  0.00  0.00     0.062 H 
ATOM     22  C   LIG d   1       4.448   2.536  -9.556  0.00  0.00    -0.062 A 
ATOM     23  H   LIG d   1       6.475   1.861  -9.467  0.00  0.00     0.062 H 
ATOM     24  C   LIG d   1       3.150   2.320  -9.133  0.00  0.00    -0.061 A 
ATOM     25  H   LIG d   1       4.673   3.364 -10.210  0.00  0.00     0.062 H 
ATOM     26  C   LIG d   1       2.865   1.263  -8.288  0.00  0.00    -0.057 A 
ATOM     27  H   LIG d   1       2.359   2.979  -9.460  0.00  0.00     0.062 H 
ATOM     28  H   LIG d   1       1.850   1.095  -7.958  0.00  0.00     0.062 H 
ENDBRANCH  16  18
BRANCH  16  29
ATOM     29  C   LIG d   1       3.864  -0.337  -5.527  0.00  0.00    -0.026 A 
ATOM     30  C   LIG d   1       2.835   0.038  -4.684  0.00  0.00    -0.055 A 
ATOM     31  C   LIG d   1       3.107   0.396  -3.377  0.00  0.00    -0.043 A 
ATOM     32  H   LIG d   1       1.817   0.047  -5.045  0.00  0.00     0.062 H 
ATOM     33  C   LIG d   1       4.412   0.389  -2.916  0.00  0.00     0.041 A 
ATOM     34  H   LIG d   1       2.302   0.684  -2.717  0.00  0.00     0.063 H 
ATOM     35  C   LIG d   1       5.442   0.019  -3.763  0.00  0.00    -0.043 A 
ATOM     36 CL   LIG d   1       4.755   0.844  -1.276  0.00  0.00    -0.084 Cl
ATOM     37  C   LIG d   1       5.168  -0.344  -5.067  0.00  0.00    -0.055 A 
ATOM     38  H   LIG d   1       6.461   0.013  -3.403  0.00  0.00     0.063 H 
ATOM     39  H   LIG d   1       5.972  -0.633  -5.727  0.00  0.00     0.062 H 
ENDBRANCH  16  29
ENDBRANCH   1  16
BRANCH   4  40
ATOM     40  C   LIG d   1       5.696  -5.772  -8.297  0.00  0.00    -0.008 C 
ATOM     41  H   LIG d   1       5.543  -6.018  -9.348  0.00  0.00     0.084 H 
ATOM     42  H   LIG d   1       6.737  -5.495  -8.136  0.00  0.00     0.084 H 
BRANCH  40  43
ATOM     43  C   LIG d   1       5.353  -6.989  -7.434  0.00  0.00     0.088 C 
ATOM     44  H   LIG d   1       6.015  -7.815  -7.692  0.00  0.00     0.061 H 
ATOM     45  H   LIG d   1       5.480  -6.735  -6.382  0.00  0.00     0.061 H 
BRANCH  43  46
ATOM     46  O   LIG d   1       3.996  -7.374  -7.670  0.00  0.00    -0.369 OA
BRANCH  46  47
ATOM     47  C   LIG d   1       3.722  -7.731  -9.026  0.00  0.00     0.087 C 
ATOM     48  H   LIG d   1       4.524  -7.367  -9.668  0.00  0.00     0.062 H 
ATOM     49  H   LIG d   1       3.654  -8.816  -9.109  0.00  0.00     0.062 H 
BRANCH  47  50
ATOM     50  C   LIG d   1       2.416  -7.112  -9.454  0.00  0.00     0.067 C 
ATOM     51  O   LIG d   1       1.515  -7.819  -9.872  0.00  0.00    -0.547 OA
ATOM     52  O   LIG d   1       2.262  -5.905  -9.383  0.00  0.00    -0.547 OA
ENDBRANCH  47  50
ENDBRANCH  46  47
ENDBRANCH  43  46
ENDBRANCH  40  43
ENDBRANCH   4  40
TORSDOF 8
ENDMDL
MODEL 10
REMARK VINA RESULT:      -5.8      6.160      9.121
REMARK  8 active torsions:
REMARK  status: ('A' for Active; 'I' for Inactive)
REMARK    1  A    between atoms: C_4  and  C_7 
REMARK    2  A    between atoms: C_7  and  C_9 
REMARK    3  A    between atoms: C_7  and  N_16 
REMARK    4  A    between atoms: N_19  and  C_22 
REMARK    5  A    between atoms: C_22  and  C_23 
REMARK    6  A    between atoms: C_23  and  O_24 
REMARK    7  A    between atoms: O_24  and  C_25 
REMARK    8  A    between atoms: C_25  and  C_26 
ROOT
ATOM      1  N   LIG d   1       6.682  -1.441  -6.121  0.00  0.00    -0.281 N 
ATOM      2  C   LIG d   1       7.598  -2.030  -7.109  0.00  0.00     0.040 C 
ATOM      3  C   LIG d   1       8.235  -0.913  -7.938  0.00  0.00    -0.019 C 
ATOM      4  N   LIG d   1       7.183  -0.145  -8.617  0.00  0.00     0.239 N 
ATOM      5  C   LIG d   1       6.291   0.457  -7.618  0.00  0.00    -0.019 C 
ATOM      6  C   LIG d   1       5.637  -0.649  -6.786  0.00  0.00     0.040 C 
ATOM      7  H   LIG d   1       8.378  -2.590  -6.593  0.00  0.00     0.048 H 
ATOM      8  H   LIG d   1       7.043  -2.700  -7.767  0.00  0.00     0.048 H 
ATOM      9  H   LIG d   1       8.802  -0.252  -7.282  0.00  0.00     0.083 H 
ATOM     10  H   LIG d   1       8.904  -1.348  -8.681  0.00  0.00     0.083 H 
ATOM     11  H   LIG d   1       6.867   1.110  -6.963  0.00  0.00     0.083 H 
ATOM     12  H   LIG d   1       5.518   1.036  -8.123  0.00  0.00     0.083 H 
ATOM     13  H   LIG d   1       5.050  -1.296  -7.438  0.00  0.00     0.048 H 
ATOM     14  H   LIG d   1       4.987  -0.203  -6.034  0.00  0.00     0.048 H 
ATOM     15  H   LIG d   1       6.651  -0.761  -9.215  0.00  0.00     0.203 HD
ENDROOT
BRANCH   1  16
ATOM     16  C   LIG d   1       6.092  -2.480  -5.267  0.00  0.00     0.061 C 
ATOM     17  H   LIG d   1       5.339  -3.030  -5.831  0.00  0.00     0.056 H 
BRANCH  16  18
ATOM     18  C   LIG d   1       5.449  -1.836  -4.065  0.00  0.00    -0.026 A 
ATOM     19  C   LIG d   1       5.865  -0.587  -3.644  0.00  0.00    -0.057 A 
ATOM     20  C   LIG d   1       5.274   0.003  -2.542  0.00  0.00    -0.061 A 
ATOM     21  H   LIG d   1       6.650  -0.072  -4.177  0.00  0.00     0.062 H 
ATOM     22  C   LIG d   1       4.268  -0.656  -1.861  0.00  0.00    -0.062 A 
ATOM     23  H   LIG d   1       5.599   0.980  -2.214  0.00  0.00     0.062 H 
ATOM     24  C   LIG d   1       3.851  -1.905  -2.283  0.00  0.00    -0.061 A 
ATOM     25  H   LIG d   1       3.810  -0.196  -0.998  0.00  0.00     0.062 H 
ATOM     26  C   LIG d   1       4.443  -2.496  -3.384  0.00  0.00    -0.057 A 
ATOM     27  H   LIG d   1       3.065  -2.419  -1.750  0.00  0.00     0.062 H 
ATOM     28  H   LIG d   1       4.117  -3.472  -3.712  0.00  0.00     0.062 H 
ENDBRANCH  16  18
BRANCH  16  29
ATOM     29  C   LIG d   1       7.171  -3.429  -4.811  0.00  0.00    -0.026 A 
ATOM     30  C   LIG d   1       7.201  -4.724  -5.295  0.00  0.00    -0.055 A 
ATOM     31  C   LIG d   1       8.194  -5.592  -4.882  0.00  0.00    -0.043 A 
ATOM     32  H   LIG d   1       6.452  -5.055  -5.998  0.00  0.00     0.062 H 
ATOM     33  C   LIG d   1       9.151  -5.169  -3.976  0.00  0.00     0.041 A 
ATOM     34  H   LIG d   1       8.220  -6.603  -5.264  0.00  0.00     0.063 H 
ATOM     35  C   LIG d   1       9.115  -3.875  -3.488  0.00  0.00    -0.043 A 
ATOM     36 CL   LIG d   1      10.394  -6.262  -3.453  0.00  0.00    -0.084 Cl
ATOM     37  C   LIG d   1       8.126  -3.006  -3.906  0.00  0.00    -0.055 A 
ATOM     38  H   LIG d   1       9.863  -3.544  -2.781  0.00  0.00     0.063 H 
ATOM     39  H   LIG d   1       8.100  -1.995  -3.525  0.00  0.00     0.062 H 
ENDBRANCH  16  29
ENDBRANCH   1  16
BRANCH   4  40
ATOM     40  C   LIG d   1       7.796   0.916  -9.427  0.00  0.00    -0.008 C 
ATOM     41  H   LIG d   1       8.780   0.592  -9.765  0.00  0.00     0.084 H 
ATOM     42  H   LIG d   1       7.165   1.124 -10.291  0.00  0.00     0.084 H 
BRANCH  40  43
ATOM     43  C   LIG d   1       7.938   2.185  -8.583  0.00  0.00     0.088 C 
ATOM     44  H   LIG d   1       7.048   2.313  -7.968  0.00  0.00     0.061 H 
ATOM     45  H   LIG d   1       8.816   2.099  -7.943  0.00  0.00     0.061 H 
BRANCH  43  46
ATOM     46  O   LIG d   1       8.087   3.316  -9.446  0.00  0.00    -0.369 OA
BRANCH  46  47
ATOM     47  C   LIG d   1       8.953   4.330  -8.930  0.00  0.00     0.087 C 
ATOM     48  H   LIG d   1       8.721   4.505  -7.879  0.00  0.00     0.062 H 
ATOM     49  H   LIG d   1       9.989   4.005  -9.024  0.00  0.00     0.062 H 
BRANCH  47  50
ATOM     50  C   LIG d   1       8.752   5.604  -9.709  0.00  0.00     0.067 C 
ATOM     51  O   LIG d   1       8.836   6.682  -9.145  0.00  0.00    -0.547 OA
ATOM     52  O   LIG d   1       8.506   5.558 -10.902  0.00  0.00    -0.547 OA
ENDBRANCH  47  50
ENDBRANCH  46  47
ENDBRANCH  43  46
ENDBRANCH  40  43
ENDBRANCH   4  40
TORSDOF 8
ENDMDL
