MODEL 1
REMARK VINA RESULT:      -6.4      0.000      0.000
REMARK  10 active torsions:
REMARK  status: ('A' for Active; 'I' for Inactive)
REMARK    1  A    between atoms: C_1  and  C_2 
REMARK    2  A    between atoms: C_4  and  O_29 
REMARK    3  A    between atoms: C_6  and  C_26 
REMARK    4  A    between atoms: C_8  and  O_16 
REMARK    5  A    between atoms: C_11  and  C_15 
REMARK    6  A    between atoms: O_16  and  C_17 
REMARK    7  A    between atoms: C_17  and  C_19 
REMARK    8  A    between atoms: C_22  and  O_25 
REMARK    9  A    between atoms: C_26  and  C_27 
REMARK   10  A    between atoms: C_26  and  C_28 
ROOT
ATOM      1  C   LIG d   1       3.510  -0.720  -3.344  0.00  0.00    -0.074 C 
ATOM      2  C   LIG d   1       4.309  -1.735  -3.398  0.00  0.00    -0.057 C 
ATOM      3  C   LIG d   1       4.379  -2.709  -4.533  0.00  0.00     0.080 C 
ATOM      4  H   LIG d   1       3.567  -2.564  -5.243  0.00  0.00     0.064 H 
ATOM      5  C   LIG d   1       5.727  -2.492  -5.244  0.00  0.00     0.028 C 
ATOM      6  H   LIG d   1       5.594  -2.749  -6.305  0.00  0.00     0.037 H 
ATOM      7  C   LIG d   1       6.210  -1.048  -5.157  0.00  0.00     0.113 C 
ATOM      8  H   LIG d   1       7.018  -0.929  -5.906  0.00  0.00     0.074 H 
ATOM      9  C   LIG d   1       6.789  -0.684  -3.806  0.00  0.00     0.006 C 
ATOM     10  C   LIG d   1       6.857   0.783  -3.523  0.00  0.00    -0.073 C 
ATOM     11  C   LIG d   1       5.911   1.614  -3.233  0.00  0.00    -0.085 C 
ATOM     12  C   LIG d   1       4.438   1.526  -3.121  0.00  0.00    -0.031 C 
ATOM     13  C   LIG d   1       3.869   0.357  -2.329  0.00  0.00    -0.029 C 
ATOM     14  H   LIG d   1       4.928  -1.936  -2.516  0.00  0.00     0.060 H 
ATOM     15  H   LIG d   1       6.284  -1.181  -2.992  0.00  0.00     0.035 H 
ATOM     16  H   LIG d   1       7.835  -1.049  -3.785  0.00  0.00     0.035 H 
ATOM     17  H   LIG d   1       6.320   2.639  -3.017  0.00  0.00     0.057 H 
ATOM     18  H   LIG d   1       4.083   2.453  -2.639  0.00  0.00     0.031 H 
ATOM     19  H   LIG d   1       4.012   1.531  -4.127  0.00  0.00     0.031 H 
ATOM     20  H   LIG d   1       2.971   0.663  -1.794  0.00  0.00     0.031 H 
ATOM     21  H   LIG d   1       4.610  -0.029  -1.634  0.00  0.00     0.031 H 
ENDROOT
BRANCH   7  22
ATOM     22  O   LIG d   1       5.168  -0.149  -5.526  0.00  0.00    -0.457 OA
BRANCH  22  23
ATOM     23  C   LIG d   1       5.179   0.314  -6.792  0.00  0.00     0.340 C 
ATOM     24  O   LIG d   1       6.117   0.978  -7.187  0.00  0.00    -0.245 OA
BRANCH  23  25
ATOM     25  C   LIG d   1       4.054   0.015  -7.697  0.00  0.00     0.059 A 
ATOM     26  C   LIG d   1       3.755  -1.309  -8.029  0.00  0.00    -0.044 A 
ATOM     27  C   LIG d   1       2.701  -1.584  -8.871  0.00  0.00    -0.019 A 
ATOM     28  H   LIG d   1       4.348  -2.115  -7.624  0.00  0.00     0.063 H 
ATOM     29  C   LIG d   1       1.940  -0.546  -9.398  0.00  0.00     0.117 A 
ATOM     30  H   LIG d   1       2.466  -2.607  -9.125  0.00  0.00     0.065 H 
ATOM     31  C   LIG d   1       2.238   0.772  -9.074  0.00  0.00    -0.019 A 
ATOM     32  C   LIG d   1       3.288   1.056  -8.229  0.00  0.00    -0.044 A 
ATOM     33  H   LIG d   1       1.645   1.576  -9.485  0.00  0.00     0.065 H 
ATOM     34  H   LIG d   1       3.519   2.081  -7.977  0.00  0.00     0.063 H 
BRANCH  29  35
ATOM     35  O   LIG d   1       0.905  -0.821 -10.230  0.00  0.00    -0.507 OA
ATOM     36  H   LIG d   1       0.070  -0.411  -9.968  0.00  0.00     0.292 HD
ENDBRANCH  29  35
ENDBRANCH  23  25
ENDBRANCH  22  23
ENDBRANCH   7  22
BRANCH   5  37
ATOM     37  C   LIG d   1       6.771  -3.440  -4.653  0.00  0.00    -0.038 C 
ATOM     38  H   LIG d   1       6.548  -3.616  -3.600  0.00  0.00     0.030 H 
BRANCH  37  39
ATOM     39  C   LIG d   1       6.739  -4.770  -5.410  0.00  0.00    -0.062 C 
ATOM     40  H   LIG d   1       7.713  -5.253  -5.340  0.00  0.00     0.023 H 
ATOM     41  H   LIG d   1       5.979  -5.418  -4.973  0.00  0.00     0.023 H 
ATOM     42  H   LIG d   1       6.498  -4.586  -6.457  0.00  0.00     0.023 H 
ENDBRANCH  37  39
BRANCH  37  43
ATOM     43  C   LIG d   1       8.161  -2.814  -4.783  0.00  0.00    -0.062 C 
ATOM     44  H   LIG d   1       8.085  -1.871  -5.325  0.00  0.00     0.023 H 
ATOM     45  H   LIG d   1       8.570  -2.629  -3.790  0.00  0.00     0.023 H 
ATOM     46  H   LIG d   1       8.817  -3.494  -5.326  0.00  0.00     0.023 H 
ENDBRANCH  37  43
ENDBRANCH   5  37
BRANCH   3  47
ATOM     47  O   LIG d   1       4.322  -4.050  -4.029  0.00  0.00    -0.387 OA
ATOM     48  H   LIG d   1       4.934  -4.659  -4.463  0.00  0.00     0.210 HD
ENDBRANCH   3  47
BRANCH  10  49
ATOM     49  C   LIG d   1       8.259   1.404  -3.581  0.00  0.00    -0.044 C 
ATOM     50  H   LIG d   1       8.613   1.598  -2.568  0.00  0.00     0.027 H 
ATOM     51  H   LIG d   1       8.942   0.716  -4.079  0.00  0.00     0.027 H 
ATOM     52  H   LIG d   1       8.218   2.342  -4.137  0.00  0.00     0.027 H 
ENDBRANCH  10  49
BRANCH   1  53
ATOM     53  C   LIG d   1       2.356  -0.482  -4.269  0.00  0.00    -0.044 C 
ATOM     54  H   LIG d   1       2.640   0.254  -5.022  0.00  0.00     0.027 H 
ATOM     55  H   LIG d   1       2.085  -1.416  -4.760  0.00  0.00     0.027 H 
ATOM     56  H   LIG d   1       1.505  -0.110  -3.701  0.00  0.00     0.027 H 
ENDBRANCH   1  53
TORSDOF 10
ENDMDL
MODEL 2
REMARK VINA RESULT:      -6.2      1.331      4.262
REMARK  10 active torsions:
REMARK  status: ('A' for Active; 'I' for Inactive)
REMARK    1  A    between atoms: C_1  and  C_2 
REMARK    2  A    between atoms: C_4  and  O_29 
REMARK    3  A    between atoms: C_6  and  C_26 
REMARK    4  A    between atoms: C_8  and  O_16 
REMARK    5  A    between atoms: C_11  and  C_15 
REMARK    6  A    between atoms: O_16  and  C_17 
REMARK    7  A    between atoms: C_17  and  C_19 
REMARK    8  A    between atoms: C_22  and  O_25 
REMARK    9  A    between atoms: C_26  and  C_27 
REMARK   10  A    between atoms: C_26  and  C_28 
ROOT
ATOM      1  C   LIG d   1       7.905  -1.095  -4.423  0.00  0.00    -0.074 C 
ATOM      2  C   LIG d   1       6.949  -0.777  -3.613  0.00  0.00    -0.057 C 
ATOM      3  C   LIG d   1       6.112   0.460  -3.722  0.00  0.00     0.080 C 
ATOM      4  H   LIG d   1       6.501   1.149  -4.468  0.00  0.00     0.064 H 
ATOM      5  C   LIG d   1       4.691   0.020  -4.120  0.00  0.00     0.028 C 
ATOM      6  H   LIG d   1       4.240   0.832  -4.709  0.00  0.00     0.037 H 
ATOM      7  C   LIG d   1       4.685  -1.249  -4.967  0.00  0.00     0.113 C 
ATOM      8  H   LIG d   1       3.679  -1.330  -5.425  0.00  0.00     0.074 H 
ATOM      9  C   LIG d   1       4.923  -2.512  -4.167  0.00  0.00     0.006 C 
ATOM     10  C   LIG d   1       5.366  -3.693  -4.970  0.00  0.00    -0.073 C 
ATOM     11  C   LIG d   1       6.511  -3.940  -5.515  0.00  0.00    -0.085 C 
ATOM     12  C   LIG d   1       7.788  -3.204  -5.647  0.00  0.00    -0.031 C 
ATOM     13  C   LIG d   1       8.349  -2.552  -4.392  0.00  0.00    -0.029 C 
ATOM     14  H   LIG d   1       6.790  -1.425  -2.743  0.00  0.00     0.060 H 
ATOM     15  H   LIG d   1       5.608  -2.359  -3.348  0.00  0.00     0.035 H 
ATOM     16  H   LIG d   1       3.956  -2.798  -3.708  0.00  0.00     0.035 H 
ATOM     17  H   LIG d   1       6.523  -4.956  -5.996  0.00  0.00     0.057 H 
ATOM     18  H   LIG d   1       8.548  -3.913  -6.016  0.00  0.00     0.031 H 
ATOM     19  H   LIG d   1       7.676  -2.452  -6.433  0.00  0.00     0.031 H 
ATOM     20  H   LIG d   1       9.437  -2.598  -4.394  0.00  0.00     0.031 H 
ATOM     21  H   LIG d   1       7.952  -3.035  -3.502  0.00  0.00     0.031 H 
ENDROOT
BRANCH   7  22
ATOM     22  O   LIG d   1       5.619  -1.138  -6.039  0.00  0.00    -0.457 OA
BRANCH  22  23
ATOM     23  C   LIG d   1       5.233  -0.426  -7.115  0.00  0.00     0.340 C 
ATOM     24  O   LIG d   1       5.804   0.610  -7.396  0.00  0.00    -0.245 OA
BRANCH  23  25
ATOM     25  C   LIG d   1       4.116  -0.902  -7.953  0.00  0.00     0.059 A 
ATOM     26  C   LIG d   1       3.049  -0.049  -8.249  0.00  0.00    -0.044 A 
ATOM     27  C   LIG d   1       2.011  -0.495  -9.036  0.00  0.00    -0.019 A 
ATOM     28  H   LIG d   1       3.041   0.960  -7.865  0.00  0.00     0.063 H 
ATOM     29  C   LIG d   1       2.019  -1.796  -9.527  0.00  0.00     0.117 A 
ATOM     30  H   LIG d   1       1.189   0.164  -9.269  0.00  0.00     0.065 H 
ATOM     31  C   LIG d   1       3.075  -2.649  -9.230  0.00  0.00    -0.019 A 
ATOM     32  C   LIG d   1       4.120  -2.209  -8.448  0.00  0.00    -0.044 A 
ATOM     33  H   LIG d   1       3.078  -3.659  -9.613  0.00  0.00     0.065 H 
ATOM     34  H   LIG d   1       4.941  -2.872  -8.218  0.00  0.00     0.063 H 
BRANCH  29  35
ATOM     35  O   LIG d   1       0.992  -2.234 -10.298  0.00  0.00    -0.507 OA
ATOM     36  H   LIG d   1       0.131  -2.204  -9.861  0.00  0.00     0.292 HD
ENDBRANCH  29  35
ENDBRANCH  23  25
ENDBRANCH  22  23
ENDBRANCH   7  22
BRANCH   5  37
ATOM     37  C   LIG d   1       3.848  -0.177  -2.859  0.00  0.00    -0.038 C 
ATOM     38  H   LIG d   1       4.405  -0.776  -2.140  0.00  0.00     0.030 H 
BRANCH  37  39
ATOM     39  C   LIG d   1       3.524   1.187  -2.245  0.00  0.00    -0.062 C 
ATOM     40  H   LIG d   1       4.005   1.271  -1.271  0.00  0.00     0.023 H 
ATOM     41  H   LIG d   1       3.889   1.977  -2.901  0.00  0.00     0.023 H 
ATOM     42  H   LIG d   1       2.445   1.285  -2.127  0.00  0.00     0.023 H 
ENDBRANCH  37  39
BRANCH  37  43
ATOM     43  C   LIG d   1       2.547  -0.895  -3.223  0.00  0.00    -0.062 C 
ATOM     44  H   LIG d   1       2.678  -1.431  -4.163  0.00  0.00     0.023 H 
ATOM     45  H   LIG d   1       2.289  -1.601  -2.434  0.00  0.00     0.023 H 
ATOM     46  H   LIG d   1       1.746  -0.163  -3.332  0.00  0.00     0.023 H 
ENDBRANCH  37  43
ENDBRANCH   5  37
BRANCH   3  47
ATOM     47  O   LIG d   1       6.061   1.126  -2.453  0.00  0.00    -0.387 OA
ATOM     48  H   LIG d   1       5.446   0.727  -1.824  0.00  0.00     0.210 HD
ENDBRANCH   3  47
BRANCH  10  49
ATOM     49  C   LIG d   1       4.308  -4.785  -5.181  0.00  0.00    -0.044 C 
ATOM     50  H   LIG d   1       4.608  -5.425  -6.011  0.00  0.00     0.027 H 
ATOM     51  H   LIG d   1       4.217  -5.384  -4.275  0.00  0.00     0.027 H 
ATOM     52  H   LIG d   1       3.348  -4.321  -5.408  0.00  0.00     0.027 H 
ENDBRANCH  10  49
BRANCH   1  53
ATOM     53  C   LIG d   1       8.505  -0.182  -5.448  0.00  0.00    -0.044 C 
ATOM     54  H   LIG d   1       7.768   0.030  -6.222  0.00  0.00     0.027 H 
ATOM     55  H   LIG d   1       8.809   0.750  -4.971  0.00  0.00     0.027 H 
ATOM     56  H   LIG d   1       9.375  -0.661  -5.896  0.00  0.00     0.027 H 
ENDBRANCH   1  53
TORSDOF 10
ENDMDL
MODEL 3
REMARK VINA RESULT:      -5.9      1.695      3.082
REMARK  10 active torsions:
REMARK  status: ('A' for Active; 'I' for Inactive)
REMARK    1  A    between atoms: C_1  and  C_2 
REMARK    2  A    between atoms: C_4  and  O_29 
REMARK    3  A    between atoms: C_6  and  C_26 
REMARK    4  A    between atoms: C_8  and  O_16 
REMARK    5  A    between atoms: C_11  and  C_15 
REMARK    6  A    between atoms: O_16  and  C_17 
REMARK    7  A    between atoms: C_17  and  C_19 
REMARK    8  A    between atoms: C_22  and  O_25 
REMARK    9  A    between atoms: C_26  and  C_27 
REMARK   10  A    between atoms: C_26  and  C_28 
ROOT
ATOM      1  C   LIG d   1       5.108  -2.671  -3.466  0.00  0.00    -0.074 C 
ATOM      2  C   LIG d   1       6.208  -1.992  -3.466  0.00  0.00    -0.057 C 
ATOM      3  C   LIG d   1       7.129  -1.857  -4.639  0.00  0.00     0.080 C 
ATOM      4  H   LIG d   1       6.854  -2.527  -5.451  0.00  0.00     0.064 H 
ATOM      5  C   LIG d   1       7.043  -0.399  -5.125  0.00  0.00     0.028 C 
ATOM      6  H   LIG d   1       7.232  -0.393  -6.208  0.00  0.00     0.037 H 
ATOM      7  C   LIG d   1       5.673   0.224  -4.873  0.00  0.00     0.113 C 
ATOM      8  H   LIG d   1       5.617   1.146  -5.485  0.00  0.00     0.074 H 
ATOM      9  C   LIG d   1       5.446   0.623  -3.430  0.00  0.00     0.006 C 
ATOM     10  C   LIG d   1       4.013   0.810  -3.046  0.00  0.00    -0.073 C 
ATOM     11  C   LIG d   1       3.088  -0.070  -2.847  0.00  0.00    -0.085 C 
ATOM     12  C   LIG d   1       3.003  -1.543  -2.961  0.00  0.00    -0.031 C 
ATOM     13  C   LIG d   1       4.130  -2.356  -2.341  0.00  0.00    -0.029 C 
ATOM     14  H   LIG d   1       6.524  -1.545  -2.516  0.00  0.00     0.060 H 
ATOM     15  H   LIG d   1       5.916  -0.055  -2.735  0.00  0.00     0.035 H 
ATOM     16  H   LIG d   1       5.935   1.605  -3.278  0.00  0.00     0.035 H 
ATOM     17  H   LIG d   1       2.132   0.413  -2.506  0.00  0.00     0.057 H 
ATOM     18  H   LIG d   1       2.064  -1.863  -2.479  0.00  0.00     0.031 H 
ATOM     19  H   LIG d   1       2.899  -1.804  -4.017  0.00  0.00     0.031 H 
ATOM     20  H   LIG d   1       3.744  -3.286  -1.927  0.00  0.00     0.031 H 
ATOM     21  H   LIG d   1       4.636  -1.780  -1.569  0.00  0.00     0.031 H 
ENDROOT
BRANCH   7  22
ATOM     22  O   LIG d   1       4.639  -0.641  -5.335  0.00  0.00    -0.457 OA
BRANCH  22  23
ATOM     23  C   LIG d   1       3.879  -0.196  -6.355  0.00  0.00     0.340 C 
ATOM     24  O   LIG d   1       3.340   0.891  -6.282  0.00  0.00    -0.245 OA
BRANCH  23  25
ATOM     25  C   LIG d   1       3.703  -1.027  -7.560  0.00  0.00     0.059 A 
ATOM     26  C   LIG d   1       4.517  -2.145  -7.766  0.00  0.00    -0.044 A 
ATOM     27  C   LIG d   1       4.346  -2.921  -8.890  0.00  0.00    -0.019 A 
ATOM     28  H   LIG d   1       5.275  -2.402  -7.041  0.00  0.00     0.063 H 
ATOM     29  C   LIG d   1       3.372  -2.588  -9.825  0.00  0.00     0.117 A 
ATOM     30  H   LIG d   1       4.971  -3.788  -9.047  0.00  0.00     0.065 H 
ATOM     31  C   LIG d   1       2.566  -1.474  -9.628  0.00  0.00    -0.019 A 
ATOM     32  C   LIG d   1       2.726  -0.695  -8.503  0.00  0.00    -0.044 A 
ATOM     33  H   LIG d   1       1.811  -1.218 -10.357  0.00  0.00     0.065 H 
ATOM     34  H   LIG d   1       2.099   0.171  -8.350  0.00  0.00     0.063 H 
BRANCH  29  35
ATOM     35  O   LIG d   1       3.210  -3.352 -10.934  0.00  0.00    -0.507 OA
ATOM     36  H   LIG d   1       3.929  -3.980 -11.088  0.00  0.00     0.292 HD
ENDBRANCH  29  35
ENDBRANCH  23  25
ENDBRANCH  22  23
ENDBRANCH   7  22
BRANCH   5  37
ATOM     37  C   LIG d   1       8.137   0.428  -4.448  0.00  0.00    -0.038 C 
ATOM     38  H   LIG d   1       8.351   0.010  -3.464  0.00  0.00     0.030 H 
BRANCH  37  39
ATOM     39  C   LIG d   1       9.405   0.393  -5.304  0.00  0.00    -0.062 C 
ATOM     40  H   LIG d   1       9.132   0.316  -6.356  0.00  0.00     0.023 H 
ATOM     41  H   LIG d   1       9.977   1.307  -5.143  0.00  0.00     0.023 H 
ATOM     42  H   LIG d   1      10.011  -0.468  -5.021  0.00  0.00     0.023 H 
ENDBRANCH  37  39
BRANCH  37  43
ATOM     43  C   LIG d   1       7.664   1.875  -4.297  0.00  0.00    -0.062 C 
ATOM     44  H   LIG d   1       6.794   1.906  -3.640  0.00  0.00     0.023 H 
ATOM     45  H   LIG d   1       8.465   2.476  -3.868  0.00  0.00     0.023 H 
ATOM     46  H   LIG d   1       7.393   2.273  -5.275  0.00  0.00     0.023 H 
ENDBRANCH  37  43
ENDBRANCH   5  37
BRANCH   3  47
ATOM     47  O   LIG d   1       8.475  -2.141  -4.237  0.00  0.00    -0.387 OA
ATOM     48  H   LIG d   1       8.617  -3.056  -3.958  0.00  0.00     0.210 HD
ENDBRANCH   3  47
BRANCH  10  49
ATOM     49  C   LIG d   1       3.563   2.265  -2.854  0.00  0.00    -0.044 C 
ATOM     50  H   LIG d   1       4.056   2.684  -1.976  0.00  0.00     0.027 H 
ATOM     51  H   LIG d   1       3.831   2.848  -3.735  0.00  0.00     0.027 H 
ATOM     52  H   LIG d   1       2.482   2.295  -2.712  0.00  0.00     0.027 H 
ENDBRANCH  10  49
BRANCH   1  53
ATOM     53  C   LIG d   1       4.688  -3.633  -4.535  0.00  0.00    -0.044 C 
ATOM     54  H   LIG d   1       3.840  -4.220  -4.183  0.00  0.00     0.027 H 
ATOM     55  H   LIG d   1       4.400  -3.079  -5.428  0.00  0.00     0.027 H 
ATOM     56  H   LIG d   1       5.518  -4.298  -4.772  0.00  0.00     0.027 H 
ENDBRANCH   1  53
TORSDOF 10
ENDMDL
MODEL 4
REMARK VINA RESULT:      -5.8      1.618      2.390
REMARK  10 active torsions:
REMARK  status: ('A' for Active; 'I' for Inactive)
REMARK    1  A    between atoms: C_1  and  C_2 
REMARK    2  A    between atoms: C_4  and  O_29 
REMARK    3  A    between atoms: C_6  and  C_26 
REMARK    4  A    between atoms: C_8  and  O_16 
REMARK    5  A    between atoms: C_11  and  C_15 
REMARK    6  A    between atoms: O_16  and  C_17 
REMARK    7  A    between atoms: C_17  and  C_19 
REMARK    8  A    between atoms: C_22  and  O_25 
REMARK    9  A    between atoms: C_26  and  C_27 
REMARK   10  A    between atoms: C_26  and  C_28 
ROOT
ATOM      1  C   LIG d   1       3.804  -0.904  -2.797  0.00  0.00    -0.074 C 
ATOM      2  C   LIG d   1       4.541  -1.916  -3.118  0.00  0.00    -0.057 C 
ATOM      3  C   LIG d   1       4.299  -2.809  -4.296  0.00  0.00     0.080 C 
ATOM      4  H   LIG d   1       3.338  -2.611  -4.766  0.00  0.00     0.064 H 
ATOM      5  C   LIG d   1       5.429  -2.550  -5.308  0.00  0.00     0.028 C 
ATOM      6  H   LIG d   1       5.028  -2.732  -6.316  0.00  0.00     0.037 H 
ATOM      7  C   LIG d   1       5.952  -1.118  -5.251  0.00  0.00     0.113 C 
ATOM      8  H   LIG d   1       6.546  -0.951  -6.172  0.00  0.00     0.074 H 
ATOM      9  C   LIG d   1       6.860  -0.852  -4.070  0.00  0.00     0.006 C 
ATOM     10  C   LIG d   1       7.031   0.592  -3.718  0.00  0.00    -0.073 C 
ATOM     11  C   LIG d   1       6.208   1.405  -3.144  0.00  0.00    -0.085 C 
ATOM     12  C   LIG d   1       4.809   1.317  -2.668  0.00  0.00    -0.031 C 
ATOM     13  C   LIG d   1       4.432   0.099  -1.837  0.00  0.00    -0.029 C 
ATOM     14  H   LIG d   1       5.357  -2.182  -2.437  0.00  0.00     0.060 H 
ATOM     15  H   LIG d   1       6.566  -1.402  -3.190  0.00  0.00     0.035 H 
ATOM     16  H   LIG d   1       7.869  -1.223  -4.339  0.00  0.00     0.035 H 
ATOM     17  H   LIG d   1       6.681   2.410  -2.971  0.00  0.00     0.057 H 
ATOM     18  H   LIG d   1       4.607   2.210  -2.052  0.00  0.00     0.031 H 
ATOM     19  H   LIG d   1       4.143   1.394  -3.531  0.00  0.00     0.031 H 
ATOM     20  H   LIG d   1       3.705   0.372  -1.073  0.00  0.00     0.031 H 
ATOM     21  H   LIG d   1       5.315  -0.339  -1.379  0.00  0.00     0.031 H 
ENDROOT
BRANCH   7  22
ATOM     22  O   LIG d   1       4.870  -0.190  -5.285  0.00  0.00    -0.457 OA
BRANCH  22  23
ATOM     23  C   LIG d   1       4.401   0.159  -6.499  0.00  0.00     0.340 C 
ATOM     24  O   LIG d   1       3.264   0.573  -6.615  0.00  0.00    -0.245 OA
BRANCH  23  25
ATOM     25  C   LIG d   1       5.268   0.040  -7.687  0.00  0.00     0.059 A 
ATOM     26  C   LIG d   1       6.350   0.909  -7.855  0.00  0.00    -0.044 A 
ATOM     27  C   LIG d   1       7.159   0.792  -8.963  0.00  0.00    -0.019 A 
ATOM     28  H   LIG d   1       6.553   1.669  -7.115  0.00  0.00     0.063 H 
ATOM     29  C   LIG d   1       6.895  -0.183  -9.918  0.00  0.00     0.117 A 
ATOM     30  H   LIG d   1       7.998   1.460  -9.091  0.00  0.00     0.065 H 
ATOM     31  C   LIG d   1       5.816  -1.045  -9.757  0.00  0.00    -0.019 A 
ATOM     32  C   LIG d   1       5.005  -0.938  -8.650  0.00  0.00    -0.044 A 
ATOM     33  H   LIG d   1       5.614  -1.801 -10.502  0.00  0.00     0.065 H 
ATOM     34  H   LIG d   1       4.168  -1.608  -8.525  0.00  0.00     0.063 H 
BRANCH  29  35
ATOM     35  O   LIG d   1       7.691  -0.293 -11.011  0.00  0.00    -0.507 OA
ATOM     36  H   LIG d   1       7.752   0.516 -11.536  0.00  0.00     0.292 HD
ENDBRANCH  29  35
ENDBRANCH  23  25
ENDBRANCH  22  23
ENDBRANCH   7  22
BRANCH   5  37
ATOM     37  C   LIG d   1       6.567  -3.543  -5.065  0.00  0.00    -0.038 C 
ATOM     38  H   LIG d   1       6.694  -3.694  -3.993  0.00  0.00     0.030 H 
BRANCH  37  39
ATOM     39  C   LIG d   1       6.230  -4.878  -5.733  0.00  0.00    -0.062 C 
ATOM     40  H   LIG d   1       6.659  -5.694  -5.152  0.00  0.00     0.023 H 
ATOM     41  H   LIG d   1       5.148  -4.997  -5.782  0.00  0.00     0.023 H 
ATOM     42  H   LIG d   1       6.642  -4.894  -6.742  0.00  0.00     0.023 H 
ENDBRANCH  37  39
BRANCH  37  43
ATOM     43  C   LIG d   1       7.863  -2.988  -5.660  0.00  0.00    -0.062 C 
ATOM     44  H   LIG d   1       8.521  -2.660  -4.855  0.00  0.00     0.023 H 
ATOM     45  H   LIG d   1       8.359  -3.767  -6.240  0.00  0.00     0.023 H 
ATOM     46  H   LIG d   1       7.633  -2.142  -6.308  0.00  0.00     0.023 H 
ENDBRANCH  37  43
ENDBRANCH   5  37
BRANCH   3  47
ATOM     47  O   LIG d   1       4.342  -4.182  -3.883  0.00  0.00    -0.387 OA
ATOM     48  H   LIG d   1       4.673  -4.312  -2.984  0.00  0.00     0.210 HD
ENDBRANCH   3  47
BRANCH  10  49
ATOM     49  C   LIG d   1       8.386   1.208  -4.088  0.00  0.00    -0.044 C 
ATOM     50  H   LIG d   1       8.244   1.953  -4.871  0.00  0.00     0.027 H 
ATOM     51  H   LIG d   1       8.822   1.683  -3.209  0.00  0.00     0.027 H 
ATOM     52  H   LIG d   1       9.055   0.426  -4.448  0.00  0.00     0.027 H 
ENDBRANCH  10  49
BRANCH   1  53
ATOM     53  C   LIG d   1       2.460  -0.595  -3.382  0.00  0.00    -0.044 C 
ATOM     54  H   LIG d   1       1.809  -0.192  -2.606  0.00  0.00     0.027 H 
ATOM     55  H   LIG d   1       2.571   0.138  -4.180  0.00  0.00     0.027 H 
ATOM     56  H   LIG d   1       2.021  -1.507  -3.785  0.00  0.00     0.027 H 
ENDBRANCH   1  53
TORSDOF 10
ENDMDL
MODEL 5
REMARK VINA RESULT:      -5.7      2.093      5.750
REMARK  10 active torsions:
REMARK  status: ('A' for Active; 'I' for Inactive)
REMARK    1  A    between atoms: C_1  and  C_2 
REMARK    2  A    between atoms: C_4  and  O_29 
REMARK    3  A    between atoms: C_6  and  C_26 
REMARK    4  A    between atoms: C_8  and  O_16 
REMARK    5  A    between atoms: C_11  and  C_15 
REMARK    6  A    between atoms: O_16  and  C_17 
REMARK    7  A    between atoms: C_17  and  C_19 
REMARK    8  A    between atoms: C_22  and  O_25 
REMARK    9  A    between atoms: C_26  and  C_27 
REMARK   10  A    between atoms: C_26  and  C_28 
ROOT
ATOM      1  C   LIG d   1       4.642  -0.474  -3.474  0.00  0.00    -0.074 C 
ATOM      2  C   LIG d   1       3.940  -0.820  -4.503  0.00  0.00    -0.057 C 
ATOM      3  C   LIG d   1       3.405   0.128  -5.531  0.00  0.00     0.080 C 
ATOM      4  H   LIG d   1       3.534   1.166  -5.233  0.00  0.00     0.064 H 
ATOM      5  C   LIG d   1       4.174  -0.130  -6.839  0.00  0.00     0.028 C 
ATOM      6  H   LIG d   1       4.220   0.818  -7.396  0.00  0.00     0.037 H 
ATOM      7  C   LIG d   1       5.600  -0.614  -6.596  0.00  0.00     0.113 C 
ATOM      8  H   LIG d   1       6.148  -0.508  -7.554  0.00  0.00     0.074 H 
ATOM      9  C   LIG d   1       5.684  -2.067  -6.183  0.00  0.00     0.006 C 
ATOM     10  C   LIG d   1       6.962  -2.462  -5.514  0.00  0.00    -0.073 C 
ATOM     11  C   LIG d   1       7.386  -2.200  -4.323  0.00  0.00    -0.085 C 
ATOM     12  C   LIG d   1       6.881  -1.402  -3.183  0.00  0.00    -0.031 C 
ATOM     13  C   LIG d   1       5.422  -1.591  -2.793  0.00  0.00    -0.029 C 
ATOM     14  H   LIG d   1       3.656  -1.876  -4.588  0.00  0.00     0.060 H 
ATOM     15  H   LIG d   1       4.851  -2.371  -5.569  0.00  0.00     0.035 H 
ATOM     16  H   LIG d   1       5.620  -2.677  -7.107  0.00  0.00     0.035 H 
ATOM     17  H   LIG d   1       8.369  -2.706  -4.119  0.00  0.00     0.057 H 
ATOM     18  H   LIG d   1       7.491  -1.654  -2.300  0.00  0.00     0.031 H 
ATOM     19  H   LIG d   1       7.073  -0.346  -3.386  0.00  0.00     0.031 H 
ATOM     20  H   LIG d   1       5.304  -1.509  -1.714  0.00  0.00     0.031 H 
ATOM     21  H   LIG d   1       5.056  -2.555  -3.140  0.00  0.00     0.031 H 
ENDROOT
BRANCH   7  22
ATOM     22  O   LIG d   1       6.258   0.226  -5.650  0.00  0.00    -0.457 OA
BRANCH  22  23
ATOM     23  C   LIG d   1       7.226   1.036  -6.121  0.00  0.00     0.340 C 
ATOM     24  O   LIG d   1       7.145   1.491  -7.245  0.00  0.00    -0.245 OA
BRANCH  23  25
ATOM     25  C   LIG d   1       8.385   1.371  -5.272  0.00  0.00     0.059 A 
ATOM     26  C   LIG d   1       8.250   2.302  -4.238  0.00  0.00    -0.044 A 
ATOM     27  C   LIG d   1       9.333   2.608  -3.445  0.00  0.00    -0.019 A 
ATOM     28  H   LIG d   1       7.297   2.777  -4.059  0.00  0.00     0.063 H 
ATOM     29  C   LIG d   1      10.562   2.001  -3.678  0.00  0.00     0.117 A 
ATOM     30  H   LIG d   1       9.229   3.324  -2.643  0.00  0.00     0.065 H 
ATOM     31  C   LIG d   1      10.701   1.080  -4.710  0.00  0.00    -0.019 A 
ATOM     32  C   LIG d   1       9.622   0.763  -5.504  0.00  0.00    -0.044 A 
ATOM     33  H   LIG d   1      11.658   0.610  -4.888  0.00  0.00     0.065 H 
ATOM     34  H   LIG d   1       9.731   0.047  -6.305  0.00  0.00     0.063 H 
BRANCH  29  35
ATOM     35  O   LIG d   1      11.628   2.309  -2.898  0.00  0.00    -0.507 OA
ATOM     36  H   LIG d   1      12.434   2.506  -3.393  0.00  0.00     0.292 HD
ENDBRANCH  29  35
ENDBRANCH  23  25
ENDBRANCH  22  23
ENDBRANCH   7  22
BRANCH   5  37
ATOM     37  C   LIG d   1       3.405  -1.142  -7.690  0.00  0.00    -0.038 C 
ATOM     38  H   LIG d   1       2.919  -1.869  -7.039  0.00  0.00     0.030 H 
BRANCH  37  39
ATOM     39  C   LIG d   1       2.347  -0.411  -8.519  0.00  0.00    -0.062 C 
ATOM     40  H   LIG d   1       2.791  -0.063  -9.451  0.00  0.00     0.023 H 
ATOM     41  H   LIG d   1       1.525  -1.092  -8.740  0.00  0.00     0.023 H 
ATOM     42  H   LIG d   1       1.968   0.441  -7.956  0.00  0.00     0.023 H 
ENDBRANCH  37  39
BRANCH  37  43
ATOM     43  C   LIG d   1       4.377  -1.864  -8.625  0.00  0.00    -0.062 C 
ATOM     44  H   LIG d   1       3.912  -2.777  -8.998  0.00  0.00     0.023 H 
ATOM     45  H   LIG d   1       4.624  -1.214  -9.464  0.00  0.00     0.023 H 
ATOM     46  H   LIG d   1       5.287  -2.117  -8.080  0.00  0.00     0.023 H 
ENDBRANCH  37  43
ENDBRANCH   5  37
BRANCH   3  47
ATOM     47  O   LIG d   1       2.010  -0.123  -5.747  0.00  0.00    -0.387 OA
ATOM     48  H   LIG d   1       1.806  -0.486  -6.620  0.00  0.00     0.210 HD
ENDBRANCH   3  47
BRANCH  10  49
ATOM     49  C   LIG d   1       7.921  -3.307  -6.363  0.00  0.00    -0.044 C 
ATOM     50  H   LIG d   1       8.649  -3.792  -5.713  0.00  0.00     0.027 H 
ATOM     51  H   LIG d   1       7.355  -4.065  -6.905  0.00  0.00     0.027 H 
ATOM     52  H   LIG d   1       8.440  -2.663  -7.074  0.00  0.00     0.027 H 
ENDBRANCH  10  49
BRANCH   1  53
ATOM     53  C   LIG d   1       4.831   0.932  -2.993  0.00  0.00    -0.044 C 
ATOM     54  H   LIG d   1       3.995   1.547  -3.329  0.00  0.00     0.027 H 
ATOM     55  H   LIG d   1       4.873   0.941  -1.904  0.00  0.00     0.027 H 
ATOM     56  H   LIG d   1       5.760   1.332  -3.396  0.00  0.00     0.027 H 
ENDBRANCH   1  53
TORSDOF 10
ENDMDL
MODEL 6
REMARK VINA RESULT:      -5.7      1.654      3.826
REMARK  10 active torsions:
REMARK  status: ('A' for Active; 'I' for Inactive)
REMARK    1  A    between atoms: C_1  and  C_2 
REMARK    2  A    between atoms: C_4  and  O_29 
REMARK    3  A    between atoms: C_6  and  C_26 
REMARK    4  A    between atoms: C_8  and  O_16 
REMARK    5  A    between atoms: C_11  and  C_15 
REMARK    6  A    between atoms: O_16  and  C_17 
REMARK    7  A    between atoms: C_17  and  C_19 
REMARK    8  A    between atoms: C_22  and  O_25 
REMARK    9  A    between atoms: C_26  and  C_27 
REMARK   10  A    between atoms: C_26  and  C_28 
ROOT
ATOM      1  C   LIG d   1       6.535  -3.068  -6.144  0.00  0.00    -0.074 C 
ATOM      2  C   LIG d   1       7.373  -2.146  -5.800  0.00  0.00    -0.057 C 
ATOM      3  C   LIG d   1       7.660  -0.912  -6.598  0.00  0.00     0.080 C 
ATOM      4  H   LIG d   1       7.202  -0.950  -7.584  0.00  0.00     0.064 H 
ATOM      5  C   LIG d   1       7.091   0.285  -5.814  0.00  0.00     0.028 C 
ATOM      6  H   LIG d   1       6.795   1.055  -6.542  0.00  0.00     0.037 H 
ATOM      7  C   LIG d   1       5.866  -0.087  -4.984  0.00  0.00     0.113 C 
ATOM      8  H   LIG d   1       5.375   0.861  -4.686  0.00  0.00     0.074 H 
ATOM      9  C   LIG d   1       6.201  -0.842  -3.715  0.00  0.00     0.006 C 
ATOM     10  C   LIG d   1       5.063  -1.602  -3.113  0.00  0.00    -0.073 C 
ATOM     11  C   LIG d   1       4.504  -2.700  -3.504  0.00  0.00    -0.085 C 
ATOM     12  C   LIG d   1       4.669  -3.604  -4.663  0.00  0.00    -0.031 C 
ATOM     13  C   LIG d   1       6.089  -4.010  -5.033  0.00  0.00    -0.029 C 
ATOM     14  H   LIG d   1       7.968  -2.318  -4.896  0.00  0.00     0.060 H 
ATOM     15  H   LIG d   1       7.046  -1.502  -3.838  0.00  0.00     0.035 H 
ATOM     16  H   LIG d   1       6.506  -0.094  -2.956  0.00  0.00     0.035 H 
ATOM     17  H   LIG d   1       3.710  -3.033  -2.781  0.00  0.00     0.057 H 
ATOM     18  H   LIG d   1       4.108  -4.530  -4.450  0.00  0.00     0.031 H 
ATOM     19  H   LIG d   1       4.179  -3.152  -5.529  0.00  0.00     0.031 H 
ATOM     20  H   LIG d   1       6.106  -5.036  -5.400  0.00  0.00     0.031 H 
ATOM     21  H   LIG d   1       6.751  -3.904  -4.177  0.00  0.00     0.031 H 
ENDROOT
BRANCH   7  22
ATOM     22  O   LIG d   1       4.925  -0.808  -5.775  0.00  0.00    -0.457 OA
BRANCH  22  23
ATOM     23  C   LIG d   1       3.905  -0.104  -6.305  0.00  0.00     0.340 C 
ATOM     24  O   LIG d   1       3.201   0.579  -5.588  0.00  0.00    -0.245 OA
BRANCH  23  25
ATOM     25  C   LIG d   1       3.643  -0.164  -7.755  0.00  0.00     0.059 A 
ATOM     26  C   LIG d   1       4.688   0.025  -8.664  0.00  0.00    -0.044 A 
ATOM     27  C   LIG d   1       4.440  -0.036 -10.018  0.00  0.00    -0.019 A 
ATOM     28  H   LIG d   1       5.689   0.214  -8.306  0.00  0.00     0.063 H 
ATOM     29  C   LIG d   1       3.151  -0.274 -10.480  0.00  0.00     0.117 A 
ATOM     30  H   LIG d   1       5.248   0.105 -10.721  0.00  0.00     0.065 H 
ATOM     31  C   LIG d   1       2.108  -0.456  -9.578  0.00  0.00    -0.019 A 
ATOM     32  C   LIG d   1       2.349  -0.402  -8.224  0.00  0.00    -0.044 A 
ATOM     33  H   LIG d   1       1.107  -0.641  -9.941  0.00  0.00     0.065 H 
ATOM     34  H   LIG d   1       1.538  -0.544  -7.524  0.00  0.00     0.063 H 
BRANCH  29  35
ATOM     35  O   LIG d   1       2.909  -0.329 -11.813  0.00  0.00    -0.507 OA
ATOM     36  H   LIG d   1       2.007  -0.593 -12.039  0.00  0.00     0.292 HD
ENDBRANCH  29  35
ENDBRANCH  23  25
ENDBRANCH  22  23
ENDBRANCH   7  22
BRANCH   5  37
ATOM     37  C   LIG d   1       8.183   0.872  -4.920  0.00  0.00    -0.038 C 
ATOM     38  H   LIG d   1       8.818   0.069  -4.547  0.00  0.00     0.030 H 
BRANCH  37  39
ATOM     39  C   LIG d   1       9.029   1.858  -5.729  0.00  0.00    -0.062 C 
ATOM     40  H   LIG d   1       8.554   2.039  -6.693  0.00  0.00     0.023 H 
ATOM     41  H   LIG d   1       9.114   2.798  -5.183  0.00  0.00     0.023 H 
ATOM     42  H   LIG d   1      10.023   1.440  -5.886  0.00  0.00     0.023 H 
ENDBRANCH  37  39
BRANCH  37  43
ATOM     43  C   LIG d   1       7.539   1.603  -3.740  0.00  0.00    -0.062 C 
ATOM     44  H   LIG d   1       6.630   2.104  -4.075  0.00  0.00     0.023 H 
ATOM     45  H   LIG d   1       7.290   0.884  -2.960  0.00  0.00     0.023 H 
ATOM     46  H   LIG d   1       8.236   2.342  -3.345  0.00  0.00     0.023 H 
ENDBRANCH  37  43
ENDBRANCH   5  37
BRANCH   3  47
ATOM     47  O   LIG d   1       9.076  -0.747  -6.748  0.00  0.00    -0.387 OA
ATOM     48  H   LIG d   1       9.599  -1.221  -6.087  0.00  0.00     0.210 HD
ENDBRANCH   3  47
BRANCH  10  49
ATOM     49  C   LIG d   1       4.462  -0.997  -1.838  0.00  0.00    -0.044 C 
ATOM     50  H   LIG d   1       4.388   0.085  -1.951  0.00  0.00     0.027 H 
ATOM     51  H   LIG d   1       3.469  -1.413  -1.670  0.00  0.00     0.027 H 
ATOM     52  H   LIG d   1       5.104  -1.230  -0.988  0.00  0.00     0.027 H 
ENDBRANCH  10  49
BRANCH   1  53
ATOM     53  C   LIG d   1       5.897  -3.195  -7.493  0.00  0.00    -0.044 C 
ATOM     54  H   LIG d   1       4.818  -3.080  -7.398  0.00  0.00     0.027 H 
ATOM     55  H   LIG d   1       6.288  -2.420  -8.153  0.00  0.00     0.027 H 
ATOM     56  H   LIG d   1       6.122  -4.175  -7.911  0.00  0.00     0.027 H 
ENDBRANCH   1  53
TORSDOF 10
ENDMDL
MODEL 7
REMARK VINA RESULT:      -5.6      2.259      5.052
REMARK  10 active torsions:
REMARK  status: ('A' for Active; 'I' for Inactive)
REMARK    1  A    between atoms: C_1  and  C_2 
REMARK    2  A    between atoms: C_4  and  O_29 
REMARK    3  A    between atoms: C_6  and  C_26 
REMARK    4  A    between atoms: C_8  and  O_16 
REMARK    5  A    between atoms: C_11  and  C_15 
REMARK    6  A    between atoms: O_16  and  C_17 
REMARK    7  A    between atoms: C_17  and  C_19 
REMARK    8  A    between atoms: C_22  and  O_25 
REMARK    9  A    between atoms: C_26  and  C_27 
REMARK   10  A    between atoms: C_26  and  C_28 
ROOT
ATOM      1  C   LIG d   1       5.177  -3.390  -5.007  0.00  0.00    -0.074 C 
ATOM      2  C   LIG d   1       4.600  -2.593  -4.168  0.00  0.00    -0.057 C 
ATOM      3  C   LIG d   1       5.314  -1.773  -3.139  0.00  0.00     0.080 C 
ATOM      4  H   LIG d   1       6.366  -2.041  -3.064  0.00  0.00     0.064 H 
ATOM      5  C   LIG d   1       5.189  -0.297  -3.560  0.00  0.00     0.028 C 
ATOM      6  H   LIG d   1       6.081   0.234  -3.197  0.00  0.00     0.037 H 
ATOM      7  C   LIG d   1       5.109  -0.123  -5.074  0.00  0.00     0.113 C 
ATOM      8  H   LIG d   1       5.296   0.948  -5.289  0.00  0.00     0.074 H 
ATOM      9  C   LIG d   1       3.754  -0.471  -5.652  0.00  0.00     0.006 C 
ATOM     10  C   LIG d   1       3.746  -0.749  -7.121  0.00  0.00    -0.073 C 
ATOM     11  C   LIG d   1       4.179  -1.778  -7.770  0.00  0.00    -0.085 C 
ATOM     12  C   LIG d   1       4.883  -3.027  -7.403  0.00  0.00    -0.031 C 
ATOM     13  C   LIG d   1       4.343  -3.807  -6.212  0.00  0.00    -0.029 C 
ATOM     14  H   LIG d   1       3.504  -2.574  -4.165  0.00  0.00     0.060 H 
ATOM     15  H   LIG d   1       3.280  -1.289  -5.131  0.00  0.00     0.035 H 
ATOM     16  H   LIG d   1       3.095   0.408  -5.502  0.00  0.00     0.035 H 
ATOM     17  H   LIG d   1       3.960  -1.690  -8.869  0.00  0.00     0.057 H 
ATOM     18  H   LIG d   1       4.852  -3.700  -8.277  0.00  0.00     0.031 H 
ATOM     19  H   LIG d   1       5.939  -2.796  -7.243  0.00  0.00     0.031 H 
ATOM     20  H   LIG d   1       4.456  -4.877  -6.377  0.00  0.00     0.031 H 
ATOM     21  H   LIG d   1       3.299  -3.559  -6.036  0.00  0.00     0.031 H 
ENDROOT
BRANCH   7  22
ATOM     22  O   LIG d   1       6.144  -0.861  -5.717  0.00  0.00    -0.457 OA
BRANCH  22  23
ATOM     23  C   LIG d   1       7.357  -0.279  -5.788  0.00  0.00     0.340 C 
ATOM     24  O   LIG d   1       8.236  -0.609  -5.015  0.00  0.00    -0.245 OA
BRANCH  23  25
ATOM     25  C   LIG d   1       7.619   0.760  -6.801  0.00  0.00     0.059 A 
ATOM     26  C   LIG d   1       6.879   0.784  -7.987  0.00  0.00    -0.044 A 
ATOM     27  C   LIG d   1       7.123   1.758  -8.929  0.00  0.00    -0.019 A 
ATOM     28  H   LIG d   1       6.115   0.041  -8.163  0.00  0.00     0.063 H 
ATOM     29  C   LIG d   1       8.111   2.711  -8.706  0.00  0.00     0.117 A 
ATOM     30  H   LIG d   1       6.550   1.780  -9.844  0.00  0.00     0.065 H 
ATOM     31  C   LIG d   1       8.853   2.687  -7.531  0.00  0.00    -0.019 A 
ATOM     32  C   LIG d   1       8.611   1.719  -6.581  0.00  0.00    -0.044 A 
ATOM     33  H   LIG d   1       9.619   3.429  -7.361  0.00  0.00     0.065 H 
ATOM     34  H   LIG d   1       9.188   1.701  -5.668  0.00  0.00     0.063 H 
BRANCH  29  35
ATOM     35  O   LIG d   1       8.352   3.666  -9.638  0.00  0.00    -0.507 OA
ATOM     36  H   LIG d   1       9.137   4.201  -9.460  0.00  0.00     0.292 HD
ENDBRANCH  29  35
ENDBRANCH  23  25
ENDBRANCH  22  23
ENDBRANCH   7  22
BRANCH   5  37
ATOM     37  C   LIG d   1       3.963   0.321  -2.886  0.00  0.00    -0.038 C 
ATOM     38  H   LIG d   1       3.255  -0.466  -2.627  0.00  0.00     0.030 H 
BRANCH  37  39
ATOM     39  C   LIG d   1       4.396   1.057  -1.616  0.00  0.00    -0.062 C 
ATOM     40  H   LIG d   1       4.117   0.469  -0.742  0.00  0.00     0.023 H 
ATOM     41  H   LIG d   1       5.477   1.199  -1.630  0.00  0.00     0.023 H 
ATOM     42  H   LIG d   1       3.904   2.029  -1.574  0.00  0.00     0.023 H 
ENDBRANCH  37  39
BRANCH  37  43
ATOM     43  C   LIG d   1       3.298   1.309  -3.847  0.00  0.00    -0.062 C 
ATOM     44  H   LIG d   1       3.672   2.314  -3.651  0.00  0.00     0.023 H 
ATOM     45  H   LIG d   1       3.529   1.029  -4.874  0.00  0.00     0.023 H 
ATOM     46  H   LIG d   1       2.218   1.289  -3.698  0.00  0.00     0.023 H 
ENDBRANCH  37  43
ENDBRANCH   5  37
BRANCH   3  47
ATOM     47  O   LIG d   1       4.695  -1.952  -1.859  0.00  0.00    -0.387 OA
ATOM     48  H   LIG d   1       3.767  -2.220  -1.904  0.00  0.00     0.210 HD
ENDBRANCH   3  47
BRANCH  10  49
ATOM     49  C   LIG d   1       3.132   0.349  -8.000  0.00  0.00    -0.044 C 
ATOM     50  H   LIG d   1       3.927   0.895  -8.507  0.00  0.00     0.027 H 
ATOM     51  H   LIG d   1       2.472  -0.103  -8.740  0.00  0.00     0.027 H 
ATOM     52  H   LIG d   1       2.560   1.037  -7.375  0.00  0.00     0.027 H 
ENDBRANCH  10  49
BRANCH   1  53
ATOM     53  C   LIG d   1       6.609  -3.823  -4.939  0.00  0.00    -0.044 C 
ATOM     54  H   LIG d   1       7.255  -2.945  -4.932  0.00  0.00     0.027 H 
ATOM     55  H   LIG d   1       6.772  -4.399  -4.028  0.00  0.00     0.027 H 
ATOM     56  H   LIG d   1       6.844  -4.440  -5.805  0.00  0.00     0.027 H 
ENDBRANCH   1  53
TORSDOF 10
ENDMDL
MODEL 8
REMARK VINA RESULT:      -5.6      1.613      1.861
REMARK  10 active torsions:
REMARK  status: ('A' for Active; 'I' for Inactive)
REMARK    1  A    between atoms: C_1  and  C_2 
REMARK    2  A    between atoms: C_4  and  O_29 
REMARK    3  A    between atoms: C_6  and  C_26 
REMARK    4  A    between atoms: C_8  and  O_16 
REMARK    5  A    between atoms: C_11  and  C_15 
REMARK    6  A    between atoms: O_16  and  C_17 
REMARK    7  A    between atoms: C_17  and  C_19 
REMARK    8  A    between atoms: C_22  and  O_25 
REMARK    9  A    between atoms: C_26  and  C_27 
REMARK   10  A    between atoms: C_26  and  C_28 
ROOT
ATOM      1  C   LIG d   1       4.218  -1.375  -2.824  0.00  0.00    -0.074 C 
ATOM      2  C   LIG d   1       4.867  -2.213  -3.564  0.00  0.00    -0.057 C 
ATOM      3  C   LIG d   1       4.306  -2.902  -4.769  0.00  0.00     0.080 C 
ATOM      4  H   LIG d   1       3.234  -2.744  -4.865  0.00  0.00     0.064 H 
ATOM      5  C   LIG d   1       5.022  -2.326  -6.003  0.00  0.00     0.028 C 
ATOM      6  H   LIG d   1       4.324  -2.372  -6.851  0.00  0.00     0.037 H 
ATOM      7  C   LIG d   1       5.448  -0.874  -5.810  0.00  0.00     0.113 C 
ATOM      8  H   LIG d   1       5.696  -0.471  -6.812  0.00  0.00     0.074 H 
ATOM      9  C   LIG d   1       6.677  -0.714  -4.941  0.00  0.00     0.006 C 
ATOM     10  C   LIG d   1       6.868   0.652  -4.362  0.00  0.00    -0.073 C 
ATOM     11  C   LIG d   1       6.232   1.239  -3.403  0.00  0.00    -0.085 C 
ATOM     12  C   LIG d   1       5.076   0.894  -2.547  0.00  0.00    -0.031 C 
ATOM     13  C   LIG d   1       5.065  -0.492  -1.917  0.00  0.00    -0.029 C 
ATOM     14  H   LIG d   1       5.876  -2.493  -3.241  0.00  0.00     0.060 H 
ATOM     15  H   LIG d   1       6.721  -1.446  -4.149  0.00  0.00     0.035 H 
ATOM     16  H   LIG d   1       7.562  -0.902  -5.581  0.00  0.00     0.035 H 
ATOM     17  H   LIG d   1       6.675   2.248  -3.177  0.00  0.00     0.057 H 
ATOM     18  H   LIG d   1       5.035   1.628  -1.725  0.00  0.00     0.031 H 
ATOM     19  H   LIG d   1       4.159   1.041  -3.124  0.00  0.00     0.031 H 
ATOM     20  H   LIG d   1       4.616  -0.455  -0.926  0.00  0.00     0.031 H 
ATOM     21  H   LIG d   1       6.075  -0.892  -1.859  0.00  0.00     0.031 H 
ENDROOT
BRANCH   7  22
ATOM     22  O   LIG d   1       4.363  -0.097  -5.310  0.00  0.00    -0.457 OA
BRANCH  22  23
ATOM     23  C   LIG d   1       3.362   0.180  -6.169  0.00  0.00     0.340 C 
ATOM     24  O   LIG d   1       2.227   0.320  -5.756  0.00  0.00    -0.245 OA
BRANCH  23  25
ATOM     25  C   LIG d   1       3.643   0.314  -7.611  0.00  0.00     0.059 A 
ATOM     26  C   LIG d   1       2.832  -0.336  -8.546  0.00  0.00    -0.044 A 
ATOM     27  C   LIG d   1       3.094  -0.205  -9.891  0.00  0.00    -0.019 A 
ATOM     28  H   LIG d   1       1.998  -0.937  -8.213  0.00  0.00     0.063 H 
ATOM     29  C   LIG d   1       4.170   0.564 -10.319  0.00  0.00     0.117 A 
ATOM     30  H   LIG d   1       2.465  -0.703 -10.614  0.00  0.00     0.065 H 
ATOM     31  C   LIG d   1       4.983   1.206  -9.392  0.00  0.00    -0.019 A 
ATOM     32  C   LIG d   1       4.724   1.085  -8.045  0.00  0.00    -0.044 A 
ATOM     33  H   LIG d   1       5.818   1.803  -9.728  0.00  0.00     0.065 H 
ATOM     34  H   LIG d   1       5.355   1.585  -7.325  0.00  0.00     0.063 H 
BRANCH  29  35
ATOM     35  O   LIG d   1       4.429   0.687 -11.645  0.00  0.00    -0.507 OA
ATOM     36  H   LIG d   1       5.052   1.394 -11.860  0.00  0.00     0.292 HD
ENDBRANCH  29  35
ENDBRANCH  23  25
ENDBRANCH  22  23
ENDBRANCH   7  22
BRANCH   5  37
ATOM     37  C   LIG d   1       6.234  -3.196  -6.340  0.00  0.00    -0.038 C 
ATOM     38  H   LIG d   1       6.728  -3.503  -5.418  0.00  0.00     0.030 H 
BRANCH  37  39
ATOM     39  C   LIG d   1       5.772  -4.436  -7.110  0.00  0.00    -0.062 C 
ATOM     40  H   LIG d   1       5.589  -5.251  -6.410  0.00  0.00     0.023 H 
ATOM     41  H   LIG d   1       4.854  -4.207  -7.650  0.00  0.00     0.023 H 
ATOM     42  H   LIG d   1       6.545  -4.733  -7.818  0.00  0.00     0.023 H 
ENDBRANCH  37  39
BRANCH  37  43
ATOM     43  C   LIG d   1       7.213  -2.397  -7.202  0.00  0.00    -0.062 C 
ATOM     44  H   LIG d   1       7.393  -1.425  -6.742  0.00  0.00     0.023 H 
ATOM     45  H   LIG d   1       8.154  -2.940  -7.283  0.00  0.00     0.023 H 
ATOM     46  H   LIG d   1       6.789  -2.253  -8.196  0.00  0.00     0.023 H 
ENDBRANCH  37  43
ENDBRANCH   5  37
BRANCH   3  47
ATOM     47  O   LIG d   1       4.563  -4.310  -4.689  0.00  0.00    -0.387 OA
ATOM     48  H   LIG d   1       5.497  -4.534  -4.579  0.00  0.00     0.210 HD
ENDBRANCH   3  47
BRANCH  10  49
ATOM     49  C   LIG d   1       7.987   1.489  -4.995  0.00  0.00    -0.044 C 
ATOM     50  H   LIG d   1       8.846   1.513  -4.324  0.00  0.00     0.027 H 
ATOM     51  H   LIG d   1       8.281   1.044  -5.946  0.00  0.00     0.027 H 
ATOM     52  H   LIG d   1       7.630   2.505  -5.164  0.00  0.00     0.027 H 
ENDBRANCH  10  49
BRANCH   1  53
ATOM     53  C   LIG d   1       2.740  -1.136  -2.885  0.00  0.00    -0.044 C 
ATOM     54  H   LIG d   1       2.541  -0.068  -2.793  0.00  0.00     0.027 H 
ATOM     55  H   LIG d   1       2.353  -1.497  -3.837  0.00  0.00     0.027 H 
ATOM     56  H   LIG d   1       2.252  -1.668  -2.069  0.00  0.00     0.027 H 
ENDBRANCH   1  53
TORSDOF 10
ENDMDL
MODEL 9
REMARK VINA RESULT:      -5.3      2.534      5.789
REMARK  10 active torsions:
REMARK  status: ('A' for Active; 'I' for Inactive)
REMARK    1  A    between atoms: C_1  and  C_2 
REMARK    2  A    between atoms: C_4  and  O_29 
REMARK    3  A    between atoms: C_6  and  C_26 
REMARK    4  A    between atoms: C_8  and  O_16 
REMARK    5  A    between atoms: C_11  and  C_15 
REMARK    6  A    between atoms: O_16  and  C_17 
REMARK    7  A    between atoms: C_17  and  C_19 
REMARK    8  A    between atoms: C_22  and  O_25 
REMARK    9  A    between atoms: C_26  and  C_27 
REMARK   10  A    between atoms: C_26  and  C_28 
ROOT
ATOM      1  C   LIG d   1       6.439  -0.268  -6.596  0.00  0.00    -0.074 C 
ATOM      2  C   LIG d   1       5.685  -0.093  -5.560  0.00  0.00    -0.057 C 
ATOM      3  C   LIG d   1       4.236  -0.460  -5.486  0.00  0.00     0.080 C 
ATOM      4  H   LIG d   1       3.839  -0.746  -6.458  0.00  0.00     0.064 H 
ATOM      5  C   LIG d   1       4.110  -1.646  -4.513  0.00  0.00     0.028 C 
ATOM      6  H   LIG d   1       3.251  -2.254  -4.830  0.00  0.00     0.037 H 
ATOM      7  C   LIG d   1       5.351  -2.534  -4.506  0.00  0.00     0.113 C 
ATOM      8  H   LIG d   1       5.070  -3.482  -4.005  0.00  0.00     0.074 H 
ATOM      9  C   LIG d   1       6.515  -1.943  -3.740  0.00  0.00     0.006 C 
ATOM     10  C   LIG d   1       7.850  -2.530  -4.068  0.00  0.00    -0.073 C 
ATOM     11  C   LIG d   1       8.587  -2.373  -5.117  0.00  0.00    -0.085 C 
ATOM     12  C   LIG d   1       8.440  -1.654  -6.403  0.00  0.00    -0.031 C 
ATOM     13  C   LIG d   1       7.941  -0.218  -6.344  0.00  0.00    -0.029 C 
ATOM     14  H   LIG d   1       6.124   0.428  -4.701  0.00  0.00     0.060 H 
ATOM     15  H   LIG d   1       6.565  -0.868  -3.829  0.00  0.00     0.035 H 
ATOM     16  H   LIG d   1       6.343  -2.152  -2.665  0.00  0.00     0.035 H 
ATOM     17  H   LIG d   1       9.568  -2.913  -5.013  0.00  0.00     0.057 H 
ATOM     18  H   LIG d   1       9.427  -1.639  -6.894  0.00  0.00     0.031 H 
ATOM     19  H   LIG d   1       7.790  -2.242  -7.057  0.00  0.00     0.031 H 
ATOM     20  H   LIG d   1       8.417   0.381  -7.119  0.00  0.00     0.031 H 
ATOM     21  H   LIG d   1       8.131   0.212  -5.363  0.00  0.00     0.031 H 
ENDROOT
BRANCH   7  22
ATOM     22  O   LIG d   1       5.732  -2.869  -5.838  0.00  0.00    -0.457 OA
BRANCH  22  23
ATOM     23  C   LIG d   1       5.168  -3.967  -6.378  0.00  0.00     0.340 C 
ATOM     24  O   LIG d   1       4.294  -3.852  -7.215  0.00  0.00    -0.245 OA
BRANCH  23  25
ATOM     25  C   LIG d   1       5.610  -5.308  -5.953  0.00  0.00     0.059 A 
ATOM     26  C   LIG d   1       6.972  -5.581  -5.802  0.00  0.00    -0.044 A 
ATOM     27  C   LIG d   1       7.381  -6.834  -5.400  0.00  0.00    -0.019 A 
ATOM     28  H   LIG d   1       7.703  -4.810  -5.995  0.00  0.00     0.063 H 
ATOM     29  C   LIG d   1       6.441  -7.828  -5.156  0.00  0.00     0.117 A 
ATOM     30  H   LIG d   1       8.433  -7.044  -5.278  0.00  0.00     0.065 H 
ATOM     31  C   LIG d   1       5.085  -7.562  -5.312  0.00  0.00    -0.019 A 
ATOM     32  C   LIG d   1       4.668  -6.311  -5.708  0.00  0.00    -0.044 A 
ATOM     33  H   LIG d   1       4.358  -8.337  -5.121  0.00  0.00     0.065 H 
ATOM     34  H   LIG d   1       3.615  -6.105  -5.828  0.00  0.00     0.063 H 
BRANCH  29  35
ATOM     35  O   LIG d   1       6.847  -9.062  -4.766  0.00  0.00    -0.507 OA
ATOM     36  H   LIG d   1       7.005  -9.674  -5.497  0.00  0.00     0.292 HD
ENDBRANCH  29  35
ENDBRANCH  23  25
ENDBRANCH  22  23
ENDBRANCH   7  22
BRANCH   5  37
ATOM     37  C   LIG d   1       3.825  -1.119  -3.105  0.00  0.00    -0.038 C 
ATOM     38  H   LIG d   1       4.556  -0.353  -2.849  0.00  0.00     0.030 H 
BRANCH  37  39
ATOM     39  C   LIG d   1       2.418  -0.518  -3.062  0.00  0.00    -0.062 C 
ATOM     40  H   LIG d   1       1.963  -0.585  -4.050  0.00  0.00     0.023 H 
ATOM     41  H   LIG d   1       1.810  -1.068  -2.344  0.00  0.00     0.023 H 
ATOM     42  H   LIG d   1       2.479   0.527  -2.760  0.00  0.00     0.023 H 
ENDBRANCH  37  39
BRANCH  37  43
ATOM     43  C   LIG d   1       3.918  -2.270  -2.102  0.00  0.00    -0.062 C 
ATOM     44  H   LIG d   1       3.481  -3.169  -2.537  0.00  0.00     0.023 H 
ATOM     45  H   LIG d   1       4.964  -2.456  -1.858  0.00  0.00     0.023 H 
ATOM     46  H   LIG d   1       3.375  -2.006  -1.194  0.00  0.00     0.023 H 
ENDBRANCH  37  43
ENDBRANCH   5  37
BRANCH   3  47
ATOM     47  O   LIG d   1       3.478   0.647  -4.981  0.00  0.00    -0.387 OA
ATOM     48  H   LIG d   1       3.665   0.863  -4.057  0.00  0.00     0.210 HD
ENDBRANCH   3  47
BRANCH  10  49
ATOM     49  C   LIG d   1       8.445  -3.460  -3.002  0.00  0.00    -0.044 C 
ATOM     50  H   LIG d   1       7.878  -3.360  -2.076  0.00  0.00     0.027 H 
ATOM     51  H   LIG d   1       8.393  -4.492  -3.350  0.00  0.00     0.027 H 
ATOM     52  H   LIG d   1       9.486  -3.188  -2.822  0.00  0.00     0.027 H 
ENDBRANCH  10  49
BRANCH   1  53
ATOM     53  C   LIG d   1       5.951  -0.628  -7.966  0.00  0.00    -0.044 C 
ATOM     54  H   LIG d   1       4.920  -0.975  -7.905  0.00  0.00     0.027 H 
ATOM     55  H   LIG d   1       6.002   0.249  -8.611  0.00  0.00     0.027 H 
ATOM     56  H   LIG d   1       6.577  -1.419  -8.378  0.00  0.00     0.027 H 
ENDBRANCH   1  53
TORSDOF 10
ENDMDL
MODEL 10
REMARK VINA RESULT:      -5.3      8.421     12.130
REMARK  10 active torsions:
REMARK  status: ('A' for Active; 'I' for Inactive)
REMARK    1  A    between atoms: C_1  and  C_2 
REMARK    2  A    between atoms: C_4  and  O_29 
REMARK    3  A    between atoms: C_6  and  C_26 
REMARK    4  A    between atoms: C_8  and  O_16 
REMARK    5  A    between atoms: C_11  and  C_15 
REMARK    6  A    between atoms: O_16  and  C_17 
REMARK    7  A    between atoms: C_17  and  C_19 
REMARK    8  A    between atoms: C_22  and  O_25 
REMARK    9  A    between atoms: C_26  and  C_27 
REMARK   10  A    between atoms: C_26  and  C_28 
ROOT
ATOM      1  C   LIG d   1      12.228   5.610  -0.521  0.00  0.00    -0.074 C 
ATOM      2  C   LIG d   1      11.848   5.144  -1.665  0.00  0.00    -0.057 C 
ATOM      3  C   LIG d   1      10.457   4.689  -1.984  0.00  0.00     0.080 C 
ATOM      4  H   LIG d   1       9.832   4.642  -1.095  0.00  0.00     0.064 H 
ATOM      5  C   LIG d   1       9.860   5.699  -2.979  0.00  0.00     0.028 C 
ATOM      6  H   LIG d   1       8.773   5.730  -2.817  0.00  0.00     0.037 H 
ATOM      7  C   LIG d   1      10.414   7.108  -2.790  0.00  0.00     0.113 C 
ATOM      8  H   LIG d   1       9.746   7.798  -3.343  0.00  0.00     0.074 H 
ATOM      9  C   LIG d   1      11.811   7.288  -3.345  0.00  0.00     0.006 C 
ATOM     10  C   LIG d   1      12.557   8.467  -2.807  0.00  0.00    -0.073 C 
ATOM     11  C   LIG d   1      13.100   8.643  -1.648  0.00  0.00    -0.085 C 
ATOM     12  C   LIG d   1      13.174   7.857  -0.396  0.00  0.00    -0.031 C 
ATOM     13  C   LIG d   1      13.540   6.385  -0.519  0.00  0.00    -0.029 C 
ATOM     14  H   LIG d   1      12.618   5.005  -2.433  0.00  0.00     0.060 H 
ATOM     15  H   LIG d   1      12.417   6.402  -3.235  0.00  0.00     0.035 H 
ATOM     16  H   LIG d   1      11.714   7.459  -4.436  0.00  0.00     0.035 H 
ATOM     17  H   LIG d   1      13.639   9.628  -1.595  0.00  0.00     0.057 H 
ATOM     18  H   LIG d   1      13.931   8.329   0.253  0.00  0.00     0.031 H 
ATOM     19  H   LIG d   1      12.223   7.956   0.134  0.00  0.00     0.031 H 
ATOM     20  H   LIG d   1      14.144   6.071   0.331  0.00  0.00     0.031 H 
ATOM     21  H   LIG d   1      14.073   6.201  -1.449  0.00  0.00     0.031 H 
ENDROOT
BRANCH   7  22
ATOM     22  O   LIG d   1      10.355   7.488  -1.418  0.00  0.00    -0.457 OA
BRANCH  22  23
ATOM     23  C   LIG d   1       9.405   8.377  -1.069  0.00  0.00     0.340 C 
ATOM     24  O   LIG d   1       8.264   8.003  -0.875  0.00  0.00    -0.245 OA
BRANCH  23  25
ATOM     25  C   LIG d   1       9.747   9.804  -0.922  0.00  0.00     0.059 A 
ATOM     26  C   LIG d   1       9.608  10.673  -2.008  0.00  0.00    -0.044 A 
ATOM     27  C   LIG d   1       9.924  12.005  -1.866  0.00  0.00    -0.019 A 
ATOM     28  H   LIG d   1       9.249  10.300  -2.956  0.00  0.00     0.063 H 
ATOM     29  C   LIG d   1      10.391  12.484  -0.647  0.00  0.00     0.117 A 
ATOM     30  H   LIG d   1       9.813  12.679  -2.703  0.00  0.00     0.065 H 
ATOM     31  C   LIG d   1      10.537  11.622   0.433  0.00  0.00    -0.019 A 
ATOM     32  C   LIG d   1      10.218  10.289   0.301  0.00  0.00    -0.044 A 
ATOM     33  H   LIG d   1      10.900  11.998   1.379  0.00  0.00     0.065 H 
ATOM     34  H   LIG d   1      10.331   9.619   1.141  0.00  0.00     0.063 H 
BRANCH  29  35
ATOM     35  O   LIG d   1      10.707  13.797  -0.512  0.00  0.00    -0.507 OA
ATOM     36  H   LIG d   1      11.553  14.041  -0.909  0.00  0.00     0.292 HD
ENDBRANCH  29  35
ENDBRANCH  23  25
ENDBRANCH  22  23
ENDBRANCH   7  22
BRANCH   5  37
ATOM     37  C   LIG d   1      10.111   5.215  -4.408  0.00  0.00    -0.038 C 
ATOM     38  H   LIG d   1      11.144   4.878  -4.501  0.00  0.00     0.030 H 
BRANCH  37  39
ATOM     39  C   LIG d   1       9.165   4.055  -4.727  0.00  0.00    -0.062 C 
ATOM     40  H   LIG d   1       8.745   4.192  -5.723  0.00  0.00     0.023 H 
ATOM     41  H   LIG d   1       9.717   3.116  -4.691  0.00  0.00     0.023 H 
ATOM     42  H   LIG d   1       8.360   4.030  -3.992  0.00  0.00     0.023 H 
ENDBRANCH  37  39
BRANCH  37  43
ATOM     43  C   LIG d   1       9.859   6.363  -5.388  0.00  0.00    -0.062 C 
ATOM     44  H   LIG d   1      10.748   6.990  -5.449  0.00  0.00     0.023 H 
ATOM     45  H   LIG d   1       9.633   5.956  -6.373  0.00  0.00     0.023 H 
ATOM     46  H   LIG d   1       9.017   6.960  -5.038  0.00  0.00     0.023 H 
ENDBRANCH  37  43
ENDBRANCH   5  37
BRANCH   3  47
ATOM     47  O   LIG d   1      10.497   3.392  -2.594  0.00  0.00    -0.387 OA
ATOM     48  H   LIG d   1      10.034   2.708  -2.094  0.00  0.00     0.210 HD
ENDBRANCH   3  47
BRANCH  10  49
ATOM     49  C   LIG d   1      12.708   9.652  -3.770  0.00  0.00    -0.044 C 
ATOM     50  H   LIG d   1      13.078   9.293  -4.731  0.00  0.00     0.027 H 
ATOM     51  H   LIG d   1      11.740  10.132  -3.910  0.00  0.00     0.027 H 
ATOM     52  H   LIG d   1      13.414  10.371  -3.354  0.00  0.00     0.027 H 
ENDBRANCH  10  49
BRANCH   1  53
ATOM     53  C   LIG d   1      11.429   5.546   0.744  0.00  0.00    -0.044 C 
ATOM     54  H   LIG d   1      10.561   6.201   0.660  0.00  0.00     0.027 H 
ATOM     55  H   LIG d   1      11.096   4.522   0.912  0.00  0.00     0.027 H 
ATOM     56  H   LIG d   1      12.047   5.869   1.581  0.00  0.00     0.027 H 
ENDBRANCH   1  53
TORSDOF 10
ENDMDL
