MODEL 1
REMARK VINA RESULT:      -7.3      0.000      0.000
REMARK  4 active torsions:
REMARK  status: ('A' for Active; 'I' for Inactive)
REMARK    1  A    between atoms: C_1  and  C_2 
REMARK    2  A    between atoms: C_13  and  C_29 
REMARK    3  A    between atoms: N_20  and  C_23 
REMARK    4  A    between atoms: C_23  and  C_24 
ROOT
ATOM      1  C   LIG d   1       8.850   1.252  -4.761  0.00  0.00     0.151 C 
ATOM      2  C   LIG d   1       7.612   0.703  -4.093  0.00  0.00     0.054 A 
ATOM      3  C   LIG d   1       7.310  -0.615  -4.064  0.00  0.00    -0.008 A 
ATOM      4  C   LIG d   1       6.057  -0.747  -3.350  0.00  0.00     0.004 A 
ATOM      5  C   LIG d   1       5.270  -1.852  -3.014  0.00  0.00    -0.052 A 
ATOM      6  C   LIG d   1       4.113  -1.601  -2.317  0.00  0.00    -0.061 A 
ATOM      7  C   LIG d   1       3.734  -0.318  -1.958  0.00  0.00    -0.060 A 
ATOM      8  C   LIG d   1       4.496   0.794  -2.276  0.00  0.00    -0.038 A 
ATOM      9  C   LIG d   1       5.675   0.569  -2.983  0.00  0.00     0.047 A 
ATOM     10  N   LIG d   1       6.640   1.417  -3.446  0.00  0.00    -0.356 N 
ATOM     11  H   LIG d   1       6.637   2.381  -3.334  0.00  0.00     0.166 HD
ATOM     12  C   LIG d   1       8.158  -1.701  -4.676  0.00  0.00     0.027 C 
ATOM     13  H   LIG d   1       8.728  -2.203  -3.895  0.00  0.00     0.041 H 
ATOM     14  C   LIG d   1       9.122  -1.072  -5.691  0.00  0.00     0.027 C 
ATOM     15  N   LIG d   1       9.729   0.129  -5.088  0.00  0.00    -0.280 N 
ATOM     16  C   LIG d   1      11.044   0.157  -4.863  0.00  0.00     0.234 C 
ATOM     17  O   LIG d   1      11.713  -0.757  -5.299  0.00  0.00    -0.274 OA
ATOM     18  C   LIG d   1      11.745   1.236  -4.104  0.00  0.00     0.092 C 
ATOM     19  N   LIG d   1      10.823   2.238  -3.597  0.00  0.00    -0.283 N 
ATOM     20  C   LIG d   1       9.520   2.254  -3.881  0.00  0.00     0.246 C 
ATOM     21  O   LIG d   1       8.840   3.132  -3.395  0.00  0.00    -0.273 OA
ATOM     22  H   LIG d   1       5.557  -2.856  -3.290  0.00  0.00     0.062 H 
ATOM     23  H   LIG d   1       3.479  -2.430  -2.041  0.00  0.00     0.062 H 
ATOM     24  H   LIG d   1       2.814  -0.180  -1.410  0.00  0.00     0.062 H 
ATOM     25  H   LIG d   1       4.189   1.789  -1.989  0.00  0.00     0.064 H 
ATOM     26  H   LIG d   1       8.574  -0.793  -6.591  0.00  0.00     0.047 H 
ATOM     27  H   LIG d   1       9.904  -1.788  -5.942  0.00  0.00     0.047 H 
ATOM     28  H   LIG d   1      12.282   0.789  -3.267  0.00  0.00     0.056 H 
ATOM     29  H   LIG d   1      12.464   1.723  -4.764  0.00  0.00     0.056 H 
ENDROOT
BRANCH  12  30
ATOM     30  C   LIG d   1       7.271  -2.698  -5.376  0.00  0.00    -0.038 A 
ATOM     31  C   LIG d   1       6.527  -2.310  -6.475  0.00  0.00    -0.057 A 
ATOM     32  C   LIG d   1       5.714  -3.225  -7.117  0.00  0.00    -0.043 A 
ATOM     33  H   LIG d   1       6.583  -1.292  -6.832  0.00  0.00     0.062 H 
ATOM     34  C   LIG d   1       5.644  -4.528  -6.660  0.00  0.00     0.041 A 
ATOM     35  H   LIG d   1       5.133  -2.921  -7.977  0.00  0.00     0.063 H 
ATOM     36  C   LIG d   1       6.388  -4.916  -5.561  0.00  0.00    -0.043 A 
ATOM     37 CL   LIG d   1       4.624  -5.678  -7.467  0.00  0.00    -0.084 Cl
ATOM     38  C   LIG d   1       7.206  -4.002  -4.923  0.00  0.00    -0.057 A 
ATOM     39  H   LIG d   1       6.335  -5.934  -5.204  0.00  0.00     0.063 H 
ATOM     40  H   LIG d   1       7.790  -4.306  -4.067  0.00  0.00     0.062 H 
ENDBRANCH  12  30
BRANCH   1  41
ATOM     41  C   LIG d   1       8.440   1.953  -6.058  0.00  0.00    -0.029 C 
ATOM     42  H   LIG d   1       9.205   2.677  -6.337  0.00  0.00     0.026 H 
ATOM     43  H   LIG d   1       8.334   1.213  -6.853  0.00  0.00     0.026 H 
ATOM     44  H   LIG d   1       7.490   2.466  -5.910  0.00  0.00     0.026 H 
ENDBRANCH   1  41
BRANCH  19  45
ATOM     45  C   LIG d   1      11.353   3.285  -2.721  0.00  0.00     0.073 C 
ATOM     46  H   LIG d   1      10.536   3.923  -2.381  0.00  0.00     0.054 H 
ATOM     47  H   LIG d   1      11.838   2.826  -1.859  0.00  0.00     0.054 H 
BRANCH  45  48
ATOM     48  C   LIG d   1      12.357   4.115  -3.479  0.00  0.00     0.122 A 
ATOM     49  O   LIG d   1      13.683   4.128  -3.269  0.00  0.00    -0.466 OA
ATOM     50  C   LIG d   1      14.264   4.979  -4.130  0.00  0.00     0.092 A 
ATOM     51  C   LIG d   1      13.306   5.528  -4.896  0.00  0.00    -0.024 A 
ATOM     52  H   LIG d   1      15.321   5.191  -4.193  0.00  0.00     0.103 H 
ATOM     53  C   LIG d   1      12.075   4.971  -4.477  0.00  0.00    -0.019 A 
ATOM     54  H   LIG d   1      13.447   6.256  -5.682  0.00  0.00     0.065 H 
ATOM     55  H   LIG d   1      11.099   5.191  -4.880  0.00  0.00     0.065 H 
ENDBRANCH  45  48
ENDBRANCH  19  45
TORSDOF 4
ENDMDL
MODEL 2
REMARK VINA RESULT:      -7.2      5.049      7.513
REMARK  4 active torsions:
REMARK  status: ('A' for Active; 'I' for Inactive)
REMARK    1  A    between atoms: C_1  and  C_2 
REMARK    2  A    between atoms: C_13  and  C_29 
REMARK    3  A    between atoms: N_20  and  C_23 
REMARK    4  A    between atoms: C_23  and  C_24 
ROOT
ATOM      1  C   LIG d   1       5.803  -2.554  -7.278  0.00  0.00     0.151 C 
ATOM      2  C   LIG d   1       5.301  -1.282  -7.920  0.00  0.00     0.054 A 
ATOM      3  C   LIG d   1       4.128  -1.203  -8.586  0.00  0.00    -0.008 A 
ATOM      4  C   LIG d   1       4.001   0.161  -9.059  0.00  0.00     0.004 A 
ATOM      5  C   LIG d   1       3.012   0.820  -9.794  0.00  0.00    -0.052 A 
ATOM      6  C   LIG d   1       3.227   2.148 -10.072  0.00  0.00    -0.061 A 
ATOM      7  C   LIG d   1       4.366   2.813  -9.649  0.00  0.00    -0.060 A 
ATOM      8  C   LIG d   1       5.360   2.185  -8.919  0.00  0.00    -0.038 A 
ATOM      9  C   LIG d   1       5.168   0.837  -8.621  0.00  0.00     0.047 A 
ATOM     10  N   LIG d   1       5.928  -0.065  -7.934  0.00  0.00    -0.356 N 
ATOM     11  H   LIG d   1       6.784   0.126  -7.519  0.00  0.00     0.166 HD
ATOM     12  C   LIG d   1       3.169  -2.351  -8.770  0.00  0.00     0.027 C 
ATOM     13  H   LIG d   1       2.340  -2.251  -8.069  0.00  0.00     0.041 H 
ATOM     14  C   LIG d   1       3.908  -3.669  -8.507  0.00  0.00     0.027 C 
ATOM     15  N   LIG d   1       4.709  -3.526  -7.277  0.00  0.00    -0.280 N 
ATOM     16  C   LIG d   1       4.418  -4.279  -6.214  0.00  0.00     0.234 C 
ATOM     17  O   LIG d   1       3.593  -5.157  -6.350  0.00  0.00    -0.274 OA
ATOM     18  C   LIG d   1       5.038  -4.105  -4.865  0.00  0.00     0.092 C 
ATOM     19  N   LIG d   1       5.967  -2.989  -4.828  0.00  0.00    -0.283 N 
ATOM     20  C   LIG d   1       6.316  -2.281  -5.904  0.00  0.00     0.246 C 
ATOM     21  O   LIG d   1       7.094  -1.364  -5.756  0.00  0.00    -0.273 OA
ATOM     22  H   LIG d   1       2.121   0.310 -10.128  0.00  0.00     0.062 H 
ATOM     23  H   LIG d   1       2.485   2.690 -10.640  0.00  0.00     0.062 H 
ATOM     24  H   LIG d   1       4.482   3.858  -9.897  0.00  0.00     0.062 H 
ATOM     25  H   LIG d   1       6.243   2.716  -8.594  0.00  0.00     0.064 H 
ATOM     26  H   LIG d   1       4.564  -3.894  -9.347  0.00  0.00     0.047 H 
ATOM     27  H   LIG d   1       3.184  -4.474  -8.378  0.00  0.00     0.047 H 
ATOM     28  H   LIG d   1       4.248  -3.936  -4.132  0.00  0.00     0.056 H 
ATOM     29  H   LIG d   1       5.574  -5.017  -4.601  0.00  0.00     0.056 H 
ENDROOT
BRANCH  12  30
ATOM     30  C   LIG d   1       2.640  -2.344 -10.181  0.00  0.00    -0.038 A 
ATOM     31  C   LIG d   1       1.298  -2.105 -10.416  0.00  0.00    -0.057 A 
ATOM     32  C   LIG d   1       0.813  -2.099 -11.710  0.00  0.00    -0.043 A 
ATOM     33  H   LIG d   1       0.630  -1.922  -9.587  0.00  0.00     0.062 H 
ATOM     34  C   LIG d   1       1.670  -2.331 -12.770  0.00  0.00     0.041 A 
ATOM     35  H   LIG d   1      -0.235  -1.911 -11.893  0.00  0.00     0.063 H 
ATOM     36  C   LIG d   1       3.012  -2.571 -12.536  0.00  0.00    -0.043 A 
ATOM     37 CL   LIG d   1       1.061  -2.323 -14.397  0.00  0.00    -0.084 Cl
ATOM     38  C   LIG d   1       3.497  -2.571 -11.242  0.00  0.00    -0.057 A 
ATOM     39  H   LIG d   1       3.681  -2.752 -13.363  0.00  0.00     0.063 H 
ATOM     40  H   LIG d   1       4.546  -2.753 -11.059  0.00  0.00     0.062 H 
ENDBRANCH  12  30
BRANCH   1  41
ATOM     41  C   LIG d   1       6.955  -3.109  -8.118  0.00  0.00    -0.029 C 
ATOM     42  H   LIG d   1       6.598  -3.946  -8.717  0.00  0.00     0.026 H 
ATOM     43  H   LIG d   1       7.334  -2.327  -8.777  0.00  0.00     0.026 H 
ATOM     44  H   LIG d   1       7.755  -3.448  -7.460  0.00  0.00     0.026 H 
ENDBRANCH   1  41
BRANCH  19  45
ATOM     45  C   LIG d   1       6.549  -2.616  -3.537  0.00  0.00     0.073 C 
ATOM     46  H   LIG d   1       6.538  -3.479  -2.871  0.00  0.00     0.054 H 
ATOM     47  H   LIG d   1       7.577  -2.284  -3.684  0.00  0.00     0.054 H 
BRANCH  45  48
ATOM     48  C   LIG d   1       5.743  -1.499  -2.925  0.00  0.00     0.122 A 
ATOM     49  O   LIG d   1       6.091  -0.202  -2.899  0.00  0.00    -0.466 OA
ATOM     50  C   LIG d   1       5.134   0.506  -2.279  0.00  0.00     0.092 A 
ATOM     51  C   LIG d   1       4.163  -0.340  -1.892  0.00  0.00    -0.024 A 
ATOM     52  H   LIG d   1       5.144   1.573  -2.114  0.00  0.00     0.103 H 
ATOM     53  C   LIG d   1       4.555  -1.633  -2.309  0.00  0.00    -0.019 A 
ATOM     54  H   LIG d   1       3.256  -0.082  -1.364  0.00  0.00     0.065 H 
ATOM     55  H   LIG d   1       4.007  -2.551  -2.160  0.00  0.00     0.065 H 
ENDBRANCH  45  48
ENDBRANCH  19  45
TORSDOF 4
ENDMDL
MODEL 3
REMARK VINA RESULT:      -6.7      5.288      6.880
REMARK  4 active torsions:
REMARK  status: ('A' for Active; 'I' for Inactive)
REMARK    1  A    between atoms: C_1  and  C_2 
REMARK    2  A    between atoms: C_13  and  C_29 
REMARK    3  A    between atoms: N_20  and  C_23 
REMARK    4  A    between atoms: C_23  and  C_24 
ROOT
ATOM      1  C   LIG d   1       5.217  -3.019  -8.052  0.00  0.00     0.151 C 
ATOM      2  C   LIG d   1       5.147  -2.630  -6.594  0.00  0.00     0.054 A 
ATOM      3  C   LIG d   1       6.235  -2.561  -5.795  0.00  0.00    -0.008 A 
ATOM      4  C   LIG d   1       5.770  -2.168  -4.480  0.00  0.00     0.004 A 
ATOM      5  C   LIG d   1       6.432  -1.940  -3.270  0.00  0.00    -0.052 A 
ATOM      6  C   LIG d   1       5.656  -1.575  -2.198  0.00  0.00    -0.061 A 
ATOM      7  C   LIG d   1       4.281  -1.434  -2.298  0.00  0.00    -0.060 A 
ATOM      8  C   LIG d   1       3.601  -1.652  -3.484  0.00  0.00    -0.038 A 
ATOM      9  C   LIG d   1       4.363  -2.024  -4.590  0.00  0.00     0.047 A 
ATOM     10  N   LIG d   1       4.024  -2.307  -5.881  0.00  0.00    -0.356 N 
ATOM     11  H   LIG d   1       3.123  -2.285  -6.240  0.00  0.00     0.166 HD
ATOM     12  C   LIG d   1       7.645  -2.847  -6.242  0.00  0.00     0.027 C 
ATOM     13  H   LIG d   1       8.175  -1.909  -6.403  0.00  0.00     0.041 H 
ATOM     14  C   LIG d   1       7.604  -3.644  -7.552  0.00  0.00     0.027 C 
ATOM     15  N   LIG d   1       6.622  -3.019  -8.457  0.00  0.00    -0.280 N 
ATOM     16  C   LIG d   1       7.039  -2.481  -9.605  0.00  0.00     0.234 C 
ATOM     17  O   LIG d   1       8.196  -2.656  -9.927  0.00  0.00    -0.274 OA
ATOM     18  C   LIG d   1       6.176  -1.671 -10.517  0.00  0.00     0.092 C 
ATOM     19  N   LIG d   1       4.833  -1.496  -9.989  0.00  0.00    -0.283 N 
ATOM     20  C   LIG d   1       4.391  -2.092  -8.881  0.00  0.00     0.246 C 
ATOM     21  O   LIG d   1       3.254  -1.868  -8.527  0.00  0.00    -0.273 OA
ATOM     22  H   LIG d   1       7.503  -2.048  -3.183  0.00  0.00     0.062 H 
ATOM     23  H   LIG d   1       6.132  -1.392  -1.246  0.00  0.00     0.062 H 
ATOM     24  H   LIG d   1       3.721  -1.144  -1.421  0.00  0.00     0.062 H 
ATOM     25  H   LIG d   1       2.528  -1.537  -3.549  0.00  0.00     0.064 H 
ATOM     26  H   LIG d   1       7.308  -4.673  -7.345  0.00  0.00     0.047 H 
ATOM     27  H   LIG d   1       8.589  -3.632  -8.018  0.00  0.00     0.047 H 
ATOM     28  H   LIG d   1       6.633  -0.691 -10.660  0.00  0.00     0.056 H 
ATOM     29  H   LIG d   1       6.111  -2.173 -11.482  0.00  0.00     0.056 H 
ENDROOT
BRANCH  12  30
ATOM     30  C   LIG d   1       8.355  -3.653  -5.185  0.00  0.00    -0.038 A 
ATOM     31  C   LIG d   1       7.998  -4.971  -4.963  0.00  0.00    -0.057 A 
ATOM     32  C   LIG d   1       8.649  -5.710  -3.994  0.00  0.00    -0.043 A 
ATOM     33  H   LIG d   1       7.211  -5.422  -5.549  0.00  0.00     0.062 H 
ATOM     34  C   LIG d   1       9.658  -5.132  -3.246  0.00  0.00     0.041 A 
ATOM     35  H   LIG d   1       8.370  -6.740  -3.823  0.00  0.00     0.063 H 
ATOM     36  C   LIG d   1      10.016  -3.814  -3.467  0.00  0.00    -0.043 A 
ATOM     37 CL   LIG d   1      10.477  -6.061  -2.029  0.00  0.00    -0.084 Cl
ATOM     38  C   LIG d   1       9.367  -3.078  -4.440  0.00  0.00    -0.057 A 
ATOM     39  H   LIG d   1      10.803  -3.363  -2.883  0.00  0.00     0.063 H 
ATOM     40  H   LIG d   1       9.650  -2.050  -4.616  0.00  0.00     0.062 H 
ENDBRANCH  12  30
BRANCH   1  41
ATOM     41  C   LIG d   1       4.656  -4.433  -8.213  0.00  0.00    -0.029 C 
ATOM     42  H   LIG d   1       3.895  -4.611  -7.454  0.00  0.00     0.026 H 
ATOM     43  H   LIG d   1       4.212  -4.538  -9.203  0.00  0.00     0.026 H 
ATOM     44  H   LIG d   1       5.461  -5.159  -8.097  0.00  0.00     0.026 H 
ENDBRANCH   1  41
BRANCH  19  45
ATOM     45  C   LIG d   1       3.916  -0.612 -10.712  0.00  0.00     0.073 C 
ATOM     46  H   LIG d   1       4.251  -0.506 -11.744  0.00  0.00     0.054 H 
ATOM     47  H   LIG d   1       2.913  -1.038 -10.697  0.00  0.00     0.054 H 
BRANCH  45  48
ATOM     48  C   LIG d   1       3.896   0.742 -10.049  0.00  0.00     0.122 A 
ATOM     49  O   LIG d   1       4.923   1.606  -9.996  0.00  0.00    -0.466 OA
ATOM     50  C   LIG d   1       4.544   2.711  -9.333  0.00  0.00     0.092 A 
ATOM     51  C   LIG d   1       3.265   2.557  -8.947  0.00  0.00    -0.024 A 
ATOM     52  H   LIG d   1       5.163   3.574  -9.138  0.00  0.00     0.103 H 
ATOM     53  C   LIG d   1       2.846   1.288  -9.409  0.00  0.00    -0.019 A 
ATOM     54  H   LIG d   1       2.671   3.267  -8.390  0.00  0.00     0.065 H 
ATOM     55  H   LIG d   1       1.873   0.843  -9.273  0.00  0.00     0.065 H 
ENDBRANCH  45  48
ENDBRANCH  19  45
TORSDOF 4
ENDMDL
MODEL 4
REMARK VINA RESULT:      -6.6      4.326      6.326
REMARK  4 active torsions:
REMARK  status: ('A' for Active; 'I' for Inactive)
REMARK    1  A    between atoms: C_1  and  C_2 
REMARK    2  A    between atoms: C_13  and  C_29 
REMARK    3  A    between atoms: N_20  and  C_23 
REMARK    4  A    between atoms: C_23  and  C_24 
ROOT
ATOM      1  C   LIG d   1       8.184  -2.541  -4.948  0.00  0.00     0.151 C 
ATOM      2  C   LIG d   1       7.020  -1.724  -4.439  0.00  0.00     0.054 A 
ATOM      3  C   LIG d   1       5.923  -1.458  -5.183  0.00  0.00    -0.008 A 
ATOM      4  C   LIG d   1       5.042  -0.651  -4.363  0.00  0.00     0.004 A 
ATOM      5  C   LIG d   1       3.785  -0.087  -4.596  0.00  0.00    -0.052 A 
ATOM      6  C   LIG d   1       3.230   0.638  -3.570  0.00  0.00    -0.061 A 
ATOM      7  C   LIG d   1       3.877   0.809  -2.356  0.00  0.00    -0.060 A 
ATOM      8  C   LIG d   1       5.122   0.260  -2.099  0.00  0.00    -0.038 A 
ATOM      9  C   LIG d   1       5.708  -0.481  -3.123  0.00  0.00     0.047 A 
ATOM     10  N   LIG d   1       6.897  -1.146  -3.204  0.00  0.00    -0.356 N 
ATOM     11  H   LIG d   1       7.557  -1.200  -2.495  0.00  0.00     0.166 HD
ATOM     12  C   LIG d   1       5.709  -1.938  -6.595  0.00  0.00     0.027 C 
ATOM     13  H   LIG d   1       5.032  -2.791  -6.592  0.00  0.00     0.041 H 
ATOM     14  C   LIG d   1       7.059  -2.356  -7.193  0.00  0.00     0.027 C 
ATOM     15  N   LIG d   1       7.783  -3.176  -6.203  0.00  0.00    -0.280 N 
ATOM     16  C   LIG d   1       8.048  -4.454  -6.480  0.00  0.00     0.234 C 
ATOM     17  O   LIG d   1       7.808  -4.854  -7.600  0.00  0.00    -0.274 OA
ATOM     18  C   LIG d   1       8.614  -5.427  -5.497  0.00  0.00     0.092 C 
ATOM     19  N   LIG d   1       8.805  -4.833  -4.185  0.00  0.00    -0.283 N 
ATOM     20  C   LIG d   1       8.611  -3.539  -3.924  0.00  0.00     0.246 C 
ATOM     21  O   LIG d   1       8.792  -3.153  -2.789  0.00  0.00    -0.273 OA
ATOM     22  H   LIG d   1       3.273  -0.215  -5.538  0.00  0.00     0.062 H 
ATOM     23  H   LIG d   1       2.260   1.090  -3.714  0.00  0.00     0.062 H 
ATOM     24  H   LIG d   1       3.393   1.389  -1.585  0.00  0.00     0.062 H 
ATOM     25  H   LIG d   1       5.614   0.400  -1.148  0.00  0.00     0.064 H 
ATOM     26  H   LIG d   1       7.644  -1.467  -7.430  0.00  0.00     0.047 H 
ATOM     27  H   LIG d   1       6.892  -2.940  -8.098  0.00  0.00     0.047 H 
ATOM     28  H   LIG d   1       7.937  -6.276  -5.409  0.00  0.00     0.056 H 
ATOM     29  H   LIG d   1       9.577  -5.782  -5.865  0.00  0.00     0.056 H 
ENDROOT
BRANCH  12  30
ATOM     30  C   LIG d   1       5.116  -0.825  -7.421  0.00  0.00    -0.038 A 
ATOM     31  C   LIG d   1       3.789  -0.880  -7.804  0.00  0.00    -0.057 A 
ATOM     32  C   LIG d   1       3.245   0.140  -8.561  0.00  0.00    -0.043 A 
ATOM     33  H   LIG d   1       3.177  -1.720  -7.510  0.00  0.00     0.062 H 
ATOM     34  C   LIG d   1       4.029   1.216  -8.936  0.00  0.00     0.041 A 
ATOM     35  H   LIG d   1       2.207   0.097  -8.859  0.00  0.00     0.063 H 
ATOM     36  C   LIG d   1       5.357   1.271  -8.554  0.00  0.00    -0.043 A 
ATOM     37 CL   LIG d   1       3.346   2.498  -9.887  0.00  0.00    -0.084 Cl
ATOM     38  C   LIG d   1       5.898   0.253  -7.791  0.00  0.00    -0.057 A 
ATOM     39  H   LIG d   1       5.969   2.111  -8.845  0.00  0.00     0.063 H 
ATOM     40  H   LIG d   1       6.934   0.298  -7.489  0.00  0.00     0.062 H 
ENDBRANCH  12  30
BRANCH   1  41
ATOM     41  C   LIG d   1       9.362  -1.603  -5.222  0.00  0.00    -0.029 C 
ATOM     42  H   LIG d   1       9.250  -1.160  -6.211  0.00  0.00     0.026 H 
ATOM     43  H   LIG d   1       9.381  -0.814  -4.470  0.00  0.00     0.026 H 
ATOM     44  H   LIG d   1      10.294  -2.168  -5.180  0.00  0.00     0.026 H 
ENDBRANCH   1  41
BRANCH  19  45
ATOM     45  C   LIG d   1       9.229  -5.704  -3.087  0.00  0.00     0.073 C 
ATOM     46  H   LIG d   1       9.134  -5.170  -2.141  0.00  0.00     0.054 H 
ATOM     47  H   LIG d   1       8.599  -6.594  -3.065  0.00  0.00     0.054 H 
BRANCH  45  48
ATOM     48  C   LIG d   1      10.666  -6.111  -3.292  0.00  0.00     0.122 A 
ATOM     49  O   LIG d   1      11.113  -7.369  -3.434  0.00  0.00    -0.466 OA
ATOM     50  C   LIG d   1      12.445  -7.355  -3.603  0.00  0.00     0.092 A 
ATOM     51  C   LIG d   1      12.864  -6.078  -3.561  0.00  0.00    -0.024 A 
ATOM     52  H   LIG d   1      13.074  -8.221  -3.744  0.00  0.00     0.103 H 
ATOM     53  C   LIG d   1      11.717  -5.275  -3.361  0.00  0.00    -0.019 A 
ATOM     54  H   LIG d   1      13.883  -5.730  -3.661  0.00  0.00     0.065 H 
ATOM     55  H   LIG d   1      11.691  -4.199  -3.278  0.00  0.00     0.065 H 
ENDBRANCH  45  48
ENDBRANCH  19  45
TORSDOF 4
ENDMDL
MODEL 5
REMARK VINA RESULT:      -6.5      5.846      9.113
REMARK  4 active torsions:
REMARK  status: ('A' for Active; 'I' for Inactive)
REMARK    1  A    between atoms: C_1  and  C_2 
REMARK    2  A    between atoms: C_13  and  C_29 
REMARK    3  A    between atoms: N_20  and  C_23 
REMARK    4  A    between atoms: C_23  and  C_24 
ROOT
ATOM      1  C   LIG d   1       8.431  -6.762  -4.859  0.00  0.00     0.151 C 
ATOM      2  C   LIG d   1       7.412  -7.854  -4.632  0.00  0.00     0.054 A 
ATOM      3  C   LIG d   1       7.405  -8.641  -3.533  0.00  0.00    -0.008 A 
ATOM      4  C   LIG d   1       6.296  -9.562  -3.679  0.00  0.00     0.004 A 
ATOM      5  C   LIG d   1       5.805 -10.589  -2.869  0.00  0.00    -0.052 A 
ATOM      6  C   LIG d   1       4.710 -11.276  -3.333  0.00  0.00    -0.061 A 
ATOM      7  C   LIG d   1       4.111 -10.973  -4.546  0.00  0.00    -0.060 A 
ATOM      8  C   LIG d   1       4.576  -9.959  -5.366  0.00  0.00    -0.038 A 
ATOM      9  C   LIG d   1       5.686  -9.245  -4.920  0.00  0.00     0.047 A 
ATOM     10  N   LIG d   1       6.385  -8.207  -5.465  0.00  0.00    -0.356 N 
ATOM     11  H   LIG d   1       6.185  -7.783  -6.314  0.00  0.00     0.166 HD
ATOM     12  C   LIG d   1       8.391  -8.536  -2.398  0.00  0.00     0.027 C 
ATOM     13  H   LIG d   1       7.929  -8.014  -1.560  0.00  0.00     0.041 H 
ATOM     14  C   LIG d   1       9.621  -7.753  -2.873  0.00  0.00     0.027 C 
ATOM     15  N   LIG d   1       9.168  -6.559  -3.612  0.00  0.00    -0.280 N 
ATOM     16  C   LIG d   1       9.443  -5.346  -3.129  0.00  0.00     0.234 C 
ATOM     17  O   LIG d   1      10.183  -5.271  -2.170  0.00  0.00    -0.274 OA
ATOM     18  C   LIG d   1       8.892  -4.074  -3.687  0.00  0.00     0.092 C 
ATOM     19  N   LIG d   1       7.984  -4.310  -4.797  0.00  0.00    -0.283 N 
ATOM     20  C   LIG d   1       7.765  -5.513  -5.329  0.00  0.00     0.246 C 
ATOM     21  O   LIG d   1       6.978  -5.595  -6.248  0.00  0.00    -0.273 OA
ATOM     22  H   LIG d   1       6.266 -10.833  -1.923  0.00  0.00     0.062 H 
ATOM     23  H   LIG d   1       4.304 -12.078  -2.735  0.00  0.00     0.062 H 
ATOM     24  H   LIG d   1       3.252 -11.546  -4.860  0.00  0.00     0.062 H 
ATOM     25  H   LIG d   1       4.098  -9.733  -6.308  0.00  0.00     0.064 H 
ATOM     26  H   LIG d   1      10.224  -8.382  -3.528  0.00  0.00     0.047 H 
ATOM     27  H   LIG d   1      10.213  -7.445  -2.012  0.00  0.00     0.047 H 
ATOM     28  H   LIG d   1       8.361  -3.542  -2.898  0.00  0.00     0.056 H 
ATOM     29  H   LIG d   1       9.719  -3.454  -4.036  0.00  0.00     0.056 H 
ENDROOT
BRANCH  12  30
ATOM     30  C   LIG d   1       8.810  -9.917  -1.964  0.00  0.00    -0.038 A 
ATOM     31  C   LIG d   1       9.521 -10.727  -2.830  0.00  0.00    -0.057 A 
ATOM     32  C   LIG d   1       9.906 -11.994  -2.433  0.00  0.00    -0.043 A 
ATOM     33  H   LIG d   1       9.776 -10.370  -3.817  0.00  0.00     0.062 H 
ATOM     34  C   LIG d   1       9.579 -12.450  -1.169  0.00  0.00     0.041 A 
ATOM     35  H   LIG d   1      10.462 -12.627  -3.109  0.00  0.00     0.063 H 
ATOM     36  C   LIG d   1       8.868 -11.640  -0.302  0.00  0.00    -0.043 A 
ATOM     37 CL   LIG d   1      10.063 -14.041  -0.668  0.00  0.00    -0.084 Cl
ATOM     38  C   LIG d   1       8.489 -10.371  -0.699  0.00  0.00    -0.057 A 
ATOM     39  H   LIG d   1       8.613 -11.995   0.685  0.00  0.00     0.063 H 
ATOM     40  H   LIG d   1       7.937  -9.736  -0.021  0.00  0.00     0.062 H 
ENDBRANCH  12  30
BRANCH   1  41
ATOM     41  C   LIG d   1       9.410  -7.220  -5.943  0.00  0.00    -0.029 C 
ATOM     42  H   LIG d   1      10.060  -6.390  -6.220  0.00  0.00     0.026 H 
ATOM     43  H   LIG d   1      10.015  -8.044  -5.562  0.00  0.00     0.026 H 
ATOM     44  H   LIG d   1       8.853  -7.553  -6.819  0.00  0.00     0.026 H 
ENDBRANCH   1  41
BRANCH  19  45
ATOM     45  C   LIG d   1       7.266  -3.163  -5.357  0.00  0.00     0.073 C 
ATOM     46  H   LIG d   1       7.968  -2.351  -5.546  0.00  0.00     0.054 H 
ATOM     47  H   LIG d   1       6.789  -3.455  -6.293  0.00  0.00     0.054 H 
BRANCH  45  48
ATOM     48  C   LIG d   1       6.214  -2.702  -4.381  0.00  0.00     0.122 A 
ATOM     49  O   LIG d   1       6.376  -1.755  -3.442  0.00  0.00    -0.466 OA
ATOM     50  C   LIG d   1       5.230  -1.601  -2.759  0.00  0.00     0.092 A 
ATOM     51  C   LIG d   1       4.322  -2.462  -3.254  0.00  0.00    -0.024 A 
ATOM     52  H   LIG d   1       5.065  -0.908  -1.948  0.00  0.00     0.103 H 
ATOM     53  C   LIG d   1       4.956  -3.171  -4.300  0.00  0.00    -0.019 A 
ATOM     54  H   LIG d   1       3.303  -2.588  -2.917  0.00  0.00     0.065 H 
ATOM     55  H   LIG d   1       4.516  -3.942  -4.914  0.00  0.00     0.065 H 
ENDBRANCH  45  48
ENDBRANCH  19  45
TORSDOF 4
ENDMDL
MODEL 6
REMARK VINA RESULT:      -6.5      3.746      7.737
REMARK  4 active torsions:
REMARK  status: ('A' for Active; 'I' for Inactive)
REMARK    1  A    between atoms: C_1  and  C_2 
REMARK    2  A    between atoms: C_13  and  C_29 
REMARK    3  A    between atoms: N_20  and  C_23 
REMARK    4  A    between atoms: C_23  and  C_24 
ROOT
ATOM      1  C   LIG d   1       8.267  -0.761  -6.071  0.00  0.00     0.151 C 
ATOM      2  C   LIG d   1       8.673   0.573  -5.491  0.00  0.00     0.054 A 
ATOM      3  C   LIG d   1       8.653   1.724  -6.199  0.00  0.00    -0.008 A 
ATOM      4  C   LIG d   1       9.113   2.774  -5.313  0.00  0.00     0.004 A 
ATOM      5  C   LIG d   1       9.297   4.148  -5.489  0.00  0.00    -0.052 A 
ATOM      6  C   LIG d   1       9.762   4.855  -4.407  0.00  0.00    -0.061 A 
ATOM      7  C   LIG d   1      10.039   4.246  -3.194  0.00  0.00    -0.060 A 
ATOM      8  C   LIG d   1       9.864   2.888  -2.993  0.00  0.00    -0.038 A 
ATOM      9  C   LIG d   1       9.392   2.145  -4.073  0.00  0.00     0.047 A 
ATOM     10  N   LIG d   1       9.112   0.817  -4.218  0.00  0.00    -0.356 N 
ATOM     11  H   LIG d   1       9.209   0.147  -3.523  0.00  0.00     0.166 HD
ATOM     12  C   LIG d   1       8.220   1.836  -7.639  0.00  0.00     0.027 C 
ATOM     13  H   LIG d   1       7.207   2.235  -7.686  0.00  0.00     0.041 H 
ATOM     14  C   LIG d   1       8.254   0.445  -8.282  0.00  0.00     0.027 C 
ATOM     15  N   LIG d   1       7.623  -0.520  -7.362  0.00  0.00    -0.280 N 
ATOM     16  C   LIG d   1       6.498  -1.137  -7.731  0.00  0.00     0.234 C 
ATOM     17  O   LIG d   1       6.116  -0.986  -8.873  0.00  0.00    -0.274 OA
ATOM     18  C   LIG d   1       5.674  -1.995  -6.827  0.00  0.00     0.092 C 
ATOM     19  N   LIG d   1       6.215  -2.048  -5.479  0.00  0.00    -0.283 N 
ATOM     20  C   LIG d   1       7.376  -1.495  -5.126  0.00  0.00     0.246 C 
ATOM     21  O   LIG d   1       7.727  -1.593  -3.970  0.00  0.00    -0.273 OA
ATOM     22  H   LIG d   1       9.084   4.632  -6.431  0.00  0.00     0.062 H 
ATOM     23  H   LIG d   1       9.918   5.919  -4.506  0.00  0.00     0.062 H 
ATOM     24  H   LIG d   1      10.403   4.852  -2.377  0.00  0.00     0.062 H 
ATOM     25  H   LIG d   1      10.083   2.425  -2.041  0.00  0.00     0.064 H 
ATOM     26  H   LIG d   1       9.288   0.152  -8.466  0.00  0.00     0.047 H 
ATOM     27  H   LIG d   1       7.705   0.464  -9.224  0.00  0.00     0.047 H 
ATOM     28  H   LIG d   1       4.660  -1.597  -6.788  0.00  0.00     0.056 H 
ATOM     29  H   LIG d   1       5.641  -3.007  -7.232  0.00  0.00     0.056 H 
ENDROOT
BRANCH  12  30
ATOM     30  C   LIG d   1       9.160   2.755  -8.377  0.00  0.00    -0.038 A 
ATOM     31  C   LIG d   1      10.500   2.433  -8.484  0.00  0.00    -0.057 A 
ATOM     32  C   LIG d   1      11.362   3.275  -9.161  0.00  0.00    -0.043 A 
ATOM     33  H   LIG d   1      10.873   1.522  -8.039  0.00  0.00     0.062 H 
ATOM     34  C   LIG d   1      10.883   4.441  -9.732  0.00  0.00     0.041 A 
ATOM     35  H   LIG d   1      12.409   3.023  -9.245  0.00  0.00     0.063 H 
ATOM     36  C   LIG d   1       9.542   4.763  -9.624  0.00  0.00    -0.043 A 
ATOM     37 CL   LIG d   1      11.964   5.499 -10.583  0.00  0.00    -0.084 Cl
ATOM     38  C   LIG d   1       8.680   3.917  -8.952  0.00  0.00    -0.057 A 
ATOM     39  H   LIG d   1       9.167   5.672 -10.070  0.00  0.00     0.063 H 
ATOM     40  H   LIG d   1       7.632   4.166  -8.872  0.00  0.00     0.062 H 
ENDBRANCH  12  30
BRANCH   1  41
ATOM     41  C   LIG d   1       9.524  -1.604  -6.297  0.00  0.00    -0.029 C 
ATOM     42  H   LIG d   1       9.990  -1.825  -5.337  0.00  0.00     0.026 H 
ATOM     43  H   LIG d   1       9.252  -2.537  -6.792  0.00  0.00     0.026 H 
ATOM     44  H   LIG d   1      10.225  -1.052  -6.923  0.00  0.00     0.026 H 
ENDBRANCH   1  41
BRANCH  19  45
ATOM     45  C   LIG d   1       5.439  -2.744  -4.450  0.00  0.00     0.073 C 
ATOM     46  H   LIG d   1       4.991  -3.642  -4.877  0.00  0.00     0.054 H 
ATOM     47  H   LIG d   1       6.096  -3.023  -3.626  0.00  0.00     0.054 H 
BRANCH  45  48
ATOM     48  C   LIG d   1       4.351  -1.834  -3.938  0.00  0.00     0.122 A 
ATOM     49  O   LIG d   1       3.828  -0.788  -4.598  0.00  0.00    -0.466 OA
ATOM     50  C   LIG d   1       2.879  -0.212  -3.842  0.00  0.00     0.092 A 
ATOM     51  C   LIG d   1       2.795  -0.885  -2.681  0.00  0.00    -0.024 A 
ATOM     52  H   LIG d   1       2.288   0.649  -4.117  0.00  0.00     0.103 H 
ATOM     53  C   LIG d   1       3.743  -1.931  -2.742  0.00  0.00    -0.019 A 
ATOM     54  H   LIG d   1       2.129  -0.668  -1.857  0.00  0.00     0.065 H 
ATOM     55  H   LIG d   1       3.942  -2.666  -1.977  0.00  0.00     0.065 H 
ENDBRANCH  45  48
ENDBRANCH  19  45
TORSDOF 4
ENDMDL
MODEL 7
REMARK VINA RESULT:      -6.5      4.420      8.851
REMARK  4 active torsions:
REMARK  status: ('A' for Active; 'I' for Inactive)
REMARK    1  A    between atoms: C_1  and  C_2 
REMARK    2  A    between atoms: C_13  and  C_29 
REMARK    3  A    between atoms: N_20  and  C_23 
REMARK    4  A    between atoms: C_23  and  C_24 
ROOT
ATOM      1  C   LIG d   1      10.602   3.228  -5.331  0.00  0.00     0.151 C 
ATOM      2  C   LIG d   1      10.477   4.262  -4.237  0.00  0.00     0.054 A 
ATOM      3  C   LIG d   1      10.030   5.518  -4.455  0.00  0.00    -0.008 A 
ATOM      4  C   LIG d   1      10.061   6.205  -3.179  0.00  0.00     0.004 A 
ATOM      5  C   LIG d   1       9.718   7.505  -2.795  0.00  0.00    -0.052 A 
ATOM      6  C   LIG d   1       9.881   7.823  -1.469  0.00  0.00    -0.061 A 
ATOM      7  C   LIG d   1      10.361   6.908  -0.546  0.00  0.00    -0.060 A 
ATOM      8  C   LIG d   1      10.707   5.615  -0.900  0.00  0.00    -0.038 A 
ATOM      9  C   LIG d   1      10.551   5.263  -2.239  0.00  0.00     0.047 A 
ATOM     10  N   LIG d   1      10.788   4.101  -2.913  0.00  0.00    -0.356 N 
ATOM     11  H   LIG d   1      11.127   3.283  -2.516  0.00  0.00     0.166 HD
ATOM     12  C   LIG d   1       9.592   6.051  -5.795  0.00  0.00     0.027 C 
ATOM     13  H   LIG d   1       8.504   6.063  -5.845  0.00  0.00     0.041 H 
ATOM     14  C   LIG d   1      10.147   5.144  -6.900  0.00  0.00     0.027 C 
ATOM     15  N   LIG d   1       9.918   3.738  -6.520  0.00  0.00    -0.280 N 
ATOM     16  C   LIG d   1       9.108   2.982  -7.263  0.00  0.00     0.234 C 
ATOM     17  O   LIG d   1       8.702   3.443  -8.309  0.00  0.00    -0.274 OA
ATOM     18  C   LIG d   1       8.662   1.606  -6.886  0.00  0.00     0.092 C 
ATOM     19  N   LIG d   1       9.178   1.197  -5.591  0.00  0.00    -0.283 N 
ATOM     20  C   LIG d   1      10.046   1.918  -4.881  0.00  0.00     0.246 C 
ATOM     21  O   LIG d   1      10.404   1.485  -3.807  0.00  0.00    -0.273 OA
ATOM     22  H   LIG d   1       9.343   8.225  -3.507  0.00  0.00     0.062 H 
ATOM     23  H   LIG d   1       9.628   8.818  -1.135  0.00  0.00     0.062 H 
ATOM     24  H   LIG d   1      10.469   7.213   0.484  0.00  0.00     0.062 H 
ATOM     25  H   LIG d   1      11.079   4.910  -0.170  0.00  0.00     0.064 H 
ATOM     26  H   LIG d   1      11.216   5.323  -7.018  0.00  0.00     0.047 H 
ATOM     27  H   LIG d   1       9.633   5.356  -7.838  0.00  0.00     0.047 H 
ATOM     28  H   LIG d   1       7.572   1.582  -6.860  0.00  0.00     0.056 H 
ATOM     29  H   LIG d   1       9.011   0.901  -7.642  0.00  0.00     0.056 H 
ENDROOT
BRANCH  12  30
ATOM     30  C   LIG d   1      10.122   7.450  -5.978  0.00  0.00    -0.038 A 
ATOM     31  C   LIG d   1      11.486   7.672  -6.029  0.00  0.00    -0.057 A 
ATOM     32  C   LIG d   1      11.972   8.955  -6.198  0.00  0.00    -0.043 A 
ATOM     33  H   LIG d   1      12.171   6.842  -5.939  0.00  0.00     0.062 H 
ATOM     34  C   LIG d   1      11.094  10.016  -6.316  0.00  0.00     0.041 A 
ATOM     35  H   LIG d   1      13.038   9.127  -6.239  0.00  0.00     0.063 H 
ATOM     36  C   LIG d   1       9.730   9.795  -6.264  0.00  0.00    -0.043 A 
ATOM     37 CL   LIG d   1      11.704  11.628  -6.529  0.00  0.00    -0.084 Cl
ATOM     38  C   LIG d   1       9.245   8.511  -6.102  0.00  0.00    -0.057 A 
ATOM     39  H   LIG d   1       9.044  10.623  -6.357  0.00  0.00     0.063 H 
ATOM     40  H   LIG d   1       8.179   8.337  -6.066  0.00  0.00     0.062 H 
ENDBRANCH  12  30
BRANCH   1  41
ATOM     41  C   LIG d   1      12.084   3.033  -5.659  0.00  0.00    -0.029 C 
ATOM     42  H   LIG d   1      12.321   3.548  -6.589  0.00  0.00     0.026 H 
ATOM     43  H   LIG d   1      12.691   3.443  -4.851  0.00  0.00     0.026 H 
ATOM     44  H   LIG d   1      12.295   1.969  -5.768  0.00  0.00     0.026 H 
ENDBRANCH   1  41
BRANCH  19  45
ATOM     45  C   LIG d   1       8.715  -0.075  -5.033  0.00  0.00     0.073 C 
ATOM     46  H   LIG d   1       8.463  -0.758  -5.845  0.00  0.00     0.054 H 
ATOM     47  H   LIG d   1       9.505  -0.513  -4.423  0.00  0.00     0.054 H 
BRANCH  45  48
ATOM     48  C   LIG d   1       7.496   0.164  -4.179  0.00  0.00     0.122 A 
ATOM     49  O   LIG d   1       6.890   1.347  -3.989  0.00  0.00    -0.466 OA
ATOM     50  C   LIG d   1       5.835   1.183  -3.175  0.00  0.00     0.092 A 
ATOM     51  C   LIG d   1       5.762  -0.114  -2.830  0.00  0.00    -0.024 A 
ATOM     52  H   LIG d   1       5.161   1.962  -2.850  0.00  0.00     0.103 H 
ATOM     53  C   LIG d   1       6.833  -0.772  -3.477  0.00  0.00    -0.019 A 
ATOM     54  H   LIG d   1       5.026  -0.568  -2.181  0.00  0.00     0.065 H 
ATOM     55  H   LIG d   1       7.072  -1.823  -3.418  0.00  0.00     0.065 H 
ENDBRANCH  45  48
ENDBRANCH  19  45
TORSDOF 4
ENDMDL
MODEL 8
REMARK VINA RESULT:      -6.3      5.365      8.254
REMARK  4 active torsions:
REMARK  status: ('A' for Active; 'I' for Inactive)
REMARK    1  A    between atoms: C_1  and  C_2 
REMARK    2  A    between atoms: C_13  and  C_29 
REMARK    3  A    between atoms: N_20  and  C_23 
REMARK    4  A    between atoms: C_23  and  C_24 
ROOT
ATOM      1  C   LIG d   1       7.410  -3.854  -6.085  0.00  0.00     0.151 C 
ATOM      2  C   LIG d   1       6.453  -2.984  -5.304  0.00  0.00     0.054 A 
ATOM      3  C   LIG d   1       5.371  -2.393  -5.859  0.00  0.00    -0.008 A 
ATOM      4  C   LIG d   1       4.714  -1.644  -4.807  0.00  0.00     0.004 A 
ATOM      5  C   LIG d   1       3.565  -0.848  -4.788  0.00  0.00    -0.052 A 
ATOM      6  C   LIG d   1       3.228  -0.273  -3.587  0.00  0.00    -0.061 A 
ATOM      7  C   LIG d   1       3.983  -0.467  -2.441  0.00  0.00    -0.060 A 
ATOM      8  C   LIG d   1       5.123  -1.252  -2.432  0.00  0.00    -0.038 A 
ATOM      9  C   LIG d   1       5.489  -1.848  -3.637  0.00  0.00     0.047 A 
ATOM     10  N   LIG d   1       6.529  -2.665  -3.975  0.00  0.00    -0.356 N 
ATOM     11  H   LIG d   1       7.218  -2.973  -3.366  0.00  0.00     0.166 HD
ATOM     12  C   LIG d   1       4.971  -2.525  -7.306  0.00  0.00     0.027 C 
ATOM     13  H   LIG d   1       4.152  -3.239  -7.394  0.00  0.00     0.041 H 
ATOM     14  C   LIG d   1       6.174  -3.022  -8.116  0.00  0.00     0.027 C 
ATOM     15  N   LIG d   1       6.809  -4.137  -7.389  0.00  0.00    -0.280 N 
ATOM     16  C   LIG d   1       6.817  -5.355  -7.935  0.00  0.00     0.234 C 
ATOM     17  O   LIG d   1       6.427  -5.467  -9.078  0.00  0.00    -0.274 OA
ATOM     18  C   LIG d   1       7.269  -6.590  -7.227  0.00  0.00     0.092 C 
ATOM     19  N   LIG d   1       7.661  -6.324  -5.853  0.00  0.00    -0.283 N 
ATOM     20  C   LIG d   1       7.724  -5.100  -5.327  0.00  0.00     0.246 C 
ATOM     21  O   LIG d   1       8.054  -4.994  -4.166  0.00  0.00    -0.273 OA
ATOM     22  H   LIG d   1       2.971  -0.690  -5.676  0.00  0.00     0.062 H 
ATOM     23  H   LIG d   1       2.348   0.350  -3.534  0.00  0.00     0.062 H 
ATOM     24  H   LIG d   1       3.670   0.009  -1.524  0.00  0.00     0.062 H 
ATOM     25  H   LIG d   1       5.702  -1.397  -1.531  0.00  0.00     0.064 H 
ATOM     26  H   LIG d   1       6.892  -2.210  -8.240  0.00  0.00     0.047 H 
ATOM     27  H   LIG d   1       5.838  -3.369  -9.093  0.00  0.00     0.047 H 
ATOM     28  H   LIG d   1       6.457  -7.318  -7.231  0.00  0.00     0.056 H 
ATOM     29  H   LIG d   1       8.122  -7.012  -7.759  0.00  0.00     0.056 H 
ENDROOT
BRANCH  12  30
ATOM     30  C   LIG d   1       4.530  -1.183  -7.831  0.00  0.00    -0.038 A 
ATOM     31  C   LIG d   1       5.451  -0.163  -7.983  0.00  0.00    -0.057 A 
ATOM     32  C   LIG d   1       5.047   1.067  -8.465  0.00  0.00    -0.043 A 
ATOM     33  H   LIG d   1       6.487  -0.329  -7.726  0.00  0.00     0.062 H 
ATOM     34  C   LIG d   1       3.720   1.279  -8.795  0.00  0.00     0.041 A 
ATOM     35  H   LIG d   1       5.767   1.864  -8.584  0.00  0.00     0.063 H 
ATOM     36  C   LIG d   1       2.798   0.259  -8.643  0.00  0.00    -0.043 A 
ATOM     37 CL   LIG d   1       3.212   2.824  -9.401  0.00  0.00    -0.084 Cl
ATOM     38  C   LIG d   1       3.205  -0.973  -8.166  0.00  0.00    -0.057 A 
ATOM     39  H   LIG d   1       1.763   0.423  -8.901  0.00  0.00     0.063 H 
ATOM     40  H   LIG d   1       2.486  -1.771  -8.051  0.00  0.00     0.062 H 
ENDBRANCH  12  30
BRANCH   1  41
ATOM     41  C   LIG d   1       8.714  -3.083  -6.300  0.00  0.00    -0.029 C 
ATOM     42  H   LIG d   1       8.798  -2.294  -5.553  0.00  0.00     0.026 H 
ATOM     43  H   LIG d   1       9.560  -3.765  -6.204  0.00  0.00     0.026 H 
ATOM     44  H   LIG d   1       8.716  -2.641  -7.297  0.00  0.00     0.026 H 
ENDBRANCH   1  41
BRANCH  19  45
ATOM     45  C   LIG d   1       7.999  -7.463  -4.997  0.00  0.00     0.073 C 
ATOM     46  H   LIG d   1       8.838  -8.007  -5.431  0.00  0.00     0.054 H 
ATOM     47  H   LIG d   1       8.273  -7.104  -4.005  0.00  0.00     0.054 H 
BRANCH  45  48
ATOM     48  C   LIG d   1       6.809  -8.381  -4.887  0.00  0.00     0.122 A 
ATOM     49  O   LIG d   1       5.521  -8.001  -4.891  0.00  0.00    -0.466 OA
ATOM     50  C   LIG d   1       4.734  -9.083  -4.781  0.00  0.00     0.092 A 
ATOM     51  C   LIG d   1       5.519 -10.172  -4.695  0.00  0.00    -0.024 A 
ATOM     52  H   LIG d   1       3.654  -9.081  -4.759  0.00  0.00     0.103 H 
ATOM     53  C   LIG d   1       6.857  -9.720  -4.764  0.00  0.00    -0.019 A 
ATOM     54  H   LIG d   1       5.191 -11.197  -4.593  0.00  0.00     0.065 H 
ATOM     55  H   LIG d   1       7.746 -10.331  -4.724  0.00  0.00     0.065 H 
ENDBRANCH  45  48
ENDBRANCH  19  45
TORSDOF 4
ENDMDL
MODEL 9
REMARK VINA RESULT:      -6.3      2.158      2.590
REMARK  4 active torsions:
REMARK  status: ('A' for Active; 'I' for Inactive)
REMARK    1  A    between atoms: C_1  and  C_2 
REMARK    2  A    between atoms: C_13  and  C_29 
REMARK    3  A    between atoms: N_20  and  C_23 
REMARK    4  A    between atoms: C_23  and  C_24 
ROOT
ATOM      1  C   LIG d   1       8.799   1.352  -5.556  0.00  0.00     0.151 C 
ATOM      2  C   LIG d   1       7.539   0.934  -4.836  0.00  0.00     0.054 A 
ATOM      3  C   LIG d   1       6.691  -0.003  -5.316  0.00  0.00    -0.008 A 
ATOM      4  C   LIG d   1       5.608  -0.122  -4.361  0.00  0.00     0.004 A 
ATOM      5  C   LIG d   1       4.461  -0.919  -4.324  0.00  0.00    -0.052 A 
ATOM      6  C   LIG d   1       3.631  -0.764  -3.240  0.00  0.00    -0.061 A 
ATOM      7  C   LIG d   1       3.909   0.138  -2.224  0.00  0.00    -0.060 A 
ATOM      8  C   LIG d   1       5.038   0.938  -2.236  0.00  0.00    -0.038 A 
ATOM      9  C   LIG d   1       5.899   0.801  -3.323  0.00  0.00     0.047 A 
ATOM     10  N   LIG d   1       7.074   1.417  -3.643  0.00  0.00    -0.356 N 
ATOM     11  H   LIG d   1       7.513   2.096  -3.107  0.00  0.00     0.166 HD
ATOM     12  C   LIG d   1       6.885  -0.753  -6.608  0.00  0.00     0.027 C 
ATOM     13  H   LIG d   1       7.265  -1.753  -6.397  0.00  0.00     0.041 H 
ATOM     14  C   LIG d   1       7.894   0.004  -7.481  0.00  0.00     0.027 C 
ATOM     15  N   LIG d   1       9.041   0.403  -6.643  0.00  0.00    -0.280 N 
ATOM     16  C   LIG d   1      10.248  -0.104  -6.899  0.00  0.00     0.234 C 
ATOM     17  O   LIG d   1      10.383  -0.767  -7.907  0.00  0.00    -0.274 OA
ATOM     18  C   LIG d   1      11.443   0.085  -6.022  0.00  0.00     0.092 C 
ATOM     19  N   LIG d   1      11.132   0.852  -4.829  0.00  0.00    -0.283 N 
ATOM     20  C   LIG d   1       9.947   1.423  -4.605  0.00  0.00     0.246 C 
ATOM     21  O   LIG d   1       9.794   2.033  -3.569  0.00  0.00    -0.273 OA
ATOM     22  H   LIG d   1       4.236  -1.624  -5.111  0.00  0.00     0.062 H 
ATOM     23  H   LIG d   1       2.734  -1.361  -3.178  0.00  0.00     0.062 H 
ATOM     24  H   LIG d   1       3.221   0.217  -1.396  0.00  0.00     0.062 H 
ATOM     25  H   LIG d   1       5.243   1.635  -1.436  0.00  0.00     0.064 H 
ATOM     26  H   LIG d   1       7.421   0.891  -7.901  0.00  0.00     0.047 H 
ATOM     27  H   LIG d   1       8.240  -0.645  -8.286  0.00  0.00     0.047 H 
ATOM     28  H   LIG d   1      11.825  -0.893  -5.728  0.00  0.00     0.056 H 
ATOM     29  H   LIG d   1      12.216   0.609  -6.585  0.00  0.00     0.056 H 
ENDROOT
BRANCH  12  30
ATOM     30  C   LIG d   1       5.569  -0.856  -7.335  0.00  0.00    -0.038 A 
ATOM     31  C   LIG d   1       4.926   0.290  -7.766  0.00  0.00    -0.057 A 
ATOM     32  C   LIG d   1       3.719   0.196  -8.433  0.00  0.00    -0.043 A 
ATOM     33  H   LIG d   1       5.369   1.258  -7.583  0.00  0.00     0.062 H 
ATOM     34  C   LIG d   1       3.154  -1.044  -8.669  0.00  0.00     0.041 A 
ATOM     35  H   LIG d   1       3.218   1.092  -8.771  0.00  0.00     0.063 H 
ATOM     36  C   LIG d   1       3.797  -2.190  -8.237  0.00  0.00    -0.043 A 
ATOM     37 CL   LIG d   1       1.639  -1.162  -9.507  0.00  0.00    -0.084 Cl
ATOM     38  C   LIG d   1       5.007  -2.095  -7.576  0.00  0.00    -0.057 A 
ATOM     39  H   LIG d   1       3.357  -3.158  -8.421  0.00  0.00     0.063 H 
ATOM     40  H   LIG d   1       5.511  -2.991  -7.242  0.00  0.00     0.062 H 
ENDBRANCH  12  30
BRANCH   1  41
ATOM     41  C   LIG d   1       8.587   2.745  -6.154  0.00  0.00    -0.029 C 
ATOM     42  H   LIG d   1       8.685   2.694  -7.238  0.00  0.00     0.026 H 
ATOM     43  H   LIG d   1       7.589   3.102  -5.896  0.00  0.00     0.026 H 
ATOM     44  H   LIG d   1       9.333   3.430  -5.753  0.00  0.00     0.026 H 
ENDBRANCH   1  41
BRANCH  19  45
ATOM     45  C   LIG d   1      12.175   1.003  -3.812  0.00  0.00     0.073 C 
ATOM     46  H   LIG d   1      11.736   1.399  -2.896  0.00  0.00     0.054 H 
ATOM     47  H   LIG d   1      12.627   0.032  -3.608  0.00  0.00     0.054 H 
BRANCH  45  48
ATOM     48  C   LIG d   1      13.233   1.953  -4.313  0.00  0.00     0.122 A 
ATOM     49  O   LIG d   1      14.432   1.604  -4.807  0.00  0.00    -0.466 OA
ATOM     50  C   LIG d   1      15.110   2.708  -5.159  0.00  0.00     0.092 A 
ATOM     51  C   LIG d   1      14.347   3.780  -4.882  0.00  0.00    -0.024 A 
ATOM     52  H   LIG d   1      16.101   2.731  -5.588  0.00  0.00     0.103 H 
ATOM     53  C   LIG d   1      13.137   3.294  -4.337  0.00  0.00    -0.019 A 
ATOM     54  H   LIG d   1      14.609   4.816  -5.045  0.00  0.00     0.065 H 
ATOM     55  H   LIG d   1      12.298   3.886  -4.003  0.00  0.00     0.065 H 
ENDBRANCH  45  48
ENDBRANCH  19  45
TORSDOF 4
ENDMDL
MODEL 10
REMARK VINA RESULT:      -6.1      4.024      8.261
REMARK  4 active torsions:
REMARK  status: ('A' for Active; 'I' for Inactive)
REMARK    1  A    between atoms: C_1  and  C_2 
REMARK    2  A    between atoms: C_13  and  C_29 
REMARK    3  A    between atoms: N_20  and  C_23 
REMARK    4  A    between atoms: C_23  and  C_24 
ROOT
ATOM      1  C   LIG d   1       9.245   1.653  -5.464  0.00  0.00     0.151 C 
ATOM      2  C   LIG d   1       9.451   2.977  -4.767  0.00  0.00     0.054 A 
ATOM      3  C   LIG d   1       9.433   4.164  -5.414  0.00  0.00    -0.008 A 
ATOM      4  C   LIG d   1       9.674   5.191  -4.421  0.00  0.00     0.004 A 
ATOM      5  C   LIG d   1       9.764   6.583  -4.502  0.00  0.00    -0.052 A 
ATOM      6  C   LIG d   1      10.011   7.258  -3.331  0.00  0.00    -0.061 A 
ATOM      7  C   LIG d   1      10.166   6.600  -2.121  0.00  0.00    -0.060 A 
ATOM      8  C   LIG d   1      10.080   5.223  -2.013  0.00  0.00    -0.038 A 
ATOM      9  C   LIG d   1       9.829   4.512  -3.186  0.00  0.00     0.047 A 
ATOM     10  N   LIG d   1       9.685   3.178  -3.433  0.00  0.00    -0.356 N 
ATOM     11  H   LIG d   1       9.740   2.476  -2.765  0.00  0.00     0.166 HD
ATOM     12  C   LIG d   1       9.199   4.328  -6.894  0.00  0.00     0.027 C 
ATOM     13  H   LIG d   1       8.172   4.650  -7.068  0.00  0.00     0.041 H 
ATOM     14  C   LIG d   1       9.441   2.984  -7.592  0.00  0.00     0.027 C 
ATOM     15  N   LIG d   1       8.770   1.921  -6.821  0.00  0.00    -0.280 N 
ATOM     16  C   LIG d   1       7.764   1.243  -7.378  0.00  0.00     0.234 C 
ATOM     17  O   LIG d   1       7.535   1.431  -8.554  0.00  0.00    -0.274 OA
ATOM     18  C   LIG d   1       6.898   0.271  -6.644  0.00  0.00     0.092 C 
ATOM     19  N   LIG d   1       7.247   0.179  -5.237  0.00  0.00    -0.283 N 
ATOM     20  C   LIG d   1       8.295   0.798  -4.693  0.00  0.00     0.246 C 
ATOM     21  O   LIG d   1       8.488   0.658  -3.505  0.00  0.00    -0.273 OA
ATOM     22  H   LIG d   1       9.645   7.105  -5.440  0.00  0.00     0.062 H 
ATOM     23  H   LIG d   1      10.089   8.335  -3.354  0.00  0.00     0.062 H 
ATOM     24  H   LIG d   1      10.359   7.182  -1.232  0.00  0.00     0.062 H 
ATOM     25  H   LIG d   1      10.201   4.722  -1.063  0.00  0.00     0.064 H 
ATOM     26  H   LIG d   1      10.511   2.783  -7.638  0.00  0.00     0.047 H 
ATOM     27  H   LIG d   1       9.029   3.018  -8.601  0.00  0.00     0.047 H 
ATOM     28  H   LIG d   1       5.858   0.586  -6.734  0.00  0.00     0.056 H 
ATOM     29  H   LIG d   1       7.007  -0.714  -7.099  0.00  0.00     0.056 H 
ENDROOT
BRANCH  12  30
ATOM     30  C   LIG d   1      10.151   5.359  -7.443  0.00  0.00    -0.038 A 
ATOM     31  C   LIG d   1      11.514   5.131  -7.406  0.00  0.00    -0.057 A 
ATOM     32  C   LIG d   1      12.388   6.076  -7.910  0.00  0.00    -0.043 A 
ATOM     33  H   LIG d   1      11.896   4.213  -6.984  0.00  0.00     0.062 H 
ATOM     34  C   LIG d   1      11.898   7.250  -8.451  0.00  0.00     0.041 A 
ATOM     35  H   LIG d   1      13.453   5.896  -7.881  0.00  0.00     0.063 H 
ATOM     36  C   LIG d   1      10.534   7.479  -8.488  0.00  0.00    -0.043 A 
ATOM     37 CL   LIG d   1      12.995   8.438  -9.085  0.00  0.00    -0.084 Cl
ATOM     38  C   LIG d   1       9.662   6.531  -7.989  0.00  0.00    -0.057 A 
ATOM     39  H   LIG d   1      10.152   8.396  -8.911  0.00  0.00     0.063 H 
ATOM     40  H   LIG d   1       8.596   6.708  -8.022  0.00  0.00     0.062 H 
ENDBRANCH  12  30
BRANCH   1  41
ATOM     41  C   LIG d   1      10.588   0.924  -5.545  0.00  0.00    -0.029 C 
ATOM     42  H   LIG d   1      11.177   1.338  -6.363  0.00  0.00     0.026 H 
ATOM     43  H   LIG d   1      11.129   1.053  -4.607  0.00  0.00     0.026 H 
ATOM     44  H   LIG d   1      10.415  -0.138  -5.722  0.00  0.00     0.026 H 
ENDBRANCH   1  41
BRANCH  19  45
ATOM     45  C   LIG d   1       6.396  -0.635  -4.366  0.00  0.00     0.073 C 
ATOM     46  H   LIG d   1       6.051  -1.513  -4.912  0.00  0.00     0.054 H 
ATOM     47  H   LIG d   1       6.966  -0.952  -3.493  0.00  0.00     0.054 H 
BRANCH  45  48
ATOM     48  C   LIG d   1       5.207   0.178  -3.921  0.00  0.00     0.122 A 
ATOM     49  O   LIG d   1       4.061   0.333  -4.604  0.00  0.00    -0.466 OA
ATOM     50  C   LIG d   1       3.225   1.117  -3.904  0.00  0.00     0.092 A 
ATOM     51  C   LIG d   1       3.839   1.480  -2.763  0.00  0.00    -0.024 A 
ATOM     52  H   LIG d   1       2.232   1.411  -4.207  0.00  0.00     0.103 H 
ATOM     53  C   LIG d   1       5.116   0.874  -2.773  0.00  0.00    -0.019 A 
ATOM     54  H   LIG d   1       3.433   2.113  -1.987  0.00  0.00     0.065 H 
ATOM     55  H   LIG d   1       5.873   0.955  -2.008  0.00  0.00     0.065 H 
ENDBRANCH  45  48
ENDBRANCH  19  45
TORSDOF 4
ENDMDL
