MODEL 1
REMARK VINA RESULT:      -6.0      0.000      0.000
REMARK  10 active torsions:
REMARK  status: ('A' for Active; 'I' for Inactive)
REMARK    1  A    between atoms: C_1  and  C_2 
REMARK    2  A    between atoms: C_8  and  C_28 
REMARK    3  A    between atoms: C_9  and  C_11 
REMARK    4  A    between atoms: C_11  and  C_12 
REMARK    5  A    between atoms: C_12  and  C_13 
REMARK    6  A    between atoms: C_13  and  C_18 
REMARK    7  A    between atoms: C_14  and  C_15 
REMARK    8  A    between atoms: C_21  and  O_27 
REMARK    9  A    between atoms: C_23  and  C_24 
REMARK   10  A    between atoms: C_23  and  C_25 
ROOT
ATOM      1  C   LIG d   1       5.608  -2.373  -6.687  0.00  0.00    -0.041 C 
ATOM      2  H   LIG d   1       6.439  -1.764  -7.030  0.00  0.00     0.030 H 
ATOM      3  C   LIG d   1       5.160  -3.324  -7.799  0.00  0.00    -0.050 C 
ATOM      4  C   LIG d   1       4.773  -2.507  -9.032  0.00  0.00    -0.049 C 
ATOM      5  C   LIG d   1       3.649  -1.507  -8.733  0.00  0.00    -0.021 C 
ATOM      6  H   LIG d   1       2.746  -2.080  -8.476  0.00  0.00     0.032 H 
ATOM      7  C   LIG d   1       4.017  -0.628  -7.544  0.00  0.00    -0.025 C 
ATOM      8  C   LIG d   1       4.409  -1.496  -6.339  0.00  0.00    -0.033 C 
ATOM      9  H   LIG d   1       3.558  -2.142  -6.093  0.00  0.00     0.031 H 
ATOM     10  C   LIG d   1       5.168   0.305  -7.908  0.00  0.00    -0.045 C 
ATOM     11  C   LIG d   1       4.787   1.169  -9.111  0.00  0.00    -0.025 C 
ATOM     12  C   LIG d   1       4.485   0.279 -10.311  0.00  0.00     0.067 C 
ATOM     13  H   LIG d   1       5.389  -0.275 -10.585  0.00  0.00     0.060 H 
ATOM     14  C   LIG d   1       3.365  -0.714 -10.006  0.00  0.00     0.052 C 
ATOM     15  H   LIG d   1       5.979  -4.000  -8.051  0.00  0.00     0.027 H 
ATOM     16  H   LIG d   1       4.302  -3.903  -7.459  0.00  0.00     0.027 H 
ATOM     17  H   LIG d   1       5.647  -1.971  -9.399  0.00  0.00     0.027 H 
ATOM     18  H   LIG d   1       4.453  -3.232  -9.786  0.00  0.00     0.027 H 
ATOM     19  H   LIG d   1       5.402   0.967  -7.071  0.00  0.00     0.027 H 
ATOM     20  H   LIG d   1       6.054  -0.281  -8.156  0.00  0.00     0.027 H 
ATOM     21  H   LIG d   1       3.937   1.802  -8.878  0.00  0.00     0.029 H 
ATOM     22  H   LIG d   1       5.637   1.818  -9.356  0.00  0.00     0.029 H 
ENDROOT
BRANCH   8  23
ATOM     23  C   LIG d   1       4.726  -0.620  -5.130  0.00  0.00    -0.046 C 
ATOM     24  H   LIG d   1       5.618  -1.000  -4.630  0.00  0.00     0.027 H 
ATOM     25  H   LIG d   1       4.903   0.404  -5.460  0.00  0.00     0.027 H 
BRANCH  23  26
ATOM     26  C   LIG d   1       3.546  -0.647  -4.157  0.00  0.00    -0.031 C 
ATOM     27  H   LIG d   1       3.199   0.371  -3.978  0.00  0.00     0.031 H 
ATOM     28  H   LIG d   1       2.736  -1.237  -4.584  0.00  0.00     0.031 H 
BRANCH  26  29
ATOM     29  C   LIG d   1       3.983  -1.265  -2.854  0.00  0.00    -0.071 C 
ATOM     30  C   LIG d   1       4.365  -0.486  -1.841  0.00  0.00    -0.040 C 
ATOM     31  H   LIG d   1       4.620  -0.926  -0.889  0.00  0.00     0.064 H 
BRANCH  30  32
ATOM     32  C   LIG d   1       4.438   0.968  -2.022  0.00  0.00     0.065 C 
ATOM     33  O   LIG d   1       5.510   1.498  -2.283  0.00  0.00    -0.545 OA
ATOM     34  O   LIG d   1       3.429   1.650  -1.911  0.00  0.00    -0.545 OA
ENDBRANCH  30  32
BRANCH  29  35
ATOM     35  C   LIG d   1       3.989  -2.764  -2.695  0.00  0.00    -0.043 C 
ATOM     36  H   LIG d   1       4.784  -3.053  -2.009  0.00  0.00     0.027 H 
ATOM     37  H   LIG d   1       3.028  -3.091  -2.297  0.00  0.00     0.027 H 
ATOM     38  H   LIG d   1       4.158  -3.231  -3.665  0.00  0.00     0.027 H 
ENDBRANCH  29  35
ENDBRANCH  26  29
ENDBRANCH  23  26
ENDBRANCH   8  23
BRANCH   1  39
ATOM     39  C   LIG d   1       6.030  -3.183  -5.461  0.00  0.00    -0.062 C 
ATOM     40  H   LIG d   1       6.981  -2.806  -5.085  0.00  0.00     0.023 H 
ATOM     41  H   LIG d   1       5.269  -3.089  -4.685  0.00  0.00     0.023 H 
ATOM     42  H   LIG d   1       6.138  -4.232  -5.737  0.00  0.00     0.023 H 
ENDBRANCH   1  39
BRANCH   7  43
ATOM     43  C   LIG d   1       2.821   0.208  -7.061  0.00  0.00    -0.059 C 
ATOM     44  H   LIG d   1       3.168   1.192  -6.745  0.00  0.00     0.024 H 
ATOM     45  H   LIG d   1       2.104   0.319  -7.875  0.00  0.00     0.024 H 
ATOM     46  H   LIG d   1       2.341  -0.294  -6.221  0.00  0.00     0.024 H 
ENDBRANCH   7  43
BRANCH  14  47
ATOM     47  C   LIG d   1       2.017   0.009  -9.962  0.00  0.00    -0.050 C 
ATOM     48  H   LIG d   1       1.897   0.494  -8.994  0.00  0.00     0.024 H 
ATOM     49  H   LIG d   1       1.981   0.759 -10.752  0.00  0.00     0.024 H 
ATOM     50  H   LIG d   1       1.213  -0.713 -10.110  0.00  0.00     0.024 H 
ENDBRANCH  14  47
BRANCH  14  51
ATOM     51  C   LIG d   1       3.280  -1.668 -11.191  0.00  0.00     0.129 C 
ATOM     52  O   LIG d   1       2.659  -1.352 -12.177  0.00  0.00    -0.300 OA
ATOM     53  H   LIG d   1       3.774  -2.627 -11.147  0.00  0.00     0.103 H 
ENDBRANCH  14  51
BRANCH  12  54
ATOM     54  O   LIG d   1       4.100   1.096 -11.423  0.00  0.00    -0.391 OA
ATOM     55  H   LIG d   1       3.919   0.599 -12.232  0.00  0.00     0.210 HD
ENDBRANCH  12  54
TORSDOF 10
ENDMDL
MODEL 2
REMARK VINA RESULT:      -5.8      1.300      2.858
REMARK  10 active torsions:
REMARK  status: ('A' for Active; 'I' for Inactive)
REMARK    1  A    between atoms: C_1  and  C_2 
REMARK    2  A    between atoms: C_8  and  C_28 
REMARK    3  A    between atoms: C_9  and  C_11 
REMARK    4  A    between atoms: C_11  and  C_12 
REMARK    5  A    between atoms: C_12  and  C_13 
REMARK    6  A    between atoms: C_13  and  C_18 
REMARK    7  A    between atoms: C_14  and  C_15 
REMARK    8  A    between atoms: C_21  and  O_27 
REMARK    9  A    between atoms: C_23  and  C_24 
REMARK   10  A    between atoms: C_23  and  C_25 
ROOT
ATOM      1  C   LIG d   1       2.816  -0.036  -6.651  0.00  0.00    -0.041 C 
ATOM      2  H   LIG d   1       2.162  -0.834  -6.990  0.00  0.00     0.030 H 
ATOM      3  C   LIG d   1       2.899   1.063  -7.712  0.00  0.00    -0.050 C 
ATOM      4  C   LIG d   1       3.402   0.457  -9.022  0.00  0.00    -0.049 C 
ATOM      5  C   LIG d   1       4.778  -0.203  -8.864  0.00  0.00    -0.021 C 
ATOM      6  H   LIG d   1       5.505   0.584  -8.616  0.00  0.00     0.032 H 
ATOM      7  C   LIG d   1       4.757  -1.216  -7.724  0.00  0.00    -0.025 C 
ATOM      8  C   LIG d   1       4.233  -0.560  -6.437  0.00  0.00    -0.033 C 
ATOM      9  H   LIG d   1       4.889   0.283  -6.193  0.00  0.00     0.031 H 
ATOM     10  C   LIG d   1       3.884  -2.412  -8.091  0.00  0.00    -0.045 C 
ATOM     11  C   LIG d   1       4.397  -3.065  -9.375  0.00  0.00    -0.025 C 
ATOM     12  C   LIG d   1       4.350  -2.060 -10.520  0.00  0.00     0.067 C 
ATOM     13  H   LIG d   1       3.310  -1.768 -10.701  0.00  0.00     0.060 H 
ATOM     14  C   LIG d   1       5.172  -0.813 -10.206  0.00  0.00     0.052 C 
ATOM     15  H   LIG d   1       1.910   1.495  -7.866  0.00  0.00     0.027 H 
ATOM     16  H   LIG d   1       3.588   1.839  -7.379  0.00  0.00     0.027 H 
ATOM     17  H   LIG d   1       2.685  -0.281  -9.378  0.00  0.00     0.027 H 
ATOM     18  H   LIG d   1       3.453   1.284  -9.737  0.00  0.00     0.027 H 
ATOM     19  H   LIG d   1       3.905  -3.158  -7.294  0.00  0.00     0.027 H 
ATOM     20  H   LIG d   1       2.855  -2.084  -8.243  0.00  0.00     0.027 H 
ATOM     21  H   LIG d   1       5.403  -3.447  -9.238  0.00  0.00     0.029 H 
ATOM     22  H   LIG d   1       3.742  -3.912  -9.619  0.00  0.00     0.029 H 
ENDROOT
BRANCH   8  23
ATOM     23  C   LIG d   1       4.262  -1.557  -5.281  0.00  0.00    -0.046 C 
ATOM     24  H   LIG d   1       3.250  -1.700  -4.900  0.00  0.00     0.027 H 
ATOM     25  H   LIG d   1       4.656  -2.510  -5.633  0.00  0.00     0.027 H 
BRANCH  23  26
ATOM     26  C   LIG d   1       5.156  -1.016  -4.164  0.00  0.00    -0.031 C 
ATOM     27  H   LIG d   1       6.046  -1.640  -4.076  0.00  0.00     0.031 H 
ATOM     28  H   LIG d   1       5.450   0.007  -4.397  0.00  0.00     0.031 H 
BRANCH  26  29
ATOM     29  C   LIG d   1       4.398  -1.035  -2.861  0.00  0.00    -0.071 C 
ATOM     30  C   LIG d   1       4.209   0.097  -2.184  0.00  0.00    -0.040 C 
ATOM     31  H   LIG d   1       3.615   0.094  -1.282  0.00  0.00     0.064 H 
BRANCH  30  32
ATOM     32  C   LIG d   1       4.807   1.348  -2.664  0.00  0.00     0.065 C 
ATOM     33  O   LIG d   1       4.106   2.191  -3.207  0.00  0.00    -0.545 OA
ATOM     34  O   LIG d   1       6.005   1.548  -2.521  0.00  0.00    -0.545 OA
ENDBRANCH  30  32
BRANCH  29  35
ATOM     35  C   LIG d   1       3.855  -2.334  -2.323  0.00  0.00    -0.043 C 
ATOM     36  H   LIG d   1       2.994  -2.132  -1.687  0.00  0.00     0.027 H 
ATOM     37  H   LIG d   1       3.553  -2.973  -3.153  0.00  0.00     0.027 H 
ATOM     38  H   LIG d   1       4.628  -2.836  -1.740  0.00  0.00     0.027 H 
ENDBRANCH  29  35
ENDBRANCH  26  29
ENDBRANCH  23  26
ENDBRANCH   8  23
BRANCH   1  39
ATOM     39  C   LIG d   1       2.281   0.553  -5.345  0.00  0.00    -0.062 C 
ATOM     40  H   LIG d   1       1.454   1.229  -5.563  0.00  0.00     0.023 H 
ATOM     41  H   LIG d   1       1.933  -0.253  -4.699  0.00  0.00     0.023 H 
ATOM     42  H   LIG d   1       3.077   1.103  -4.842  0.00  0.00     0.023 H 
ENDBRANCH   1  39
BRANCH   7  43
ATOM     43  C   LIG d   1       6.170  -1.709  -7.374  0.00  0.00    -0.059 C 
ATOM     44  H   LIG d   1       6.101  -2.621  -6.782  0.00  0.00     0.024 H 
ATOM     45  H   LIG d   1       6.721  -1.911  -8.292  0.00  0.00     0.024 H 
ATOM     46  H   LIG d   1       6.691  -0.943  -6.800  0.00  0.00     0.024 H 
ENDBRANCH   7  43
BRANCH  14  47
ATOM     47  C   LIG d   1       6.667  -1.131 -10.293  0.00  0.00    -0.050 C 
ATOM     48  H   LIG d   1       7.233  -0.358  -9.774  0.00  0.00     0.024 H 
ATOM     49  H   LIG d   1       6.860  -2.097  -9.829  0.00  0.00     0.024 H 
ATOM     50  H   LIG d   1       6.971  -1.163 -11.340  0.00  0.00     0.024 H 
ENDBRANCH  14  47
BRANCH  14  51
ATOM     51  C   LIG d   1       4.902   0.192 -11.319  0.00  0.00     0.129 C 
ATOM     52  O   LIG d   1       4.192  -0.112 -12.248  0.00  0.00    -0.300 OA
ATOM     53  H   LIG d   1       5.346   1.175 -11.277  0.00  0.00     0.103 H 
ENDBRANCH  14  51
BRANCH  12  54
ATOM     54  O   LIG d   1       4.860  -2.674 -11.710  0.00  0.00    -0.391 OA
ATOM     55  H   LIG d   1       4.323  -2.512 -12.498  0.00  0.00     0.210 HD
ENDBRANCH  12  54
TORSDOF 10
ENDMDL
MODEL 3
REMARK VINA RESULT:      -5.7      2.120      6.555
REMARK  10 active torsions:
REMARK  status: ('A' for Active; 'I' for Inactive)
REMARK    1  A    between atoms: C_1  and  C_2 
REMARK    2  A    between atoms: C_8  and  C_28 
REMARK    3  A    between atoms: C_9  and  C_11 
REMARK    4  A    between atoms: C_11  and  C_12 
REMARK    5  A    between atoms: C_12  and  C_13 
REMARK    6  A    between atoms: C_13  and  C_18 
REMARK    7  A    between atoms: C_14  and  C_15 
REMARK    8  A    between atoms: C_21  and  O_27 
REMARK    9  A    between atoms: C_23  and  C_24 
REMARK   10  A    between atoms: C_23  and  C_25 
ROOT
ATOM      1  C   LIG d   1       7.773  -0.105  -5.738  0.00  0.00    -0.041 C 
ATOM      2  H   LIG d   1       8.025  -1.128  -5.476  0.00  0.00     0.030 H 
ATOM      3  C   LIG d   1       7.677   0.751  -4.474  0.00  0.00    -0.050 C 
ATOM      4  C   LIG d   1       6.631   0.147  -3.537  0.00  0.00    -0.049 C 
ATOM      5  C   LIG d   1       5.249   0.055  -4.195  0.00  0.00    -0.021 C 
ATOM      6  H   LIG d   1       4.898   1.079  -4.391  0.00  0.00     0.032 H 
ATOM      7  C   LIG d   1       5.337  -0.686  -5.525  0.00  0.00    -0.025 C 
ATOM      8  C   LIG d   1       6.410  -0.048  -6.421  0.00  0.00    -0.033 C 
ATOM      9  H   LIG d   1       6.138   1.002  -6.582  0.00  0.00     0.031 H 
ATOM     10  C   LIG d   1       5.664  -2.158  -5.292  0.00  0.00    -0.045 C 
ATOM     11  C   LIG d   1       4.604  -2.798  -4.395  0.00  0.00    -0.025 C 
ATOM     12  C   LIG d   1       4.572  -2.089  -3.046  0.00  0.00     0.067 C 
ATOM     13  H   LIG d   1       5.538  -2.220  -2.547  0.00  0.00     0.060 H 
ATOM     14  C   LIG d   1       4.289  -0.597  -3.203  0.00  0.00     0.052 C 
ATOM     15  H   LIG d   1       8.646   0.771  -3.974  0.00  0.00     0.027 H 
ATOM     16  H   LIG d   1       7.385   1.766  -4.743  0.00  0.00     0.027 H 
ATOM     17  H   LIG d   1       6.953  -0.847  -3.229  0.00  0.00     0.027 H 
ATOM     18  H   LIG d   1       6.597   0.801  -2.661  0.00  0.00     0.027 H 
ATOM     19  H   LIG d   1       5.683  -2.699  -6.240  0.00  0.00     0.027 H 
ATOM     20  H   LIG d   1       6.640  -2.248  -4.812  0.00  0.00     0.027 H 
ATOM     21  H   LIG d   1       3.629  -2.769  -4.869  0.00  0.00     0.029 H 
ATOM     22  H   LIG d   1       4.874  -3.851  -4.235  0.00  0.00     0.029 H 
ENDROOT
BRANCH   8  23
ATOM     23  C   LIG d   1       6.464  -0.754  -7.773  0.00  0.00    -0.046 C 
ATOM     24  H   LIG d   1       7.415  -1.277  -7.872  0.00  0.00     0.027 H 
ATOM     25  H   LIG d   1       5.646  -1.472  -7.841  0.00  0.00     0.027 H 
BRANCH  23  26
ATOM     26  C   LIG d   1       6.331   0.279  -8.894  0.00  0.00    -0.031 C 
ATOM     27  H   LIG d   1       6.193   1.270  -8.461  0.00  0.00     0.031 H 
ATOM     28  H   LIG d   1       7.233   0.271  -9.505  0.00  0.00     0.031 H 
BRANCH  26  29
ATOM     29  C   LIG d   1       5.141  -0.064  -9.754  0.00  0.00    -0.071 C 
ATOM     30  C   LIG d   1       4.139   0.806  -9.882  0.00  0.00    -0.040 C 
ATOM     31  H   LIG d   1       3.315   0.586 -10.545  0.00  0.00     0.064 H 
BRANCH  30  32
ATOM     32  C   LIG d   1       4.155   2.060  -9.122  0.00  0.00     0.065 C 
ATOM     33  O   LIG d   1       3.333   2.248  -8.235  0.00  0.00    -0.545 OA
ATOM     34  O   LIG d   1       4.989   2.918  -9.375  0.00  0.00    -0.545 OA
ENDBRANCH  30  32
BRANCH  29  35
ATOM     35  C   LIG d   1       5.084  -1.389 -10.469  0.00  0.00    -0.043 C 
ATOM     36  H   LIG d   1       6.094  -1.703 -10.732  0.00  0.00     0.027 H 
ATOM     37  H   LIG d   1       4.630  -2.135  -9.817  0.00  0.00     0.027 H 
ATOM     38  H   LIG d   1       4.487  -1.287 -11.376  0.00  0.00     0.027 H 
ENDBRANCH  29  35
ENDBRANCH  26  29
ENDBRANCH  23  26
ENDBRANCH   8  23
BRANCH   1  39
ATOM     39  C   LIG d   1       8.841   0.472  -6.667  0.00  0.00    -0.062 C 
ATOM     40  H   LIG d   1       8.646   0.149  -7.690  0.00  0.00     0.023 H 
ATOM     41  H   LIG d   1       8.815   1.561  -6.618  0.00  0.00     0.023 H 
ATOM     42  H   LIG d   1       9.823   0.119  -6.355  0.00  0.00     0.023 H 
ENDBRANCH   1  39
BRANCH   7  43
ATOM     43  C   LIG d   1       4.031  -0.579  -6.326  0.00  0.00    -0.059 C 
ATOM     44  H   LIG d   1       3.809  -1.539  -6.791  0.00  0.00     0.024 H 
ATOM     45  H   LIG d   1       3.216  -0.301  -5.657  0.00  0.00     0.024 H 
ATOM     46  H   LIG d   1       4.140   0.183  -7.098  0.00  0.00     0.024 H 
ENDBRANCH   7  43
BRANCH  14  47
ATOM     47  C   LIG d   1       2.821  -0.374  -3.570  0.00  0.00    -0.050 C 
ATOM     48  H   LIG d   1       2.215  -0.381  -2.665  0.00  0.00     0.024 H 
ATOM     49  H   LIG d   1       2.713   0.587  -4.073  0.00  0.00     0.024 H 
ATOM     50  H   LIG d   1       2.489  -1.171  -4.236  0.00  0.00     0.024 H 
ENDBRANCH  14  47
BRANCH  14  51
ATOM     51  C   LIG d   1       4.470   0.039  -1.831  0.00  0.00     0.129 C 
ATOM     52  O   LIG d   1       3.963   1.108  -1.588  0.00  0.00    -0.300 OA
ATOM     53  H   LIG d   1       5.051  -0.467  -1.074  0.00  0.00     0.103 H 
ENDBRANCH  14  51
BRANCH  12  54
ATOM     54  O   LIG d   1       3.556  -2.677  -2.225  0.00  0.00    -0.391 OA
ATOM     55  H   LIG d   1       3.647  -3.634  -2.112  0.00  0.00     0.210 HD
ENDBRANCH  12  54
TORSDOF 10
ENDMDL
MODEL 4
REMARK VINA RESULT:      -5.6      2.468      6.460
REMARK  10 active torsions:
REMARK  status: ('A' for Active; 'I' for Inactive)
REMARK    1  A    between atoms: C_1  and  C_2 
REMARK    2  A    between atoms: C_8  and  C_28 
REMARK    3  A    between atoms: C_9  and  C_11 
REMARK    4  A    between atoms: C_11  and  C_12 
REMARK    5  A    between atoms: C_12  and  C_13 
REMARK    6  A    between atoms: C_13  and  C_18 
REMARK    7  A    between atoms: C_14  and  C_15 
REMARK    8  A    between atoms: C_21  and  O_27 
REMARK    9  A    between atoms: C_23  and  C_24 
REMARK   10  A    between atoms: C_23  and  C_25 
ROOT
ATOM      1  C   LIG d   1       4.035  -0.562  -7.637  0.00  0.00    -0.041 C 
ATOM      2  H   LIG d   1       4.744   0.261  -7.644  0.00  0.00     0.030 H 
ATOM      3  C   LIG d   1       2.770  -0.158  -6.878  0.00  0.00    -0.050 C 
ATOM      4  C   LIG d   1       3.148   0.256  -5.457  0.00  0.00    -0.049 C 
ATOM      5  C   LIG d   1       3.861  -0.869  -4.696  0.00  0.00    -0.021 C 
ATOM      6  H   LIG d   1       3.148  -1.697  -4.571  0.00  0.00     0.032 H 
ATOM      7  C   LIG d   1       5.057  -1.379  -5.492  0.00  0.00    -0.025 C 
ATOM      8  C   LIG d   1       4.625  -1.769  -6.914  0.00  0.00    -0.033 C 
ATOM      9  H   LIG d   1       3.854  -2.545  -6.834  0.00  0.00     0.031 H 
ATOM     10  C   LIG d   1       6.147  -0.314  -5.554  0.00  0.00    -0.045 C 
ATOM     11  C   LIG d   1       6.578   0.084  -4.142  0.00  0.00    -0.025 C 
ATOM     12  C   LIG d   1       5.387   0.652  -3.380  0.00  0.00     0.067 C 
ATOM     13  H   LIG d   1       5.041   1.564  -3.880  0.00  0.00     0.060 H 
ATOM     14  C   LIG d   1       4.235  -0.347  -3.311  0.00  0.00     0.052 C 
ATOM     15  H   LIG d   1       2.292   0.680  -7.388  0.00  0.00     0.027 H 
ATOM     16  H   LIG d   1       2.082  -1.003  -6.842  0.00  0.00     0.027 H 
ATOM     17  H   LIG d   1       3.794   1.133  -5.495  0.00  0.00     0.027 H 
ATOM     18  H   LIG d   1       2.211   0.523  -4.959  0.00  0.00     0.027 H 
ATOM     19  H   LIG d   1       7.022  -0.695  -6.085  0.00  0.00     0.027 H 
ATOM     20  H   LIG d   1       5.772   0.568  -6.075  0.00  0.00     0.027 H 
ATOM     21  H   LIG d   1       7.003  -0.764  -3.615  0.00  0.00     0.029 H 
ATOM     22  H   LIG d   1       7.351   0.859  -4.220  0.00  0.00     0.029 H 
ENDROOT
BRANCH   8  23
ATOM     23  C   LIG d   1       5.809  -2.331  -7.696  0.00  0.00    -0.046 C 
ATOM     24  H   LIG d   1       6.081  -1.636  -8.491  0.00  0.00     0.027 H 
ATOM     25  H   LIG d   1       6.657  -2.465  -7.025  0.00  0.00     0.027 H 
BRANCH  23  26
ATOM     26  C   LIG d   1       5.424  -3.680  -8.307  0.00  0.00    -0.031 C 
ATOM     27  H   LIG d   1       4.353  -3.843  -8.183  0.00  0.00     0.031 H 
ATOM     28  H   LIG d   1       5.671  -3.682  -9.368  0.00  0.00     0.031 H 
BRANCH  26  29
ATOM     29  C   LIG d   1       6.184  -4.781  -7.612  0.00  0.00    -0.071 C 
ATOM     30  C   LIG d   1       5.524  -5.793  -7.050  0.00  0.00    -0.040 C 
ATOM     31  H   LIG d   1       6.070  -6.612  -6.605  0.00  0.00     0.064 H 
BRANCH  30  32
ATOM     32  C   LIG d   1       4.057  -5.794  -7.033  0.00  0.00     0.065 C 
ATOM     33  O   LIG d   1       3.456  -5.298  -6.090  0.00  0.00    -0.545 OA
ATOM     34  O   LIG d   1       3.435  -6.291  -7.962  0.00  0.00    -0.545 OA
ENDBRANCH  30  32
BRANCH  29  35
ATOM     35  C   LIG d   1       7.689  -4.737  -7.555  0.00  0.00    -0.043 C 
ATOM     36  H   LIG d   1       8.007  -3.816  -7.068  0.00  0.00     0.027 H 
ATOM     37  H   LIG d   1       8.056  -5.594  -6.990  0.00  0.00     0.027 H 
ATOM     38  H   LIG d   1       8.092  -4.770  -8.568  0.00  0.00     0.027 H 
ENDBRANCH  29  35
ENDBRANCH  26  29
ENDBRANCH  23  26
ENDBRANCH   8  23
BRANCH   1  39
ATOM     39  C   LIG d   1       3.671  -0.946  -9.071  0.00  0.00    -0.062 C 
ATOM     40  H   LIG d   1       2.810  -0.362  -9.397  0.00  0.00     0.023 H 
ATOM     41  H   LIG d   1       4.517  -0.743  -9.727  0.00  0.00     0.023 H 
ATOM     42  H   LIG d   1       3.427  -2.008  -9.112  0.00  0.00     0.023 H 
ENDBRANCH   1  39
BRANCH   7  43
ATOM     43  C   LIG d   1       5.639  -2.665  -4.885  0.00  0.00    -0.059 C 
ATOM     44  H   LIG d   1       6.360  -3.100  -5.576  0.00  0.00     0.024 H 
ATOM     45  H   LIG d   1       6.135  -2.429  -3.943  0.00  0.00     0.024 H 
ATOM     46  H   LIG d   1       4.835  -3.377  -4.702  0.00  0.00     0.024 H 
ENDBRANCH   7  43
BRANCH  14  47
ATOM     47  C   LIG d   1       4.570  -1.472  -2.329  0.00  0.00    -0.050 C 
ATOM     48  H   LIG d   1       4.507  -1.094  -1.309  0.00  0.00     0.024 H 
ATOM     49  H   LIG d   1       3.863  -2.291  -2.458  0.00  0.00     0.024 H 
ATOM     50  H   LIG d   1       5.582  -1.831  -2.521  0.00  0.00     0.024 H 
ENDBRANCH  14  47
BRANCH  14  51
ATOM     51  C   LIG d   1       3.044   0.384  -2.705  0.00  0.00     0.129 C 
ATOM     52  O   LIG d   1       3.209   1.430  -2.124  0.00  0.00    -0.300 OA
ATOM     53  H   LIG d   1       2.052  -0.033  -2.795  0.00  0.00     0.103 H 
ENDBRANCH  14  51
BRANCH  12  54
ATOM     54  O   LIG d   1       5.795   0.993  -2.050  0.00  0.00    -0.391 OA
ATOM     55  H   LIG d   1       5.610   1.911  -1.805  0.00  0.00     0.210 HD
ENDBRANCH  12  54
TORSDOF 10
ENDMDL
MODEL 5
REMARK VINA RESULT:      -5.5      1.545      2.509
REMARK  10 active torsions:
REMARK  status: ('A' for Active; 'I' for Inactive)
REMARK    1  A    between atoms: C_1  and  C_2 
REMARK    2  A    between atoms: C_8  and  C_28 
REMARK    3  A    between atoms: C_9  and  C_11 
REMARK    4  A    between atoms: C_11  and  C_12 
REMARK    5  A    between atoms: C_12  and  C_13 
REMARK    6  A    between atoms: C_13  and  C_18 
REMARK    7  A    between atoms: C_14  and  C_15 
REMARK    8  A    between atoms: C_21  and  O_27 
REMARK    9  A    between atoms: C_23  and  C_24 
REMARK   10  A    between atoms: C_23  and  C_25 
ROOT
ATOM      1  C   LIG d   1       6.967   0.025  -5.609  0.00  0.00    -0.041 C 
ATOM      2  H   LIG d   1       6.238   0.726  -5.215  0.00  0.00     0.030 H 
ATOM      3  C   LIG d   1       7.528   0.541  -6.936  0.00  0.00    -0.050 C 
ATOM      4  C   LIG d   1       6.377   0.749  -7.919  0.00  0.00    -0.049 C 
ATOM      5  C   LIG d   1       5.587  -0.542  -8.168  0.00  0.00    -0.021 C 
ATOM      6  H   LIG d   1       6.258  -1.260  -8.663  0.00  0.00     0.032 H 
ATOM      7  C   LIG d   1       5.123  -1.148  -6.848  0.00  0.00    -0.025 C 
ATOM      8  C   LIG d   1       6.314  -1.324  -5.894  0.00  0.00    -0.033 C 
ATOM      9  H   LIG d   1       7.048  -1.977  -6.382  0.00  0.00     0.031 H 
ATOM     10  C   LIG d   1       4.064  -0.262  -6.199  0.00  0.00    -0.045 C 
ATOM     11  C   LIG d   1       2.878  -0.077  -7.146  0.00  0.00    -0.025 C 
ATOM     12  C   LIG d   1       3.346   0.589  -8.435  0.00  0.00     0.067 C 
ATOM     13  H   LIG d   1       3.732   1.588  -8.205  0.00  0.00     0.060 H 
ATOM     14  C   LIG d   1       4.440  -0.224  -9.123  0.00  0.00     0.052 C 
ATOM     15  H   LIG d   1       8.042   1.488  -6.769  0.00  0.00     0.027 H 
ATOM     16  H   LIG d   1       8.230  -0.188  -7.342  0.00  0.00     0.027 H 
ATOM     17  H   LIG d   1       5.706   1.516  -7.533  0.00  0.00     0.027 H 
ATOM     18  H   LIG d   1       6.833   1.105  -8.848  0.00  0.00     0.027 H 
ATOM     19  H   LIG d   1       3.699  -0.718  -5.276  0.00  0.00     0.027 H 
ATOM     20  H   LIG d   1       4.492   0.715  -5.967  0.00  0.00     0.027 H 
ATOM     21  H   LIG d   1       2.400  -1.028  -7.356  0.00  0.00     0.029 H 
ATOM     22  H   LIG d   1       2.142   0.574  -6.658  0.00  0.00     0.029 H 
ENDROOT
BRANCH   8  23
ATOM     23  C   LIG d   1       5.862  -1.980  -4.592  0.00  0.00    -0.046 C 
ATOM     24  H   LIG d   1       4.923  -2.508  -4.758  0.00  0.00     0.027 H 
ATOM     25  H   LIG d   1       6.623  -2.687  -4.258  0.00  0.00     0.027 H 
BRANCH  23  26
ATOM     26  C   LIG d   1       5.661  -0.906  -3.522  0.00  0.00    -0.031 C 
ATOM     27  H   LIG d   1       6.481  -0.948  -2.804  0.00  0.00     0.031 H 
ATOM     28  H   LIG d   1       5.641   0.077  -3.993  0.00  0.00     0.031 H 
BRANCH  26  29
ATOM     29  C   LIG d   1       4.356  -1.146  -2.808  0.00  0.00    -0.071 C 
ATOM     30  C   LIG d   1       3.663  -0.116  -2.322  0.00  0.00    -0.040 C 
ATOM     31  H   LIG d   1       2.699  -0.283  -1.864  0.00  0.00     0.064 H 
BRANCH  30  32
ATOM     32  C   LIG d   1       4.209   1.242  -2.409  0.00  0.00     0.065 C 
ATOM     33  O   LIG d   1       5.053   1.614  -1.606  0.00  0.00    -0.545 OA
ATOM     34  O   LIG d   1       3.821   2.003  -3.286  0.00  0.00    -0.545 OA
ENDBRANCH  30  32
BRANCH  29  35
ATOM     35  C   LIG d   1       3.834  -2.550  -2.643  0.00  0.00    -0.043 C 
ATOM     36  H   LIG d   1       2.841  -2.518  -2.194  0.00  0.00     0.027 H 
ATOM     37  H   LIG d   1       3.777  -3.034  -3.618  0.00  0.00     0.027 H 
ATOM     38  H   LIG d   1       4.507  -3.114  -1.996  0.00  0.00     0.027 H 
ENDBRANCH  29  35
ENDBRANCH  26  29
ENDBRANCH  23  26
ENDBRANCH   8  23
BRANCH   1  39
ATOM     39  C   LIG d   1       8.109  -0.155  -4.607  0.00  0.00    -0.062 C 
ATOM     40  H   LIG d   1       7.798   0.220  -3.631  0.00  0.00     0.023 H 
ATOM     41  H   LIG d   1       8.358  -1.213  -4.528  0.00  0.00     0.023 H 
ATOM     42  H   LIG d   1       8.983   0.399  -4.948  0.00  0.00     0.023 H 
ENDBRANCH   1  39
BRANCH   7  43
ATOM     43  C   LIG d   1       4.552  -2.561  -7.039  0.00  0.00    -0.059 C 
ATOM     44  H   LIG d   1       3.629  -2.661  -6.469  0.00  0.00     0.024 H 
ATOM     45  H   LIG d   1       4.347  -2.731  -8.096  0.00  0.00     0.024 H 
ATOM     46  H   LIG d   1       5.276  -3.297  -6.688  0.00  0.00     0.024 H 
ENDBRANCH   7  43
BRANCH  14  47
ATOM     47  C   LIG d   1       3.841  -1.478  -9.763  0.00  0.00    -0.050 C 
ATOM     48  H   LIG d   1       3.868  -1.380 -10.848  0.00  0.00     0.024 H 
ATOM     49  H   LIG d   1       4.419  -2.351  -9.462  0.00  0.00     0.024 H 
ATOM     50  H   LIG d   1       2.808  -1.595  -9.434  0.00  0.00     0.024 H 
ENDBRANCH  14  47
BRANCH  14  51
ATOM     51  C   LIG d   1       4.961   0.618 -10.280  0.00  0.00     0.129 C 
ATOM     52  O   LIG d   1       4.460   1.690 -10.522  0.00  0.00    -0.300 OA
ATOM     53  H   LIG d   1       5.779   0.256 -10.885  0.00  0.00     0.103 H 
ENDBRANCH  14  51
BRANCH  12  54
ATOM     54  O   LIG d   1       2.233   0.730  -9.326  0.00  0.00    -0.391 OA
ATOM     55  H   LIG d   1       1.467   0.188  -9.088  0.00  0.00     0.210 HD
ENDBRANCH  12  54
TORSDOF 10
ENDMDL
MODEL 6
REMARK VINA RESULT:      -5.4      2.292      4.126
REMARK  10 active torsions:
REMARK  status: ('A' for Active; 'I' for Inactive)
REMARK    1  A    between atoms: C_1  and  C_2 
REMARK    2  A    between atoms: C_8  and  C_28 
REMARK    3  A    between atoms: C_9  and  C_11 
REMARK    4  A    between atoms: C_11  and  C_12 
REMARK    5  A    between atoms: C_12  and  C_13 
REMARK    6  A    between atoms: C_13  and  C_18 
REMARK    7  A    between atoms: C_14  and  C_15 
REMARK    8  A    between atoms: C_21  and  O_27 
REMARK    9  A    between atoms: C_23  and  C_24 
REMARK   10  A    between atoms: C_23  and  C_25 
ROOT
ATOM      1  C   LIG d   1       3.087   1.086  -9.585  0.00  0.00    -0.041 C 
ATOM      2  H   LIG d   1       2.023   1.051  -9.798  0.00  0.00     0.030 H 
ATOM      3  C   LIG d   1       3.883   1.129 -10.891  0.00  0.00    -0.050 C 
ATOM      4  C   LIG d   1       3.530  -0.097 -11.733  0.00  0.00    -0.049 C 
ATOM      5  C   LIG d   1       3.827  -1.410 -10.998  0.00  0.00    -0.021 C 
ATOM      6  H   LIG d   1       4.915  -1.473 -10.845  0.00  0.00     0.032 H 
ATOM      7  C   LIG d   1       3.147  -1.425  -9.633  0.00  0.00    -0.025 C 
ATOM      8  C   LIG d   1       3.525  -0.168  -8.835  0.00  0.00    -0.033 C 
ATOM      9  H   LIG d   1       4.615  -0.151  -8.722  0.00  0.00     0.031 H 
ATOM     10  C   LIG d   1       1.632  -1.502  -9.795  0.00  0.00    -0.045 C 
ATOM     11  C   LIG d   1       1.250  -2.748 -10.595  0.00  0.00    -0.025 C 
ATOM     12  C   LIG d   1       1.884  -2.687 -11.980  0.00  0.00     0.067 C 
ATOM     13  H   LIG d   1       1.485  -1.822 -12.521  0.00  0.00     0.060 H 
ATOM     14  C   LIG d   1       3.404  -2.568 -11.897  0.00  0.00     0.052 C 
ATOM     15  H   LIG d   1       3.629   2.035 -11.442  0.00  0.00     0.027 H 
ATOM     16  H   LIG d   1       4.949   1.125 -10.668  0.00  0.00     0.027 H 
ATOM     17  H   LIG d   1       2.474  -0.062 -11.998  0.00  0.00     0.027 H 
ATOM     18  H   LIG d   1       4.131  -0.021 -12.644  0.00  0.00     0.027 H 
ATOM     19  H   LIG d   1       1.147  -1.559  -8.819  0.00  0.00     0.027 H 
ATOM     20  H   LIG d   1       1.272  -0.616 -10.320  0.00  0.00     0.027 H 
ATOM     21  H   LIG d   1       1.551  -3.649 -10.073  0.00  0.00     0.029 H 
ATOM     22  H   LIG d   1       0.158  -2.768 -10.706  0.00  0.00     0.029 H 
ENDROOT
BRANCH   8  23
ATOM     23  C   LIG d   1       2.889  -0.206  -7.448  0.00  0.00    -0.046 C 
ATOM     24  H   LIG d   1       2.370   0.734  -7.261  0.00  0.00     0.027 H 
ATOM     25  H   LIG d   1       2.177  -1.030  -7.397  0.00  0.00     0.027 H 
BRANCH  23  26
ATOM     26  C   LIG d   1       3.977  -0.406  -6.392  0.00  0.00    -0.031 C 
ATOM     27  H   LIG d   1       4.379  -1.417  -6.471  0.00  0.00     0.031 H 
ATOM     28  H   LIG d   1       4.777   0.316  -6.553  0.00  0.00     0.031 H 
BRANCH  26  29
ATOM     29  C   LIG d   1       3.389  -0.205  -5.019  0.00  0.00    -0.071 C 
ATOM     30  C   LIG d   1       3.765  -0.992  -4.011  0.00  0.00    -0.040 C 
ATOM     31  H   LIG d   1       3.390  -0.810  -3.015  0.00  0.00     0.064 H 
BRANCH  30  32
ATOM     32  C   LIG d   1       4.689  -2.106  -4.255  0.00  0.00     0.065 C 
ATOM     33  O   LIG d   1       4.251  -3.209  -4.549  0.00  0.00    -0.545 OA
ATOM     34  O   LIG d   1       5.896  -1.930  -4.165  0.00  0.00    -0.545 OA
ENDBRANCH  30  32
BRANCH  29  35
ATOM     35  C   LIG d   1       2.376   0.886  -4.786  0.00  0.00    -0.043 C 
ATOM     36  H   LIG d   1       1.967   1.212  -5.741  0.00  0.00     0.027 H 
ATOM     37  H   LIG d   1       1.571   0.506  -4.156  0.00  0.00     0.027 H 
ATOM     38  H   LIG d   1       2.858   1.729  -4.290  0.00  0.00     0.027 H 
ENDBRANCH  29  35
ENDBRANCH  26  29
ENDBRANCH  23  26
ENDBRANCH   8  23
BRANCH   1  39
ATOM     39  C   LIG d   1       3.408   2.327  -8.750  0.00  0.00    -0.062 C 
ATOM     40  H   LIG d   1       2.766   2.348  -7.869  0.00  0.00     0.023 H 
ATOM     41  H   LIG d   1       4.452   2.294  -8.439  0.00  0.00     0.023 H 
ATOM     42  H   LIG d   1       3.235   3.221  -9.348  0.00  0.00     0.023 H 
ENDBRANCH   1  39
BRANCH   7  43
ATOM     43  C   LIG d   1       3.625  -2.604  -8.772  0.00  0.00    -0.059 C 
ATOM     44  H   LIG d   1       3.414  -2.397  -7.723  0.00  0.00     0.024 H 
ATOM     45  H   LIG d   1       3.103  -3.511  -9.076  0.00  0.00     0.024 H 
ATOM     46  H   LIG d   1       4.698  -2.741  -8.906  0.00  0.00     0.024 H 
ENDBRANCH   7  43
BRANCH  14  47
ATOM     47  C   LIG d   1       4.015  -3.903 -11.466  0.00  0.00    -0.050 C 
ATOM     48  H   LIG d   1       3.805  -4.659 -12.222  0.00  0.00     0.024 H 
ATOM     49  H   LIG d   1       5.093  -3.790 -11.354  0.00  0.00     0.024 H 
ATOM     50  H   LIG d   1       3.581  -4.209 -10.514  0.00  0.00     0.024 H 
ENDBRANCH  14  47
BRANCH  14  51
ATOM     51  C   LIG d   1       3.910  -2.323 -13.313  0.00  0.00     0.129 C 
ATOM     52  O   LIG d   1       4.056  -3.252 -14.071  0.00  0.00    -0.300 OA
ATOM     53  H   LIG d   1       4.139  -1.319 -13.638  0.00  0.00     0.103 H 
ENDBRANCH  14  51
BRANCH  12  54
ATOM     54  O   LIG d   1       1.543  -3.873 -12.709  0.00  0.00    -0.391 OA
ATOM     55  H   LIG d   1       0.960  -3.716 -13.465  0.00  0.00     0.210 HD
ENDBRANCH  12  54
TORSDOF 10
ENDMDL
MODEL 7
REMARK VINA RESULT:      -5.3      3.741      5.309
REMARK  10 active torsions:
REMARK  status: ('A' for Active; 'I' for Inactive)
REMARK    1  A    between atoms: C_1  and  C_2 
REMARK    2  A    between atoms: C_8  and  C_28 
REMARK    3  A    between atoms: C_9  and  C_11 
REMARK    4  A    between atoms: C_11  and  C_12 
REMARK    5  A    between atoms: C_12  and  C_13 
REMARK    6  A    between atoms: C_13  and  C_18 
REMARK    7  A    between atoms: C_14  and  C_15 
REMARK    8  A    between atoms: C_21  and  O_27 
REMARK    9  A    between atoms: C_23  and  C_24 
REMARK   10  A    between atoms: C_23  and  C_25 
ROOT
ATOM      1  C   LIG d   1       6.206  -0.914  -6.308  0.00  0.00    -0.041 C 
ATOM      2  H   LIG d   1       7.027  -1.617  -6.405  0.00  0.00     0.030 H 
ATOM      3  C   LIG d   1       6.168   0.020  -7.520  0.00  0.00    -0.050 C 
ATOM      4  C   LIG d   1       7.507   0.747  -7.633  0.00  0.00    -0.049 C 
ATOM      5  C   LIG d   1       7.833   1.560  -6.374  0.00  0.00    -0.021 C 
ATOM      6  H   LIG d   1       7.082   2.359  -6.283  0.00  0.00     0.032 H 
ATOM      7  C   LIG d   1       7.752   0.679  -5.132  0.00  0.00    -0.025 C 
ATOM      8  C   LIG d   1       6.395  -0.037  -5.074  0.00  0.00    -0.033 C 
ATOM      9  H   LIG d   1       5.608   0.726  -5.057  0.00  0.00     0.031 H 
ATOM     10  C   LIG d   1       8.881  -0.347  -5.134  0.00  0.00    -0.045 C 
ATOM     11  C   LIG d   1      10.236   0.359  -5.200  0.00  0.00    -0.025 C 
ATOM     12  C   LIG d   1      10.328   1.185  -6.478  0.00  0.00     0.067 C 
ATOM     13  H   LIG d   1      10.271   0.516  -7.344  0.00  0.00     0.060 H 
ATOM     14  C   LIG d   1       9.201   2.211  -6.566  0.00  0.00     0.052 C 
ATOM     15  H   LIG d   1       5.992  -0.565  -8.423  0.00  0.00     0.027 H 
ATOM     16  H   LIG d   1       5.366   0.747  -7.394  0.00  0.00     0.027 H 
ATOM     17  H   LIG d   1       8.300   0.021  -7.811  0.00  0.00     0.027 H 
ATOM     18  H   LIG d   1       7.421   1.405  -8.504  0.00  0.00     0.027 H 
ATOM     19  H   LIG d   1       8.852  -0.949  -4.224  0.00  0.00     0.027 H 
ATOM     20  H   LIG d   1       8.780  -1.005  -5.999  0.00  0.00     0.027 H 
ATOM     21  H   LIG d   1      10.388   0.984  -4.326  0.00  0.00     0.029 H 
ATOM     22  H   LIG d   1      11.025  -0.404  -5.213  0.00  0.00     0.029 H 
ENDROOT
BRANCH   8  23
ATOM     23  C   LIG d   1       6.290  -0.879  -3.804  0.00  0.00    -0.046 C 
ATOM     24  H   LIG d   1       5.892  -1.863  -4.053  0.00  0.00     0.027 H 
ATOM     25  H   LIG d   1       7.279  -0.988  -3.359  0.00  0.00     0.027 H 
BRANCH  23  26
ATOM     26  C   LIG d   1       5.355  -0.187  -2.810  0.00  0.00    -0.031 C 
ATOM     27  H   LIG d   1       5.786  -0.240  -1.809  0.00  0.00     0.031 H 
ATOM     28  H   LIG d   1       5.228   0.856  -3.096  0.00  0.00     0.031 H 
BRANCH  26  29
ATOM     29  C   LIG d   1       4.015  -0.877  -2.817  0.00  0.00    -0.071 C 
ATOM     30  C   LIG d   1       2.969  -0.293  -3.403  0.00  0.00    -0.040 C 
ATOM     31  H   LIG d   1       2.024  -0.812  -3.461  0.00  0.00     0.064 H 
BRANCH  30  32
ATOM     32  C   LIG d   1       3.102   1.055  -3.967  0.00  0.00     0.065 C 
ATOM     33  O   LIG d   1       2.904   1.241  -5.160  0.00  0.00    -0.545 OA
ATOM     34  O   LIG d   1       3.410   1.993  -3.244  0.00  0.00    -0.545 OA
ENDBRANCH  30  32
BRANCH  29  35
ATOM     35  C   LIG d   1       3.857  -2.225  -2.164  0.00  0.00    -0.043 C 
ATOM     36  H   LIG d   1       4.831  -2.585  -1.834  0.00  0.00     0.027 H 
ATOM     37  H   LIG d   1       3.191  -2.137  -1.305  0.00  0.00     0.027 H 
ATOM     38  H   LIG d   1       3.434  -2.929  -2.882  0.00  0.00     0.027 H 
ENDBRANCH  29  35
ENDBRANCH  26  29
ENDBRANCH  23  26
ENDBRANCH   8  23
BRANCH   1  39
ATOM     39  C   LIG d   1       4.881  -1.672  -6.205  0.00  0.00    -0.062 C 
ATOM     40  H   LIG d   1       4.615  -1.797  -5.156  0.00  0.00     0.023 H 
ATOM     41  H   LIG d   1       4.100  -1.108  -6.715  0.00  0.00     0.023 H 
ATOM     42  H   LIG d   1       4.986  -2.650  -6.673  0.00  0.00     0.023 H 
ENDBRANCH   1  39
BRANCH   7  43
ATOM     43  C   LIG d   1       7.824   1.507  -3.840  0.00  0.00    -0.059 C 
ATOM     44  H   LIG d   1       7.816   0.840  -2.979  0.00  0.00     0.024 H 
ATOM     45  H   LIG d   1       8.741   2.096  -3.836  0.00  0.00     0.024 H 
ATOM     46  H   LIG d   1       6.965   2.176  -3.789  0.00  0.00     0.024 H 
ENDBRANCH   7  43
BRANCH  14  47
ATOM     47  C   LIG d   1       9.452   3.355  -5.582  0.00  0.00    -0.050 C 
ATOM     48  H   LIG d   1      10.524   3.482  -5.438  0.00  0.00     0.024 H 
ATOM     49  H   LIG d   1       9.026   4.276  -5.979  0.00  0.00     0.024 H 
ATOM     50  H   LIG d   1       8.982   3.121  -4.626  0.00  0.00     0.024 H 
ENDBRANCH  14  47
BRANCH  14  51
ATOM     51  C   LIG d   1       9.275   2.838  -7.952  0.00  0.00     0.129 C 
ATOM     52  O   LIG d   1      10.017   3.769  -8.155  0.00  0.00    -0.300 OA
ATOM     53  H   LIG d   1       8.663   2.450  -8.752  0.00  0.00     0.103 H 
ENDBRANCH  14  51
BRANCH  12  54
ATOM     54  O   LIG d   1      11.588   1.865  -6.514  0.00  0.00    -0.391 OA
ATOM     55  H   LIG d   1      12.165   1.663  -5.764  0.00  0.00     0.210 HD
ENDBRANCH  12  54
TORSDOF 10
ENDMDL
MODEL 8
REMARK VINA RESULT:      -5.3      2.602      6.478
REMARK  10 active torsions:
REMARK  status: ('A' for Active; 'I' for Inactive)
REMARK    1  A    between atoms: C_1  and  C_2 
REMARK    2  A    between atoms: C_8  and  C_28 
REMARK    3  A    between atoms: C_9  and  C_11 
REMARK    4  A    between atoms: C_11  and  C_12 
REMARK    5  A    between atoms: C_12  and  C_13 
REMARK    6  A    between atoms: C_13  and  C_18 
REMARK    7  A    between atoms: C_14  and  C_15 
REMARK    8  A    between atoms: C_21  and  O_27 
REMARK    9  A    between atoms: C_23  and  C_24 
REMARK   10  A    between atoms: C_23  and  C_25 
ROOT
ATOM      1  C   LIG d   1       3.840  -0.784  -4.023  0.00  0.00    -0.041 C 
ATOM      2  H   LIG d   1       4.433   0.029  -3.615  0.00  0.00     0.030 H 
ATOM      3  C   LIG d   1       4.213  -2.101  -3.340  0.00  0.00    -0.050 C 
ATOM      4  C   LIG d   1       5.708  -2.359  -3.530  0.00  0.00    -0.049 C 
ATOM      5  C   LIG d   1       6.099  -2.426  -5.012  0.00  0.00    -0.021 C 
ATOM      6  H   LIG d   1       5.600  -3.301  -5.455  0.00  0.00     0.032 H 
ATOM      7  C   LIG d   1       5.625  -1.177  -5.748  0.00  0.00    -0.025 C 
ATOM      8  C   LIG d   1       4.122  -0.958  -5.513  0.00  0.00    -0.033 C 
ATOM      9  H   LIG d   1       3.588  -1.845  -5.873  0.00  0.00     0.031 H 
ATOM     10  C   LIG d   1       6.408   0.046  -5.279  0.00  0.00    -0.045 C 
ATOM     11  C   LIG d   1       7.905  -0.168  -5.504  0.00  0.00    -0.025 C 
ATOM     12  C   LIG d   1       8.378  -1.381  -4.711  0.00  0.00     0.067 C 
ATOM     13  H   LIG d   1       8.237  -1.190  -3.642  0.00  0.00     0.060 H 
ATOM     14  C   LIG d   1       7.608  -2.641  -5.098  0.00  0.00     0.052 C 
ATOM     15  H   LIG d   1       3.988  -2.034  -2.275  0.00  0.00     0.027 H 
ATOM     16  H   LIG d   1       3.642  -2.916  -3.783  0.00  0.00     0.027 H 
ATOM     17  H   LIG d   1       6.276  -1.569  -3.041  0.00  0.00     0.027 H 
ATOM     18  H   LIG d   1       5.916  -3.312  -3.034  0.00  0.00     0.027 H 
ATOM     19  H   LIG d   1       6.100   0.932  -5.838  0.00  0.00     0.027 H 
ATOM     20  H   LIG d   1       6.227   0.215  -4.217  0.00  0.00     0.027 H 
ATOM     21  H   LIG d   1       8.123  -0.290  -6.560  0.00  0.00     0.029 H 
ATOM     22  H   LIG d   1       8.441   0.720  -5.146  0.00  0.00     0.029 H 
ENDROOT
BRANCH   8  23
ATOM     23  C   LIG d   1       3.633   0.261  -6.291  0.00  0.00    -0.046 C 
ATOM     24  H   LIG d   1       3.194   0.981  -5.600  0.00  0.00     0.027 H 
ATOM     25  H   LIG d   1       4.473   0.721  -6.811  0.00  0.00     0.027 H 
BRANCH  23  26
ATOM     26  C   LIG d   1       2.579  -0.175  -7.311  0.00  0.00    -0.031 C 
ATOM     27  H   LIG d   1       2.720  -1.228  -7.553  0.00  0.00     0.031 H 
ATOM     28  H   LIG d   1       1.584  -0.028  -6.891  0.00  0.00     0.031 H 
BRANCH  26  29
ATOM     29  C   LIG d   1       2.721   0.651  -8.564  0.00  0.00    -0.071 C 
ATOM     30  C   LIG d   1       2.629   0.070  -9.759  0.00  0.00    -0.040 C 
ATOM     31  H   LIG d   1       2.670   0.670 -10.656  0.00  0.00     0.064 H 
BRANCH  30  32
ATOM     32  C   LIG d   1       2.471  -1.386  -9.857  0.00  0.00     0.065 C 
ATOM     33  O   LIG d   1       1.354  -1.875  -9.945  0.00  0.00    -0.545 OA
ATOM     34  O   LIG d   1       3.458  -2.109  -9.851  0.00  0.00    -0.545 OA
ENDBRANCH  30  32
BRANCH  29  35
ATOM     35  C   LIG d   1       2.967   2.135  -8.465  0.00  0.00    -0.043 C 
ATOM     36  H   LIG d   1       3.526   2.469  -9.338  0.00  0.00     0.027 H 
ATOM     37  H   LIG d   1       2.013   2.660  -8.421  0.00  0.00     0.027 H 
ATOM     38  H   LIG d   1       3.541   2.348  -7.562  0.00  0.00     0.027 H 
ENDBRANCH  29  35
ENDBRANCH  26  29
ENDBRANCH  23  26
ENDBRANCH   8  23
BRANCH   1  39
ATOM     39  C   LIG d   1       2.353  -0.500  -3.809  0.00  0.00    -0.062 C 
ATOM     40  H   LIG d   1       1.930  -1.256  -3.146  0.00  0.00     0.023 H 
ATOM     41  H   LIG d   1       2.233   0.486  -3.360  0.00  0.00     0.023 H 
ATOM     42  H   LIG d   1       1.836  -0.528  -4.768  0.00  0.00     0.023 H 
ENDBRANCH   1  39
BRANCH   7  43
ATOM     43  C   LIG d   1       5.774  -1.321  -7.270  0.00  0.00    -0.059 C 
ATOM     44  H   LIG d   1       4.846  -1.703  -7.693  0.00  0.00     0.024 H 
ATOM     45  H   LIG d   1       6.000  -0.348  -7.706  0.00  0.00     0.024 H 
ATOM     46  H   LIG d   1       6.586  -2.014  -7.492  0.00  0.00     0.024 H 
ENDBRANCH   7  43
BRANCH  14  47
ATOM     47  C   LIG d   1       8.055  -3.130  -6.478  0.00  0.00    -0.050 C 
ATOM     48  H   LIG d   1       7.620  -4.109  -6.675  0.00  0.00     0.024 H 
ATOM     49  H   LIG d   1       7.722  -2.424  -7.239  0.00  0.00     0.024 H 
ATOM     50  H   LIG d   1       9.143  -3.203  -6.502  0.00  0.00     0.024 H 
ENDBRANCH  14  47
BRANCH  14  51
ATOM     51  C   LIG d   1       8.021  -3.735  -4.123  0.00  0.00     0.129 C 
ATOM     52  O   LIG d   1       8.868  -3.514  -3.290  0.00  0.00    -0.300 OA
ATOM     53  H   LIG d   1       7.557  -4.709  -4.176  0.00  0.00     0.103 H 
ENDBRANCH  14  51
BRANCH  12  54
ATOM     54  O   LIG d   1       9.775  -1.590  -4.953  0.00  0.00    -0.391 OA
ATOM     55  H   LIG d   1       9.971  -1.976  -5.818  0.00  0.00     0.210 HD
ENDBRANCH  12  54
TORSDOF 10
ENDMDL
MODEL 9
REMARK VINA RESULT:      -5.1      2.835      4.681
REMARK  10 active torsions:
REMARK  status: ('A' for Active; 'I' for Inactive)
REMARK    1  A    between atoms: C_1  and  C_2 
REMARK    2  A    between atoms: C_8  and  C_28 
REMARK    3  A    between atoms: C_9  and  C_11 
REMARK    4  A    between atoms: C_11  and  C_12 
REMARK    5  A    between atoms: C_12  and  C_13 
REMARK    6  A    between atoms: C_13  and  C_18 
REMARK    7  A    between atoms: C_14  and  C_15 
REMARK    8  A    between atoms: C_21  and  O_27 
REMARK    9  A    between atoms: C_23  and  C_24 
REMARK   10  A    between atoms: C_23  and  C_25 
ROOT
ATOM      1  C   LIG d   1       3.728  -1.439  -3.955  0.00  0.00    -0.041 C 
ATOM      2  H   LIG d   1       3.258  -2.281  -4.453  0.00  0.00     0.030 H 
ATOM      3  C   LIG d   1       2.899  -0.171  -4.174  0.00  0.00    -0.050 C 
ATOM      4  C   LIG d   1       2.759   0.083  -5.675  0.00  0.00    -0.049 C 
ATOM      5  C   LIG d   1       4.121   0.239  -6.365  0.00  0.00    -0.021 C 
ATOM      6  H   LIG d   1       4.600   1.145  -5.965  0.00  0.00     0.032 H 
ATOM      7  C   LIG d   1       5.017  -0.956  -6.057  0.00  0.00    -0.025 C 
ATOM      8  C   LIG d   1       5.112  -1.174  -4.539  0.00  0.00    -0.033 C 
ATOM      9  H   LIG d   1       5.518  -0.261  -4.089  0.00  0.00     0.031 H 
ATOM     10  C   LIG d   1       4.475  -2.213  -6.729  0.00  0.00    -0.045 C 
ATOM     11  C   LIG d   1       4.371  -2.001  -8.240  0.00  0.00    -0.025 C 
ATOM     12  C   LIG d   1       3.422  -0.845  -8.535  0.00  0.00     0.067 C 
ATOM     13  H   LIG d   1       2.419  -1.103  -8.176  0.00  0.00     0.060 H 
ATOM     14  C   LIG d   1       3.879   0.444  -7.858  0.00  0.00     0.052 C 
ATOM     15  H   LIG d   1       1.910  -0.303  -3.733  0.00  0.00     0.027 H 
ATOM     16  H   LIG d   1       3.398   0.676  -3.704  0.00  0.00     0.027 H 
ATOM     17  H   LIG d   1       2.214  -0.742  -6.132  0.00  0.00     0.027 H 
ATOM     18  H   LIG d   1       2.171   1.000  -5.773  0.00  0.00     0.027 H 
ATOM     19  H   LIG d   1       5.141  -3.060  -6.547  0.00  0.00     0.027 H 
ATOM     20  H   LIG d   1       3.486  -2.448  -6.333  0.00  0.00     0.027 H 
ATOM     21  H   LIG d   1       5.349  -1.815  -8.672  0.00  0.00     0.029 H 
ATOM     22  H   LIG d   1       3.967  -2.916  -8.693  0.00  0.00     0.029 H 
ENDROOT
BRANCH   8  23
ATOM     23  C   LIG d   1       6.051  -2.336  -4.225  0.00  0.00    -0.046 C 
ATOM     24  H   LIG d   1       6.971  -2.225  -4.800  0.00  0.00     0.027 H 
ATOM     25  H   LIG d   1       6.285  -2.336  -3.160  0.00  0.00     0.027 H 
BRANCH  23  26
ATOM     26  C   LIG d   1       5.373  -3.655  -4.598  0.00  0.00    -0.031 C 
ATOM     27  H   LIG d   1       5.095  -4.192  -3.691  0.00  0.00     0.031 H 
ATOM     28  H   LIG d   1       4.479  -3.451  -5.187  0.00  0.00     0.031 H 
BRANCH  26  29
ATOM     29  C   LIG d   1       6.325  -4.498  -5.408  0.00  0.00    -0.071 C 
ATOM     30  C   LIG d   1       5.899  -5.628  -5.972  0.00  0.00    -0.040 C 
ATOM     31  H   LIG d   1       6.564  -6.201  -6.602  0.00  0.00     0.064 H 
BRANCH  30  32
ATOM     32  C   LIG d   1       4.528  -6.095  -5.736  0.00  0.00     0.065 C 
ATOM     33  O   LIG d   1       4.327  -7.054  -5.003  0.00  0.00    -0.545 OA
ATOM     34  O   LIG d   1       3.587  -5.526  -6.272  0.00  0.00    -0.545 OA
ENDBRANCH  30  32
BRANCH  29  35
ATOM     35  C   LIG d   1       7.757  -4.062  -5.582  0.00  0.00    -0.043 C 
ATOM     36  H   LIG d   1       8.421  -4.865  -5.263  0.00  0.00     0.027 H 
ATOM     37  H   LIG d   1       7.942  -3.832  -6.631  0.00  0.00     0.027 H 
ATOM     38  H   LIG d   1       7.942  -3.175  -4.976  0.00  0.00     0.027 H 
ENDBRANCH  29  35
ENDBRANCH  26  29
ENDBRANCH  23  26
ENDBRANCH   8  23
BRANCH   1  39
ATOM     39  C   LIG d   1       3.845  -1.720  -2.456  0.00  0.00    -0.062 C 
ATOM     40  H   LIG d   1       4.315  -0.870  -1.962  0.00  0.00     0.023 H 
ATOM     41  H   LIG d   1       2.850  -1.879  -2.039  0.00  0.00     0.023 H 
ATOM     42  H   LIG d   1       4.450  -2.613  -2.301  0.00  0.00     0.023 H 
ENDBRANCH   1  39
BRANCH   7  43
ATOM     43  C   LIG d   1       6.462  -0.718  -6.518  0.00  0.00    -0.059 C 
ATOM     44  H   LIG d   1       6.687   0.348  -6.477  0.00  0.00     0.024 H 
ATOM     45  H   LIG d   1       7.146  -1.259  -5.865  0.00  0.00     0.024 H 
ATOM     46  H   LIG d   1       6.581  -1.074  -7.542  0.00  0.00     0.024 H 
ENDBRANCH   7  43
BRANCH  14  47
ATOM     47  C   LIG d   1       5.102   1.014  -8.580  0.00  0.00    -0.050 C 
ATOM     48  H   LIG d   1       4.857   1.190  -9.627  0.00  0.00     0.024 H 
ATOM     49  H   LIG d   1       5.395   1.954  -8.112  0.00  0.00     0.024 H 
ATOM     50  H   LIG d   1       5.926   0.303  -8.513  0.00  0.00     0.024 H 
ENDBRANCH  14  47
BRANCH  14  51
ATOM     51  C   LIG d   1       2.771   1.470  -8.056  0.00  0.00     0.129 C 
ATOM     52  O   LIG d   1       2.712   2.106  -9.082  0.00  0.00    -0.300 OA
ATOM     53  H   LIG d   1       2.038   1.629  -7.279  0.00  0.00     0.103 H 
ENDBRANCH  14  51
BRANCH  12  54
ATOM     54  O   LIG d   1       3.355  -0.636  -9.951  0.00  0.00    -0.391 OA
ATOM     55  H   LIG d   1       4.159  -0.254 -10.330  0.00  0.00     0.210 HD
ENDBRANCH  12  54
TORSDOF 10
ENDMDL
