MODEL 1
REMARK VINA RESULT:      -6.6      0.000      0.000
REMARK  8 active torsions:
REMARK  status: ('A' for Active; 'I' for Inactive)
REMARK    1  A    between atoms: C_1  and  O_2 
REMARK    2  A    between atoms: O_2  and  C_3 
REMARK    3  A    between atoms: C_9  and  C_13 
REMARK    4  A    between atoms: C_13  and  C_14 
REMARK    5  A    between atoms: C_14  and  N_15 
REMARK    6  A    between atoms: C_18  and  C_23 
REMARK    7  A    between atoms: C_23  and  C_24 
REMARK    8  A    between atoms: C_24  and  C_25 
ROOT
ATOM      1  C   LIG d   1       4.128  -2.040  -6.807  0.00  0.00    -0.009 C 
ATOM      2  H   LIG d   1       3.975  -2.688  -7.671  0.00  0.00     0.033 H 
ATOM      3  H   LIG d   1       3.527  -2.400  -5.972  0.00  0.00     0.033 H 
ENDROOT
BRANCH   1   4
ATOM      4  C   LIG d   1       3.712  -0.633  -7.154  0.00  0.00    -0.021 A 
ATOM      5  C   LIG d   1       3.830   0.012  -8.464  0.00  0.00     0.006 A 
ATOM      6  C   LIG d   1       3.317   1.312  -8.305  0.00  0.00     0.047 A 
ATOM      7  C   LIG d   1       4.313  -0.401  -9.708  0.00  0.00    -0.011 A 
ATOM      8  C   LIG d   1       3.296   2.178  -9.393  0.00  0.00    -0.034 A 
ATOM      9  N   LIG d   1       2.921   1.434  -6.990  0.00  0.00    -0.360 N 
ATOM     10  C   LIG d   1       3.775   1.760 -10.615  0.00  0.00    -0.018 A 
ATOM     11  H   LIG d   1       2.904   3.178  -9.281  0.00  0.00     0.064 H 
ATOM     12  C   LIG d   1       4.284   0.473 -10.775  0.00  0.00     0.121 A 
ATOM     13  H   LIG d   1       3.756   2.437 -11.457  0.00  0.00     0.066 H 
ATOM     14  C   LIG d   1       3.159   0.264  -6.322  0.00  0.00     0.006 A 
ATOM     15  H   LIG d   1       2.528   2.229  -6.599  0.00  0.00     0.165 HD
ATOM     16  H   LIG d   1       2.937   0.088  -5.280  0.00  0.00     0.081 H 
ATOM     17  H   LIG d   1       4.707  -1.399  -9.834  0.00  0.00     0.066 H 
BRANCH  12  18
ATOM     18  O   LIG d   1       4.753   0.077 -11.988  0.00  0.00    -0.495 OA
BRANCH  18  19
ATOM     19  C   LIG d   1       4.029  -0.957 -12.659  0.00  0.00     0.079 C 
ATOM     20  H   LIG d   1       4.534  -1.209 -13.591  0.00  0.00     0.066 H 
ATOM     21  H   LIG d   1       3.982  -1.840 -12.020  0.00  0.00     0.066 H 
ATOM     22  H   LIG d   1       3.019  -0.611 -12.875  0.00  0.00     0.066 H 
ENDBRANCH  18  19
ENDBRANCH  12  18
ENDBRANCH   1   4
BRANCH   1  23
ATOM     23  C   LIG d   1       5.607  -2.053  -6.415  0.00  0.00     0.028 C 
ATOM     24  H   LIG d   1       6.144  -1.307  -6.999  0.00  0.00     0.047 H 
ATOM     25  H   LIG d   1       6.026  -3.040  -6.613  0.00  0.00     0.047 H 
BRANCH  23  26
ATOM     26  N   LIG d   1       5.737  -1.745  -4.988  0.00  0.00    -0.224 N 
ATOM     27  C   LIG d   1       6.436  -0.712  -4.504  0.00  0.00     0.309 A 
ATOM     28  N   LIG d   1       6.397  -0.651  -3.160  0.00  0.00    -0.288 N 
ATOM     29  O   LIG d   1       7.039   0.081  -5.199  0.00  0.00    -0.252 OA
ATOM     30  C   LIG d   1       5.569  -1.783  -2.711  0.00  0.00     0.102 A 
ATOM     31  H   LIG d   1       6.829   0.010  -2.598  0.00  0.00     0.151 HD
ATOM     32  C   LIG d   1       5.167  -2.466  -4.003  0.00  0.00     0.243 A 
ATOM     33  H   LIG d   1       6.151  -2.459  -2.083  0.00  0.00     0.059 H 
ATOM     34  O   LIG d   1       4.477  -3.455  -4.125  0.00  0.00    -0.273 OA
BRANCH  30  35
ATOM     35  C   LIG d   1       4.333  -1.283  -1.959  0.00  0.00    -0.021 C 
ATOM     36  H   LIG d   1       4.643  -0.782  -1.043  0.00  0.00     0.029 H 
ATOM     37  H   LIG d   1       3.692  -2.129  -1.713  0.00  0.00     0.029 H 
BRANCH  35  38
ATOM     38  C   LIG d   1       3.563  -0.301  -2.844  0.00  0.00    -0.011 C 
ATOM     39  H   LIG d   1       3.797  -0.494  -3.891  0.00  0.00     0.033 H 
ATOM     40  H   LIG d   1       2.492  -0.428  -2.682  0.00  0.00     0.033 H 
BRANCH  38  41
ATOM     41  C   LIG d   1       3.960   1.110  -2.492  0.00  0.00     0.042 C 
ATOM     42  O   LIG d   1       3.608   2.029  -3.193  0.00  0.00    -0.550 OA
ATOM     43  O   LIG d   1       4.704   1.345  -1.400  0.00  0.00    -0.550 OA
ENDBRANCH  38  41
ENDBRANCH  35  38
ENDBRANCH  30  35
ENDBRANCH  23  26
ENDBRANCH   1  23
TORSDOF 8
ENDMDL
MODEL 2
REMARK VINA RESULT:      -6.6      2.143      2.792
REMARK  8 active torsions:
REMARK  status: ('A' for Active; 'I' for Inactive)
REMARK    1  A    between atoms: C_1  and  O_2 
REMARK    2  A    between atoms: O_2  and  C_3 
REMARK    3  A    between atoms: C_9  and  C_13 
REMARK    4  A    between atoms: C_13  and  C_14 
REMARK    5  A    between atoms: C_14  and  N_15 
REMARK    6  A    between atoms: C_18  and  C_23 
REMARK    7  A    between atoms: C_23  and  C_24 
REMARK    8  A    between atoms: C_24  and  C_25 
ROOT
ATOM      1  C   LIG d   1       6.714  -1.871  -6.335  0.00  0.00    -0.009 C 
ATOM      2  H   LIG d   1       6.741  -0.819  -6.046  0.00  0.00     0.033 H 
ATOM      3  H   LIG d   1       7.569  -2.093  -6.975  0.00  0.00     0.033 H 
ENDROOT
BRANCH   1   4
ATOM      4  C   LIG d   1       5.438  -2.154  -7.086  0.00  0.00    -0.021 A 
ATOM      5  C   LIG d   1       4.514  -1.160  -7.637  0.00  0.00     0.006 A 
ATOM      6  C   LIG d   1       3.476  -1.890  -8.245  0.00  0.00     0.047 A 
ATOM      7  C   LIG d   1       4.492   0.236  -7.660  0.00  0.00    -0.011 A 
ATOM      8  C   LIG d   1       2.433  -1.210  -8.864  0.00  0.00    -0.034 A 
ATOM      9  N   LIG d   1       3.762  -3.227  -8.067  0.00  0.00    -0.360 N 
ATOM     10  C   LIG d   1       2.421   0.167  -8.881  0.00  0.00    -0.018 A 
ATOM     11  H   LIG d   1       1.631  -1.762  -9.334  0.00  0.00     0.064 H 
ATOM     12  C   LIG d   1       3.448   0.892  -8.280  0.00  0.00     0.121 A 
ATOM     13  H   LIG d   1       1.609   0.689  -9.363  0.00  0.00     0.066 H 
ATOM     14  C   LIG d   1       4.937  -3.364  -7.380  0.00  0.00     0.006 A 
ATOM     15  H   LIG d   1       3.214  -3.960  -8.385  0.00  0.00     0.165 HD
ATOM     16  H   LIG d   1       5.392  -4.305  -7.111  0.00  0.00     0.081 H 
ATOM     17  H   LIG d   1       5.288   0.800  -7.195  0.00  0.00     0.066 H 
BRANCH  12  18
ATOM     18  O   LIG d   1       3.421   2.251  -8.304  0.00  0.00    -0.495 OA
BRANCH  18  19
ATOM     19  C   LIG d   1       4.055   2.893  -9.413  0.00  0.00     0.079 C 
ATOM     20  H   LIG d   1       3.459   2.735 -10.313  0.00  0.00     0.066 H 
ATOM     21  H   LIG d   1       4.137   3.962  -9.215  0.00  0.00     0.066 H 
ATOM     22  H   LIG d   1       5.049   2.473  -9.557  0.00  0.00     0.066 H 
ENDBRANCH  18  19
ENDBRANCH  12  18
ENDBRANCH   1   4
BRANCH   1  23
ATOM     23  C   LIG d   1       6.775  -2.746  -5.082  0.00  0.00     0.028 C 
ATOM     24  H   LIG d   1       7.807  -2.821  -4.740  0.00  0.00     0.047 H 
ATOM     25  H   LIG d   1       6.398  -3.742  -5.316  0.00  0.00     0.047 H 
BRANCH  23  26
ATOM     26  N   LIG d   1       5.952  -2.148  -4.028  0.00  0.00    -0.224 N 
ATOM     27  C   LIG d   1       6.277  -1.035  -3.362  0.00  0.00     0.309 A 
ATOM     28  N   LIG d   1       5.353  -0.697  -2.444  0.00  0.00    -0.288 N 
ATOM     29  O   LIG d   1       7.294  -0.400  -3.562  0.00  0.00    -0.252 OA
ATOM     30  C   LIG d   1       4.292  -1.715  -2.520  0.00  0.00     0.102 A 
ATOM     31  H   LIG d   1       5.380   0.069  -1.850  0.00  0.00     0.151 HD
ATOM     32  C   LIG d   1       4.774  -2.652  -3.609  0.00  0.00     0.243 A 
ATOM     33  H   LIG d   1       4.197  -2.243  -1.571  0.00  0.00     0.059 H 
ATOM     34  O   LIG d   1       4.218  -3.649  -4.018  0.00  0.00    -0.273 OA
BRANCH  30  35
ATOM     35  C   LIG d   1       2.958  -1.076  -2.913  0.00  0.00    -0.021 C 
ATOM     36  H   LIG d   1       2.246  -1.186  -2.095  0.00  0.00     0.029 H 
ATOM     37  H   LIG d   1       2.568  -1.568  -3.804  0.00  0.00     0.029 H 
BRANCH  35  38
ATOM     38  C   LIG d   1       3.172   0.411  -3.206  0.00  0.00    -0.011 C 
ATOM     39  H   LIG d   1       2.706   1.007  -2.421  0.00  0.00     0.033 H 
ATOM     40  H   LIG d   1       4.241   0.625  -3.239  0.00  0.00     0.033 H 
BRANCH  38  41
ATOM     41  C   LIG d   1       2.550   0.756  -4.535  0.00  0.00     0.042 C 
ATOM     42  O   LIG d   1       2.054  -0.112  -5.213  0.00  0.00    -0.550 OA
ATOM     43  O   LIG d   1       2.547   2.028  -4.964  0.00  0.00    -0.550 OA
ENDBRANCH  38  41
ENDBRANCH  35  38
ENDBRANCH  30  35
ENDBRANCH  23  26
ENDBRANCH   1  23
TORSDOF 8
ENDMDL
MODEL 3
REMARK VINA RESULT:      -6.5      2.021      3.068
REMARK  8 active torsions:
REMARK  status: ('A' for Active; 'I' for Inactive)
REMARK    1  A    between atoms: C_1  and  O_2 
REMARK    2  A    between atoms: O_2  and  C_3 
REMARK    3  A    between atoms: C_9  and  C_13 
REMARK    4  A    between atoms: C_13  and  C_14 
REMARK    5  A    between atoms: C_14  and  N_15 
REMARK    6  A    between atoms: C_18  and  C_23 
REMARK    7  A    between atoms: C_23  and  C_24 
REMARK    8  A    between atoms: C_24  and  C_25 
ROOT
ATOM      1  C   LIG d   1       3.827  -3.710  -7.987  0.00  0.00    -0.009 C 
ATOM      2  H   LIG d   1       3.532  -4.631  -8.491  0.00  0.00     0.033 H 
ATOM      3  H   LIG d   1       3.174  -3.539  -7.131  0.00  0.00     0.033 H 
ENDROOT
BRANCH   1   4
ATOM      4  C   LIG d   1       3.710  -2.552  -8.945  0.00  0.00    -0.021 A 
ATOM      5  C   LIG d   1       3.426  -1.158  -8.596  0.00  0.00     0.006 A 
ATOM      6  C   LIG d   1       3.414  -0.449  -9.811  0.00  0.00     0.047 A 
ATOM      7  C   LIG d   1       3.191  -0.488  -7.394  0.00  0.00    -0.011 A 
ATOM      8  C   LIG d   1       3.166   0.920  -9.803  0.00  0.00    -0.034 A 
ATOM      9  N   LIG d   1       3.673  -1.358 -10.815  0.00  0.00    -0.360 N 
ATOM     10  C   LIG d   1       2.936   1.571  -8.610  0.00  0.00    -0.018 A 
ATOM     11  H   LIG d   1       3.156   1.473 -10.730  0.00  0.00     0.064 H 
ATOM     12  C   LIG d   1       2.947   0.870  -7.407  0.00  0.00     0.121 A 
ATOM     13  H   LIG d   1       2.745   2.633  -8.610  0.00  0.00     0.066 H 
ATOM     14  C   LIG d   1       3.852  -2.604 -10.279  0.00  0.00     0.006 A 
ATOM     15  H   LIG d   1       3.724  -1.145 -11.759  0.00  0.00     0.165 HD
ATOM     16  H   LIG d   1       4.072  -3.497 -10.845  0.00  0.00     0.081 H 
ATOM     17  H   LIG d   1       3.201  -1.030  -6.460  0.00  0.00     0.066 H 
BRANCH  12  18
ATOM     18  O   LIG d   1       2.717   1.527  -6.239  0.00  0.00    -0.495 OA
BRANCH  18  19
ATOM     19  C   LIG d   1       2.431   0.728  -5.089  0.00  0.00     0.079 C 
ATOM     20  H   LIG d   1       2.538  -0.327  -5.344  0.00  0.00     0.066 H 
ATOM     21  H   LIG d   1       3.127   0.981  -4.289  0.00  0.00     0.066 H 
ATOM     22  H   LIG d   1       1.411   0.920  -4.758  0.00  0.00     0.066 H 
ENDBRANCH  18  19
ENDBRANCH  12  18
ENDBRANCH   1   4
BRANCH   1  23
ATOM     23  C   LIG d   1       5.275  -3.831  -7.507  0.00  0.00     0.028 C 
ATOM     24  H   LIG d   1       5.939  -3.365  -8.235  0.00  0.00     0.047 H 
ATOM     25  H   LIG d   1       5.535  -4.884  -7.401  0.00  0.00     0.047 H 
BRANCH  23  26
ATOM     26  N   LIG d   1       5.419  -3.159  -6.213  0.00  0.00    -0.224 N 
ATOM     27  C   LIG d   1       6.066  -2.002  -6.036  0.00  0.00     0.309 A 
ATOM     28  N   LIG d   1       6.055  -1.599  -4.752  0.00  0.00    -0.288 N 
ATOM     29  O   LIG d   1       6.604  -1.384  -6.933  0.00  0.00    -0.252 OA
ATOM     30  C   LIG d   1       5.307  -2.618  -3.997  0.00  0.00     0.102 A 
ATOM     31  H   LIG d   1       6.459  -0.793  -4.394  0.00  0.00     0.151 HD
ATOM     32  C   LIG d   1       4.917  -3.631  -5.055  0.00  0.00     0.243 A 
ATOM     33  H   LIG d   1       5.943  -3.078  -3.239  0.00  0.00     0.059 H 
ATOM     34  O   LIG d   1       4.285  -4.653  -4.894  0.00  0.00    -0.273 OA
BRANCH  30  35
ATOM     35  C   LIG d   1       4.061  -2.007  -3.352  0.00  0.00    -0.021 C 
ATOM     36  H   LIG d   1       3.301  -2.778  -3.227  0.00  0.00     0.029 H 
ATOM     37  H   LIG d   1       3.674  -1.214  -3.991  0.00  0.00     0.029 H 
BRANCH  35  38
ATOM     38  C   LIG d   1       4.429  -1.426  -1.985  0.00  0.00    -0.011 C 
ATOM     39  H   LIG d   1       3.644  -1.664  -1.266  0.00  0.00     0.033 H 
ATOM     40  H   LIG d   1       5.372  -1.855  -1.649  0.00  0.00     0.033 H 
BRANCH  38  41
ATOM     41  C   LIG d   1       4.569   0.071  -2.097  0.00  0.00     0.042 C 
ATOM     42  O   LIG d   1       3.652   0.789  -1.774  0.00  0.00    -0.550 OA
ATOM     43  O   LIG d   1       5.712   0.605  -2.555  0.00  0.00    -0.550 OA
ENDBRANCH  38  41
ENDBRANCH  35  38
ENDBRANCH  30  35
ENDBRANCH  23  26
ENDBRANCH   1  23
TORSDOF 8
ENDMDL
MODEL 4
REMARK VINA RESULT:      -6.5      2.551      3.643
REMARK  8 active torsions:
REMARK  status: ('A' for Active; 'I' for Inactive)
REMARK    1  A    between atoms: C_1  and  O_2 
REMARK    2  A    between atoms: O_2  and  C_3 
REMARK    3  A    between atoms: C_9  and  C_13 
REMARK    4  A    between atoms: C_13  and  C_14 
REMARK    5  A    between atoms: C_14  and  N_15 
REMARK    6  A    between atoms: C_18  and  C_23 
REMARK    7  A    between atoms: C_23  and  C_24 
REMARK    8  A    between atoms: C_24  and  C_25 
ROOT
ATOM      1  C   LIG d   1       2.686  -0.024  -7.935  0.00  0.00    -0.009 C 
ATOM      2  H   LIG d   1       2.094  -0.915  -7.722  0.00  0.00     0.033 H 
ATOM      3  H   LIG d   1       2.092   0.865  -7.721  0.00  0.00     0.033 H 
ENDROOT
BRANCH   1   4
ATOM      4  C   LIG d   1       3.085  -0.022  -9.389  0.00  0.00    -0.021 A 
ATOM      5  C   LIG d   1       2.516  -0.857 -10.449  0.00  0.00     0.006 A 
ATOM      6  C   LIG d   1       3.199  -0.507 -11.628  0.00  0.00     0.047 A 
ATOM      7  C   LIG d   1       1.520  -1.835 -10.484  0.00  0.00    -0.011 A 
ATOM      8  C   LIG d   1       2.875  -1.141 -12.822  0.00  0.00    -0.034 A 
ATOM      9  N   LIG d   1       4.114   0.470 -11.293  0.00  0.00    -0.360 N 
ATOM     10  C   LIG d   1       1.890  -2.104 -12.845  0.00  0.00    -0.018 A 
ATOM     11  H   LIG d   1       3.393  -0.878 -13.733  0.00  0.00     0.064 H 
ATOM     12  C   LIG d   1       1.213  -2.453 -11.679  0.00  0.00     0.121 A 
ATOM     13  H   LIG d   1       1.642  -2.593 -13.775  0.00  0.00     0.066 H 
ATOM     14  C   LIG d   1       4.027   0.749  -9.956  0.00  0.00     0.006 A 
ATOM     15  H   LIG d   1       4.723   0.898 -11.913  0.00  0.00     0.165 HD
ATOM     16  H   LIG d   1       4.627   1.479  -9.434  0.00  0.00     0.081 H 
ATOM     17  H   LIG d   1       0.993  -2.105  -9.581  0.00  0.00     0.066 H 
BRANCH  12  18
ATOM     18  O   LIG d   1       0.244  -3.406 -11.719  0.00  0.00    -0.495 OA
BRANCH  18  19
ATOM     19  C   LIG d   1       0.301  -4.432 -10.725  0.00  0.00     0.079 C 
ATOM     20  H   LIG d   1       0.229  -5.408 -11.206  0.00  0.00     0.066 H 
ATOM     21  H   LIG d   1       1.246  -4.362 -10.185  0.00  0.00     0.066 H 
ATOM     22  H   LIG d   1      -0.526  -4.309 -10.027  0.00  0.00     0.066 H 
ENDBRANCH  18  19
ENDBRANCH  12  18
ENDBRANCH   1   4
BRANCH   1  23
ATOM     23  C   LIG d   1       3.940  -0.023  -7.060  0.00  0.00     0.028 C 
ATOM     24  H   LIG d   1       4.381   0.974  -7.059  0.00  0.00     0.047 H 
ATOM     25  H   LIG d   1       4.661  -0.737  -7.458  0.00  0.00     0.047 H 
BRANCH  23  26
ATOM     26  N   LIG d   1       3.582  -0.401  -5.691  0.00  0.00    -0.224 N 
ATOM     27  C   LIG d   1       3.906  -1.569  -5.125  0.00  0.00     0.309 A 
ATOM     28  N   LIG d   1       3.458  -1.668  -3.860  0.00  0.00    -0.288 N 
ATOM     29  O   LIG d   1       4.533  -2.443  -5.690  0.00  0.00    -0.252 OA
ATOM     30  C   LIG d   1       2.755  -0.409  -3.562  0.00  0.00     0.102 A 
ATOM     31  H   LIG d   1       3.576  -2.422  -3.262  0.00  0.00     0.151 HD
ATOM     32  C   LIG d   1       2.886   0.385  -4.846  0.00  0.00     0.243 A 
ATOM     33  H   LIG d   1       1.707  -0.599  -3.331  0.00  0.00     0.059 H 
ATOM     34  O   LIG d   1       2.454   1.496  -5.068  0.00  0.00    -0.273 OA
BRANCH  30  35
ATOM     35  C   LIG d   1       3.434   0.326  -2.404  0.00  0.00    -0.021 C 
ATOM     36  H   LIG d   1       2.803   0.269  -1.517  0.00  0.00     0.029 H 
ATOM     37  H   LIG d   1       3.585   1.371  -2.676  0.00  0.00     0.029 H 
BRANCH  35  38
ATOM     38  C   LIG d   1       4.787  -0.324  -2.111  0.00  0.00    -0.011 C 
ATOM     39  H   LIG d   1       4.973  -0.310  -1.037  0.00  0.00     0.033 H 
ATOM     40  H   LIG d   1       4.780  -1.355  -2.465  0.00  0.00     0.033 H 
BRANCH  38  41
ATOM     41  C   LIG d   1       5.876   0.441  -2.818  0.00  0.00     0.042 C 
ATOM     42  O   LIG d   1       5.785   1.639  -2.949  0.00  0.00    -0.550 OA
ATOM     43  O   LIG d   1       6.947  -0.208  -3.303  0.00  0.00    -0.550 OA
ENDBRANCH  38  41
ENDBRANCH  35  38
ENDBRANCH  30  35
ENDBRANCH  23  26
ENDBRANCH   1  23
TORSDOF 8
ENDMDL
MODEL 5
REMARK VINA RESULT:      -6.5      2.059      2.506
REMARK  8 active torsions:
REMARK  status: ('A' for Active; 'I' for Inactive)
REMARK    1  A    between atoms: C_1  and  O_2 
REMARK    2  A    between atoms: O_2  and  C_3 
REMARK    3  A    between atoms: C_9  and  C_13 
REMARK    4  A    between atoms: C_13  and  C_14 
REMARK    5  A    between atoms: C_14  and  N_15 
REMARK    6  A    between atoms: C_18  and  C_23 
REMARK    7  A    between atoms: C_23  and  C_24 
REMARK    8  A    between atoms: C_24  and  C_25 
ROOT
ATOM      1  C   LIG d   1       7.018  -0.768  -6.993  0.00  0.00    -0.009 C 
ATOM      2  H   LIG d   1       8.062  -0.962  -7.243  0.00  0.00     0.033 H 
ATOM      3  H   LIG d   1       6.436  -1.680  -7.128  0.00  0.00     0.033 H 
ENDROOT
BRANCH   1   4
ATOM      4  C   LIG d   1       6.477   0.310  -7.898  0.00  0.00    -0.021 A 
ATOM      5  C   LIG d   1       5.210   0.276  -8.632  0.00  0.00     0.006 A 
ATOM      6  C   LIG d   1       5.135   1.493  -9.334  0.00  0.00     0.047 A 
ATOM      7  C   LIG d   1       4.178  -0.658  -8.742  0.00  0.00    -0.011 A 
ATOM      8  C   LIG d   1       4.028   1.754 -10.135  0.00  0.00    -0.034 A 
ATOM      9  N   LIG d   1       6.280   2.204  -9.038  0.00  0.00    -0.360 N 
ATOM     10  C   LIG d   1       3.016   0.826 -10.235  0.00  0.00    -0.018 A 
ATOM     11  H   LIG d   1       3.962   2.686 -10.677  0.00  0.00     0.064 H 
ATOM     12  C   LIG d   1       3.088  -0.380  -9.541  0.00  0.00     0.121 A 
ATOM     13  H   LIG d   1       2.159   1.035 -10.858  0.00  0.00     0.066 H 
ATOM     14  C   LIG d   1       7.063   1.485  -8.177  0.00  0.00     0.006 A 
ATOM     15  H   LIG d   1       6.494   3.083  -9.385  0.00  0.00     0.165 HD
ATOM     16  H   LIG d   1       8.013   1.814  -7.782  0.00  0.00     0.081 H 
ATOM     17  H   LIG d   1       4.232  -1.593  -8.203  0.00  0.00     0.066 H 
BRANCH  12  18
ATOM     18  O   LIG d   1       2.081  -1.286  -9.652  0.00  0.00    -0.495 OA
BRANCH  18  19
ATOM     19  C   LIG d   1       2.452  -2.665  -9.717  0.00  0.00     0.079 C 
ATOM     20  H   LIG d   1       2.871  -2.975  -8.760  0.00  0.00     0.066 H 
ATOM     21  H   LIG d   1       1.571  -3.267  -9.940  0.00  0.00     0.066 H 
ATOM     22  H   LIG d   1       3.195  -2.804 -10.501  0.00  0.00     0.066 H 
ENDBRANCH  18  19
ENDBRANCH  12  18
ENDBRANCH   1   4
BRANCH   1  23
ATOM     23  C   LIG d   1       6.919  -0.310  -5.537  0.00  0.00     0.028 C 
ATOM     24  H   LIG d   1       6.652   0.746  -5.506  0.00  0.00     0.047 H 
ATOM     25  H   LIG d   1       7.880  -0.457  -5.044  0.00  0.00     0.047 H 
BRANCH  23  26
ATOM     26  N   LIG d   1       5.892  -1.094  -4.847  0.00  0.00    -0.224 N 
ATOM     27  C   LIG d   1       6.137  -2.218  -4.164  0.00  0.00     0.309 A 
ATOM     28  N   LIG d   1       5.022  -2.745  -3.625  0.00  0.00    -0.288 N 
ATOM     29  O   LIG d   1       7.242  -2.709  -4.045  0.00  0.00    -0.252 OA
ATOM     30  C   LIG d   1       3.911  -1.855  -4.001  0.00  0.00     0.102 A 
ATOM     31  H   LIG d   1       4.962  -3.553  -3.092  0.00  0.00     0.151 HD
ATOM     32  C   LIG d   1       4.583  -0.772  -4.821  0.00  0.00     0.243 A 
ATOM     33  H   LIG d   1       3.175  -2.391  -4.600  0.00  0.00     0.059 H 
ATOM     34  O   LIG d   1       4.055   0.185  -5.346  0.00  0.00    -0.273 OA
BRANCH  30  35
ATOM     35  C   LIG d   1       3.254  -1.256  -2.755  0.00  0.00    -0.021 C 
ATOM     36  H   LIG d   1       2.681  -2.026  -2.239  0.00  0.00     0.029 H 
ATOM     37  H   LIG d   1       2.590  -0.444  -3.049  0.00  0.00     0.029 H 
BRANCH  35  38
ATOM     38  C   LIG d   1       4.337  -0.713  -1.820  0.00  0.00    -0.011 C 
ATOM     39  H   LIG d   1       4.082  -0.957  -0.788  0.00  0.00     0.033 H 
ATOM     40  H   LIG d   1       5.296  -1.164  -2.074  0.00  0.00     0.033 H 
BRANCH  38  41
ATOM     41  C   LIG d   1       4.430   0.783  -1.973  0.00  0.00     0.042 C 
ATOM     42  O   LIG d   1       5.511   1.313  -2.087  0.00  0.00    -0.550 OA
ATOM     43  O   LIG d   1       3.313   1.528  -1.984  0.00  0.00    -0.550 OA
ENDBRANCH  38  41
ENDBRANCH  35  38
ENDBRANCH  30  35
ENDBRANCH  23  26
ENDBRANCH   1  23
TORSDOF 8
ENDMDL
MODEL 6
REMARK VINA RESULT:      -6.5      2.987      5.739
REMARK  8 active torsions:
REMARK  status: ('A' for Active; 'I' for Inactive)
REMARK    1  A    between atoms: C_1  and  O_2 
REMARK    2  A    between atoms: O_2  and  C_3 
REMARK    3  A    between atoms: C_9  and  C_13 
REMARK    4  A    between atoms: C_13  and  C_14 
REMARK    5  A    between atoms: C_14  and  N_15 
REMARK    6  A    between atoms: C_18  and  C_23 
REMARK    7  A    between atoms: C_23  and  C_24 
REMARK    8  A    between atoms: C_24  and  C_25 
ROOT
ATOM      1  C   LIG d   1       6.960  -1.593  -4.311  0.00  0.00    -0.009 C 
ATOM      2  H   LIG d   1       6.096  -1.445  -4.959  0.00  0.00     0.033 H 
ATOM      3  H   LIG d   1       7.744  -0.886  -4.585  0.00  0.00     0.033 H 
ENDROOT
BRANCH   1   4
ATOM      4  C   LIG d   1       7.475  -3.000  -4.473  0.00  0.00    -0.021 A 
ATOM      5  C   LIG d   1       6.735  -4.141  -5.019  0.00  0.00     0.006 A 
ATOM      6  C   LIG d   1       7.619  -5.235  -4.973  0.00  0.00     0.047 A 
ATOM      7  C   LIG d   1       5.444  -4.307  -5.521  0.00  0.00    -0.011 A 
ATOM      8  C   LIG d   1       7.194  -6.478  -5.429  0.00  0.00    -0.034 A 
ATOM      9  N   LIG d   1       8.804  -4.777  -4.436  0.00  0.00    -0.360 N 
ATOM     10  C   LIG d   1       5.917  -6.631  -5.923  0.00  0.00    -0.018 A 
ATOM     11  H   LIG d   1       7.865  -7.324  -5.399  0.00  0.00     0.064 H 
ATOM     12  C   LIG d   1       5.041  -5.549  -5.970  0.00  0.00     0.121 A 
ATOM     13  H   LIG d   1       5.593  -7.598  -6.277  0.00  0.00     0.066 H 
ATOM     14  C   LIG d   1       8.701  -3.444  -4.151  0.00  0.00     0.006 A 
ATOM     15  H   LIG d   1       9.593  -5.320  -4.288  0.00  0.00     0.165 HD
ATOM     16  H   LIG d   1       9.487  -2.837  -3.726  0.00  0.00     0.081 H 
ATOM     17  H   LIG d   1       4.763  -3.469  -5.559  0.00  0.00     0.066 H 
BRANCH  12  18
ATOM     18  O   LIG d   1       3.784  -5.717  -6.460  0.00  0.00    -0.495 OA
BRANCH  18  19
ATOM     19  C   LIG d   1       3.517  -5.186  -7.760  0.00  0.00     0.079 C 
ATOM     20  H   LIG d   1       3.032  -5.948  -8.371  0.00  0.00     0.066 H 
ATOM     21  H   LIG d   1       2.861  -4.320  -7.671  0.00  0.00     0.066 H 
ATOM     22  H   LIG d   1       4.453  -4.886  -8.229  0.00  0.00     0.066 H 
ENDBRANCH  18  19
ENDBRANCH  12  18
ENDBRANCH   1   4
BRANCH   1  23
ATOM     23  C   LIG d   1       6.552  -1.363  -2.855  0.00  0.00     0.028 C 
ATOM     24  H   LIG d   1       7.278  -0.707  -2.374  0.00  0.00     0.047 H 
ATOM     25  H   LIG d   1       6.523  -2.319  -2.331  0.00  0.00     0.047 H 
BRANCH  23  26
ATOM     26  N   LIG d   1       5.226  -0.742  -2.811  0.00  0.00    -0.224 N 
ATOM     27  C   LIG d   1       5.017   0.577  -2.725  0.00  0.00     0.309 A 
ATOM     28  N   LIG d   1       3.708   0.888  -2.701  0.00  0.00    -0.288 N 
ATOM     29  O   LIG d   1       5.909   1.401  -2.674  0.00  0.00    -0.252 OA
ATOM     30  C   LIG d   1       2.970  -0.384  -2.782  0.00  0.00     0.102 A 
ATOM     31  H   LIG d   1       3.325   1.777  -2.643  0.00  0.00     0.151 HD
ATOM     32  C   LIG d   1       4.067  -1.428  -2.853  0.00  0.00     0.243 A 
ATOM     33  H   LIG d   1       2.356  -0.529  -1.893  0.00  0.00     0.059 H 
ATOM     34  O   LIG d   1       3.930  -2.630  -2.929  0.00  0.00    -0.273 OA
BRANCH  30  35
ATOM     35  C   LIG d   1       2.105  -0.427  -4.044  0.00  0.00    -0.021 C 
ATOM     36  H   LIG d   1       1.055  -0.342  -3.768  0.00  0.00     0.029 H 
ATOM     37  H   LIG d   1       2.270  -1.370  -4.565  0.00  0.00     0.029 H 
BRANCH  35  38
ATOM     38  C   LIG d   1       2.487   0.736  -4.963  0.00  0.00    -0.011 C 
ATOM     39  H   LIG d   1       1.588   1.280  -5.254  0.00  0.00     0.033 H 
ATOM     40  H   LIG d   1       3.164   1.409  -4.436  0.00  0.00     0.033 H 
BRANCH  38  41
ATOM     41  C   LIG d   1       3.171   0.200  -6.195  0.00  0.00     0.042 C 
ATOM     42  O   LIG d   1       2.516  -0.108  -7.163  0.00  0.00    -0.550 OA
ATOM     43  O   LIG d   1       4.506   0.064  -6.216  0.00  0.00    -0.550 OA
ENDBRANCH  38  41
ENDBRANCH  35  38
ENDBRANCH  30  35
ENDBRANCH  23  26
ENDBRANCH   1  23
TORSDOF 8
ENDMDL
MODEL 7
REMARK VINA RESULT:      -6.1      5.811      8.279
REMARK  8 active torsions:
REMARK  status: ('A' for Active; 'I' for Inactive)
REMARK    1  A    between atoms: C_1  and  O_2 
REMARK    2  A    between atoms: O_2  and  C_3 
REMARK    3  A    between atoms: C_9  and  C_13 
REMARK    4  A    between atoms: C_13  and  C_14 
REMARK    5  A    between atoms: C_14  and  N_15 
REMARK    6  A    between atoms: C_18  and  C_23 
REMARK    7  A    between atoms: C_23  and  C_24 
REMARK    8  A    between atoms: C_24  and  C_25 
ROOT
ATOM      1  C   LIG d   1       8.446   2.835  -4.473  0.00  0.00    -0.009 C 
ATOM      2  H   LIG d   1       8.109   3.223  -3.511  0.00  0.00     0.033 H 
ATOM      3  H   LIG d   1       7.806   3.223  -5.266  0.00  0.00     0.033 H 
ENDROOT
BRANCH   1   4
ATOM      4  C   LIG d   1       8.373   1.330  -4.461  0.00  0.00    -0.021 A 
ATOM      5  C   LIG d   1       7.314   0.514  -3.862  0.00  0.00     0.006 A 
ATOM      6  C   LIG d   1       7.674  -0.825  -4.099  0.00  0.00     0.047 A 
ATOM      7  C   LIG d   1       6.136   0.809  -3.173  0.00  0.00    -0.011 A 
ATOM      8  C   LIG d   1       6.850  -1.847  -3.640  0.00  0.00    -0.034 A 
ATOM      9  N   LIG d   1       8.867  -0.809  -4.791  0.00  0.00    -0.360 N 
ATOM     10  C   LIG d   1       5.690  -1.545  -2.961  0.00  0.00    -0.018 A 
ATOM     11  H   LIG d   1       7.118  -2.878  -3.817  0.00  0.00     0.064 H 
ATOM     12  C   LIG d   1       5.332  -0.219  -2.725  0.00  0.00     0.121 A 
ATOM     13  H   LIG d   1       5.054  -2.342  -2.607  0.00  0.00     0.066 H 
ATOM     14  C   LIG d   1       9.264   0.483  -5.002  0.00  0.00     0.006 A 
ATOM     15  H   LIG d   1       9.349  -1.596  -5.087  0.00  0.00     0.165 HD
ATOM     16  H   LIG d   1      10.162   0.779  -5.524  0.00  0.00     0.081 H 
ATOM     17  H   LIG d   1       5.856   1.836  -2.990  0.00  0.00     0.066 H 
BRANCH  12  18
ATOM     18  O   LIG d   1       4.185   0.062  -2.052  0.00  0.00    -0.495 OA
BRANCH  18  19
ATOM     19  C   LIG d   1       3.561   1.318  -2.329  0.00  0.00     0.079 C 
ATOM     20  H   LIG d   1       3.742   1.593  -3.369  0.00  0.00     0.066 H 
ATOM     21  H   LIG d   1       2.487   1.236  -2.157  0.00  0.00     0.066 H 
ATOM     22  H   LIG d   1       3.977   2.083  -1.674  0.00  0.00     0.066 H 
ENDBRANCH  18  19
ENDBRANCH  12  18
ENDBRANCH   1   4
BRANCH   1  23
ATOM     23  C   LIG d   1       9.890   3.275  -4.723  0.00  0.00     0.028 C 
ATOM     24  H   LIG d   1      10.066   3.351  -5.796  0.00  0.00     0.047 H 
ATOM     25  H   LIG d   1      10.572   2.540  -4.296  0.00  0.00     0.047 H 
BRANCH  23  26
ATOM     26  N   LIG d   1      10.120   4.578  -4.096  0.00  0.00    -0.224 N 
ATOM     27  C   LIG d   1       9.906   5.751  -4.701  0.00  0.00     0.309 A 
ATOM     28  N   LIG d   1      10.195   6.799  -3.908  0.00  0.00    -0.288 N 
ATOM     29  O   LIG d   1       9.496   5.860  -5.840  0.00  0.00    -0.252 OA
ATOM     30  C   LIG d   1      10.655   6.242  -2.625  0.00  0.00     0.102 A 
ATOM     31  H   LIG d   1      10.116   7.738  -4.136  0.00  0.00     0.151 HD
ATOM     32  C   LIG d   1      10.574   4.743  -2.838  0.00  0.00     0.243 A 
ATOM     33  H   LIG d   1      11.681   6.547  -2.419  0.00  0.00     0.059 H 
ATOM     34  O   LIG d   1      10.858   3.873  -2.042  0.00  0.00    -0.273 OA
BRANCH  30  35
ATOM     35  C   LIG d   1       9.728   6.674  -1.486  0.00  0.00    -0.021 C 
ATOM     36  H   LIG d   1       9.264   5.794  -1.040  0.00  0.00     0.029 H 
ATOM     37  H   LIG d   1       8.955   7.334  -1.878  0.00  0.00     0.029 H 
BRANCH  35  38
ATOM     38  C   LIG d   1      10.540   7.416  -0.422  0.00  0.00    -0.011 C 
ATOM     39  H   LIG d   1      11.282   8.050  -0.909  0.00  0.00     0.033 H 
ATOM     40  H   LIG d   1       9.874   8.033   0.180  0.00  0.00     0.033 H 
BRANCH  38  41
ATOM     41  C   LIG d   1      11.238   6.417   0.465  0.00  0.00     0.042 C 
ATOM     42  O   LIG d   1      10.615   5.826   1.315  0.00  0.00    -0.550 OA
ATOM     43  O   LIG d   1      12.551   6.185   0.310  0.00  0.00    -0.550 OA
ENDBRANCH  38  41
ENDBRANCH  35  38
ENDBRANCH  30  35
ENDBRANCH  23  26
ENDBRANCH   1  23
TORSDOF 8
ENDMDL
MODEL 8
REMARK VINA RESULT:      -6.0      3.649      7.074
REMARK  8 active torsions:
REMARK  status: ('A' for Active; 'I' for Inactive)
REMARK    1  A    between atoms: C_1  and  O_2 
REMARK    2  A    between atoms: O_2  and  C_3 
REMARK    3  A    between atoms: C_9  and  C_13 
REMARK    4  A    between atoms: C_13  and  C_14 
REMARK    5  A    between atoms: C_14  and  N_15 
REMARK    6  A    between atoms: C_18  and  C_23 
REMARK    7  A    between atoms: C_23  and  C_24 
REMARK    8  A    between atoms: C_24  and  C_25 
ROOT
ATOM      1  C   LIG d   1       6.820  -1.944  -4.454  0.00  0.00    -0.009 C 
ATOM      2  H   LIG d   1       6.347  -2.917  -4.595  0.00  0.00     0.033 H 
ATOM      3  H   LIG d   1       6.379  -1.223  -5.142  0.00  0.00     0.033 H 
ENDROOT
BRANCH   1   4
ATOM      4  C   LIG d   1       8.298  -2.060  -4.726  0.00  0.00    -0.021 A 
ATOM      5  C   LIG d   1       9.230  -2.992  -4.087  0.00  0.00     0.006 A 
ATOM      6  C   LIG d   1      10.490  -2.733  -4.657  0.00  0.00     0.047 A 
ATOM      7  C   LIG d   1       9.095  -3.984  -3.114  0.00  0.00    -0.011 A 
ATOM      8  C   LIG d   1      11.594  -3.471  -4.244  0.00  0.00    -0.034 A 
ATOM      9  N   LIG d   1      10.320  -1.716  -5.574  0.00  0.00    -0.360 N 
ATOM     10  C   LIG d   1      11.449  -4.448  -3.283  0.00  0.00    -0.018 A 
ATOM     11  H   LIG d   1      12.565  -3.280  -4.676  0.00  0.00     0.064 H 
ATOM     12  C   LIG d   1      10.203  -4.705  -2.717  0.00  0.00     0.121 A 
ATOM     13  H   LIG d   1      12.309  -5.017  -2.966  0.00  0.00     0.066 H 
ATOM     14  C   LIG d   1       9.007  -1.333  -5.604  0.00  0.00     0.006 A 
ATOM     15  H   LIG d   1      11.025  -1.334  -6.118  0.00  0.00     0.165 HD
ATOM     16  H   LIG d   1       8.601  -0.559  -6.238  0.00  0.00     0.081 H 
ATOM     17  H   LIG d   1       8.129  -4.186  -2.674  0.00  0.00     0.066 H 
BRANCH  12  18
ATOM     18  O   LIG d   1      10.077  -5.672  -1.769  0.00  0.00    -0.495 OA
BRANCH  18  19
ATOM     19  C   LIG d   1       9.504  -6.916  -2.182  0.00  0.00     0.079 C 
ATOM     20  H   LIG d   1       9.611  -7.648  -1.382  0.00  0.00     0.066 H 
ATOM     21  H   LIG d   1       8.447  -6.772  -2.404  0.00  0.00     0.066 H 
ATOM     22  H   LIG d   1      10.017  -7.273  -3.074  0.00  0.00     0.066 H 
ENDBRANCH  18  19
ENDBRANCH  12  18
ENDBRANCH   1   4
BRANCH   1  23
ATOM     23  C   LIG d   1       6.601  -1.474  -3.015  0.00  0.00     0.028 C 
ATOM     24  H   LIG d   1       7.377  -0.758  -2.744  0.00  0.00     0.047 H 
ATOM     25  H   LIG d   1       6.647  -2.331  -2.342  0.00  0.00     0.047 H 
BRANCH  23  26
ATOM     26  N   LIG d   1       5.286  -0.836  -2.903  0.00  0.00    -0.224 N 
ATOM     27  C   LIG d   1       5.100   0.481  -2.768  0.00  0.00     0.309 A 
ATOM     28  N   LIG d   1       3.797   0.810  -2.686  0.00  0.00    -0.288 N 
ATOM     29  O   LIG d   1       6.005   1.291  -2.722  0.00  0.00    -0.252 OA
ATOM     30  C   LIG d   1       3.039  -0.448  -2.782  0.00  0.00     0.102 A 
ATOM     31  H   LIG d   1       3.431   1.702  -2.586  0.00  0.00     0.151 HD
ATOM     32  C   LIG d   1       4.116  -1.505  -2.925  0.00  0.00     0.243 A 
ATOM     33  H   LIG d   1       2.454  -0.614  -1.876  0.00  0.00     0.059 H 
ATOM     34  O   LIG d   1       3.959  -2.702  -3.035  0.00  0.00    -0.273 OA
BRANCH  30  35
ATOM     35  C   LIG d   1       2.129  -0.438  -4.013  0.00  0.00    -0.021 C 
ATOM     36  H   LIG d   1       1.092  -0.323  -3.698  0.00  0.00     0.029 H 
ATOM     37  H   LIG d   1       2.242  -1.377  -4.555  0.00  0.00     0.029 H 
BRANCH  35  38
ATOM     38  C   LIG d   1       2.519   0.727  -4.924  0.00  0.00    -0.011 C 
ATOM     39  H   LIG d   1       1.624   1.280  -5.211  0.00  0.00     0.033 H 
ATOM     40  H   LIG d   1       3.201   1.391  -4.394  0.00  0.00     0.033 H 
BRANCH  38  41
ATOM     41  C   LIG d   1       3.197   0.194  -6.160  0.00  0.00     0.042 C 
ATOM     42  O   LIG d   1       4.397   0.049  -6.175  0.00  0.00    -0.550 OA
ATOM     43  O   LIG d   1       2.469  -0.120  -7.243  0.00  0.00    -0.550 OA
ENDBRANCH  38  41
ENDBRANCH  35  38
ENDBRANCH  30  35
ENDBRANCH  23  26
ENDBRANCH   1  23
TORSDOF 8
ENDMDL
MODEL 9
REMARK VINA RESULT:      -6.0      4.082      6.438
REMARK  8 active torsions:
REMARK  status: ('A' for Active; 'I' for Inactive)
REMARK    1  A    between atoms: C_1  and  O_2 
REMARK    2  A    between atoms: O_2  and  C_3 
REMARK    3  A    between atoms: C_9  and  C_13 
REMARK    4  A    between atoms: C_13  and  C_14 
REMARK    5  A    between atoms: C_14  and  N_15 
REMARK    6  A    between atoms: C_18  and  C_23 
REMARK    7  A    between atoms: C_23  and  C_24 
REMARK    8  A    between atoms: C_24  and  C_25 
ROOT
ATOM      1  C   LIG d   1       6.160  -3.155  -5.621  0.00  0.00    -0.009 C 
ATOM      2  H   LIG d   1       6.701  -3.939  -5.090  0.00  0.00     0.033 H 
ATOM      3  H   LIG d   1       6.856  -2.369  -5.915  0.00  0.00     0.033 H 
ENDROOT
BRANCH   1   4
ATOM      4  C   LIG d   1       5.101  -2.576  -4.718  0.00  0.00    -0.021 A 
ATOM      5  C   LIG d   1       4.236  -1.431  -5.014  0.00  0.00     0.006 A 
ATOM      6  C   LIG d   1       3.415  -1.263  -3.883  0.00  0.00     0.047 A 
ATOM      7  C   LIG d   1       4.102  -0.574  -6.107  0.00  0.00    -0.011 A 
ATOM      8  C   LIG d   1       2.475  -0.238  -3.866  0.00  0.00    -0.034 A 
ATOM      9  N   LIG d   1       3.768  -2.240  -2.976  0.00  0.00    -0.360 N 
ATOM     10  C   LIG d   1       2.352   0.602  -4.951  0.00  0.00    -0.018 A 
ATOM     11  H   LIG d   1       1.841  -0.101  -3.003  0.00  0.00     0.064 H 
ATOM     12  C   LIG d   1       3.163   0.437  -6.071  0.00  0.00     0.121 A 
ATOM     13  H   LIG d   1       1.620   1.395  -4.932  0.00  0.00     0.066 H 
ATOM     14  C   LIG d   1       4.770  -3.015  -3.493  0.00  0.00     0.006 A 
ATOM     15  H   LIG d   1       3.364  -2.361  -2.104  0.00  0.00     0.165 HD
ATOM     16  H   LIG d   1       5.228  -3.854  -2.991  0.00  0.00     0.081 H 
ATOM     17  H   LIG d   1       4.730  -0.702  -6.978  0.00  0.00     0.066 H 
BRANCH  12  18
ATOM     18  O   LIG d   1       3.029   1.275  -7.133  0.00  0.00    -0.495 OA
BRANCH  18  19
ATOM     19  C   LIG d   1       2.801   0.674  -8.410  0.00  0.00     0.079 C 
ATOM     20  H   LIG d   1       3.515  -0.137  -8.563  0.00  0.00     0.066 H 
ATOM     21  H   LIG d   1       1.787   0.276  -8.448  0.00  0.00     0.066 H 
ATOM     22  H   LIG d   1       2.928   1.422  -9.192  0.00  0.00     0.066 H 
ENDBRANCH  18  19
ENDBRANCH  12  18
ENDBRANCH   1   4
BRANCH   1  23
ATOM     23  C   LIG d   1       5.500  -3.745  -6.869  0.00  0.00     0.028 C 
ATOM     24  H   LIG d   1       6.034  -3.406  -7.757  0.00  0.00     0.047 H 
ATOM     25  H   LIG d   1       4.463  -3.415  -6.921  0.00  0.00     0.047 H 
BRANCH  23  26
ATOM     26  N   LIG d   1       5.544  -5.208  -6.800  0.00  0.00    -0.224 N 
ATOM     27  C   LIG d   1       6.552  -5.952  -7.269  0.00  0.00     0.309 A 
ATOM     28  N   LIG d   1       6.348  -7.269  -7.082  0.00  0.00    -0.288 N 
ATOM     29  O   LIG d   1       7.541  -5.491  -7.804  0.00  0.00    -0.252 OA
ATOM     30  C   LIG d   1       5.046  -7.402  -6.407  0.00  0.00     0.102 A 
ATOM     31  H   LIG d   1       6.943  -7.989  -7.341  0.00  0.00     0.151 HD
ATOM     32  C   LIG d   1       4.574  -5.969  -6.256  0.00  0.00     0.243 A 
ATOM     33  H   LIG d   1       4.351  -7.974  -7.023  0.00  0.00     0.059 H 
ATOM     34  O   LIG d   1       3.540  -5.587  -5.752  0.00  0.00    -0.273 OA
BRANCH  30  35
ATOM     35  C   LIG d   1       5.214  -8.060  -5.036  0.00  0.00    -0.021 C 
ATOM     36  H   LIG d   1       4.766  -7.426  -4.271  0.00  0.00     0.029 H 
ATOM     37  H   LIG d   1       6.275  -8.192  -4.824  0.00  0.00     0.029 H 
BRANCH  35  38
ATOM     38  C   LIG d   1       4.521  -9.425  -5.038  0.00  0.00    -0.011 C 
ATOM     39  H   LIG d   1       3.634  -9.382  -5.670  0.00  0.00     0.033 H 
ATOM     40  H   LIG d   1       5.206 -10.179  -5.424  0.00  0.00     0.033 H 
BRANCH  38  41
ATOM     41  C   LIG d   1       4.118  -9.786  -3.631  0.00  0.00     0.042 C 
ATOM     42  O   LIG d   1       4.956 -10.137  -2.834  0.00  0.00    -0.550 OA
ATOM     43  O   LIG d   1       2.828  -9.717  -3.264  0.00  0.00    -0.550 OA
ENDBRANCH  38  41
ENDBRANCH  35  38
ENDBRANCH  30  35
ENDBRANCH  23  26
ENDBRANCH   1  23
TORSDOF 8
ENDMDL
MODEL 10
REMARK VINA RESULT:      -6.0      2.221      6.266
REMARK  8 active torsions:
REMARK  status: ('A' for Active; 'I' for Inactive)
REMARK    1  A    between atoms: C_1  and  O_2 
REMARK    2  A    between atoms: O_2  and  C_3 
REMARK    3  A    between atoms: C_9  and  C_13 
REMARK    4  A    between atoms: C_13  and  C_14 
REMARK    5  A    between atoms: C_14  and  N_15 
REMARK    6  A    between atoms: C_18  and  C_23 
REMARK    7  A    between atoms: C_23  and  C_24 
REMARK    8  A    between atoms: C_24  and  C_25 
ROOT
ATOM      1  C   LIG d   1       5.508  -1.321  -3.101  0.00  0.00    -0.009 C 
ATOM      2  H   LIG d   1       5.863  -1.100  -2.093  0.00  0.00     0.033 H 
ATOM      3  H   LIG d   1       4.488  -1.703  -3.051  0.00  0.00     0.033 H 
ENDROOT
BRANCH   1   4
ATOM      4  C   LIG d   1       6.402  -2.357  -3.732  0.00  0.00    -0.021 A 
ATOM      5  C   LIG d   1       5.983  -3.443  -4.621  0.00  0.00     0.006 A 
ATOM      6  C   LIG d   1       7.155  -4.145  -4.956  0.00  0.00     0.047 A 
ATOM      7  C   LIG d   1       4.752  -3.854  -5.137  0.00  0.00    -0.011 A 
ATOM      8  C   LIG d   1       7.076  -5.248  -5.799  0.00  0.00    -0.034 A 
ATOM      9  N   LIG d   1       8.201  -3.521  -4.310  0.00  0.00    -0.360 N 
ATOM     10  C   LIG d   1       5.856  -5.645  -6.302  0.00  0.00    -0.018 A 
ATOM     11  H   LIG d   1       7.970  -5.794  -6.062  0.00  0.00     0.064 H 
ATOM     12  C   LIG d   1       4.694  -4.951  -5.972  0.00  0.00     0.121 A 
ATOM     13  H   LIG d   1       5.800  -6.501  -6.956  0.00  0.00     0.066 H 
ATOM     14  C   LIG d   1       7.734  -2.455  -3.591  0.00  0.00     0.006 A 
ATOM     15  H   LIG d   1       9.130  -3.794  -4.361  0.00  0.00     0.165 HD
ATOM     16  H   LIG d   1       8.344  -1.791  -2.996  0.00  0.00     0.081 H 
ATOM     17  H   LIG d   1       3.850  -3.316  -4.883  0.00  0.00     0.066 H 
BRANCH  12  18
ATOM     18  O   LIG d   1       3.498  -5.356  -6.476  0.00  0.00    -0.495 OA
BRANCH  18  19
ATOM     19  C   LIG d   1       3.391  -5.450  -7.899  0.00  0.00     0.079 C 
ATOM     20  H   LIG d   1       4.389  -5.512  -8.335  0.00  0.00     0.066 H 
ATOM     21  H   LIG d   1       2.823  -6.343  -8.161  0.00  0.00     0.066 H 
ATOM     22  H   LIG d   1       2.881  -4.568  -8.283  0.00  0.00     0.066 H 
ENDBRANCH  18  19
ENDBRANCH  12  18
ENDBRANCH   1   4
BRANCH   1  23
ATOM     23  C   LIG d   1       5.532  -0.043  -3.942  0.00  0.00     0.028 C 
ATOM     24  H   LIG d   1       6.491   0.035  -4.455  0.00  0.00     0.047 H 
ATOM     25  H   LIG d   1       5.397   0.822  -3.293  0.00  0.00     0.047 H 
BRANCH  23  26
ATOM     26  N   LIG d   1       4.451  -0.087  -4.929  0.00  0.00    -0.224 N 
ATOM     27  C   LIG d   1       3.154   0.036  -4.628  0.00  0.00     0.309 A 
ATOM     28  N   LIG d   1       2.365  -0.040  -5.716  0.00  0.00    -0.288 N 
ATOM     29  O   LIG d   1       2.734   0.197  -3.499  0.00  0.00    -0.252 OA
ATOM     30  C   LIG d   1       3.257  -0.235  -6.871  0.00  0.00     0.102 A 
ATOM     31  H   LIG d   1       1.397   0.024  -5.735  0.00  0.00     0.151 HD
ATOM     32  C   LIG d   1       4.641  -0.256  -6.253  0.00  0.00     0.243 A 
ATOM     33  H   LIG d   1       3.042  -1.183  -7.366  0.00  0.00     0.059 H 
ATOM     34  O   LIG d   1       5.699  -0.396  -6.829  0.00  0.00    -0.273 OA
BRANCH  30  35
ATOM     35  C   LIG d   1       3.126   0.927  -7.857  0.00  0.00    -0.021 C 
ATOM     36  H   LIG d   1       4.105   1.376  -8.023  0.00  0.00     0.029 H 
ATOM     37  H   LIG d   1       2.447   1.675  -7.449  0.00  0.00     0.029 H 
BRANCH  35  38
ATOM     38  C   LIG d   1       2.571   0.408  -9.186  0.00  0.00    -0.011 C 
ATOM     39  H   LIG d   1       2.144  -0.584  -9.038  0.00  0.00     0.033 H 
ATOM     40  H   LIG d   1       1.799   1.087  -9.547  0.00  0.00     0.033 H 
BRANCH  38  41
ATOM     41  C   LIG d   1       3.685   0.329 -10.199  0.00  0.00     0.042 C 
ATOM     42  O   LIG d   1       3.852   1.233 -10.984  0.00  0.00    -0.550 OA
ATOM     43  O   LIG d   1       4.491  -0.744 -10.228  0.00  0.00    -0.550 OA
ENDBRANCH  38  41
ENDBRANCH  35  38
ENDBRANCH  30  35
ENDBRANCH  23  26
ENDBRANCH   1  23
TORSDOF 8
ENDMDL
