MODEL 1
REMARK VINA RESULT:      -3.9      0.000      0.000
REMARK  6 active torsions:
REMARK  status: ('A' for Active; 'I' for Inactive)
REMARK    1  A    between atoms: C_1  and  C_2 
REMARK    2  A    between atoms: C_2  and  C_4 
REMARK    3  A    between atoms: C_2  and  N_21 
REMARK    4  A    between atoms: C_4  and  C_5 
REMARK    5  A    between atoms: C_7  and  N_21 
REMARK    6  A    between atoms: C_8  and  N_21 
ROOT
ATOM      1  C   LIG d   1       3.731  -1.097  -3.409  0.00  0.00    -0.019 C 
ATOM      2  H   LIG d   1       3.153  -1.466  -4.257  0.00  0.00     0.085 H 
ENDROOT
BRANCH   1   3
ATOM      3  C   LIG d   1       3.894  -2.214  -2.377  0.00  0.00    -0.021 C 
ATOM      4  H   LIG d   1       2.927  -2.682  -2.193  0.00  0.00     0.028 H 
ATOM      5  H   LIG d   1       4.593  -2.959  -2.757  0.00  0.00     0.028 H 
ATOM      6  H   LIG d   1       4.279  -1.796  -1.447  0.00  0.00     0.028 H 
ENDBRANCH   1   3
BRANCH   1   7
ATOM      7  C   LIG d   1       2.999   0.086  -2.771  0.00  0.00     0.030 C 
ATOM      8  H   LIG d   1       2.533  -0.234  -1.839  0.00  0.00     0.038 H 
ATOM      9  H   LIG d   1       2.231   0.449  -3.454  0.00  0.00     0.038 H 
BRANCH   7  10
ATOM     10  C   LIG d   1       3.984   1.191  -2.487  0.00  0.00     0.047 C 
ATOM     11  O   LIG d   1       4.080   2.124  -3.249  0.00  0.00    -0.550 OA
ATOM     12  O   LIG d   1       4.752   1.139  -1.388  0.00  0.00    -0.550 OA
ENDBRANCH   7  10
ENDBRANCH   1   7
BRANCH   1  13
ATOM     13  N   LIG d   1       5.070  -0.651  -3.850  0.00  0.00     0.233 N 
ATOM     14  H   LIG d   1       5.237   0.299  -3.499  0.00  0.00     0.203 HD
BRANCH  13  15
ATOM     15  C   LIG d   1       6.106  -1.552  -3.307  0.00  0.00    -0.043 C 
ATOM     16  H   LIG d   1       6.266  -1.356  -2.246  0.00  0.00     0.078 H 
ATOM     17  H   LIG d   1       5.785  -2.585  -3.440  0.00  0.00     0.078 H 
ATOM     18  H   LIG d   1       7.038  -1.389  -3.850  0.00  0.00     0.078 H 
ENDBRANCH  13  15
BRANCH  13  19
ATOM     19  C   LIG d   1       5.137  -0.636  -5.326  0.00  0.00    -0.043 C 
ATOM     20  H   LIG d   1       4.124  -0.699  -5.726  0.00  0.00     0.078 H 
ATOM     21  H   LIG d   1       5.598   0.296  -5.653  0.00  0.00     0.078 H 
ATOM     22  H   LIG d   1       5.723  -1.479  -5.691  0.00  0.00     0.078 H 
ENDBRANCH  13  19
ENDBRANCH   1  13
TORSDOF 6
ENDMDL
MODEL 2
REMARK VINA RESULT:      -3.6      1.903      2.492
REMARK  6 active torsions:
REMARK  status: ('A' for Active; 'I' for Inactive)
REMARK    1  A    between atoms: C_1  and  C_2 
REMARK    2  A    between atoms: C_2  and  C_4 
REMARK    3  A    between atoms: C_2  and  N_21 
REMARK    4  A    between atoms: C_4  and  C_5 
REMARK    5  A    between atoms: C_7  and  N_21 
REMARK    6  A    between atoms: C_8  and  N_21 
ROOT
ATOM      1  C   LIG d   1       4.023  -1.031  -3.481  0.00  0.00    -0.019 C 
ATOM      2  H   LIG d   1       4.452  -1.620  -4.291  0.00  0.00     0.085 H 
ENDROOT
BRANCH   1   3
ATOM      3  C   LIG d   1       3.847  -1.915  -2.245  0.00  0.00    -0.021 C 
ATOM      4  H   LIG d   1       4.823  -2.138  -1.815  0.00  0.00     0.028 H 
ATOM      5  H   LIG d   1       3.236  -1.392  -1.509  0.00  0.00     0.028 H 
ATOM      6  H   LIG d   1       3.354  -2.845  -2.530  0.00  0.00     0.028 H 
ENDBRANCH   1   3
BRANCH   1   7
ATOM      7  C   LIG d   1       2.662  -0.483  -3.915  0.00  0.00     0.030 C 
ATOM      8  H   LIG d   1       2.153  -0.050  -3.055  0.00  0.00     0.038 H 
ATOM      9  H   LIG d   1       2.059  -1.293  -4.325  0.00  0.00     0.038 H 
BRANCH   7  10
ATOM     10  C   LIG d   1       2.861   0.578  -4.968  0.00  0.00     0.047 C 
ATOM     11  O   LIG d   1       2.484   1.707  -4.766  0.00  0.00    -0.550 OA
ATOM     12  O   LIG d   1       3.459   0.267  -6.129  0.00  0.00    -0.550 OA
ENDBRANCH   7  10
ENDBRANCH   1   7
BRANCH   1  13
ATOM     13  N   LIG d   1       4.910   0.101  -3.138  0.00  0.00     0.233 N 
ATOM     14  H   LIG d   1       4.751   0.863  -3.808  0.00  0.00     0.203 HD
BRANCH  13  15
ATOM     15  C   LIG d   1       4.607   0.587  -1.777  0.00  0.00    -0.043 C 
ATOM     16  H   LIG d   1       4.199   1.598  -1.813  0.00  0.00     0.078 H 
ATOM     17  H   LIG d   1       3.879  -0.081  -1.315  0.00  0.00     0.078 H 
ATOM     18  H   LIG d   1       5.525   0.587  -1.188  0.00  0.00     0.078 H 
ENDBRANCH  13  15
BRANCH  13  19
ATOM     19  C   LIG d   1       6.324  -0.322  -3.221  0.00  0.00    -0.043 C 
ATOM     20  H   LIG d   1       6.421  -1.314  -2.779  0.00  0.00     0.078 H 
ATOM     21  H   LIG d   1       6.625  -0.360  -4.267  0.00  0.00     0.078 H 
ATOM     22  H   LIG d   1       6.964   0.379  -2.684  0.00  0.00     0.078 H 
ENDBRANCH  13  19
ENDBRANCH   1  13
TORSDOF 6
ENDMDL
MODEL 3
REMARK VINA RESULT:      -3.4      2.144      3.002
REMARK  6 active torsions:
REMARK  status: ('A' for Active; 'I' for Inactive)
REMARK    1  A    between atoms: C_1  and  C_2 
REMARK    2  A    between atoms: C_2  and  C_4 
REMARK    3  A    between atoms: C_2  and  N_21 
REMARK    4  A    between atoms: C_4  and  C_5 
REMARK    5  A    between atoms: C_7  and  N_21 
REMARK    6  A    between atoms: C_8  and  N_21 
ROOT
ATOM      1  C   LIG d   1       3.499   0.053  -4.052  0.00  0.00    -0.019 C 
ATOM      2  H   LIG d   1       3.895   0.916  -3.517  0.00  0.00     0.085 H 
ENDROOT
BRANCH   1   3
ATOM      3  C   LIG d   1       2.504   0.524  -5.114  0.00  0.00    -0.021 C 
ATOM      4  H   LIG d   1       1.628   0.953  -4.626  0.00  0.00     0.028 H 
ATOM      5  H   LIG d   1       2.975   1.278  -5.745  0.00  0.00     0.028 H 
ATOM      6  H   LIG d   1       2.199  -0.323  -5.728  0.00  0.00     0.028 H 
ENDBRANCH   1   3
BRANCH   1   7
ATOM      7  C   LIG d   1       2.791  -0.878  -3.066  0.00  0.00     0.030 C 
ATOM      8  H   LIG d   1       2.003  -1.424  -3.583  0.00  0.00     0.038 H 
ATOM      9  H   LIG d   1       2.355  -0.288  -2.259  0.00  0.00     0.038 H 
BRANCH   7  10
ATOM     10  C   LIG d   1       3.788  -1.854  -2.493  0.00  0.00     0.047 C 
ATOM     11  O   LIG d   1       4.484  -1.529  -1.561  0.00  0.00    -0.550 OA
ATOM     12  O   LIG d   1       3.900  -3.084  -3.019  0.00  0.00    -0.550 OA
ENDBRANCH   7  10
ENDBRANCH   1   7
BRANCH   1  13
ATOM     13  N   LIG d   1       4.592  -0.691  -4.715  0.00  0.00     0.233 N 
ATOM     14  H   LIG d   1       4.673  -1.619  -4.282  0.00  0.00     0.203 HD
BRANCH  13  15
ATOM     15  C   LIG d   1       4.291  -0.856  -6.152  0.00  0.00    -0.043 C 
ATOM     16  H   LIG d   1       4.888  -0.167  -6.750  0.00  0.00     0.078 H 
ATOM     17  H   LIG d   1       4.518  -1.881  -6.447  0.00  0.00     0.078 H 
ATOM     18  H   LIG d   1       3.232  -0.656  -6.317  0.00  0.00     0.078 H 
ENDBRANCH  13  15
BRANCH  13  19
ATOM     19  C   LIG d   1       5.870   0.031  -4.546  0.00  0.00    -0.043 C 
ATOM     20  H   LIG d   1       6.298   0.224  -5.530  0.00  0.00     0.078 H 
ATOM     21  H   LIG d   1       5.681   0.978  -4.042  0.00  0.00     0.078 H 
ATOM     22  H   LIG d   1       6.568  -0.562  -3.957  0.00  0.00     0.078 H 
ENDBRANCH  13  19
ENDBRANCH   1  13
TORSDOF 6
ENDMDL
MODEL 4
REMARK VINA RESULT:      -3.4      1.852      2.843
REMARK  6 active torsions:
REMARK  status: ('A' for Active; 'I' for Inactive)
REMARK    1  A    between atoms: C_1  and  C_2 
REMARK    2  A    between atoms: C_2  and  C_4 
REMARK    3  A    between atoms: C_2  and  N_21 
REMARK    4  A    between atoms: C_4  and  C_5 
REMARK    5  A    between atoms: C_7  and  N_21 
REMARK    6  A    between atoms: C_8  and  N_21 
ROOT
ATOM      1  C   LIG d   1       4.766  -0.680  -2.440  0.00  0.00    -0.019 C 
ATOM      2  H   LIG d   1       4.955  -0.309  -1.433  0.00  0.00     0.085 H 
ENDROOT
BRANCH   1   3
ATOM      3  C   LIG d   1       4.012  -2.008  -2.362  0.00  0.00    -0.021 C 
ATOM      4  H   LIG d   1       2.996  -1.829  -2.011  0.00  0.00     0.028 H 
ATOM      5  H   LIG d   1       3.980  -2.466  -3.351  0.00  0.00     0.028 H 
ATOM      6  H   LIG d   1       4.523  -2.676  -1.669  0.00  0.00     0.028 H 
ENDBRANCH   1   3
BRANCH   1   7
ATOM      7  C   LIG d   1       6.099  -0.891  -3.163  0.00  0.00     0.030 C 
ATOM      8  H   LIG d   1       6.008  -1.725  -3.857  0.00  0.00     0.038 H 
ATOM      9  H   LIG d   1       6.877  -1.110  -2.431  0.00  0.00     0.038 H 
BRANCH   7  10
ATOM     10  C   LIG d   1       6.461   0.360  -3.923  0.00  0.00     0.047 C 
ATOM     11  O   LIG d   1       6.337   0.393  -5.124  0.00  0.00    -0.550 OA
ATOM     12  O   LIG d   1       6.920   1.436  -3.264  0.00  0.00    -0.550 OA
ENDBRANCH   7  10
ENDBRANCH   1   7
BRANCH   1  13
ATOM     13  N   LIG d   1       3.953   0.289  -3.205  0.00  0.00     0.233 N 
ATOM     14  H   LIG d   1       4.520   0.665  -3.975  0.00  0.00     0.203 HD
BRANCH  13  15
ATOM     15  C   LIG d   1       2.764  -0.382  -3.768  0.00  0.00    -0.043 C 
ATOM     16  H   LIG d   1       1.861   0.186  -3.541  0.00  0.00     0.078 H 
ATOM     17  H   LIG d   1       2.879  -0.462  -4.849  0.00  0.00     0.078 H 
ATOM     18  H   LIG d   1       2.683  -1.380  -3.337  0.00  0.00     0.078 H 
ENDBRANCH  13  15
BRANCH  13  19
ATOM     19  C   LIG d   1       3.537   1.404  -2.329  0.00  0.00    -0.043 C 
ATOM     20  H   LIG d   1       2.839   1.023  -1.582  0.00  0.00     0.078 H 
ATOM     21  H   LIG d   1       4.415   1.812  -1.829  0.00  0.00     0.078 H 
ATOM     22  H   LIG d   1       3.053   2.187  -2.911  0.00  0.00     0.078 H 
ENDBRANCH  13  19
ENDBRANCH   1  13
TORSDOF 6
ENDMDL
MODEL 5
REMARK VINA RESULT:      -3.1      1.503      2.098
REMARK  6 active torsions:
REMARK  status: ('A' for Active; 'I' for Inactive)
REMARK    1  A    between atoms: C_1  and  C_2 
REMARK    2  A    between atoms: C_2  and  C_4 
REMARK    3  A    between atoms: C_2  and  N_21 
REMARK    4  A    between atoms: C_4  and  C_5 
REMARK    5  A    between atoms: C_7  and  N_21 
REMARK    6  A    between atoms: C_8  and  N_21 
ROOT
ATOM      1  C   LIG d   1       3.450   0.435  -4.264  0.00  0.00    -0.019 C 
ATOM      2  H   LIG d   1       3.468   1.525  -4.286  0.00  0.00     0.085 H 
ENDROOT
BRANCH   1   3
ATOM      3  C   LIG d   1       2.019  -0.056  -4.490  0.00  0.00    -0.021 C 
ATOM      4  H   LIG d   1       1.376   0.793  -4.721  0.00  0.00     0.028 H 
ATOM      5  H   LIG d   1       2.004  -0.761  -5.321  0.00  0.00     0.028 H 
ATOM      6  H   LIG d   1       1.658  -0.551  -3.588  0.00  0.00     0.028 H 
ENDBRANCH   1   3
BRANCH   1   7
ATOM      7  C   LIG d   1       3.949  -0.055  -2.903  0.00  0.00     0.030 C 
ATOM      8  H   LIG d   1       4.472  -1.003  -3.027  0.00  0.00     0.038 H 
ATOM      9  H   LIG d   1       3.100  -0.193  -2.234  0.00  0.00     0.038 H 
BRANCH   7  10
ATOM     10  C   LIG d   1       4.891   0.966  -2.317  0.00  0.00     0.047 C 
ATOM     11  O   LIG d   1       4.826   1.245  -1.144  0.00  0.00    -0.550 OA
ATOM     12  O   LIG d   1       5.804   1.564  -3.100  0.00  0.00    -0.550 OA
ENDBRANCH   7  10
ENDBRANCH   1   7
BRANCH   1  13
ATOM     13  N   LIG d   1       4.320  -0.119  -5.323  0.00  0.00     0.233 N 
ATOM     14  H   LIG d   1       5.163   0.464  -5.401  0.00  0.00     0.203 HD
BRANCH  13  15
ATOM     15  C   LIG d   1       4.721  -1.498  -4.978  0.00  0.00    -0.043 C 
ATOM     16  H   LIG d   1       4.316  -2.207  -5.701  0.00  0.00     0.078 H 
ATOM     17  H   LIG d   1       5.809  -1.562  -4.978  0.00  0.00     0.078 H 
ATOM     18  H   LIG d   1       4.343  -1.738  -3.983  0.00  0.00     0.078 H 
ENDBRANCH  13  15
BRANCH  13  19
ATOM     19  C   LIG d   1       3.609  -0.109  -6.618  0.00  0.00    -0.043 C 
ATOM     20  H   LIG d   1       2.925  -0.957  -6.651  0.00  0.00     0.078 H 
ATOM     21  H   LIG d   1       3.043   0.817  -6.707  0.00  0.00     0.078 H 
ATOM     22  H   LIG d   1       4.317  -0.183  -7.443  0.00  0.00     0.078 H 
ENDBRANCH  13  19
ENDBRANCH   1  13
TORSDOF 6
ENDMDL
MODEL 6
REMARK VINA RESULT:      -3.0      1.580      2.048
REMARK  6 active torsions:
REMARK  status: ('A' for Active; 'I' for Inactive)
REMARK    1  A    between atoms: C_1  and  C_2 
REMARK    2  A    between atoms: C_2  and  C_4 
REMARK    3  A    between atoms: C_2  and  N_21 
REMARK    4  A    between atoms: C_4  and  C_5 
REMARK    5  A    between atoms: C_7  and  N_21 
REMARK    6  A    between atoms: C_8  and  N_21 
ROOT
ATOM      1  C   LIG d   1       5.396  -0.974  -3.528  0.00  0.00    -0.019 C 
ATOM      2  H   LIG d   1       4.711  -1.620  -4.077  0.00  0.00     0.085 H 
ENDROOT
BRANCH   1   3
ATOM      3  C   LIG d   1       6.659  -1.759  -3.169  0.00  0.00    -0.021 C 
ATOM      4  H   LIG d   1       7.215  -1.990  -4.078  0.00  0.00     0.028 H 
ATOM      5  H   LIG d   1       7.282  -1.161  -2.504  0.00  0.00     0.028 H 
ATOM      6  H   LIG d   1       6.381  -2.687  -2.668  0.00  0.00     0.028 H 
ENDBRANCH   1   3
BRANCH   1   7
ATOM      7  C   LIG d   1       4.719  -0.483  -2.248  0.00  0.00     0.030 C 
ATOM      8  H   LIG d   1       5.435   0.080  -1.650  0.00  0.00     0.038 H 
ATOM      9  H   LIG d   1       4.362  -1.340  -1.675  0.00  0.00     0.038 H 
BRANCH   7  10
ATOM     10  C   LIG d   1       3.554   0.404  -2.605  0.00  0.00     0.047 C 
ATOM     11  O   LIG d   1       3.376   1.438  -2.006  0.00  0.00    -0.550 OA
ATOM     12  O   LIG d   1       2.714   0.045  -3.589  0.00  0.00    -0.550 OA
ENDBRANCH   7  10
ENDBRANCH   1   7
BRANCH   1  13
ATOM     13  N   LIG d   1       5.776   0.195  -4.350  0.00  0.00     0.233 N 
ATOM     14  H   LIG d   1       4.996   0.863  -4.359  0.00  0.00     0.203 HD
BRANCH  13  15
ATOM     15  C   LIG d   1       6.965   0.854  -3.773  0.00  0.00    -0.043 C 
ATOM     16  H   LIG d   1       7.797   0.152  -3.706  0.00  0.00     0.078 H 
ATOM     17  H   LIG d   1       7.249   1.693  -4.407  0.00  0.00     0.078 H 
ATOM     18  H   LIG d   1       6.718   1.219  -2.775  0.00  0.00     0.078 H 
ENDBRANCH  13  15
BRANCH  13  19
ATOM     19  C   LIG d   1       6.058  -0.232  -5.737  0.00  0.00    -0.043 C 
ATOM     20  H   LIG d   1       6.786  -1.043  -5.714  0.00  0.00     0.078 H 
ATOM     21  H   LIG d   1       5.136  -0.585  -6.196  0.00  0.00     0.078 H 
ATOM     22  H   LIG d   1       6.459   0.599  -6.317  0.00  0.00     0.078 H 
ENDBRANCH  13  19
ENDBRANCH   1  13
TORSDOF 6
ENDMDL
MODEL 7
REMARK VINA RESULT:      -2.9      2.341      3.183
REMARK  6 active torsions:
REMARK  status: ('A' for Active; 'I' for Inactive)
REMARK    1  A    between atoms: C_1  and  C_2 
REMARK    2  A    between atoms: C_2  and  C_4 
REMARK    3  A    between atoms: C_2  and  N_21 
REMARK    4  A    between atoms: C_4  and  C_5 
REMARK    5  A    between atoms: C_7  and  N_21 
REMARK    6  A    between atoms: C_8  and  N_21 
ROOT
ATOM      1  C   LIG d   1       5.646  -0.663  -3.575  0.00  0.00    -0.019 C 
ATOM      2  H   LIG d   1       5.122  -1.106  -4.423  0.00  0.00     0.085 H 
ENDROOT
BRANCH   1   3
ATOM      3  C   LIG d   1       7.034  -1.292  -3.448  0.00  0.00    -0.021 C 
ATOM      4  H   LIG d   1       7.378  -1.617  -4.430  0.00  0.00     0.028 H 
ATOM      5  H   LIG d   1       7.730  -0.556  -3.044  0.00  0.00     0.028 H 
ATOM      6  H   LIG d   1       6.985  -2.150  -2.778  0.00  0.00     0.028 H 
ENDBRANCH   1   3
BRANCH   1   7
ATOM      7  C   LIG d   1       4.849  -0.919  -2.294  0.00  0.00     0.030 C 
ATOM      8  H   LIG d   1       4.571   0.032  -1.843  0.00  0.00     0.038 H 
ATOM      9  H   LIG d   1       5.462  -1.488  -1.594  0.00  0.00     0.038 H 
BRANCH   7  10
ATOM     10  C   LIG d   1       3.605  -1.703  -2.626  0.00  0.00     0.047 C 
ATOM     11  O   LIG d   1       3.616  -2.909  -2.564  0.00  0.00    -0.550 OA
ATOM     12  O   LIG d   1       2.484  -1.059  -2.988  0.00  0.00    -0.550 OA
ENDBRANCH   7  10
ENDBRANCH   1   7
BRANCH   1  13
ATOM     13  N   LIG d   1       5.796   0.796  -3.764  0.00  0.00     0.233 N 
ATOM     14  H   LIG d   1       5.404   1.055  -4.678  0.00  0.00     0.203 HD
BRANCH  13  15
ATOM     15  C   LIG d   1       5.063   1.521  -2.706  0.00  0.00    -0.043 C 
ATOM     16  H   LIG d   1       4.695   0.825  -1.951  0.00  0.00     0.078 H 
ATOM     17  H   LIG d   1       5.735   2.241  -2.238  0.00  0.00     0.078 H 
ATOM     18  H   LIG d   1       4.221   2.048  -3.155  0.00  0.00     0.078 H 
ENDBRANCH  13  15
BRANCH  13  19
ATOM     19  C   LIG d   1       7.226   1.166  -3.733  0.00  0.00    -0.043 C 
ATOM     20  H   LIG d   1       7.337   2.098  -3.179  0.00  0.00     0.078 H 
ATOM     21  H   LIG d   1       7.787   0.378  -3.232  0.00  0.00     0.078 H 
ATOM     22  H   LIG d   1       7.608   1.298  -4.745  0.00  0.00     0.078 H 
ENDBRANCH  13  19
ENDBRANCH   1  13
TORSDOF 6
ENDMDL
MODEL 8
REMARK VINA RESULT:      -2.9      1.271      2.020
REMARK  6 active torsions:
REMARK  status: ('A' for Active; 'I' for Inactive)
REMARK    1  A    between atoms: C_1  and  C_2 
REMARK    2  A    between atoms: C_2  and  C_4 
REMARK    3  A    between atoms: C_2  and  N_21 
REMARK    4  A    between atoms: C_4  and  C_5 
REMARK    5  A    between atoms: C_7  and  N_21 
REMARK    6  A    between atoms: C_8  and  N_21 
ROOT
ATOM      1  C   LIG d   1       5.117  -0.446  -4.413  0.00  0.00    -0.019 C 
ATOM      2  H   LIG d   1       5.963   0.236  -4.493  0.00  0.00     0.085 H 
ENDROOT
BRANCH   1   3
ATOM      3  C   LIG d   1       4.814  -1.048  -5.786  0.00  0.00    -0.021 C 
ATOM      4  H   LIG d   1       5.251  -0.420  -6.562  0.00  0.00     0.028 H 
ATOM      5  H   LIG d   1       5.240  -2.050  -5.846  0.00  0.00     0.028 H 
ATOM      6  H   LIG d   1       3.735  -1.103  -5.928  0.00  0.00     0.028 H 
ENDBRANCH   1   3
BRANCH   1   7
ATOM      7  C   LIG d   1       3.892   0.319  -3.909  0.00  0.00     0.030 C 
ATOM      8  H   LIG d   1       3.099  -0.385  -3.660  0.00  0.00     0.038 H 
ATOM      9  H   LIG d   1       3.543   0.998  -4.688  0.00  0.00     0.038 H 
BRANCH   7  10
ATOM     10  C   LIG d   1       4.265   1.111  -2.681  0.00  0.00     0.047 C 
ATOM     11  O   LIG d   1       3.407   1.477  -1.914  0.00  0.00    -0.550 OA
ATOM     12  O   LIG d   1       5.552   1.409  -2.441  0.00  0.00    -0.550 OA
ENDBRANCH   7  10
ENDBRANCH   1   7
BRANCH   1  13
ATOM     13  N   LIG d   1       5.422  -1.541  -3.467  0.00  0.00     0.233 N 
ATOM     14  H   LIG d   1       5.089  -1.276  -2.532  0.00  0.00     0.203 HD
BRANCH  13  15
ATOM     15  C   LIG d   1       4.736  -2.779  -3.887  0.00  0.00    -0.043 C 
ATOM     16  H   LIG d   1       3.703  -2.783  -3.536  0.00  0.00     0.078 H 
ATOM     17  H   LIG d   1       4.748  -2.840  -4.975  0.00  0.00     0.078 H 
ATOM     18  H   LIG d   1       5.264  -3.637  -3.469  0.00  0.00     0.078 H 
ENDBRANCH  13  15
BRANCH  13  19
ATOM     19  C   LIG d   1       6.881  -1.767  -3.409  0.00  0.00    -0.043 C 
ATOM     20  H   LIG d   1       7.355  -1.223  -4.227  0.00  0.00     0.078 H 
ATOM     21  H   LIG d   1       7.263  -1.396  -2.458  0.00  0.00     0.078 H 
ATOM     22  H   LIG d   1       7.107  -2.829  -3.502  0.00  0.00     0.078 H 
ENDBRANCH  13  19
ENDBRANCH   1  13
TORSDOF 6
ENDMDL
MODEL 9
REMARK VINA RESULT:      -2.9      2.018      3.264
REMARK  6 active torsions:
REMARK  status: ('A' for Active; 'I' for Inactive)
REMARK    1  A    between atoms: C_1  and  C_2 
REMARK    2  A    between atoms: C_2  and  C_4 
REMARK    3  A    between atoms: C_2  and  N_21 
REMARK    4  A    between atoms: C_4  and  C_5 
REMARK    5  A    between atoms: C_7  and  N_21 
REMARK    6  A    between atoms: C_8  and  N_21 
ROOT
ATOM      1  C   LIG d   1       3.734  -0.602  -4.205  0.00  0.00    -0.019 C 
ATOM      2  H   LIG d   1       3.408  -1.639  -4.126  0.00  0.00     0.085 H 
ENDROOT
BRANCH   1   3
ATOM      3  C   LIG d   1       2.530   0.290  -4.513  0.00  0.00    -0.021 C 
ATOM      4  H   LIG d   1       2.738   1.308  -4.185  0.00  0.00     0.028 H 
ATOM      5  H   LIG d   1       2.339   0.286  -5.586  0.00  0.00     0.028 H 
ATOM      6  H   LIG d   1       1.653  -0.089  -3.988  0.00  0.00     0.028 H 
ENDBRANCH   1   3
BRANCH   1   7
ATOM      7  C   LIG d   1       4.763  -0.476  -5.330  0.00  0.00     0.030 C 
ATOM      8  H   LIG d   1       4.489   0.352  -5.983  0.00  0.00     0.038 H 
ATOM      9  H   LIG d   1       4.785  -1.401  -5.907  0.00  0.00     0.038 H 
BRANCH   7  10
ATOM     10  C   LIG d   1       6.125  -0.220  -4.738  0.00  0.00     0.047 C 
ATOM     11  O   LIG d   1       6.831  -1.148  -4.422  0.00  0.00    -0.550 OA
ATOM     12  O   LIG d   1       6.555   1.040  -4.562  0.00  0.00    -0.550 OA
ENDBRANCH   7  10
ENDBRANCH   1   7
BRANCH   1  13
ATOM     13  N   LIG d   1       4.350  -0.155  -2.938  0.00  0.00     0.233 N 
ATOM     14  H   LIG d   1       5.334   0.086  -3.112  0.00  0.00     0.203 HD
BRANCH  13  15
ATOM     15  C   LIG d   1       3.648   1.040  -2.428  0.00  0.00    -0.043 C 
ATOM     16  H   LIG d   1       2.589   0.827  -2.279  0.00  0.00     0.078 H 
ATOM     17  H   LIG d   1       4.094   1.337  -1.479  0.00  0.00     0.078 H 
ATOM     18  H   LIG d   1       3.757   1.850  -3.150  0.00  0.00     0.078 H 
ENDBRANCH  13  15
BRANCH  13  19
ATOM     19  C   LIG d   1       4.293  -1.241  -1.937  0.00  0.00    -0.043 C 
ATOM     20  H   LIG d   1       4.951  -2.049  -2.257  0.00  0.00     0.078 H 
ATOM     21  H   LIG d   1       4.631  -0.857  -0.975  0.00  0.00     0.078 H 
ATOM     22  H   LIG d   1       3.275  -1.618  -1.841  0.00  0.00     0.078 H 
ENDBRANCH  13  19
ENDBRANCH   1  13
TORSDOF 6
ENDMDL
MODEL 10
REMARK VINA RESULT:      -2.7      9.591     10.226
REMARK  6 active torsions:
REMARK  status: ('A' for Active; 'I' for Inactive)
REMARK    1  A    between atoms: C_1  and  C_2 
REMARK    2  A    between atoms: C_2  and  C_4 
REMARK    3  A    between atoms: C_2  and  N_21 
REMARK    4  A    between atoms: C_4  and  C_5 
REMARK    5  A    between atoms: C_7  and  N_21 
REMARK    6  A    between atoms: C_8  and  N_21 
ROOT
ATOM      1  C   LIG d   1       6.072 -10.808  -3.581  0.00  0.00    -0.019 C 
ATOM      2  H   LIG d   1       6.042 -10.819  -4.671  0.00  0.00     0.085 H 
ENDROOT
BRANCH   1   3
ATOM      3  C   LIG d   1       6.968 -11.943  -3.084  0.00  0.00    -0.021 C 
ATOM      4  H   LIG d   1       8.010 -11.625  -3.116  0.00  0.00     0.028 H 
ATOM      5  H   LIG d   1       6.697 -12.197  -2.058  0.00  0.00     0.028 H 
ATOM      6  H   LIG d   1       6.834 -12.818  -3.721  0.00  0.00     0.028 H 
ENDBRANCH   1   3
BRANCH   1   7
ATOM      7  C   LIG d   1       4.657 -10.994  -3.030  0.00  0.00     0.030 C 
ATOM      8  H   LIG d   1       4.675 -10.909  -1.945  0.00  0.00     0.038 H 
ATOM      9  H   LIG d   1       4.286 -11.981  -3.311  0.00  0.00     0.038 H 
BRANCH   7  10
ATOM     10  C   LIG d   1       3.752  -9.934  -3.603  0.00  0.00     0.047 C 
ATOM     11  O   LIG d   1       4.090  -9.317  -4.586  0.00  0.00    -0.550 OA
ATOM     12  O   LIG d   1       2.569  -9.676  -3.022  0.00  0.00    -0.550 OA
ENDBRANCH   7  10
ENDBRANCH   1   7
BRANCH   1  13
ATOM     13  N   LIG d   1       6.613  -9.521  -3.092  0.00  0.00     0.233 N 
ATOM     14  H   LIG d   1       5.838  -8.857  -2.978  0.00  0.00     0.203 HD
BRANCH  13  15
ATOM     15  C   LIG d   1       7.274  -9.715  -1.786  0.00  0.00    -0.043 C 
ATOM     16  H   LIG d   1       6.825  -9.070  -1.030  0.00  0.00     0.078 H 
ATOM     17  H   LIG d   1       7.166 -10.757  -1.484  0.00  0.00     0.078 H 
ATOM     18  H   LIG d   1       8.333  -9.473  -1.886  0.00  0.00     0.078 H 
ENDBRANCH  13  15
BRANCH  13  19
ATOM     19  C   LIG d   1       7.575  -8.973  -4.070  0.00  0.00    -0.043 C 
ATOM     20  H   LIG d   1       8.525  -8.790  -3.565  0.00  0.00     0.078 H 
ATOM     21  H   LIG d   1       7.723  -9.697  -4.870  0.00  0.00     0.078 H 
ATOM     22  H   LIG d   1       7.203  -8.038  -4.489  0.00  0.00     0.078 H 
ENDBRANCH  13  19
ENDBRANCH   1  13
TORSDOF 6
ENDMDL
