MODEL 1
REMARK VINA RESULT:      -5.0      0.000      0.000
REMARK  20 active torsions:
REMARK  status: ('A' for Active; 'I' for Inactive)
REMARK    1  A    between atoms: C_1  and  C_2 
REMARK    2  A    between atoms: C_2  and  C_3 
REMARK    3  A    between atoms: C_3  and  C_4 
REMARK    4  A    between atoms: C_4  and  C_5 
REMARK    5  A    between atoms: C_5  and  C_6 
REMARK    6  A    between atoms: C_6  and  C_7 
REMARK    7  A    between atoms: C_7  and  C_9 
REMARK    8  A    between atoms: C_7  and  O_23 
REMARK    9  A    between atoms: C_9  and  C_10 
REMARK   10  A    between atoms: C_10  and  C_11 
REMARK   11  A    between atoms: C_11  and  C_12 
REMARK   12  A    between atoms: C_12  and  C_13 
REMARK   13  A    between atoms: C_13  and  C_14 
REMARK   14  A    between atoms: C_14  and  C_15 
REMARK   15  A    between atoms: C_15  and  C_16 
REMARK   16  A    between atoms: C_16  and  C_17 
REMARK   17  A    between atoms: C_17  and  C_18 
REMARK   18  A    between atoms: C_18  and  C_19 
REMARK   19  A    between atoms: C_19  and  O_21 
REMARK   20  A    between atoms: O_21  and  C_22 
ROOT
ATOM      1  C   LIG d   1       2.510  -0.705  -3.177  0.00  0.00    -0.053 C 
ATOM      2  H   LIG d   1       1.760  -1.086  -2.485  0.00  0.00     0.026 H 
ATOM      3  H   LIG d   1       3.206  -1.503  -3.433  0.00  0.00     0.026 H 
ENDROOT
BRANCH   1   4
ATOM      4  C   LIG d   1       1.823  -0.200  -4.447  0.00  0.00    -0.051 C 
ATOM      5  H   LIG d   1       0.949   0.392  -4.176  0.00  0.00     0.027 H 
ATOM      6  H   LIG d   1       1.511  -1.050  -5.055  0.00  0.00     0.027 H 
BRANCH   4   7
ATOM      7  C   LIG d   1       2.799   0.666  -5.246  0.00  0.00    -0.027 C 
ATOM      8  H   LIG d   1       3.523   1.118  -4.567  0.00  0.00     0.029 H 
ATOM      9  H   LIG d   1       2.249   1.451  -5.764  0.00  0.00     0.029 H 
BRANCH   7  10
ATOM     10  C   LIG d   1       3.534  -0.203  -6.268  0.00  0.00     0.055 C 
ATOM     11  H   LIG d   1       3.452  -1.251  -5.979  0.00  0.00     0.059 H 
BRANCH  10  12
ATOM     12  C   LIG d   1       2.906  -0.006  -7.650  0.00  0.00    -0.027 C 
ATOM     13  H   LIG d   1       1.927  -0.484  -7.676  0.00  0.00     0.029 H 
ATOM     14  H   LIG d   1       3.550  -0.451  -8.408  0.00  0.00     0.029 H 
BRANCH  12  15
ATOM     15  C   LIG d   1       2.750   1.491  -7.929  0.00  0.00    -0.051 C 
ATOM     16  H   LIG d   1       3.334   2.058  -7.204  0.00  0.00     0.027 H 
ATOM     17  H   LIG d   1       1.699   1.769  -7.846  0.00  0.00     0.027 H 
BRANCH  15  18
ATOM     18  C   LIG d   1       3.250   1.801  -9.342  0.00  0.00    -0.053 C 
ATOM     19  H   LIG d   1       2.534   2.450  -9.846  0.00  0.00     0.026 H 
ATOM     20  H   LIG d   1       3.355   0.871  -9.901  0.00  0.00     0.026 H 
BRANCH  18  21
ATOM     21  C   LIG d   1       4.606   2.504  -9.261  0.00  0.00    -0.053 C 
ATOM     22  H   LIG d   1       4.704   2.995  -8.293  0.00  0.00     0.026 H 
ATOM     23  H   LIG d   1       4.678   3.247 -10.055  0.00  0.00     0.026 H 
BRANCH  21  24
ATOM     24  C   LIG d   1       5.725   1.473  -9.425  0.00  0.00    -0.056 C 
ATOM     25  H   LIG d   1       5.892   1.283 -10.485  0.00  0.00     0.026 H 
ATOM     26  H   LIG d   1       5.439   0.545  -8.931  0.00  0.00     0.026 H 
BRANCH  24  27
ATOM     27  C   LIG d   1       7.011   2.011  -8.794  0.00  0.00    -0.065 C 
ATOM     28  H   LIG d   1       7.568   2.583  -9.536  0.00  0.00     0.023 H 
ATOM     29  H   LIG d   1       6.760   2.656  -7.951  0.00  0.00     0.023 H 
ATOM     30  H   LIG d   1       7.620   1.178  -8.445  0.00  0.00     0.023 H 
ENDBRANCH  24  27
ENDBRANCH  21  24
ENDBRANCH  18  21
ENDBRANCH  15  18
ENDBRANCH  12  15
ENDBRANCH  10  12
BRANCH  10  31
ATOM     31  O   LIG d   1       4.911   0.173  -6.312  0.00  0.00    -0.392 OA
ATOM     32  H   LIG d   1       5.057   1.105  -6.524  0.00  0.00     0.210 HD
ENDBRANCH  10  31
ENDBRANCH   7  10
ENDBRANCH   4   7
ENDBRANCH   1   4
BRANCH   1  33
ATOM     33  C   LIG d   1       3.273   0.446  -2.518  0.00  0.00    -0.053 C 
ATOM     34  H   LIG d   1       3.546   1.182  -3.275  0.00  0.00     0.026 H 
ATOM     35  H   LIG d   1       2.641   0.918  -1.765  0.00  0.00     0.026 H 
BRANCH  33  36
ATOM     36  C   LIG d   1       4.540  -0.096  -1.854  0.00  0.00    -0.053 C 
ATOM     37  H   LIG d   1       5.377   0.568  -2.072  0.00  0.00     0.026 H 
ATOM     38  H   LIG d   1       4.391  -0.150  -0.776  0.00  0.00     0.026 H 
BRANCH  36  39
ATOM     39  C   LIG d   1       4.843  -1.494  -2.398  0.00  0.00    -0.053 C 
ATOM     40  H   LIG d   1       4.829  -2.213  -1.579  0.00  0.00     0.026 H 
ATOM     41  H   LIG d   1       4.088  -1.768  -3.135  0.00  0.00     0.026 H 
BRANCH  39  42
ATOM     42  C   LIG d   1       6.224  -1.497  -3.056  0.00  0.00    -0.053 C 
ATOM     43  H   LIG d   1       6.479  -0.485  -3.370  0.00  0.00     0.026 H 
ATOM     44  H   LIG d   1       6.966  -1.854  -2.343  0.00  0.00     0.026 H 
BRANCH  42  45
ATOM     45  C   LIG d   1       6.205  -2.420  -4.277  0.00  0.00    -0.053 C 
ATOM     46  H   LIG d   1       6.320  -1.826  -5.183  0.00  0.00     0.026 H 
ATOM     47  H   LIG d   1       7.026  -3.135  -4.204  0.00  0.00     0.026 H 
BRANCH  45  48
ATOM     48  C   LIG d   1       4.875  -3.174  -4.324  0.00  0.00    -0.043 C 
ATOM     49  H   LIG d   1       4.890  -3.985  -3.597  0.00  0.00     0.027 H 
ATOM     50  H   LIG d   1       4.060  -2.489  -4.088  0.00  0.00     0.027 H 
BRANCH  48  51
ATOM     51  C   LIG d   1       4.666  -3.749  -5.727  0.00  0.00     0.045 C 
ATOM     52  H   LIG d   1       3.658  -3.514  -6.071  0.00  0.00     0.038 H 
ATOM     53  H   LIG d   1       5.394  -3.313  -6.411  0.00  0.00     0.038 H 
BRANCH  51  54
ATOM     54  C   LIG d   1       4.846  -5.245  -5.688  0.00  0.00     0.307 C 
ATOM     55  O   LIG d   1       4.057  -5.933  -5.083  0.00  0.00    -0.251 OA
BRANCH  54  56
ATOM     56  O   LIG d   1       5.881  -5.814  -6.326  0.00  0.00    -0.468 OA
BRANCH  56  57
ATOM     57  C   LIG d   1       7.046  -6.097  -5.549  0.00  0.00     0.082 C 
ATOM     58  H   LIG d   1       7.536  -6.988  -5.942  0.00  0.00     0.066 H 
ATOM     59  H   LIG d   1       7.732  -5.252  -5.600  0.00  0.00     0.066 H 
ATOM     60  H   LIG d   1       6.758  -6.270  -4.511  0.00  0.00     0.066 H 
ENDBRANCH  56  57
ENDBRANCH  54  56
ENDBRANCH  51  54
ENDBRANCH  48  51
ENDBRANCH  45  48
ENDBRANCH  42  45
ENDBRANCH  39  42
ENDBRANCH  36  39
ENDBRANCH  33  36
ENDBRANCH   1  33
TORSDOF 20
ENDMDL
MODEL 2
REMARK VINA RESULT:      -5.0      2.375      3.848
REMARK  20 active torsions:
REMARK  status: ('A' for Active; 'I' for Inactive)
REMARK    1  A    between atoms: C_1  and  C_2 
REMARK    2  A    between atoms: C_2  and  C_3 
REMARK    3  A    between atoms: C_3  and  C_4 
REMARK    4  A    between atoms: C_4  and  C_5 
REMARK    5  A    between atoms: C_5  and  C_6 
REMARK    6  A    between atoms: C_6  and  C_7 
REMARK    7  A    between atoms: C_7  and  C_9 
REMARK    8  A    between atoms: C_7  and  O_23 
REMARK    9  A    between atoms: C_9  and  C_10 
REMARK   10  A    between atoms: C_10  and  C_11 
REMARK   11  A    between atoms: C_11  and  C_12 
REMARK   12  A    between atoms: C_12  and  C_13 
REMARK   13  A    between atoms: C_13  and  C_14 
REMARK   14  A    between atoms: C_14  and  C_15 
REMARK   15  A    between atoms: C_15  and  C_16 
REMARK   16  A    between atoms: C_16  and  C_17 
REMARK   17  A    between atoms: C_17  and  C_18 
REMARK   18  A    between atoms: C_18  and  C_19 
REMARK   19  A    between atoms: C_19  and  O_21 
REMARK   20  A    between atoms: O_21  and  C_22 
ROOT
ATOM      1  C   LIG d   1       3.268  -0.007  -6.069  0.00  0.00    -0.053 C 
ATOM      2  H   LIG d   1       3.477  -1.076  -6.105  0.00  0.00     0.026 H 
ATOM      3  H   LIG d   1       4.207   0.545  -6.031  0.00  0.00     0.026 H 
ENDROOT
BRANCH   1   4
ATOM      4  C   LIG d   1       2.487   0.403  -7.319  0.00  0.00    -0.051 C 
ATOM      5  H   LIG d   1       2.856   1.362  -7.680  0.00  0.00     0.027 H 
ATOM      6  H   LIG d   1       1.428   0.490  -7.074  0.00  0.00     0.027 H 
BRANCH   4   7
ATOM      7  C   LIG d   1       2.672  -0.657  -8.407  0.00  0.00    -0.027 C 
ATOM      8  H   LIG d   1       2.109  -1.552  -8.142  0.00  0.00     0.029 H 
ATOM      9  H   LIG d   1       3.729  -0.907  -8.494  0.00  0.00     0.029 H 
BRANCH   7  10
ATOM     10  C   LIG d   1       2.164  -0.111  -9.743  0.00  0.00     0.055 C 
ATOM     11  H   LIG d   1       2.035   0.968  -9.668  0.00  0.00     0.059 H 
BRANCH  10  12
ATOM     12  C   LIG d   1       3.180  -0.429 -10.842  0.00  0.00    -0.027 C 
ATOM     13  H   LIG d   1       2.673  -0.463 -11.807  0.00  0.00     0.029 H 
ATOM     14  H   LIG d   1       3.643  -1.396 -10.641  0.00  0.00     0.029 H 
BRANCH  12  15
ATOM     15  C   LIG d   1       4.258   0.656 -10.869  0.00  0.00    -0.051 C 
ATOM     16  H   LIG d   1       4.600   0.803 -11.894  0.00  0.00     0.027 H 
ATOM     17  H   LIG d   1       5.099   0.349 -10.246  0.00  0.00     0.027 H 
BRANCH  15  18
ATOM     18  C   LIG d   1       3.677   1.966 -10.333  0.00  0.00    -0.053 C 
ATOM     19  H   LIG d   1       2.714   1.770  -9.862  0.00  0.00     0.026 H 
ATOM     20  H   LIG d   1       3.543   2.667 -11.157  0.00  0.00     0.026 H 
BRANCH  18  21
ATOM     21  C   LIG d   1       4.637   2.566  -9.303  0.00  0.00    -0.053 C 
ATOM     22  H   LIG d   1       4.075   2.886  -8.426  0.00  0.00     0.026 H 
ATOM     23  H   LIG d   1       5.148   3.424  -9.741  0.00  0.00     0.026 H 
BRANCH  21  24
ATOM     24  C   LIG d   1       5.668   1.513  -8.893  0.00  0.00    -0.056 C 
ATOM     25  H   LIG d   1       5.685   0.713  -9.634  0.00  0.00     0.026 H 
ATOM     26  H   LIG d   1       5.400   1.101  -7.921  0.00  0.00     0.026 H 
BRANCH  24  27
ATOM     27  C   LIG d   1       7.052   2.160  -8.809  0.00  0.00    -0.065 C 
ATOM     28  H   LIG d   1       7.427   2.347  -9.815  0.00  0.00     0.023 H 
ATOM     29  H   LIG d   1       6.980   3.103  -8.266  0.00  0.00     0.023 H 
ATOM     30  H   LIG d   1       7.734   1.490  -8.285  0.00  0.00     0.023 H 
ENDBRANCH  24  27
ENDBRANCH  21  24
ENDBRANCH  18  21
ENDBRANCH  15  18
ENDBRANCH  12  15
ENDBRANCH  10  12
BRANCH  10  31
ATOM     31  O   LIG d   1       0.912  -0.720 -10.060  0.00  0.00    -0.392 OA
ATOM     32  H   LIG d   1       0.790  -1.597  -9.671  0.00  0.00     0.210 HD
ENDBRANCH  10  31
ENDBRANCH   7  10
ENDBRANCH   4   7
ENDBRANCH   1   4
BRANCH   1  33
ATOM     33  C   LIG d   1       2.439   0.309  -4.823  0.00  0.00    -0.053 C 
ATOM     34  H   LIG d   1       1.571   0.905  -5.105  0.00  0.00     0.026 H 
ATOM     35  H   LIG d   1       2.106  -0.621  -4.362  0.00  0.00     0.026 H 
BRANCH  33  36
ATOM     36  C   LIG d   1       3.295   1.094  -3.827  0.00  0.00    -0.053 C 
ATOM     37  H   LIG d   1       4.309   1.187  -4.214  0.00  0.00     0.026 H 
ATOM     38  H   LIG d   1       2.868   2.086  -3.684  0.00  0.00     0.026 H 
BRANCH  36  39
ATOM     39  C   LIG d   1       3.326   0.354  -2.487  0.00  0.00    -0.053 C 
ATOM     40  H   LIG d   1       4.336   0.381  -2.080  0.00  0.00     0.026 H 
ATOM     41  H   LIG d   1       2.640   0.837  -1.790  0.00  0.00     0.026 H 
BRANCH  39  42
ATOM     42  C   LIG d   1       2.900  -1.100  -2.698  0.00  0.00    -0.053 C 
ATOM     43  H   LIG d   1       2.047  -1.325  -2.059  0.00  0.00     0.026 H 
ATOM     44  H   LIG d   1       2.622  -1.250  -3.741  0.00  0.00     0.026 H 
BRANCH  42  45
ATOM     45  C   LIG d   1       4.063  -2.029  -2.342  0.00  0.00    -0.053 C 
ATOM     46  H   LIG d   1       4.697  -1.548  -1.598  0.00  0.00     0.026 H 
ATOM     47  H   LIG d   1       3.672  -2.963  -1.938  0.00  0.00     0.026 H 
BRANCH  45  48
ATOM     48  C   LIG d   1       4.884  -2.321  -3.600  0.00  0.00    -0.043 C 
ATOM     49  H   LIG d   1       4.836  -3.386  -3.826  0.00  0.00     0.027 H 
ATOM     50  H   LIG d   1       4.481  -1.753  -4.438  0.00  0.00     0.027 H 
BRANCH  48  51
ATOM     51  C   LIG d   1       6.340  -1.915  -3.363  0.00  0.00     0.045 C 
ATOM     52  H   LIG d   1       6.525  -1.829  -2.292  0.00  0.00     0.038 H 
ATOM     53  H   LIG d   1       7.002  -2.672  -3.785  0.00  0.00     0.038 H 
BRANCH  51  54
ATOM     54  C   LIG d   1       6.607  -0.589  -4.027  0.00  0.00     0.307 C 
ATOM     55  O   LIG d   1       6.669  -0.519  -5.232  0.00  0.00    -0.251 OA
BRANCH  54  56
ATOM     56  O   LIG d   1       6.774   0.514  -3.281  0.00  0.00    -0.468 OA
BRANCH  56  57
ATOM     57  C   LIG d   1       7.550   1.571  -3.849  0.00  0.00     0.082 C 
ATOM     58  H   LIG d   1       7.453   2.464  -3.232  0.00  0.00     0.066 H 
ATOM     59  H   LIG d   1       8.597   1.270  -3.890  0.00  0.00     0.066 H 
ATOM     60  H   LIG d   1       7.193   1.783  -4.857  0.00  0.00     0.066 H 
ENDBRANCH  56  57
ENDBRANCH  54  56
ENDBRANCH  51  54
ENDBRANCH  48  51
ENDBRANCH  45  48
ENDBRANCH  42  45
ENDBRANCH  39  42
ENDBRANCH  36  39
ENDBRANCH  33  36
ENDBRANCH   1  33
TORSDOF 20
ENDMDL
MODEL 3
REMARK VINA RESULT:      -5.0      2.195      3.957
REMARK  20 active torsions:
REMARK  status: ('A' for Active; 'I' for Inactive)
REMARK    1  A    between atoms: C_1  and  C_2 
REMARK    2  A    between atoms: C_2  and  C_3 
REMARK    3  A    between atoms: C_3  and  C_4 
REMARK    4  A    between atoms: C_4  and  C_5 
REMARK    5  A    between atoms: C_5  and  C_6 
REMARK    6  A    between atoms: C_6  and  C_7 
REMARK    7  A    between atoms: C_7  and  C_9 
REMARK    8  A    between atoms: C_7  and  O_23 
REMARK    9  A    between atoms: C_9  and  C_10 
REMARK   10  A    between atoms: C_10  and  C_11 
REMARK   11  A    between atoms: C_11  and  C_12 
REMARK   12  A    between atoms: C_12  and  C_13 
REMARK   13  A    between atoms: C_13  and  C_14 
REMARK   14  A    between atoms: C_14  and  C_15 
REMARK   15  A    between atoms: C_15  and  C_16 
REMARK   16  A    between atoms: C_16  and  C_17 
REMARK   17  A    between atoms: C_17  and  C_18 
REMARK   18  A    between atoms: C_18  and  C_19 
REMARK   19  A    between atoms: C_19  and  O_21 
REMARK   20  A    between atoms: O_21  and  C_22 
ROOT
ATOM      1  C   LIG d   1       3.668   0.169  -7.367  0.00  0.00    -0.053 C 
ATOM      2  H   LIG d   1       3.306  -0.647  -7.992  0.00  0.00     0.026 H 
ATOM      3  H   LIG d   1       4.669   0.455  -7.688  0.00  0.00     0.026 H 
ENDROOT
BRANCH   1   4
ATOM      4  C   LIG d   1       2.727   1.368  -7.500  0.00  0.00    -0.051 C 
ATOM      5  H   LIG d   1       2.934   2.082  -6.703  0.00  0.00     0.027 H 
ATOM      6  H   LIG d   1       1.693   1.030  -7.427  0.00  0.00     0.027 H 
BRANCH   4   7
ATOM      7  C   LIG d   1       2.948   2.041  -8.857  0.00  0.00    -0.027 C 
ATOM      8  H   LIG d   1       2.930   3.124  -8.733  0.00  0.00     0.029 H 
ATOM      9  H   LIG d   1       2.158   1.741  -9.544  0.00  0.00     0.029 H 
BRANCH   7  10
ATOM     10  C   LIG d   1       4.305   1.616  -9.422  0.00  0.00     0.055 C 
ATOM     11  H   LIG d   1       4.685   0.766  -8.854  0.00  0.00     0.059 H 
BRANCH  10  12
ATOM     12  C   LIG d   1       4.143   1.217 -10.890  0.00  0.00    -0.027 C 
ATOM     13  H   LIG d   1       4.626   1.960 -11.525  0.00  0.00     0.029 H 
ATOM     14  H   LIG d   1       3.082   1.162 -11.136  0.00  0.00     0.029 H 
BRANCH  12  15
ATOM     15  C   LIG d   1       4.791  -0.150 -11.121  0.00  0.00    -0.051 C 
ATOM     16  H   LIG d   1       5.536  -0.335 -10.347  0.00  0.00     0.027 H 
ATOM     17  H   LIG d   1       5.273  -0.164 -12.099  0.00  0.00     0.027 H 
BRANCH  15  18
ATOM     18  C   LIG d   1       3.717  -1.240 -11.067  0.00  0.00    -0.053 C 
ATOM     19  H   LIG d   1       3.289  -1.278 -10.065  0.00  0.00     0.026 H 
ATOM     20  H   LIG d   1       4.167  -2.204 -11.307  0.00  0.00     0.026 H 
BRANCH  18  21
ATOM     21  C   LIG d   1       2.617  -0.923 -12.081  0.00  0.00    -0.053 C 
ATOM     22  H   LIG d   1       2.714  -1.584 -12.942  0.00  0.00     0.026 H 
ATOM     23  H   LIG d   1       2.711   0.114 -12.407  0.00  0.00     0.026 H 
BRANCH  21  24
ATOM     24  C   LIG d   1       1.248  -1.130 -11.429  0.00  0.00    -0.056 C 
ATOM     25  H   LIG d   1       0.806  -2.056 -11.798  0.00  0.00     0.026 H 
ATOM     26  H   LIG d   1       0.597  -0.293 -11.678  0.00  0.00     0.026 H 
BRANCH  24  27
ATOM     27  C   LIG d   1       1.415  -1.213  -9.911  0.00  0.00    -0.065 C 
ATOM     28  H   LIG d   1       1.253  -2.241  -9.584  0.00  0.00     0.023 H 
ATOM     29  H   LIG d   1       2.422  -0.899  -9.638  0.00  0.00     0.023 H 
ATOM     30  H   LIG d   1       0.687  -0.560  -9.430  0.00  0.00     0.023 H 
ENDBRANCH  24  27
ENDBRANCH  21  24
ENDBRANCH  18  21
ENDBRANCH  15  18
ENDBRANCH  12  15
ENDBRANCH  10  12
BRANCH  10  31
ATOM     31  O   LIG d   1       5.225   2.704  -9.323  0.00  0.00    -0.392 OA
ATOM     32  H   LIG d   1       5.663   2.772  -8.464  0.00  0.00     0.210 HD
ENDBRANCH  10  31
ENDBRANCH   7  10
ENDBRANCH   4   7
ENDBRANCH   1   4
BRANCH   1  33
ATOM     33  C   LIG d   1       3.709  -0.287  -5.908  0.00  0.00    -0.053 C 
ATOM     34  H   LIG d   1       3.554  -1.365  -5.859  0.00  0.00     0.026 H 
ATOM     35  H   LIG d   1       4.680  -0.041  -5.477  0.00  0.00     0.026 H 
BRANCH  33  36
ATOM     36  C   LIG d   1       2.606   0.423  -5.120  0.00  0.00    -0.053 C 
ATOM     37  H   LIG d   1       2.723   1.501  -5.224  0.00  0.00     0.026 H 
ATOM     38  H   LIG d   1       1.633   0.124  -5.508  0.00  0.00     0.026 H 
BRANCH  36  39
ATOM     39  C   LIG d   1       2.707   0.038  -3.643  0.00  0.00    -0.053 C 
ATOM     40  H   LIG d   1       1.712   0.046  -3.197  0.00  0.00     0.026 H 
ATOM     41  H   LIG d   1       3.136  -0.960  -3.555  0.00  0.00     0.026 H 
BRANCH  39  42
ATOM     42  C   LIG d   1       3.600   1.044  -2.914  0.00  0.00    -0.053 C 
ATOM     43  H   LIG d   1       4.273   1.516  -3.628  0.00  0.00     0.026 H 
ATOM     44  H   LIG d   1       2.980   1.806  -2.441  0.00  0.00     0.026 H 
BRANCH  42  45
ATOM     45  C   LIG d   1       4.418   0.318  -1.844  0.00  0.00    -0.053 C 
ATOM     46  H   LIG d   1       5.449   0.670  -1.874  0.00  0.00     0.026 H 
ATOM     47  H   LIG d   1       3.993   0.521  -0.861  0.00  0.00     0.026 H 
BRANCH  45  48
ATOM     48  C   LIG d   1       4.385  -1.188  -2.113  0.00  0.00    -0.043 C 
ATOM     49  H   LIG d   1       4.336  -1.726  -1.167  0.00  0.00     0.027 H 
ATOM     50  H   LIG d   1       3.510  -1.431  -2.715  0.00  0.00     0.027 H 
BRANCH  48  51
ATOM     51  C   LIG d   1       5.652  -1.598  -2.868  0.00  0.00     0.045 C 
ATOM     52  H   LIG d   1       6.041  -0.742  -3.419  0.00  0.00     0.038 H 
ATOM     53  H   LIG d   1       6.403  -1.944  -2.158  0.00  0.00     0.038 H 
BRANCH  51  54
ATOM     54  C   LIG d   1       5.325  -2.709  -3.833  0.00  0.00     0.307 C 
ATOM     55  O   LIG d   1       4.242  -3.246  -3.791  0.00  0.00    -0.251 OA
BRANCH  54  56
ATOM     56  O   LIG d   1       6.234  -3.102  -4.738  0.00  0.00    -0.468 OA
BRANCH  56  57
ATOM     57  C   LIG d   1       7.587  -3.215  -4.293  0.00  0.00     0.082 C 
ATOM     58  H   LIG d   1       7.804  -2.413  -3.587  0.00  0.00     0.066 H 
ATOM     59  H   LIG d   1       7.730  -4.178  -3.804  0.00  0.00     0.066 H 
ATOM     60  H   LIG d   1       8.259  -3.137  -5.148  0.00  0.00     0.066 H 
ENDBRANCH  56  57
ENDBRANCH  54  56
ENDBRANCH  51  54
ENDBRANCH  48  51
ENDBRANCH  45  48
ENDBRANCH  42  45
ENDBRANCH  39  42
ENDBRANCH  36  39
ENDBRANCH  33  36
ENDBRANCH   1  33
TORSDOF 20
ENDMDL
MODEL 4
REMARK VINA RESULT:      -5.0      1.547      1.960
REMARK  20 active torsions:
REMARK  status: ('A' for Active; 'I' for Inactive)
REMARK    1  A    between atoms: C_1  and  C_2 
REMARK    2  A    between atoms: C_2  and  C_3 
REMARK    3  A    between atoms: C_3  and  C_4 
REMARK    4  A    between atoms: C_4  and  C_5 
REMARK    5  A    between atoms: C_5  and  C_6 
REMARK    6  A    between atoms: C_6  and  C_7 
REMARK    7  A    between atoms: C_7  and  C_9 
REMARK    8  A    between atoms: C_7  and  O_23 
REMARK    9  A    between atoms: C_9  and  C_10 
REMARK   10  A    between atoms: C_10  and  C_11 
REMARK   11  A    between atoms: C_11  and  C_12 
REMARK   12  A    between atoms: C_12  and  C_13 
REMARK   13  A    between atoms: C_13  and  C_14 
REMARK   14  A    between atoms: C_14  and  C_15 
REMARK   15  A    between atoms: C_15  and  C_16 
REMARK   16  A    between atoms: C_16  and  C_17 
REMARK   17  A    between atoms: C_17  and  C_18 
REMARK   18  A    between atoms: C_18  and  C_19 
REMARK   19  A    between atoms: C_19  and  O_21 
REMARK   20  A    between atoms: O_21  and  C_22 
ROOT
ATOM      1  C   LIG d   1       2.868  -0.122  -3.287  0.00  0.00    -0.053 C 
ATOM      2  H   LIG d   1       1.974  -0.515  -2.804  0.00  0.00     0.026 H 
ATOM      3  H   LIG d   1       3.613  -0.912  -3.369  0.00  0.00     0.026 H 
ENDROOT
BRANCH   1   4
ATOM      4  C   LIG d   1       2.509   0.386  -4.686  0.00  0.00    -0.051 C 
ATOM      5  H   LIG d   1       2.535   1.475  -4.694  0.00  0.00     0.027 H 
ATOM      6  H   LIG d   1       1.508   0.044  -4.951  0.00  0.00     0.027 H 
BRANCH   4   7
ATOM      7  C   LIG d   1       3.518  -0.157  -5.700  0.00  0.00    -0.027 C 
ATOM      8  H   LIG d   1       3.707  -1.211  -5.496  0.00  0.00     0.029 H 
ATOM      9  H   LIG d   1       4.450   0.401  -5.619  0.00  0.00     0.029 H 
BRANCH   7  10
ATOM     10  C   LIG d   1       2.953  -0.005  -7.114  0.00  0.00     0.055 C 
ATOM     11  H   LIG d   1       1.937   0.387  -7.058  0.00  0.00     0.059 H 
BRANCH  10  12
ATOM     12  C   LIG d   1       3.830   0.962  -7.911  0.00  0.00    -0.027 C 
ATOM     13  H   LIG d   1       4.361   0.414  -8.690  0.00  0.00     0.029 H 
ATOM     14  H   LIG d   1       4.550   1.435  -7.243  0.00  0.00     0.029 H 
BRANCH  12  15
ATOM     15  C   LIG d   1       2.950   2.037  -8.553  0.00  0.00    -0.051 C 
ATOM     16  H   LIG d   1       2.919   2.915  -7.908  0.00  0.00     0.027 H 
ATOM     17  H   LIG d   1       1.939   1.649  -8.685  0.00  0.00     0.027 H 
BRANCH  15  18
ATOM     18  C   LIG d   1       3.529   2.424  -9.916  0.00  0.00    -0.053 C 
ATOM     19  H   LIG d   1       4.091   3.354  -9.821  0.00  0.00     0.026 H 
ATOM     20  H   LIG d   1       2.716   2.562 -10.629  0.00  0.00     0.026 H 
BRANCH  18  21
ATOM     21  C   LIG d   1       4.459   1.314 -10.409  0.00  0.00    -0.053 C 
ATOM     22  H   LIG d   1       4.609   0.585  -9.613  0.00  0.00     0.026 H 
ATOM     23  H   LIG d   1       5.419   1.745 -10.694  0.00  0.00     0.026 H 
BRANCH  21  24
ATOM     24  C   LIG d   1       3.830   0.624 -11.621  0.00  0.00    -0.056 C 
ATOM     25  H   LIG d   1       4.570   0.539 -12.416  0.00  0.00     0.026 H 
ATOM     26  H   LIG d   1       2.983   1.211 -11.975  0.00  0.00     0.026 H 
BRANCH  24  27
ATOM     27  C   LIG d   1       3.350  -0.773 -11.220  0.00  0.00    -0.065 C 
ATOM     28  H   LIG d   1       2.271  -0.839 -11.359  0.00  0.00     0.023 H 
ATOM     29  H   LIG d   1       3.844  -1.519 -11.841  0.00  0.00     0.023 H 
ATOM     30  H   LIG d   1       3.593  -0.952 -10.173  0.00  0.00     0.023 H 
ENDBRANCH  24  27
ENDBRANCH  21  24
ENDBRANCH  18  21
ENDBRANCH  15  18
ENDBRANCH  12  15
ENDBRANCH  10  12
BRANCH  10  31
ATOM     31  O   LIG d   1       2.938  -1.279  -7.760  0.00  0.00    -0.392 OA
ATOM     32  H   LIG d   1       2.395  -1.308  -8.560  0.00  0.00     0.210 HD
ENDBRANCH  10  31
ENDBRANCH   7  10
ENDBRANCH   4   7
ENDBRANCH   1   4
BRANCH   1  33
ATOM     33  C   LIG d   1       3.432   1.031  -2.456  0.00  0.00    -0.053 C 
ATOM     34  H   LIG d   1       3.364   1.958  -3.026  0.00  0.00     0.026 H 
ATOM     35  H   LIG d   1       2.860   1.129  -1.533  0.00  0.00     0.026 H 
BRANCH  33  36
ATOM     36  C   LIG d   1       4.898   0.747  -2.119  0.00  0.00    -0.053 C 
ATOM     37  H   LIG d   1       5.539   1.393  -2.718  0.00  0.00     0.026 H 
ATOM     38  H   LIG d   1       5.072   0.942  -1.062  0.00  0.00     0.026 H 
BRANCH  36  39
ATOM     39  C   LIG d   1       5.218  -0.717  -2.428  0.00  0.00    -0.053 C 
ATOM     40  H   LIG d   1       5.399  -1.254  -1.497  0.00  0.00     0.026 H 
ATOM     41  H   LIG d   1       4.375  -1.170  -2.951  0.00  0.00     0.026 H 
BRANCH  39  42
ATOM     42  C   LIG d   1       6.466  -0.791  -3.311  0.00  0.00    -0.053 C 
ATOM     43  H   LIG d   1       6.312  -0.191  -4.207  0.00  0.00     0.026 H 
ATOM     44  H   LIG d   1       7.324  -0.408  -2.760  0.00  0.00     0.026 H 
BRANCH  42  45
ATOM     45  C   LIG d   1       6.723  -2.246  -3.708  0.00  0.00    -0.053 C 
ATOM     46  H   LIG d   1       7.484  -2.281  -4.487  0.00  0.00     0.026 H 
ATOM     47  H   LIG d   1       7.068  -2.805  -2.838  0.00  0.00     0.026 H 
BRANCH  45  48
ATOM     48  C   LIG d   1       5.427  -2.868  -4.232  0.00  0.00    -0.043 C 
ATOM     49  H   LIG d   1       4.827  -3.221  -3.393  0.00  0.00     0.027 H 
ATOM     50  H   LIG d   1       4.865  -2.120  -4.791  0.00  0.00     0.027 H 
BRANCH  48  51
ATOM     51  C   LIG d   1       5.762  -4.045  -5.151  0.00  0.00     0.045 C 
ATOM     52  H   LIG d   1       6.487  -3.727  -5.901  0.00  0.00     0.038 H 
ATOM     53  H   LIG d   1       6.183  -4.859  -4.561  0.00  0.00     0.038 H 
BRANCH  51  54
ATOM     54  C   LIG d   1       4.506  -4.520  -5.837  0.00  0.00     0.307 C 
ATOM     55  O   LIG d   1       3.893  -5.460  -5.389  0.00  0.00    -0.251 OA
BRANCH  54  56
ATOM     56  O   LIG d   1       4.069  -3.899  -6.943  0.00  0.00    -0.468 OA
BRANCH  56  57
ATOM     57  C   LIG d   1       4.392  -4.502  -8.197  0.00  0.00     0.082 C 
ATOM     58  H   LIG d   1       5.473  -4.618  -8.276  0.00  0.00     0.066 H 
ATOM     59  H   LIG d   1       3.916  -5.480  -8.264  0.00  0.00     0.066 H 
ATOM     60  H   LIG d   1       4.035  -3.868  -9.009  0.00  0.00     0.066 H 
ENDBRANCH  56  57
ENDBRANCH  54  56
ENDBRANCH  51  54
ENDBRANCH  48  51
ENDBRANCH  45  48
ENDBRANCH  42  45
ENDBRANCH  39  42
ENDBRANCH  36  39
ENDBRANCH  33  36
ENDBRANCH   1  33
TORSDOF 20
ENDMDL
MODEL 5
REMARK VINA RESULT:      -4.9      2.107      7.187
REMARK  20 active torsions:
REMARK  status: ('A' for Active; 'I' for Inactive)
REMARK    1  A    between atoms: C_1  and  C_2 
REMARK    2  A    between atoms: C_2  and  C_3 
REMARK    3  A    between atoms: C_3  and  C_4 
REMARK    4  A    between atoms: C_4  and  C_5 
REMARK    5  A    between atoms: C_5  and  C_6 
REMARK    6  A    between atoms: C_6  and  C_7 
REMARK    7  A    between atoms: C_7  and  C_9 
REMARK    8  A    between atoms: C_7  and  O_23 
REMARK    9  A    between atoms: C_9  and  C_10 
REMARK   10  A    between atoms: C_10  and  C_11 
REMARK   11  A    between atoms: C_11  and  C_12 
REMARK   12  A    between atoms: C_12  and  C_13 
REMARK   13  A    between atoms: C_13  and  C_14 
REMARK   14  A    between atoms: C_14  and  C_15 
REMARK   15  A    between atoms: C_15  and  C_16 
REMARK   16  A    between atoms: C_16  and  C_17 
REMARK   17  A    between atoms: C_17  and  C_18 
REMARK   18  A    between atoms: C_18  and  C_19 
REMARK   19  A    between atoms: C_19  and  O_21 
REMARK   20  A    between atoms: O_21  and  C_22 
ROOT
ATOM      1  C   LIG d   1       6.303  -2.668  -4.377  0.00  0.00    -0.053 C 
ATOM      2  H   LIG d   1       7.122  -3.354  -4.161  0.00  0.00     0.026 H 
ATOM      3  H   LIG d   1       6.539  -2.089  -5.269  0.00  0.00     0.026 H 
ENDROOT
BRANCH   1   4
ATOM      4  C   LIG d   1       5.019  -3.466  -4.613  0.00  0.00    -0.051 C 
ATOM      5  H   LIG d   1       4.174  -2.930  -4.181  0.00  0.00     0.027 H 
ATOM      6  H   LIG d   1       5.107  -4.445  -4.142  0.00  0.00     0.027 H 
BRANCH   4   7
ATOM      7  C   LIG d   1       4.797  -3.642  -6.117  0.00  0.00    -0.027 C 
ATOM      8  H   LIG d   1       5.719  -3.412  -6.649  0.00  0.00     0.029 H 
ATOM      9  H   LIG d   1       4.009  -2.967  -6.448  0.00  0.00     0.029 H 
BRANCH   7  10
ATOM     10  C   LIG d   1       4.387  -5.087  -6.406  0.00  0.00     0.055 C 
ATOM     11  H   LIG d   1       4.849  -5.416  -7.337  0.00  0.00     0.059 H 
BRANCH  10  12
ATOM     12  C   LIG d   1       4.851  -5.988  -5.260  0.00  0.00    -0.027 C 
ATOM     13  H   LIG d   1       3.992  -6.503  -4.831  0.00  0.00     0.029 H 
ATOM     14  H   LIG d   1       5.331  -5.380  -4.492  0.00  0.00     0.029 H 
BRANCH  12  15
ATOM     15  C   LIG d   1       5.850  -7.017  -5.793  0.00  0.00    -0.051 C 
ATOM     16  H   LIG d   1       6.620  -7.198  -5.043  0.00  0.00     0.027 H 
ATOM     17  H   LIG d   1       6.312  -6.638  -6.705  0.00  0.00     0.027 H 
BRANCH  15  18
ATOM     18  C   LIG d   1       5.119  -8.327  -6.099  0.00  0.00    -0.053 C 
ATOM     19  H   LIG d   1       5.796  -9.009  -6.612  0.00  0.00     0.026 H 
ATOM     20  H   LIG d   1       4.258  -8.121  -6.736  0.00  0.00     0.026 H 
BRANCH  18  21
ATOM     21  C   LIG d   1       4.645  -8.964  -4.791  0.00  0.00    -0.053 C 
ATOM     22  H   LIG d   1       3.910  -9.739  -5.009  0.00  0.00     0.026 H 
ATOM     23  H   LIG d   1       4.192  -8.201  -4.158  0.00  0.00     0.026 H 
BRANCH  21  24
ATOM     24  C   LIG d   1       5.840  -9.585  -4.065  0.00  0.00    -0.056 C 
ATOM     25  H   LIG d   1       6.518  -8.796  -3.740  0.00  0.00     0.026 H 
ATOM     26  H   LIG d   1       6.365 -10.260  -4.740  0.00  0.00     0.026 H 
BRANCH  24  27
ATOM     27  C   LIG d   1       5.345 -10.367  -2.845  0.00  0.00    -0.065 C 
ATOM     28  H   LIG d   1       5.921 -10.072  -1.968  0.00  0.00     0.023 H 
ATOM     29  H   LIG d   1       4.290 -10.150  -2.678  0.00  0.00     0.023 H 
ATOM     30  H   LIG d   1       5.474 -11.434  -3.023  0.00  0.00     0.023 H 
ENDBRANCH  24  27
ENDBRANCH  21  24
ENDBRANCH  18  21
ENDBRANCH  15  18
ENDBRANCH  12  15
ENDBRANCH  10  12
BRANCH  10  31
ATOM     31  O   LIG d   1       2.966  -5.164  -6.527  0.00  0.00    -0.392 OA
ATOM     32  H   LIG d   1       2.647  -5.995  -6.904  0.00  0.00     0.210 HD
ENDBRANCH  10  31
ENDBRANCH   7  10
ENDBRANCH   4   7
ENDBRANCH   1   4
BRANCH   1  33
ATOM     33  C   LIG d   1       6.105  -1.722  -3.191  0.00  0.00    -0.053 C 
ATOM     34  H   LIG d   1       6.827  -1.962  -2.410  0.00  0.00     0.026 H 
ATOM     35  H   LIG d   1       6.253  -0.693  -3.518  0.00  0.00     0.026 H 
BRANCH  33  36
ATOM     36  C   LIG d   1       4.686  -1.884  -2.641  0.00  0.00    -0.053 C 
ATOM     37  H   LIG d   1       3.980  -1.946  -3.469  0.00  0.00     0.026 H 
ATOM     38  H   LIG d   1       4.629  -2.796  -2.046  0.00  0.00     0.026 H 
BRANCH  36  39
ATOM     39  C   LIG d   1       4.339  -0.680  -1.763  0.00  0.00    -0.053 C 
ATOM     40  H   LIG d   1       3.799  -1.018  -0.879  0.00  0.00     0.026 H 
ATOM     41  H   LIG d   1       5.257  -0.177  -1.457  0.00  0.00     0.026 H 
BRANCH  39  42
ATOM     42  C   LIG d   1       3.463   0.293  -2.555  0.00  0.00    -0.053 C 
ATOM     43  H   LIG d   1       2.839   0.862  -1.867  0.00  0.00     0.026 H 
ATOM     44  H   LIG d   1       4.098   0.976  -3.119  0.00  0.00     0.026 H 
BRANCH  42  45
ATOM     45  C   LIG d   1       2.574  -0.492  -3.521  0.00  0.00    -0.053 C 
ATOM     46  H   LIG d   1       3.058  -1.435  -3.776  0.00  0.00     0.026 H 
ATOM     47  H   LIG d   1       1.612  -0.693  -3.048  0.00  0.00     0.026 H 
BRANCH  45  48
ATOM     48  C   LIG d   1       2.355   0.330  -4.793  0.00  0.00    -0.043 C 
ATOM     49  H   LIG d   1       1.350   0.149  -5.174  0.00  0.00     0.027 H 
ATOM     50  H   LIG d   1       2.473   1.389  -4.567  0.00  0.00     0.027 H 
BRANCH  48  51
ATOM     51  C   LIG d   1       3.383  -0.084  -5.849  0.00  0.00     0.045 C 
ATOM     52  H   LIG d   1       4.353   0.349  -5.602  0.00  0.00     0.038 H 
ATOM     53  H   LIG d   1       3.466  -1.171  -5.871  0.00  0.00     0.038 H 
BRANCH  51  54
ATOM     54  C   LIG d   1       2.941   0.413  -7.202  0.00  0.00     0.307 C 
ATOM     55  O   LIG d   1       3.146   1.561  -7.520  0.00  0.00    -0.251 OA
BRANCH  54  56
ATOM     56  O   LIG d   1       2.322  -0.418  -8.054  0.00  0.00    -0.468 OA
BRANCH  56  57
ATOM     57  C   LIG d   1       3.116  -1.444  -8.652  0.00  0.00     0.082 C 
ATOM     58  H   LIG d   1       2.466  -2.232  -9.032  0.00  0.00     0.066 H 
ATOM     59  H   LIG d   1       3.695  -1.023  -9.474  0.00  0.00     0.066 H 
ATOM     60  H   LIG d   1       3.794  -1.861  -7.907  0.00  0.00     0.066 H 
ENDBRANCH  56  57
ENDBRANCH  54  56
ENDBRANCH  51  54
ENDBRANCH  48  51
ENDBRANCH  45  48
ENDBRANCH  42  45
ENDBRANCH  39  42
ENDBRANCH  36  39
ENDBRANCH  33  36
ENDBRANCH   1  33
TORSDOF 20
ENDMDL
MODEL 6
REMARK VINA RESULT:      -4.9      2.749      4.604
REMARK  20 active torsions:
REMARK  status: ('A' for Active; 'I' for Inactive)
REMARK    1  A    between atoms: C_1  and  C_2 
REMARK    2  A    between atoms: C_2  and  C_3 
REMARK    3  A    between atoms: C_3  and  C_4 
REMARK    4  A    between atoms: C_4  and  C_5 
REMARK    5  A    between atoms: C_5  and  C_6 
REMARK    6  A    between atoms: C_6  and  C_7 
REMARK    7  A    between atoms: C_7  and  C_9 
REMARK    8  A    between atoms: C_7  and  O_23 
REMARK    9  A    between atoms: C_9  and  C_10 
REMARK   10  A    between atoms: C_10  and  C_11 
REMARK   11  A    between atoms: C_11  and  C_12 
REMARK   12  A    between atoms: C_12  and  C_13 
REMARK   13  A    between atoms: C_13  and  C_14 
REMARK   14  A    between atoms: C_14  and  C_15 
REMARK   15  A    between atoms: C_15  and  C_16 
REMARK   16  A    between atoms: C_16  and  C_17 
REMARK   17  A    between atoms: C_17  and  C_18 
REMARK   18  A    between atoms: C_18  and  C_19 
REMARK   19  A    between atoms: C_19  and  O_21 
REMARK   20  A    between atoms: O_21  and  C_22 
ROOT
ATOM      1  C   LIG d   1       5.458  -1.833  -5.567  0.00  0.00    -0.053 C 
ATOM      2  H   LIG d   1       5.814  -2.500  -6.351  0.00  0.00     0.026 H 
ATOM      3  H   LIG d   1       6.304  -1.477  -4.981  0.00  0.00     0.026 H 
ENDROOT
BRANCH   1   4
ATOM      4  C   LIG d   1       4.739  -0.639  -6.200  0.00  0.00    -0.051 C 
ATOM      5  H   LIG d   1       5.475   0.084  -6.550  0.00  0.00     0.027 H 
ATOM      6  H   LIG d   1       4.092  -0.169  -5.459  0.00  0.00     0.027 H 
BRANCH   4   7
ATOM      7  C   LIG d   1       3.895  -1.121  -7.382  0.00  0.00    -0.027 C 
ATOM      8  H   LIG d   1       3.548  -2.136  -7.191  0.00  0.00     0.029 H 
ATOM      9  H   LIG d   1       4.499  -1.108  -8.289  0.00  0.00     0.029 H 
BRANCH   7  10
ATOM     10  C   LIG d   1       2.689  -0.196  -7.558  0.00  0.00     0.055 C 
ATOM     11  H   LIG d   1       2.011  -0.318  -6.713  0.00  0.00     0.059 H 
BRANCH  10  12
ATOM     12  C   LIG d   1       3.166   1.257  -7.623  0.00  0.00    -0.027 C 
ATOM     13  H   LIG d   1       4.253   1.279  -7.688  0.00  0.00     0.029 H 
ATOM     14  H   LIG d   1       2.843   1.785  -6.726  0.00  0.00     0.029 H 
BRANCH  12  15
ATOM     15  C   LIG d   1       2.566   1.935  -8.857  0.00  0.00    -0.051 C 
ATOM     16  H   LIG d   1       1.926   2.759  -8.544  0.00  0.00     0.027 H 
ATOM     17  H   LIG d   1       1.976   1.210  -9.420  0.00  0.00     0.027 H 
BRANCH  15  18
ATOM     18  C   LIG d   1       3.693   2.472  -9.742  0.00  0.00    -0.053 C 
ATOM     19  H   LIG d   1       3.780   3.550  -9.605  0.00  0.00     0.026 H 
ATOM     20  H   LIG d   1       3.468   2.254 -10.787  0.00  0.00     0.026 H 
BRANCH  18  21
ATOM     21  C   LIG d   1       5.012   1.800  -9.353  0.00  0.00    -0.053 C 
ATOM     22  H   LIG d   1       4.935   1.407  -8.340  0.00  0.00     0.026 H 
ATOM     23  H   LIG d   1       5.819   2.532  -9.399  0.00  0.00     0.026 H 
BRANCH  21  24
ATOM     24  C   LIG d   1       5.306   0.655 -10.324  0.00  0.00    -0.056 C 
ATOM     25  H   LIG d   1       5.328  -0.288  -9.778  0.00  0.00     0.026 H 
ATOM     26  H   LIG d   1       6.271   0.821 -10.800  0.00  0.00     0.026 H 
BRANCH  24  27
ATOM     27  C   LIG d   1       4.213   0.600 -11.393  0.00  0.00    -0.065 C 
ATOM     28  H   LIG d   1       3.853  -0.424 -11.493  0.00  0.00     0.023 H 
ATOM     29  H   LIG d   1       3.387   1.249 -11.102  0.00  0.00     0.023 H 
ATOM     30  H   LIG d   1       4.621   0.936 -12.347  0.00  0.00     0.023 H 
ENDBRANCH  24  27
ENDBRANCH  21  24
ENDBRANCH  18  21
ENDBRANCH  15  18
ENDBRANCH  12  15
ENDBRANCH  10  12
BRANCH  10  31
ATOM     31  O   LIG d   1       2.006  -0.528  -8.768  0.00  0.00    -0.392 OA
ATOM     32  H   LIG d   1       2.587  -0.620  -9.535  0.00  0.00     0.210 HD
ENDBRANCH  10  31
ENDBRANCH   7  10
ENDBRANCH   4   7
ENDBRANCH   1   4
BRANCH   1  33
ATOM     33  C   LIG d   1       4.488  -2.588  -4.657  0.00  0.00    -0.053 C 
ATOM     34  H   LIG d   1       3.481  -2.187  -4.786  0.00  0.00     0.026 H 
ATOM     35  H   LIG d   1       4.493  -3.647  -4.918  0.00  0.00     0.026 H 
BRANCH  33  36
ATOM     36  C   LIG d   1       4.920  -2.419  -3.199  0.00  0.00    -0.053 C 
ATOM     37  H   LIG d   1       5.252  -3.380  -2.806  0.00  0.00     0.026 H 
ATOM     38  H   LIG d   1       5.738  -1.702  -3.143  0.00  0.00     0.026 H 
BRANCH  36  39
ATOM     39  C   LIG d   1       3.737  -1.911  -2.372  0.00  0.00    -0.053 C 
ATOM     40  H   LIG d   1       2.840  -2.467  -2.640  0.00  0.00     0.026 H 
ATOM     41  H   LIG d   1       3.949  -2.051  -1.311  0.00  0.00     0.026 H 
BRANCH  39  42
ATOM     42  C   LIG d   1       3.519  -0.423  -2.656  0.00  0.00    -0.053 C 
ATOM     43  H   LIG d   1       3.638  -0.236  -3.723  0.00  0.00     0.026 H 
ATOM     44  H   LIG d   1       2.513  -0.138  -2.347  0.00  0.00     0.026 H 
BRANCH  42  45
ATOM     45  C   LIG d   1       4.545   0.401  -1.876  0.00  0.00    -0.053 C 
ATOM     46  H   LIG d   1       4.031   1.019  -1.140  0.00  0.00     0.026 H 
ATOM     47  H   LIG d   1       5.238  -0.269  -1.367  0.00  0.00     0.026 H 
BRANCH  45  48
ATOM     48  C   LIG d   1       5.319   1.298  -2.843  0.00  0.00    -0.043 C 
ATOM     49  H   LIG d   1       4.736   1.441  -3.753  0.00  0.00     0.027 H 
ATOM     50  H   LIG d   1       5.503   2.265  -2.375  0.00  0.00     0.027 H 
BRANCH  48  51
ATOM     51  C   LIG d   1       6.655   0.638  -3.192  0.00  0.00     0.045 C 
ATOM     52  H   LIG d   1       7.173   0.358  -2.274  0.00  0.00     0.038 H 
ATOM     53  H   LIG d   1       6.474  -0.254  -3.793  0.00  0.00     0.038 H 
BRANCH  51  54
ATOM     54  C   LIG d   1       7.505   1.607  -3.973  0.00  0.00     0.307 C 
ATOM     55  O   LIG d   1       7.391   1.678  -5.174  0.00  0.00    -0.251 OA
BRANCH  54  56
ATOM     56  O   LIG d   1       8.388   2.391  -3.335  0.00  0.00    -0.468 OA
BRANCH  56  57
ATOM     57  C   LIG d   1       9.763   2.248  -3.696  0.00  0.00     0.082 C 
ATOM     58  H   LIG d   1      10.038   1.193  -3.667  0.00  0.00     0.066 H 
ATOM     59  H   LIG d   1       9.917   2.635  -4.704  0.00  0.00     0.066 H 
ATOM     60  H   LIG d   1      10.384   2.805  -2.994  0.00  0.00     0.066 H 
ENDBRANCH  56  57
ENDBRANCH  54  56
ENDBRANCH  51  54
ENDBRANCH  48  51
ENDBRANCH  45  48
ENDBRANCH  42  45
ENDBRANCH  39  42
ENDBRANCH  36  39
ENDBRANCH  33  36
ENDBRANCH   1  33
TORSDOF 20
ENDMDL
MODEL 7
REMARK VINA RESULT:      -4.9      2.224      6.567
REMARK  20 active torsions:
REMARK  status: ('A' for Active; 'I' for Inactive)
REMARK    1  A    between atoms: C_1  and  C_2 
REMARK    2  A    between atoms: C_2  and  C_3 
REMARK    3  A    between atoms: C_3  and  C_4 
REMARK    4  A    between atoms: C_4  and  C_5 
REMARK    5  A    between atoms: C_5  and  C_6 
REMARK    6  A    between atoms: C_6  and  C_7 
REMARK    7  A    between atoms: C_7  and  C_9 
REMARK    8  A    between atoms: C_7  and  O_23 
REMARK    9  A    between atoms: C_9  and  C_10 
REMARK   10  A    between atoms: C_10  and  C_11 
REMARK   11  A    between atoms: C_11  and  C_12 
REMARK   12  A    between atoms: C_12  and  C_13 
REMARK   13  A    between atoms: C_13  and  C_14 
REMARK   14  A    between atoms: C_14  and  C_15 
REMARK   15  A    between atoms: C_15  and  C_16 
REMARK   16  A    between atoms: C_16  and  C_17 
REMARK   17  A    between atoms: C_17  and  C_18 
REMARK   18  A    between atoms: C_18  and  C_19 
REMARK   19  A    between atoms: C_19  and  O_21 
REMARK   20  A    between atoms: O_21  and  C_22 
ROOT
ATOM      1  C   LIG d   1       7.292  -0.045  -6.020  0.00  0.00    -0.053 C 
ATOM      2  H   LIG d   1       8.015   0.770  -6.021  0.00  0.00     0.026 H 
ATOM      3  H   LIG d   1       7.815  -0.993  -6.140  0.00  0.00     0.026 H 
ENDROOT
BRANCH   1   4
ATOM      4  C   LIG d   1       6.530  -0.049  -4.693  0.00  0.00    -0.051 C 
ATOM      5  H   LIG d   1       5.534  -0.462  -4.848  0.00  0.00     0.027 H 
ATOM      6  H   LIG d   1       6.446   0.972  -4.319  0.00  0.00     0.027 H 
BRANCH   4   7
ATOM      7  C   LIG d   1       7.285  -0.904  -3.673  0.00  0.00    -0.027 C 
ATOM      8  H   LIG d   1       7.243  -0.426  -2.695  0.00  0.00     0.029 H 
ATOM      9  H   LIG d   1       8.324  -1.006  -3.984  0.00  0.00     0.029 H 
BRANCH   7  10
ATOM     10  C   LIG d   1       6.639  -2.289  -3.592  0.00  0.00     0.055 C 
ATOM     11  H   LIG d   1       6.607  -2.614  -2.552  0.00  0.00     0.059 H 
BRANCH  10  12
ATOM     12  C   LIG d   1       5.215  -2.221  -4.149  0.00  0.00    -0.027 C 
ATOM     13  H   LIG d   1       5.128  -2.887  -5.007  0.00  0.00     0.029 H 
ATOM     14  H   LIG d   1       4.995  -1.198  -4.457  0.00  0.00     0.029 H 
BRANCH  12  15
ATOM     15  C   LIG d   1       4.223  -2.651  -3.066  0.00  0.00    -0.051 C 
ATOM     16  H   LIG d   1       4.669  -3.437  -2.457  0.00  0.00     0.027 H 
ATOM     17  H   LIG d   1       3.313  -3.027  -3.535  0.00  0.00     0.027 H 
BRANCH  15  18
ATOM     18  C   LIG d   1       3.882  -1.451  -2.180  0.00  0.00    -0.053 C 
ATOM     19  H   LIG d   1       4.801  -0.949  -1.878  0.00  0.00     0.026 H 
ATOM     20  H   LIG d   1       3.347  -1.795  -1.294  0.00  0.00     0.026 H 
BRANCH  18  21
ATOM     21  C   LIG d   1       3.001  -0.474  -2.962  0.00  0.00    -0.053 C 
ATOM     22  H   LIG d   1       1.963  -0.593  -2.651  0.00  0.00     0.026 H 
ATOM     23  H   LIG d   1       3.088  -0.681  -4.029  0.00  0.00     0.026 H 
BRANCH  21  24
ATOM     24  C   LIG d   1       3.457   0.959  -2.682  0.00  0.00    -0.056 C 
ATOM     25  H   LIG d   1       2.624   1.533  -2.275  0.00  0.00     0.026 H 
ATOM     26  H   LIG d   1       3.796   1.420  -3.609  0.00  0.00     0.026 H 
BRANCH  24  27
ATOM     27  C   LIG d   1       4.606   0.940  -1.672  0.00  0.00    -0.065 C 
ATOM     28  H   LIG d   1       5.023  -0.065  -1.616  0.00  0.00     0.023 H 
ATOM     29  H   LIG d   1       5.380   1.639  -1.988  0.00  0.00     0.023 H 
ATOM     30  H   LIG d   1       4.231   1.233  -0.691  0.00  0.00     0.023 H 
ENDBRANCH  24  27
ENDBRANCH  21  24
ENDBRANCH  18  21
ENDBRANCH  15  18
ENDBRANCH  12  15
ENDBRANCH  10  12
BRANCH  10  31
ATOM     31  O   LIG d   1       7.406  -3.218  -4.358  0.00  0.00    -0.392 OA
ATOM     32  H   LIG d   1       8.105  -3.660  -3.857  0.00  0.00     0.210 HD
ENDBRANCH  10  31
ENDBRANCH   7  10
ENDBRANCH   4   7
ENDBRANCH   1   4
BRANCH   1  33
ATOM     33  C   LIG d   1       6.307   0.145  -7.174  0.00  0.00    -0.053 C 
ATOM     34  H   LIG d   1       5.440   0.706  -6.823  0.00  0.00     0.026 H 
ATOM     35  H   LIG d   1       6.792   0.694  -7.981  0.00  0.00     0.026 H 
BRANCH  33  36
ATOM     36  C   LIG d   1       5.854  -1.224  -7.688  0.00  0.00    -0.053 C 
ATOM     37  H   LIG d   1       6.222  -1.370  -8.703  0.00  0.00     0.026 H 
ATOM     38  H   LIG d   1       6.251  -2.005  -7.041  0.00  0.00     0.026 H 
BRANCH  36  39
ATOM     39  C   LIG d   1       4.325  -1.288  -7.685  0.00  0.00    -0.053 C 
ATOM     40  H   LIG d   1       3.948  -1.034  -8.676  0.00  0.00     0.026 H 
ATOM     41  H   LIG d   1       4.004  -2.297  -7.423  0.00  0.00     0.026 H 
BRANCH  39  42
ATOM     42  C   LIG d   1       3.774  -0.295  -6.660  0.00  0.00    -0.053 C 
ATOM     43  H   LIG d   1       3.600  -0.808  -5.714  0.00  0.00     0.026 H 
ATOM     44  H   LIG d   1       4.494   0.509  -6.509  0.00  0.00     0.026 H 
BRANCH  42  45
ATOM     45  C   LIG d   1       2.457   0.290  -7.173  0.00  0.00    -0.053 C 
ATOM     46  H   LIG d   1       1.638  -0.383  -6.921  0.00  0.00     0.026 H 
ATOM     47  H   LIG d   1       2.285   1.262  -6.709  0.00  0.00     0.026 H 
BRANCH  45  48
ATOM     48  C   LIG d   1       2.531   0.457  -8.692  0.00  0.00    -0.043 C 
ATOM     49  H   LIG d   1       3.268  -0.236  -9.098  0.00  0.00     0.027 H 
ATOM     50  H   LIG d   1       1.556   0.247  -9.130  0.00  0.00     0.027 H 
BRANCH  48  51
ATOM     51  C   LIG d   1       2.942   1.892  -9.027  0.00  0.00     0.045 C 
ATOM     52  H   LIG d   1       2.128   2.390  -9.555  0.00  0.00     0.038 H 
ATOM     53  H   LIG d   1       3.161   2.433  -8.106  0.00  0.00     0.038 H 
BRANCH  51  54
ATOM     54  C   LIG d   1       4.169   1.873  -9.902  0.00  0.00     0.307 C 
ATOM     55  O   LIG d   1       5.176   2.434  -9.542  0.00  0.00    -0.251 OA
BRANCH  54  56
ATOM     56  O   LIG d   1       4.143   1.232 -11.082  0.00  0.00    -0.468 OA
BRANCH  56  57
ATOM     57  C   LIG d   1       5.013   0.108 -11.229  0.00  0.00     0.082 C 
ATOM     58  H   LIG d   1       5.997   0.451 -11.550  0.00  0.00     0.066 H 
ATOM     59  H   LIG d   1       5.102  -0.410 -10.274  0.00  0.00     0.066 H 
ATOM     60  H   LIG d   1       4.604  -0.573 -11.976  0.00  0.00     0.066 H 
ENDBRANCH  56  57
ENDBRANCH  54  56
ENDBRANCH  51  54
ENDBRANCH  48  51
ENDBRANCH  45  48
ENDBRANCH  42  45
ENDBRANCH  39  42
ENDBRANCH  36  39
ENDBRANCH  33  36
ENDBRANCH   1  33
TORSDOF 20
ENDMDL
MODEL 8
REMARK VINA RESULT:      -4.9      2.298      4.037
REMARK  20 active torsions:
REMARK  status: ('A' for Active; 'I' for Inactive)
REMARK    1  A    between atoms: C_1  and  C_2 
REMARK    2  A    between atoms: C_2  and  C_3 
REMARK    3  A    between atoms: C_3  and  C_4 
REMARK    4  A    between atoms: C_4  and  C_5 
REMARK    5  A    between atoms: C_5  and  C_6 
REMARK    6  A    between atoms: C_6  and  C_7 
REMARK    7  A    between atoms: C_7  and  C_9 
REMARK    8  A    between atoms: C_7  and  O_23 
REMARK    9  A    between atoms: C_9  and  C_10 
REMARK   10  A    between atoms: C_10  and  C_11 
REMARK   11  A    between atoms: C_11  and  C_12 
REMARK   12  A    between atoms: C_12  and  C_13 
REMARK   13  A    between atoms: C_13  and  C_14 
REMARK   14  A    between atoms: C_14  and  C_15 
REMARK   15  A    between atoms: C_15  and  C_16 
REMARK   16  A    between atoms: C_16  and  C_17 
REMARK   17  A    between atoms: C_17  and  C_18 
REMARK   18  A    between atoms: C_18  and  C_19 
REMARK   19  A    between atoms: C_19  and  O_21 
REMARK   20  A    between atoms: O_21  and  C_22 
ROOT
ATOM      1  C   LIG d   1       3.143   1.108  -3.943  0.00  0.00    -0.053 C 
ATOM      2  H   LIG d   1       4.119   1.452  -4.285  0.00  0.00     0.026 H 
ATOM      3  H   LIG d   1       2.503   1.968  -3.749  0.00  0.00     0.026 H 
ENDROOT
BRANCH   1   4
ATOM      4  C   LIG d   1       2.504   0.232  -5.023  0.00  0.00    -0.051 C 
ATOM      5  H   LIG d   1       1.433   0.153  -4.840  0.00  0.00     0.027 H 
ATOM      6  H   LIG d   1       2.952  -0.762  -4.997  0.00  0.00     0.027 H 
BRANCH   4   7
ATOM      7  C   LIG d   1       2.742   0.863  -6.397  0.00  0.00    -0.027 C 
ATOM      8  H   LIG d   1       3.479   1.660  -6.309  0.00  0.00     0.029 H 
ATOM      9  H   LIG d   1       1.806   1.274  -6.774  0.00  0.00     0.029 H 
BRANCH   7  10
ATOM     10  C   LIG d   1       3.258  -0.204  -7.365  0.00  0.00     0.055 C 
ATOM     11  H   LIG d   1       2.472  -0.460  -8.077  0.00  0.00     0.059 H 
BRANCH  10  12
ATOM     12  C   LIG d   1       4.473   0.338  -8.120  0.00  0.00    -0.027 C 
ATOM     13  H   LIG d   1       4.749  -0.358  -8.913  0.00  0.00     0.029 H 
ATOM     14  H   LIG d   1       5.308   0.452  -7.429  0.00  0.00     0.029 H 
BRANCH  12  15
ATOM     15  C   LIG d   1       4.128   1.697  -8.732  0.00  0.00    -0.051 C 
ATOM     16  H   LIG d   1       5.047   2.240  -8.953  0.00  0.00     0.027 H 
ATOM     17  H   LIG d   1       3.527   2.272  -8.026  0.00  0.00     0.027 H 
BRANCH  15  18
ATOM     18  C   LIG d   1       3.336   1.489 -10.025  0.00  0.00    -0.053 C 
ATOM     19  H   LIG d   1       2.999   2.453 -10.404  0.00  0.00     0.026 H 
ATOM     20  H   LIG d   1       2.471   0.856  -9.821  0.00  0.00     0.026 H 
BRANCH  18  21
ATOM     21  C   LIG d   1       4.228   0.813 -11.068  0.00  0.00    -0.053 C 
ATOM     22  H   LIG d   1       5.109   0.397 -10.578  0.00  0.00     0.026 H 
ATOM     23  H   LIG d   1       4.538   1.548 -11.811  0.00  0.00     0.026 H 
BRANCH  21  24
ATOM     24  C   LIG d   1       3.449  -0.309 -11.756  0.00  0.00    -0.056 C 
ATOM     25  H   LIG d   1       4.082  -1.192 -11.841  0.00  0.00     0.026 H 
ATOM     26  H   LIG d   1       3.144   0.017 -12.749  0.00  0.00     0.026 H 
BRANCH  24  27
ATOM     27  C   LIG d   1       2.208  -0.649 -10.927  0.00  0.00    -0.065 C 
ATOM     28  H   LIG d   1       2.394  -1.555 -10.350  0.00  0.00     0.023 H 
ATOM     29  H   LIG d   1       1.986   0.175 -10.249  0.00  0.00     0.023 H 
ATOM     30  H   LIG d   1       1.360  -0.810 -11.593  0.00  0.00     0.023 H 
ENDBRANCH  24  27
ENDBRANCH  21  24
ENDBRANCH  18  21
ENDBRANCH  15  18
ENDBRANCH  12  15
ENDBRANCH  10  12
BRANCH  10  31
ATOM     31  O   LIG d   1       3.633  -1.371  -6.632  0.00  0.00    -0.392 OA
ATOM     32  H   LIG d   1       3.266  -2.193  -6.984  0.00  0.00     0.210 HD
ENDBRANCH  10  31
ENDBRANCH   7  10
ENDBRANCH   4   7
ENDBRANCH   1   4
BRANCH   1  33
ATOM     33  C   LIG d   1       3.310   0.295  -2.659  0.00  0.00    -0.053 C 
ATOM     34  H   LIG d   1       4.360   0.289  -2.366  0.00  0.00     0.026 H 
ATOM     35  H   LIG d   1       2.713   0.743  -1.864  0.00  0.00     0.026 H 
BRANCH  33  36
ATOM     36  C   LIG d   1       2.840  -1.142  -2.901  0.00  0.00    -0.053 C 
ATOM     37  H   LIG d   1       1.861  -1.285  -2.445  0.00  0.00     0.026 H 
ATOM     38  H   LIG d   1       2.772  -1.327  -3.973  0.00  0.00     0.026 H 
BRANCH  36  39
ATOM     39  C   LIG d   1       3.841  -2.117  -2.278  0.00  0.00    -0.053 C 
ATOM     40  H   LIG d   1       3.701  -2.141  -1.198  0.00  0.00     0.026 H 
ATOM     41  H   LIG d   1       3.680  -3.115  -2.688  0.00  0.00     0.026 H 
BRANCH  39  42
ATOM     42  C   LIG d   1       5.266  -1.659  -2.597  0.00  0.00    -0.053 C 
ATOM     43  H   LIG d   1       5.301  -0.570  -2.617  0.00  0.00     0.026 H 
ATOM     44  H   LIG d   1       5.947  -2.030  -1.833  0.00  0.00     0.026 H 
BRANCH  42  45
ATOM     45  C   LIG d   1       5.684  -2.208  -3.963  0.00  0.00    -0.053 C 
ATOM     46  H   LIG d   1       5.915  -3.269  -3.873  0.00  0.00     0.026 H 
ATOM     47  H   LIG d   1       4.869  -2.072  -4.674  0.00  0.00     0.026 H 
BRANCH  45  48
ATOM     48  C   LIG d   1       6.923  -1.457  -4.456  0.00  0.00    -0.043 C 
ATOM     49  H   LIG d   1       7.641  -1.366  -3.642  0.00  0.00     0.027 H 
ATOM     50  H   LIG d   1       7.376  -2.005  -5.281  0.00  0.00     0.027 H 
BRANCH  48  51
ATOM     51  C   LIG d   1       6.515  -0.062  -4.935  0.00  0.00     0.045 C 
ATOM     52  H   LIG d   1       6.802   0.063  -5.979  0.00  0.00     0.038 H 
ATOM     53  H   LIG d   1       5.435   0.055  -4.840  0.00  0.00     0.038 H 
BRANCH  51  54
ATOM     54  C   LIG d   1       7.208   0.980  -4.095  0.00  0.00     0.307 C 
ATOM     55  O   LIG d   1       6.571   1.648  -3.315  0.00  0.00    -0.251 OA
BRANCH  54  56
ATOM     56  O   LIG d   1       8.532   1.167  -4.214  0.00  0.00    -0.468 OA
BRANCH  56  57
ATOM     57  C   LIG d   1       9.083   2.326  -3.587  0.00  0.00     0.082 C 
ATOM     58  H   LIG d   1       9.458   2.061  -2.598  0.00  0.00     0.066 H 
ATOM     59  H   LIG d   1       9.900   2.714  -4.194  0.00  0.00     0.066 H 
ATOM     60  H   LIG d   1       8.309   3.089  -3.488  0.00  0.00     0.066 H 
ENDBRANCH  56  57
ENDBRANCH  54  56
ENDBRANCH  51  54
ENDBRANCH  48  51
ENDBRANCH  45  48
ENDBRANCH  42  45
ENDBRANCH  39  42
ENDBRANCH  36  39
ENDBRANCH  33  36
ENDBRANCH   1  33
TORSDOF 20
ENDMDL
MODEL 9
REMARK VINA RESULT:      -4.9      2.688      6.464
REMARK  20 active torsions:
REMARK  status: ('A' for Active; 'I' for Inactive)
REMARK    1  A    between atoms: C_1  and  C_2 
REMARK    2  A    between atoms: C_2  and  C_3 
REMARK    3  A    between atoms: C_3  and  C_4 
REMARK    4  A    between atoms: C_4  and  C_5 
REMARK    5  A    between atoms: C_5  and  C_6 
REMARK    6  A    between atoms: C_6  and  C_7 
REMARK    7  A    between atoms: C_7  and  C_9 
REMARK    8  A    between atoms: C_7  and  O_23 
REMARK    9  A    between atoms: C_9  and  C_10 
REMARK   10  A    between atoms: C_10  and  C_11 
REMARK   11  A    between atoms: C_11  and  C_12 
REMARK   12  A    between atoms: C_12  and  C_13 
REMARK   13  A    between atoms: C_13  and  C_14 
REMARK   14  A    between atoms: C_14  and  C_15 
REMARK   15  A    between atoms: C_15  and  C_16 
REMARK   16  A    between atoms: C_16  and  C_17 
REMARK   17  A    between atoms: C_17  and  C_18 
REMARK   18  A    between atoms: C_18  and  C_19 
REMARK   19  A    between atoms: C_19  and  O_21 
REMARK   20  A    between atoms: O_21  and  C_22 
ROOT
ATOM      1  C   LIG d   1       4.263  -0.884  -6.580  0.00  0.00    -0.053 C 
ATOM      2  H   LIG d   1       4.242  -1.480  -7.492  0.00  0.00     0.026 H 
ATOM      3  H   LIG d   1       4.053  -1.524  -5.724  0.00  0.00     0.026 H 
ENDROOT
BRANCH   1   4
ATOM      4  C   LIG d   1       5.647  -0.252  -6.416  0.00  0.00    -0.051 C 
ATOM      5  H   LIG d   1       5.556   0.682  -5.862  0.00  0.00     0.027 H 
ATOM      6  H   LIG d   1       6.073  -0.050  -7.400  0.00  0.00     0.027 H 
BRANCH   4   7
ATOM      7  C   LIG d   1       6.560  -1.212  -5.652  0.00  0.00    -0.027 C 
ATOM      8  H   LIG d   1       7.600  -0.990  -5.887  0.00  0.00     0.029 H 
ATOM      9  H   LIG d   1       6.333  -2.237  -5.943  0.00  0.00     0.029 H 
BRANCH   7  10
ATOM     10  C   LIG d   1       6.330  -1.046  -4.148  0.00  0.00     0.055 C 
ATOM     11  H   LIG d   1       5.527  -0.328  -3.981  0.00  0.00     0.059 H 
BRANCH  10  12
ATOM     12  C   LIG d   1       5.943  -2.395  -3.539  0.00  0.00    -0.027 C 
ATOM     13  H   LIG d   1       6.406  -2.498  -2.558  0.00  0.00     0.029 H 
ATOM     14  H   LIG d   1       6.287  -3.199  -4.190  0.00  0.00     0.029 H 
BRANCH  12  15
ATOM     15  C   LIG d   1       4.421  -2.472  -3.396  0.00  0.00    -0.051 C 
ATOM     16  H   LIG d   1       4.131  -3.493  -3.147  0.00  0.00     0.027 H 
ATOM     17  H   LIG d   1       3.952  -2.180  -4.337  0.00  0.00     0.027 H 
BRANCH  15  18
ATOM     18  C   LIG d   1       3.965  -1.526  -2.284  0.00  0.00    -0.053 C 
ATOM     19  H   LIG d   1       4.821  -0.964  -1.910  0.00  0.00     0.026 H 
ATOM     20  H   LIG d   1       3.527  -2.107  -1.471  0.00  0.00     0.026 H 
BRANCH  18  21
ATOM     21  C   LIG d   1       2.919  -0.555  -2.837  0.00  0.00    -0.053 C 
ATOM     22  H   LIG d   1       1.996  -0.652  -2.267  0.00  0.00     0.026 H 
ATOM     23  H   LIG d   1       2.727  -0.787  -3.885  0.00  0.00     0.026 H 
BRANCH  21  24
ATOM     24  C   LIG d   1       3.443   0.878  -2.721  0.00  0.00    -0.056 C 
ATOM     25  H   LIG d   1       2.634   1.537  -2.406  0.00  0.00     0.026 H 
ATOM     26  H   LIG d   1       3.823   1.206  -3.688  0.00  0.00     0.026 H 
BRANCH  24  27
ATOM     27  C   LIG d   1       4.571   0.926  -1.687  0.00  0.00    -0.065 C 
ATOM     28  H   LIG d   1       5.431   1.442  -2.113  0.00  0.00     0.023 H 
ATOM     29  H   LIG d   1       4.229   1.459  -0.800  0.00  0.00     0.023 H 
ATOM     30  H   LIG d   1       4.855  -0.090  -1.414  0.00  0.00     0.023 H 
ENDBRANCH  24  27
ENDBRANCH  21  24
ENDBRANCH  18  21
ENDBRANCH  15  18
ENDBRANCH  12  15
ENDBRANCH  10  12
BRANCH  10  31
ATOM     31  O   LIG d   1       7.529  -0.572  -3.533  0.00  0.00    -0.392 OA
ATOM     32  H   LIG d   1       8.261  -1.203  -3.558  0.00  0.00     0.210 HD
ENDBRANCH  10  31
ENDBRANCH   7  10
ENDBRANCH   4   7
ENDBRANCH   1   4
BRANCH   1  33
ATOM     33  C   LIG d   1       3.206   0.217  -6.666  0.00  0.00    -0.053 C 
ATOM     34  H   LIG d   1       2.352  -0.047  -6.041  0.00  0.00     0.026 H 
ATOM     35  H   LIG d   1       3.631   1.159  -6.319  0.00  0.00     0.026 H 
BRANCH  33  36
ATOM     36  C   LIG d   1       2.746   0.370  -8.118  0.00  0.00    -0.053 C 
ATOM     37  H   LIG d   1       3.401  -0.208  -8.769  0.00  0.00     0.026 H 
ATOM     38  H   LIG d   1       1.724   0.006  -8.216  0.00  0.00     0.026 H 
BRANCH  36  39
ATOM     39  C   LIG d   1       2.802   1.846  -8.518  0.00  0.00    -0.053 C 
ATOM     40  H   LIG d   1       2.082   2.035  -9.314  0.00  0.00     0.026 H 
ATOM     41  H   LIG d   1       2.559   2.466  -7.654  0.00  0.00     0.026 H 
BRANCH  39  42
ATOM     42  C   LIG d   1       4.209   2.188  -9.011  0.00  0.00    -0.053 C 
ATOM     43  H   LIG d   1       4.185   3.133  -9.553  0.00  0.00     0.026 H 
ATOM     44  H   LIG d   1       4.882   2.276  -8.159  0.00  0.00     0.026 H 
BRANCH  42  45
ATOM     45  C   LIG d   1       4.707   1.079  -9.940  0.00  0.00    -0.053 C 
ATOM     46  H   LIG d   1       5.758   1.246 -10.176  0.00  0.00     0.026 H 
ATOM     47  H   LIG d   1       4.594   0.113  -9.447  0.00  0.00     0.026 H 
BRANCH  45  48
ATOM     48  C   LIG d   1       3.887   1.091 -11.232  0.00  0.00    -0.043 C 
ATOM     49  H   LIG d   1       2.840   1.283 -10.996  0.00  0.00     0.027 H 
ATOM     50  H   LIG d   1       4.259   1.874 -11.892  0.00  0.00     0.027 H 
BRANCH  48  51
ATOM     51  C   LIG d   1       4.013  -0.266 -11.928  0.00  0.00     0.045 C 
ATOM     52  H   LIG d   1       3.998  -0.123 -13.009  0.00  0.00     0.038 H 
ATOM     53  H   LIG d   1       4.952  -0.738 -11.638  0.00  0.00     0.038 H 
BRANCH  51  54
ATOM     54  C   LIG d   1       2.861  -1.148 -11.522  0.00  0.00     0.307 C 
ATOM     55  O   LIG d   1       1.778  -1.003 -12.038  0.00  0.00    -0.251 OA
BRANCH  54  56
ATOM     56  O   LIG d   1       3.038  -2.097 -10.589  0.00  0.00    -0.468 OA
BRANCH  56  57
ATOM     57  C   LIG d   1       4.355  -2.633 -10.450  0.00  0.00     0.082 C 
ATOM     58  H   LIG d   1       4.292  -3.663 -10.097  0.00  0.00     0.066 H 
ATOM     59  H   LIG d   1       4.861  -2.610 -11.415  0.00  0.00     0.066 H 
ATOM     60  H   LIG d   1       4.917  -2.036  -9.731  0.00  0.00     0.066 H 
ENDBRANCH  56  57
ENDBRANCH  54  56
ENDBRANCH  51  54
ENDBRANCH  48  51
ENDBRANCH  45  48
ENDBRANCH  42  45
ENDBRANCH  39  42
ENDBRANCH  36  39
ENDBRANCH  33  36
ENDBRANCH   1  33
TORSDOF 20
ENDMDL
