MODEL 1
REMARK VINA RESULT:      -6.1      0.000      0.000
REMARK  9 active torsions:
REMARK  status: ('A' for Active; 'I' for Inactive)
REMARK    1  A    between atoms: C_1  and  C_2 
REMARK    2  A    between atoms: C_2  and  O_3 
REMARK    3  A    between atoms: O_3  and  C_4 
REMARK    4  A    between atoms: C_4  and  C_6 
REMARK    5  A    between atoms: C_7  and  N_33 
REMARK    6  A    between atoms: C_11  and  O_32 
REMARK    7  A    between atoms: C_25  and  C_30 
REMARK    8  A    between atoms: C_25  and  C_31 
REMARK    9  A    between atoms: C_27  and  C_29 
ROOT
ATOM      1  C   LIG d   1       4.421  -0.879  -5.276  0.00  0.00     0.117 C 
ATOM      2  C   LIG d   1       3.350  -0.072  -5.495  0.00  0.00     0.196 C 
ATOM      3  O   LIG d   1       3.242   0.678  -6.603  0.00  0.00    -0.441 OA
ATOM      4  C   LIG d   1       3.980   0.384  -7.701  0.00  0.00     0.138 A 
ATOM      5  C   LIG d   1       3.593   0.886  -8.936  0.00  0.00     0.022 A 
ATOM      6  C   LIG d   1       4.337   0.593 -10.067  0.00  0.00     0.120 A 
ATOM      7  C   LIG d   1       5.470  -0.202  -9.965  0.00  0.00    -0.020 A 
ATOM      8  C   LIG d   1       5.852  -0.702  -8.736  0.00  0.00    -0.050 A 
ATOM      9  C   LIG d   1       5.111  -0.413  -7.604  0.00  0.00     0.019 A 
ATOM     10  C   LIG d   1       5.539  -0.968  -6.273  0.00  0.00     0.139 A 
ATOM     11  C   LIG d   1       6.764  -0.276  -5.771  0.00  0.00    -0.002 A 
ATOM     12  C   LIG d   1       7.064   1.022  -5.418  0.00  0.00    -0.055 A 
ATOM     13  C   LIG d   1       8.364   1.275  -4.980  0.00  0.00    -0.061 A 
ATOM     14  C   LIG d   1       9.328   0.282  -4.896  0.00  0.00    -0.057 A 
ATOM     15  C   LIG d   1       9.033  -1.014  -5.249  0.00  0.00    -0.023 A 
ATOM     16  C   LIG d   1       7.733  -1.267  -5.687  0.00  0.00     0.045 A 
ATOM     17  N   LIG d   1       7.250  -2.510  -6.086  0.00  0.00    -0.264 N 
ATOM     18  C   LIG d   1       5.960  -2.420  -6.443  0.00  0.00     0.240 A 
ATOM     19  O   LIG d   1       5.257  -3.330  -6.830  0.00  0.00    -0.274 OA
ATOM     20  C   LIG d   1       8.136  -3.685  -6.079  0.00  0.00     0.037 C 
ATOM     21  C   LIG d   1       9.580  -3.207  -6.266  0.00  0.00    -0.025 C 
ATOM     22  C   LIG d   1       9.979  -2.178  -5.204  0.00  0.00    -0.015 C 
ATOM     23  H   LIG d   1       9.940  -2.640  -4.218  0.00  0.00     0.035 H 
ATOM     24  H   LIG d   1       2.713   1.505  -9.016  0.00  0.00     0.069 H 
ATOM     25  H   LIG d   1       6.052  -0.430 -10.846  0.00  0.00     0.065 H 
ATOM     26  H   LIG d   1       6.734  -1.321  -8.657  0.00  0.00     0.062 H 
ATOM     27  H   LIG d   1       6.326   1.807  -5.475  0.00  0.00     0.062 H 
ATOM     28  H   LIG d   1       8.629   2.282  -4.696  0.00  0.00     0.062 H 
ATOM     29  H   LIG d   1      10.320   0.528  -4.550  0.00  0.00     0.062 H 
ATOM     30  H   LIG d   1       9.680  -2.756  -7.253  0.00  0.00     0.029 H 
ATOM     31  H   LIG d   1      10.249  -4.065  -6.199  0.00  0.00     0.029 H 
ENDROOT
BRANCH   1  32
ATOM     32  C   LIG d   1       4.481  -1.641  -4.100  0.00  0.00     0.342 C 
ATOM     33  O   LIG d   1       3.887  -2.701  -4.032  0.00  0.00    -0.245 OA
BRANCH  32  34
ATOM     34  O   LIG d   1       5.199  -1.199  -3.046  0.00  0.00    -0.462 OA
BRANCH  34  35
ATOM     35  C   LIG d   1       4.467  -0.778  -1.893  0.00  0.00     0.090 C 
ATOM     36  H   LIG d   1       3.422  -1.070  -2.000  0.00  0.00     0.070 H 
ATOM     37  H   LIG d   1       4.887  -1.248  -1.003  0.00  0.00     0.070 H 
BRANCH  35  38
ATOM     38  C   LIG d   1       4.560   0.744  -1.757  0.00  0.00    -0.031 C 
ATOM     39  H   LIG d   1       5.384   0.999  -1.091  0.00  0.00     0.026 H 
ATOM     40  H   LIG d   1       4.735   1.186  -2.737  0.00  0.00     0.026 H 
ATOM     41  H   LIG d   1       3.628   1.129  -1.345  0.00  0.00     0.026 H 
ENDBRANCH  35  38
ENDBRANCH  34  35
ENDBRANCH  32  34
ENDBRANCH   1  32
BRANCH   2  42
ATOM     42  N   LIG d   1       2.352  -0.022  -4.559  0.00  0.00    -0.329 N 
ATOM     43  H   LIG d   1       1.424  -0.074  -4.835  0.00  0.00     0.145 HD
ATOM     44  H   LIG d   1       2.573   0.065  -3.618  0.00  0.00     0.145 HD
ENDBRANCH   2  42
BRANCH  20  45
ATOM     45  C   LIG d   1       7.752  -4.624  -7.225  0.00  0.00    -0.043 C 
ATOM     46  H   LIG d   1       6.747  -5.011  -7.056  0.00  0.00     0.025 H 
ATOM     47  H   LIG d   1       7.776  -4.077  -8.167  0.00  0.00     0.025 H 
ATOM     48  H   LIG d   1       8.458  -5.453  -7.267  0.00  0.00     0.025 H 
ENDBRANCH  20  45
BRANCH  20  49
ATOM     49  C   LIG d   1       8.005  -4.421  -4.744  0.00  0.00    -0.043 C 
ATOM     50  H   LIG d   1       6.950  -4.548  -4.501  0.00  0.00     0.025 H 
ATOM     51  H   LIG d   1       8.480  -5.399  -4.821  0.00  0.00     0.025 H 
ATOM     52  H   LIG d   1       8.491  -3.841  -3.960  0.00  0.00     0.025 H 
ENDBRANCH  20  49
BRANCH   6  53
ATOM     53  O   LIG d   1       3.959   1.085 -11.276  0.00  0.00    -0.507 OA
ATOM     54  H   LIG d   1       3.003   1.104 -11.412  0.00  0.00     0.292 HD
ENDBRANCH   6  53
BRANCH  22  55
ATOM     55  C   LIG d   1      11.403  -1.688  -5.479  0.00  0.00    -0.058 C 
ATOM     56  H   LIG d   1      11.538  -1.550  -6.552  0.00  0.00     0.024 H 
ATOM     57  H   LIG d   1      11.566  -0.741  -4.967  0.00  0.00     0.024 H 
ATOM     58  H   LIG d   1      12.117  -2.426  -5.116  0.00  0.00     0.024 H 
ENDBRANCH  22  55
TORSDOF 9
ENDMDL
MODEL 2
REMARK VINA RESULT:      -6.0      2.504      5.763
REMARK  9 active torsions:
REMARK  status: ('A' for Active; 'I' for Inactive)
REMARK    1  A    between atoms: C_1  and  C_2 
REMARK    2  A    between atoms: C_2  and  O_3 
REMARK    3  A    between atoms: O_3  and  C_4 
REMARK    4  A    between atoms: C_4  and  C_6 
REMARK    5  A    between atoms: C_7  and  N_33 
REMARK    6  A    between atoms: C_11  and  O_32 
REMARK    7  A    between atoms: C_25  and  C_30 
REMARK    8  A    between atoms: C_25  and  C_31 
REMARK    9  A    between atoms: C_27  and  C_29 
ROOT
ATOM      1  C   LIG d   1       6.336  -1.117  -5.450  0.00  0.00     0.117 C 
ATOM      2  C   LIG d   1       7.355  -1.673  -4.745  0.00  0.00     0.196 C 
ATOM      3  O   LIG d   1       8.407  -2.244  -5.351  0.00  0.00    -0.441 OA
ATOM      4  C   LIG d   1       8.686  -1.960  -6.647  0.00  0.00     0.138 A 
ATOM      5  C   LIG d   1       9.956  -2.222  -7.144  0.00  0.00     0.022 A 
ATOM      6  C   LIG d   1      10.256  -1.937  -8.465  0.00  0.00     0.120 A 
ATOM      7  C   LIG d   1       9.285  -1.389  -9.293  0.00  0.00    -0.020 A 
ATOM      8  C   LIG d   1       8.024  -1.128  -8.797  0.00  0.00    -0.050 A 
ATOM      9  C   LIG d   1       7.721  -1.410  -7.477  0.00  0.00     0.019 A 
ATOM     10  C   LIG d   1       6.343  -1.116  -6.951  0.00  0.00     0.139 A 
ATOM     11  C   LIG d   1       5.343  -2.085  -7.494  0.00  0.00    -0.002 A 
ATOM     12  C   LIG d   1       5.173  -3.450  -7.406  0.00  0.00    -0.055 A 
ATOM     13  C   LIG d   1       4.079  -3.997  -8.073  0.00  0.00    -0.061 A 
ATOM     14  C   LIG d   1       3.186  -3.222  -8.799  0.00  0.00    -0.057 A 
ATOM     15  C   LIG d   1       3.351  -1.860  -8.890  0.00  0.00    -0.023 A 
ATOM     16  C   LIG d   1       4.448  -1.313  -8.222  0.00  0.00     0.045 A 
ATOM     17  N   LIG d   1       4.779   0.038  -8.200  0.00  0.00    -0.264 N 
ATOM     18  C   LIG d   1       5.884   0.239  -7.466  0.00  0.00     0.240 A 
ATOM     19  O   LIG d   1       6.419   1.307  -7.251  0.00  0.00    -0.274 OA
ATOM     20  C   LIG d   1       3.954   1.015  -8.929  0.00  0.00     0.037 C 
ATOM     21  C   LIG d   1       3.277   0.299 -10.104  0.00  0.00    -0.025 C 
ATOM     22  C   LIG d   1       2.462  -0.910  -9.639  0.00  0.00    -0.015 C 
ATOM     23  H   LIG d   1       1.657  -0.577  -8.985  0.00  0.00     0.035 H 
ATOM     24  H   LIG d   1      10.710  -2.648  -6.500  0.00  0.00     0.069 H 
ATOM     25  H   LIG d   1       9.517  -1.167 -10.325  0.00  0.00     0.065 H 
ATOM     26  H   LIG d   1       7.269  -0.701  -9.442  0.00  0.00     0.062 H 
ATOM     27  H   LIG d   1       5.857  -4.068  -6.844  0.00  0.00     0.062 H 
ATOM     28  H   LIG d   1       3.920  -5.063  -8.023  0.00  0.00     0.062 H 
ATOM     29  H   LIG d   1       2.352  -3.692  -9.297  0.00  0.00     0.062 H 
ATOM     30  H   LIG d   1       4.043  -0.036 -10.805  0.00  0.00     0.029 H 
ATOM     31  H   LIG d   1       2.615   1.000 -10.613  0.00  0.00     0.029 H 
ENDROOT
BRANCH   1  32
ATOM     32  C   LIG d   1       5.261  -0.532  -4.765  0.00  0.00     0.342 C 
ATOM     33  O   LIG d   1       5.393   0.561  -4.245  0.00  0.00    -0.245 OA
BRANCH  32  34
ATOM     34  O   LIG d   1       4.080  -1.181  -4.682  0.00  0.00    -0.462 OA
BRANCH  34  35
ATOM     35  C   LIG d   1       3.361  -1.065  -3.452  0.00  0.00     0.090 C 
ATOM     36  H   LIG d   1       3.537  -0.081  -3.019  0.00  0.00     0.070 H 
ATOM     37  H   LIG d   1       2.295  -1.195  -3.640  0.00  0.00     0.070 H 
BRANCH  35  38
ATOM     38  C   LIG d   1       3.840  -2.144  -2.477  0.00  0.00    -0.031 C 
ATOM     39  H   LIG d   1       3.938  -1.714  -1.480  0.00  0.00     0.026 H 
ATOM     40  H   LIG d   1       3.118  -2.958  -2.452  0.00  0.00     0.026 H 
ATOM     41  H   LIG d   1       4.807  -2.525  -2.804  0.00  0.00     0.026 H 
ENDBRANCH  35  38
ENDBRANCH  34  35
ENDBRANCH  32  34
ENDBRANCH   1  32
BRANCH   2  42
ATOM     42  N   LIG d   1       7.308  -1.649  -3.377  0.00  0.00    -0.329 N 
ATOM     43  H   LIG d   1       8.069  -1.325  -2.870  0.00  0.00     0.145 HD
ATOM     44  H   LIG d   1       6.513  -1.957  -2.913  0.00  0.00     0.145 HD
ENDBRANCH   2  42
BRANCH  20  45
ATOM     45  C   LIG d   1       4.841   2.145  -9.456  0.00  0.00    -0.043 C 
ATOM     46  H   LIG d   1       4.326   2.666 -10.263  0.00  0.00     0.025 H 
ATOM     47  H   LIG d   1       5.054   2.847  -8.649  0.00  0.00     0.025 H 
ATOM     48  H   LIG d   1       5.775   1.729  -9.831  0.00  0.00     0.025 H 
ENDBRANCH  20  45
BRANCH  20  49
ATOM     49  C   LIG d   1       2.889   1.590  -7.994  0.00  0.00    -0.043 C 
ATOM     50  H   LIG d   1       1.914   1.544  -8.481  0.00  0.00     0.025 H 
ATOM     51  H   LIG d   1       2.861   1.008  -7.073  0.00  0.00     0.025 H 
ATOM     52  H   LIG d   1       3.129   2.627  -7.762  0.00  0.00     0.025 H 
ENDBRANCH  20  49
BRANCH   6  53
ATOM     53  O   LIG d   1      11.498  -2.194  -8.952  0.00  0.00    -0.507 OA
ATOM     54  H   LIG d   1      12.173  -2.304  -8.269  0.00  0.00     0.292 HD
ENDBRANCH   6  53
BRANCH  22  55
ATOM     55  C   LIG d   1       1.867  -1.623 -10.855  0.00  0.00    -0.058 C 
ATOM     56  H   LIG d   1       2.112  -1.064 -11.759  0.00  0.00     0.024 H 
ATOM     57  H   LIG d   1       2.281  -2.628 -10.926  0.00  0.00     0.024 H 
ATOM     58  H   LIG d   1       0.784  -1.682 -10.748  0.00  0.00     0.024 H 
ENDBRANCH  22  55
TORSDOF 9
ENDMDL
MODEL 3
REMARK VINA RESULT:      -5.8      1.772      2.043
REMARK  9 active torsions:
REMARK  status: ('A' for Active; 'I' for Inactive)
REMARK    1  A    between atoms: C_1  and  C_2 
REMARK    2  A    between atoms: C_2  and  O_3 
REMARK    3  A    between atoms: O_3  and  C_4 
REMARK    4  A    between atoms: C_4  and  C_6 
REMARK    5  A    between atoms: C_7  and  N_33 
REMARK    6  A    between atoms: C_11  and  O_32 
REMARK    7  A    between atoms: C_25  and  C_30 
REMARK    8  A    between atoms: C_25  and  C_31 
REMARK    9  A    between atoms: C_27  and  C_29 
ROOT
ATOM      1  C   LIG d   1       4.126  -0.222  -5.525  0.00  0.00     0.117 C 
ATOM      2  C   LIG d   1       3.029   0.498  -5.878  0.00  0.00     0.196 C 
ATOM      3  O   LIG d   1       2.528   0.462  -7.122  0.00  0.00    -0.441 OA
ATOM      4  C   LIG d   1       2.845  -0.558  -7.957  0.00  0.00     0.138 A 
ATOM      5  C   LIG d   1       2.043  -0.808  -9.062  0.00  0.00     0.022 A 
ATOM      6  C   LIG d   1       2.354  -1.846  -9.924  0.00  0.00     0.120 A 
ATOM      7  C   LIG d   1       3.468  -2.638  -9.681  0.00  0.00    -0.020 A 
ATOM      8  C   LIG d   1       4.263  -2.389  -8.580  0.00  0.00    -0.050 A 
ATOM      9  C   LIG d   1       3.955  -1.353  -7.717  0.00  0.00     0.019 A 
ATOM     10  C   LIG d   1       4.830  -1.097  -6.520  0.00  0.00     0.139 A 
ATOM     11  C   LIG d   1       6.139  -0.504  -6.929  0.00  0.00    -0.002 A 
ATOM     12  C   LIG d   1       6.516   0.665  -7.556  0.00  0.00    -0.055 A 
ATOM     13  C   LIG d   1       7.881   0.861  -7.762  0.00  0.00    -0.061 A 
ATOM     14  C   LIG d   1       8.834  -0.064  -7.362  0.00  0.00    -0.057 A 
ATOM     15  C   LIG d   1       8.463  -1.230  -6.737  0.00  0.00    -0.023 A 
ATOM     16  C   LIG d   1       7.097  -1.426  -6.532  0.00  0.00     0.045 A 
ATOM     17  N   LIG d   1       6.531  -2.541  -5.920  0.00  0.00    -0.264 N 
ATOM     18  C   LIG d   1       5.196  -2.423  -5.869  0.00  0.00     0.240 A 
ATOM     19  O   LIG d   1       4.421  -3.225  -5.391  0.00  0.00    -0.274 OA
ATOM     20  C   LIG d   1       7.389  -3.638  -5.442  0.00  0.00     0.037 C 
ATOM     21  C   LIG d   1       8.668  -3.659  -6.287  0.00  0.00    -0.025 C 
ATOM     22  C   LIG d   1       9.390  -2.309  -6.256  0.00  0.00    -0.015 C 
ATOM     23  H   LIG d   1       9.705  -2.088  -5.237  0.00  0.00     0.035 H 
ATOM     24  H   LIG d   1       1.176  -0.192  -9.251  0.00  0.00     0.069 H 
ATOM     25  H   LIG d   1       3.712  -3.448 -10.353  0.00  0.00     0.065 H 
ATOM     26  H   LIG d   1       5.130  -3.006  -8.392  0.00  0.00     0.062 H 
ATOM     27  H   LIG d   1       5.788   1.396  -7.872  0.00  0.00     0.062 H 
ATOM     28  H   LIG d   1       8.207   1.766  -8.250  0.00  0.00     0.062 H 
ATOM     29  H   LIG d   1       9.880   0.135  -7.543  0.00  0.00     0.062 H 
ATOM     30  H   LIG d   1       8.410  -3.901  -7.318  0.00  0.00     0.029 H 
ATOM     31  H   LIG d   1       9.336  -4.428  -5.899  0.00  0.00     0.029 H 
ENDROOT
BRANCH   1  32
ATOM     32  C   LIG d   1       4.607  -0.147  -4.210  0.00  0.00     0.342 C 
ATOM     33  O   LIG d   1       4.207  -0.933  -3.370  0.00  0.00    -0.245 OA
BRANCH  32  34
ATOM     34  O   LIG d   1       5.514   0.796  -3.875  0.00  0.00    -0.462 OA
BRANCH  34  35
ATOM     35  C   LIG d   1       6.795   0.338  -3.437  0.00  0.00     0.090 C 
ATOM     36  H   LIG d   1       6.816   0.304  -2.348  0.00  0.00     0.070 H 
ATOM     37  H   LIG d   1       6.980  -0.660  -3.836  0.00  0.00     0.070 H 
BRANCH  35  38
ATOM     38  C   LIG d   1       7.878   1.295  -3.938  0.00  0.00    -0.031 C 
ATOM     39  H   LIG d   1       7.667   1.574  -4.970  0.00  0.00     0.026 H 
ATOM     40  H   LIG d   1       7.890   2.189  -3.315  0.00  0.00     0.026 H 
ATOM     41  H   LIG d   1       8.850   0.803  -3.887  0.00  0.00     0.026 H 
ENDBRANCH  35  38
ENDBRANCH  34  35
ENDBRANCH  32  34
ENDBRANCH   1  32
BRANCH   2  42
ATOM     42  N   LIG d   1       2.418   1.283  -4.937  0.00  0.00    -0.329 N 
ATOM     43  H   LIG d   1       1.510   1.089  -4.659  0.00  0.00     0.145 HD
ATOM     44  H   LIG d   1       2.893   2.034  -4.549  0.00  0.00     0.145 HD
ENDBRANCH   2  42
BRANCH  20  45
ATOM     45  C   LIG d   1       6.650  -4.970  -5.594  0.00  0.00    -0.043 C 
ATOM     46  H   LIG d   1       5.739  -4.817  -6.172  0.00  0.00     0.025 H 
ATOM     47  H   LIG d   1       7.291  -5.685  -6.111  0.00  0.00     0.025 H 
ATOM     48  H   LIG d   1       6.394  -5.358  -4.608  0.00  0.00     0.025 H 
ENDBRANCH  20  45
BRANCH  20  49
ATOM     49  C   LIG d   1       7.745  -3.412  -3.973  0.00  0.00    -0.043 C 
ATOM     50  H   LIG d   1       7.299  -2.477  -3.630  0.00  0.00     0.025 H 
ATOM     51  H   LIG d   1       7.360  -4.237  -3.374  0.00  0.00     0.025 H 
ATOM     52  H   LIG d   1       8.828  -3.357  -3.864  0.00  0.00     0.025 H 
ENDBRANCH  20  49
BRANCH   6  53
ATOM     53  O   LIG d   1       1.569  -2.091 -11.007  0.00  0.00    -0.507 OA
ATOM     54  H   LIG d   1       0.700  -1.670 -10.965  0.00  0.00     0.292 HD
ENDBRANCH   6  53
BRANCH  22  55
ATOM     55  C   LIG d   1      10.618  -2.366  -7.167  0.00  0.00    -0.058 C 
ATOM     56  H   LIG d   1      11.161  -3.295  -6.986  0.00  0.00     0.024 H 
ATOM     57  H   LIG d   1      10.302  -2.328  -8.208  0.00  0.00     0.024 H 
ATOM     58  H   LIG d   1      11.269  -1.519  -6.952  0.00  0.00     0.024 H 
ENDBRANCH  22  55
TORSDOF 9
ENDMDL
MODEL 4
REMARK VINA RESULT:      -5.8      8.577     10.572
REMARK  9 active torsions:
REMARK  status: ('A' for Active; 'I' for Inactive)
REMARK    1  A    between atoms: C_1  and  C_2 
REMARK    2  A    between atoms: C_2  and  O_3 
REMARK    3  A    between atoms: O_3  and  C_4 
REMARK    4  A    between atoms: C_4  and  C_6 
REMARK    5  A    between atoms: C_7  and  N_33 
REMARK    6  A    between atoms: C_11  and  O_32 
REMARK    7  A    between atoms: C_25  and  C_30 
REMARK    8  A    between atoms: C_25  and  C_31 
REMARK    9  A    between atoms: C_27  and  C_29 
ROOT
ATOM      1  C   LIG d   1       9.894   8.897  -2.272  0.00  0.00     0.117 C 
ATOM      2  C   LIG d   1       9.519  10.199  -2.165  0.00  0.00     0.196 C 
ATOM      3  O   LIG d   1       9.672  11.065  -3.178  0.00  0.00    -0.441 OA
ATOM      4  C   LIG d   1       9.841  10.612  -4.444  0.00  0.00     0.138 A 
ATOM      5  C   LIG d   1       9.603  11.468  -5.511  0.00  0.00     0.022 A 
ATOM      6  C   LIG d   1       9.771  11.020  -6.811  0.00  0.00     0.120 A 
ATOM      7  C   LIG d   1      10.177   9.714  -7.046  0.00  0.00    -0.020 A 
ATOM      8  C   LIG d   1      10.411   8.863  -5.984  0.00  0.00    -0.050 A 
ATOM      9  C   LIG d   1      10.243   9.307  -4.684  0.00  0.00     0.019 A 
ATOM     10  C   LIG d   1      10.499   8.367  -3.538  0.00  0.00     0.139 A 
ATOM     11  C   LIG d   1      11.962   8.111  -3.370  0.00  0.00    -0.002 A 
ATOM     12  C   LIG d   1      13.053   8.899  -3.074  0.00  0.00    -0.055 A 
ATOM     13  C   LIG d   1      14.292   8.264  -3.001  0.00  0.00    -0.061 A 
ATOM     14  C   LIG d   1      14.444   6.902  -3.213  0.00  0.00    -0.057 A 
ATOM     15  C   LIG d   1      13.359   6.112  -3.510  0.00  0.00    -0.023 A 
ATOM     16  C   LIG d   1      12.119   6.748  -3.584  0.00  0.00     0.045 A 
ATOM     17  N   LIG d   1      10.912   6.118  -3.872  0.00  0.00    -0.264 N 
ATOM     18  C   LIG d   1       9.905   7.004  -3.860  0.00  0.00     0.240 A 
ATOM     19  O   LIG d   1       8.734   6.763  -4.067  0.00  0.00    -0.274 OA
ATOM     20  C   LIG d   1      10.878   4.672  -4.143  0.00  0.00     0.037 C 
ATOM     21  C   LIG d   1      12.241   4.250  -4.703  0.00  0.00    -0.025 C 
ATOM     22  C   LIG d   1      13.386   4.633  -3.761  0.00  0.00    -0.015 C 
ATOM     23  H   LIG d   1      13.271   4.103  -2.816  0.00  0.00     0.035 H 
ATOM     24  H   LIG d   1       9.287  12.484  -5.329  0.00  0.00     0.069 H 
ATOM     25  H   LIG d   1      10.309   9.362  -8.059  0.00  0.00     0.065 H 
ATOM     26  H   LIG d   1      10.727   7.846  -6.168  0.00  0.00     0.062 H 
ATOM     27  H   LIG d   1      12.952   9.960  -2.904  0.00  0.00     0.062 H 
ATOM     28  H   LIG d   1      15.165   8.855  -2.770  0.00  0.00     0.062 H 
ATOM     29  H   LIG d   1      15.425   6.457  -3.144  0.00  0.00     0.062 H 
ATOM     30  H   LIG d   1      12.396   4.736  -5.667  0.00  0.00     0.029 H 
ATOM     31  H   LIG d   1      12.246   3.169  -4.848  0.00  0.00     0.029 H 
ENDROOT
BRANCH   1  32
ATOM     32  C   LIG d   1       9.711   8.035  -1.181  0.00  0.00     0.342 C 
ATOM     33  O   LIG d   1       8.595   7.637  -0.900  0.00  0.00    -0.245 OA
BRANCH  32  34
ATOM     34  O   LIG d   1      10.772   7.646  -0.442  0.00  0.00    -0.462 OA
BRANCH  34  35
ATOM     35  C   LIG d   1      10.814   6.275  -0.039  0.00  0.00     0.090 C 
ATOM     36  H   LIG d   1      10.401   6.179   0.965  0.00  0.00     0.070 H 
ATOM     37  H   LIG d   1      10.227   5.674  -0.733  0.00  0.00     0.070 H 
BRANCH  35  38
ATOM     38  C   LIG d   1      12.265   5.786  -0.042  0.00  0.00    -0.031 C 
ATOM     39  H   LIG d   1      12.915   6.580  -0.411  0.00  0.00     0.026 H 
ATOM     40  H   LIG d   1      12.560   5.517   0.972  0.00  0.00     0.026 H 
ATOM     41  H   LIG d   1      12.353   4.914  -0.690  0.00  0.00     0.026 H 
ENDBRANCH  35  38
ENDBRANCH  34  35
ENDBRANCH  32  34
ENDBRANCH   1  32
BRANCH   2  42
ATOM     42  N   LIG d   1       8.970  10.638  -0.990  0.00  0.00    -0.329 N 
ATOM     43  H   LIG d   1       8.466  10.028  -0.431  0.00  0.00     0.145 HD
ATOM     44  H   LIG d   1       9.085  11.562  -0.717  0.00  0.00     0.145 HD
ENDBRANCH   2  42
BRANCH  20  45
ATOM     45  C   LIG d   1       9.783   4.367  -5.168  0.00  0.00    -0.043 C 
ATOM     46  H   LIG d   1       9.006   5.128  -5.107  0.00  0.00     0.025 H 
ATOM     47  H   LIG d   1      10.213   4.366  -6.170  0.00  0.00     0.025 H 
ATOM     48  H   LIG d   1       9.350   3.389  -4.957  0.00  0.00     0.025 H 
ENDBRANCH  20  45
BRANCH  20  49
ATOM     49  C   LIG d   1      10.596   3.911  -2.846  0.00  0.00    -0.043 C 
ATOM     50  H   LIG d   1      10.076   2.981  -3.076  0.00  0.00     0.025 H 
ATOM     51  H   LIG d   1      11.537   3.686  -2.345  0.00  0.00     0.025 H 
ATOM     52  H   LIG d   1       9.973   4.523  -2.193  0.00  0.00     0.025 H 
ENDBRANCH  20  49
BRANCH   6  53
ATOM     53  O   LIG d   1       9.539  11.858  -7.855  0.00  0.00    -0.507 OA
ATOM     54  H   LIG d   1      10.229  11.844  -8.532  0.00  0.00     0.292 HD
ENDBRANCH   6  53
BRANCH  22  55
ATOM     55  C   LIG d   1      14.722   4.249  -4.400  0.00  0.00    -0.058 C 
ATOM     56  H   LIG d   1      15.449   4.028  -3.617  0.00  0.00     0.024 H 
ATOM     57  H   LIG d   1      14.586   3.369  -5.027  0.00  0.00     0.024 H 
ATOM     58  H   LIG d   1      15.085   5.077  -5.008  0.00  0.00     0.024 H 
ENDBRANCH  22  55
TORSDOF 9
ENDMDL
MODEL 5
REMARK VINA RESULT:      -5.8      9.525     11.599
REMARK  9 active torsions:
REMARK  status: ('A' for Active; 'I' for Inactive)
REMARK    1  A    between atoms: C_1  and  C_2 
REMARK    2  A    between atoms: C_2  and  O_3 
REMARK    3  A    between atoms: O_3  and  C_4 
REMARK    4  A    between atoms: C_4  and  C_6 
REMARK    5  A    between atoms: C_7  and  N_33 
REMARK    6  A    between atoms: C_11  and  O_32 
REMARK    7  A    between atoms: C_25  and  C_30 
REMARK    8  A    between atoms: C_25  and  C_31 
REMARK    9  A    between atoms: C_27  and  C_29 
ROOT
ATOM      1  C   LIG d   1       9.543   9.949  -2.562  0.00  0.00     0.117 C 
ATOM      2  C   LIG d   1       8.892  10.761  -3.434  0.00  0.00     0.196 C 
ATOM      3  O   LIG d   1       9.085  10.678  -4.759  0.00  0.00    -0.441 OA
ATOM      4  C   LIG d   1       9.624   9.559  -5.301  0.00  0.00     0.138 A 
ATOM      5  C   LIG d   1       9.460   9.312  -6.658  0.00  0.00     0.022 A 
ATOM      6  C   LIG d   1      10.005   8.172  -7.226  0.00  0.00     0.120 A 
ATOM      7  C   LIG d   1      10.716   7.277  -6.439  0.00  0.00    -0.020 A 
ATOM      8  C   LIG d   1      10.877   7.524  -5.090  0.00  0.00    -0.050 A 
ATOM      9  C   LIG d   1      10.333   8.660  -4.518  0.00  0.00     0.019 A 
ATOM     10  C   LIG d   1      10.514   8.912  -3.046  0.00  0.00     0.139 A 
ATOM     11  C   LIG d   1      11.922   9.308  -2.739  0.00  0.00    -0.002 A 
ATOM     12  C   LIG d   1      12.730  10.364  -3.102  0.00  0.00    -0.055 A 
ATOM     13  C   LIG d   1      14.026  10.377  -2.586  0.00  0.00    -0.061 A 
ATOM     14  C   LIG d   1      14.501   9.383  -1.744  0.00  0.00    -0.057 A 
ATOM     15  C   LIG d   1      13.699   8.328  -1.380  0.00  0.00    -0.023 A 
ATOM     16  C   LIG d   1      12.403   8.315  -1.896  0.00  0.00     0.045 A 
ATOM     17  N   LIG d   1      11.450   7.333  -1.643  0.00  0.00    -0.264 N 
ATOM     18  C   LIG d   1      10.305   7.614  -2.282  0.00  0.00     0.240 A 
ATOM     19  O   LIG d   1       9.286   6.955  -2.254  0.00  0.00    -0.274 OA
ATOM     20  C   LIG d   1      11.780   6.187  -0.780  0.00  0.00     0.037 C 
ATOM     21  C   LIG d   1      13.291   5.941  -0.854  0.00  0.00    -0.025 C 
ATOM     22  C   LIG d   1      14.089   7.193  -0.479  0.00  0.00    -0.015 C 
ATOM     23  H   LIG d   1      13.878   7.462   0.556  0.00  0.00     0.035 H 
ATOM     24  H   LIG d   1       8.907  10.008  -7.270  0.00  0.00     0.069 H 
ATOM     25  H   LIG d   1      11.143   6.389  -6.881  0.00  0.00     0.065 H 
ATOM     26  H   LIG d   1      11.431   6.827  -4.477  0.00  0.00     0.062 H 
ATOM     27  H   LIG d   1      12.376  11.147  -3.755  0.00  0.00     0.062 H 
ATOM     28  H   LIG d   1      14.682  11.191  -2.853  0.00  0.00     0.062 H 
ATOM     29  H   LIG d   1      15.513   9.440  -1.369  0.00  0.00     0.062 H 
ATOM     30  H   LIG d   1      13.553   5.643  -1.870  0.00  0.00     0.029 H 
ATOM     31  H   LIG d   1      13.553   5.134  -0.169  0.00  0.00     0.029 H 
ENDROOT
BRANCH   1  32
ATOM     32  C   LIG d   1       9.303  10.079  -1.186  0.00  0.00     0.342 C 
ATOM     33  O   LIG d   1       8.349   9.518  -0.679  0.00  0.00    -0.245 OA
BRANCH  32  34
ATOM     34  O   LIG d   1      10.131  10.826  -0.424  0.00  0.00    -0.462 OA
BRANCH  34  35
ATOM     35  C   LIG d   1      10.717  10.189   0.713  0.00  0.00     0.090 C 
ATOM     36  H   LIG d   1      10.105  10.382   1.594  0.00  0.00     0.070 H 
ATOM     37  H   LIG d   1      10.775   9.114   0.538  0.00  0.00     0.070 H 
BRANCH  35  38
ATOM     38  C   LIG d   1      12.126  10.744   0.939  0.00  0.00    -0.031 C 
ATOM     39  H   LIG d   1      12.152  11.795   0.653  0.00  0.00     0.026 H 
ATOM     40  H   LIG d   1      12.390  10.647   1.991  0.00  0.00     0.026 H 
ATOM     41  H   LIG d   1      12.838  10.185   0.332  0.00  0.00     0.026 H 
ENDBRANCH  35  38
ENDBRANCH  34  35
ENDBRANCH  32  34
ENDBRANCH   1  32
BRANCH   2  42
ATOM     42  N   LIG d   1       8.014  11.692  -2.947  0.00  0.00    -0.329 N 
ATOM     43  H   LIG d   1       7.081  11.662  -3.209  0.00  0.00     0.145 HD
ATOM     44  H   LIG d   1       8.325  12.382  -2.340  0.00  0.00     0.145 HD
ENDBRANCH   2  42
BRANCH  20  45
ATOM     45  C   LIG d   1      11.031   4.945  -1.269  0.00  0.00    -0.043 C 
ATOM     46  H   LIG d   1      10.150   5.250  -1.834  0.00  0.00     0.025 H 
ATOM     47  H   LIG d   1      11.686   4.354  -1.909  0.00  0.00     0.025 H 
ATOM     48  H   LIG d   1      10.723   4.345  -0.412  0.00  0.00     0.025 H 
ENDBRANCH  20  45
BRANCH  20  49
ATOM     49  C   LIG d   1      11.378   6.496   0.663  0.00  0.00    -0.043 C 
ATOM     50  H   LIG d   1      11.495   5.600   1.273  0.00  0.00     0.025 H 
ATOM     51  H   LIG d   1      12.016   7.287   1.056  0.00  0.00     0.025 H 
ATOM     52  H   LIG d   1      10.337   6.820   0.690  0.00  0.00     0.025 H 
ENDBRANCH  20  49
BRANCH   6  53
ATOM     53  O   LIG d   1       9.845   7.931  -8.554  0.00  0.00    -0.507 OA
ATOM     54  H   LIG d   1      10.614   8.162  -9.092  0.00  0.00     0.292 HD
ENDBRANCH   6  53
BRANCH  22  55
ATOM     55  C   LIG d   1      15.585   6.910  -0.635  0.00  0.00    -0.058 C 
ATOM     56  H   LIG d   1      15.723   5.974  -1.178  0.00  0.00     0.024 H 
ATOM     57  H   LIG d   1      16.053   7.723  -1.187  0.00  0.00     0.024 H 
ATOM     58  H   LIG d   1      16.043   6.827   0.351  0.00  0.00     0.024 H 
ENDBRANCH  22  55
TORSDOF 9
ENDMDL
MODEL 6
REMARK VINA RESULT:      -5.6      9.110     12.219
REMARK  9 active torsions:
REMARK  status: ('A' for Active; 'I' for Inactive)
REMARK    1  A    between atoms: C_1  and  C_2 
REMARK    2  A    between atoms: C_2  and  O_3 
REMARK    3  A    between atoms: O_3  and  C_4 
REMARK    4  A    between atoms: C_4  and  C_6 
REMARK    5  A    between atoms: C_7  and  N_33 
REMARK    6  A    between atoms: C_11  and  O_32 
REMARK    7  A    between atoms: C_25  and  C_30 
REMARK    8  A    between atoms: C_25  and  C_31 
REMARK    9  A    between atoms: C_27  and  C_29 
ROOT
ATOM      1  C   LIG d   1      11.117   7.287  -0.733  0.00  0.00     0.117 C 
ATOM      2  C   LIG d   1      11.623   6.460   0.219  0.00  0.00     0.196 C 
ATOM      3  O   LIG d   1      12.674   5.661  -0.022  0.00  0.00    -0.441 OA
ATOM      4  C   LIG d   1      13.499   5.916  -1.067  0.00  0.00     0.138 A 
ATOM      5  C   LIG d   1      14.770   5.356  -1.084  0.00  0.00     0.022 A 
ATOM      6  C   LIG d   1      15.624   5.607  -2.144  0.00  0.00     0.120 A 
ATOM      7  C   LIG d   1      15.209   6.419  -3.191  0.00  0.00    -0.020 A 
ATOM      8  C   LIG d   1      13.946   6.976  -3.172  0.00  0.00    -0.050 A 
ATOM      9  C   LIG d   1      13.090   6.729  -2.114  0.00  0.00     0.019 A 
ATOM     10  C   LIG d   1      11.719   7.346  -2.106  0.00  0.00     0.139 A 
ATOM     11  C   LIG d   1      10.829   6.690  -3.112  0.00  0.00    -0.002 A 
ATOM     12  C   LIG d   1      10.342   5.412  -3.283  0.00  0.00    -0.055 A 
ATOM     13  C   LIG d   1       9.510   5.192  -4.380  0.00  0.00    -0.061 A 
ATOM     14  C   LIG d   1       9.174   6.199  -5.272  0.00  0.00    -0.057 A 
ATOM     15  C   LIG d   1       9.658   7.475  -5.107  0.00  0.00    -0.023 A 
ATOM     16  C   LIG d   1      10.491   7.694  -4.008  0.00  0.00     0.045 A 
ATOM     17  N   LIG d   1      11.076   8.913  -3.678  0.00  0.00    -0.264 N 
ATOM     18  C   LIG d   1      11.813   8.793  -2.564  0.00  0.00     0.240 A 
ATOM     19  O   LIG d   1      12.441   9.678  -2.019  0.00  0.00    -0.274 OA
ATOM     20  C   LIG d   1      10.846  10.098  -4.521  0.00  0.00     0.037 C 
ATOM     21  C   LIG d   1      10.551   9.627  -5.950  0.00  0.00    -0.025 C 
ATOM     22  C   LIG d   1       9.373   8.651  -5.995  0.00  0.00    -0.015 C 
ATOM     23  H   LIG d   1       8.470   9.154  -5.651  0.00  0.00     0.035 H 
ATOM     24  H   LIG d   1      15.092   4.725  -0.270  0.00  0.00     0.069 H 
ATOM     25  H   LIG d   1      15.874   6.615  -4.019  0.00  0.00     0.065 H 
ATOM     26  H   LIG d   1      13.624   7.608  -3.987  0.00  0.00     0.062 H 
ATOM     27  H   LIG d   1      10.591   4.617  -2.597  0.00  0.00     0.062 H 
ATOM     28  H   LIG d   1       9.113   4.201  -4.540  0.00  0.00     0.062 H 
ATOM     29  H   LIG d   1       8.525   5.979  -6.106  0.00  0.00     0.062 H 
ATOM     30  H   LIG d   1      11.437   9.135  -6.352  0.00  0.00     0.029 H 
ATOM     31  H   LIG d   1      10.318  10.495  -6.568  0.00  0.00     0.029 H 
ENDROOT
BRANCH   1  32
ATOM     32  C   LIG d   1      10.016   8.100  -0.426  0.00  0.00     0.342 C 
ATOM     33  O   LIG d   1       8.904   7.790  -0.812  0.00  0.00    -0.245 OA
BRANCH  32  34
ATOM     34  O   LIG d   1      10.190   9.227   0.298  0.00  0.00    -0.462 OA
BRANCH  34  35
ATOM     35  C   LIG d   1       9.543  10.409  -0.177  0.00  0.00     0.090 C 
ATOM     36  H   LIG d   1       9.417  10.346  -1.257  0.00  0.00     0.070 H 
ATOM     37  H   LIG d   1       8.566  10.505   0.299  0.00  0.00     0.070 H 
BRANCH  35  38
ATOM     38  C   LIG d   1      10.398  11.632   0.166  0.00  0.00    -0.031 C 
ATOM     39  H   LIG d   1      10.084  12.036   1.128  0.00  0.00     0.026 H 
ATOM     40  H   LIG d   1      11.446  11.339   0.219  0.00  0.00     0.026 H 
ATOM     41  H   LIG d   1      10.272  12.391  -0.606  0.00  0.00     0.026 H 
ENDBRANCH  35  38
ENDBRANCH  34  35
ENDBRANCH  32  34
ENDBRANCH   1  32
BRANCH   2  42
ATOM     42  N   LIG d   1      11.043   6.440   1.459  0.00  0.00    -0.329 N 
ATOM     43  H   LIG d   1      10.676   7.254   1.837  0.00  0.00     0.145 HD
ATOM     44  H   LIG d   1      11.000   5.611   1.962  0.00  0.00     0.145 HD
ENDBRANCH   2  42
BRANCH  20  45
ATOM     45  C   LIG d   1      12.095  10.981  -4.516  0.00  0.00    -0.043 C 
ATOM     46  H   LIG d   1      11.803  12.023  -4.388  0.00  0.00     0.025 H 
ATOM     47  H   LIG d   1      12.748  10.684  -3.695  0.00  0.00     0.025 H 
ATOM     48  H   LIG d   1      12.625  10.867  -5.462  0.00  0.00     0.025 H 
ENDBRANCH  20  45
BRANCH  20  49
ATOM     49  C   LIG d   1       9.653  10.889  -3.983  0.00  0.00    -0.043 C 
ATOM     50  H   LIG d   1      10.013  11.734  -3.395  0.00  0.00     0.025 H 
ATOM     51  H   LIG d   1       9.055  11.257  -4.816  0.00  0.00     0.025 H 
ATOM     52  H   LIG d   1       9.041  10.243  -3.353  0.00  0.00     0.025 H 
ENDBRANCH  20  49
BRANCH   6  53
ATOM     53  O   LIG d   1      16.868   5.059  -2.161  0.00  0.00    -0.507 OA
ATOM     54  H   LIG d   1      17.346   5.194  -2.990  0.00  0.00     0.292 HD
ENDBRANCH   6  53
BRANCH  22  55
ATOM     55  C   LIG d   1       9.168   8.165  -7.431  0.00  0.00    -0.058 C 
ATOM     56  H   LIG d   1       8.115   7.928  -7.588  0.00  0.00     0.024 H 
ATOM     57  H   LIG d   1       9.472   8.946  -8.127  0.00  0.00     0.024 H 
ATOM     58  H   LIG d   1       9.769   7.272  -7.602  0.00  0.00     0.024 H 
ENDBRANCH  22  55
TORSDOF 9
ENDMDL
MODEL 7
REMARK VINA RESULT:      -5.4     10.548     13.740
REMARK  9 active torsions:
REMARK  status: ('A' for Active; 'I' for Inactive)
REMARK    1  A    between atoms: C_1  and  C_2 
REMARK    2  A    between atoms: C_2  and  O_3 
REMARK    3  A    between atoms: O_3  and  C_4 
REMARK    4  A    between atoms: C_4  and  C_6 
REMARK    5  A    between atoms: C_7  and  N_33 
REMARK    6  A    between atoms: C_11  and  O_32 
REMARK    7  A    between atoms: C_25  and  C_30 
REMARK    8  A    between atoms: C_25  and  C_31 
REMARK    9  A    between atoms: C_27  and  C_29 
ROOT
ATOM      1  C   LIG d   1      10.878   7.671  -0.646  0.00  0.00     0.117 C 
ATOM      2  C   LIG d   1      11.133   7.036   0.528  0.00  0.00     0.196 C 
ATOM      3  O   LIG d   1      11.808   7.632   1.523  0.00  0.00    -0.441 OA
ATOM      4  C   LIG d   1      11.925   8.982   1.556  0.00  0.00     0.138 A 
ATOM      5  C   LIG d   1      12.260   9.608   2.749  0.00  0.00     0.022 A 
ATOM      6  C   LIG d   1      12.383  10.987   2.799  0.00  0.00     0.120 A 
ATOM      7  C   LIG d   1      12.171  11.743   1.654  0.00  0.00    -0.020 A 
ATOM      8  C   LIG d   1      11.836  11.119   0.469  0.00  0.00    -0.050 A 
ATOM      9  C   LIG d   1      11.710   9.742   0.416  0.00  0.00     0.019 A 
ATOM     10  C   LIG d   1      11.341   9.078  -0.882  0.00  0.00     0.139 A 
ATOM     11  C   LIG d   1      12.482   9.114  -1.847  0.00  0.00    -0.002 A 
ATOM     12  C   LIG d   1      13.760   8.597  -1.852  0.00  0.00    -0.055 A 
ATOM     13  C   LIG d   1      14.544   8.856  -2.975  0.00  0.00    -0.061 A 
ATOM     14  C   LIG d   1      14.080   9.598  -4.052  0.00  0.00    -0.057 A 
ATOM     15  C   LIG d   1      12.806  10.116  -4.051  0.00  0.00    -0.023 A 
ATOM     16  C   LIG d   1      12.023   9.857  -2.926  0.00  0.00     0.045 A 
ATOM     17  N   LIG d   1      10.715  10.297  -2.743  0.00  0.00    -0.264 N 
ATOM     18  C   LIG d   1      10.239   9.875  -1.562  0.00  0.00     0.240 A 
ATOM     19  O   LIG d   1       9.130  10.089  -1.117  0.00  0.00    -0.274 OA
ATOM     20  C   LIG d   1      10.057  11.114  -3.775  0.00  0.00     0.037 C 
ATOM     21  C   LIG d   1      11.136  11.877  -4.552  0.00  0.00    -0.025 C 
ATOM     22  C   LIG d   1      12.184  10.932  -5.146  0.00  0.00    -0.015 C 
ATOM     23  H   LIG d   1      11.707  10.267  -5.866  0.00  0.00     0.035 H 
ATOM     24  H   LIG d   1      12.426   9.020   3.640  0.00  0.00     0.069 H 
ATOM     25  H   LIG d   1      12.267  12.818   1.691  0.00  0.00     0.065 H 
ATOM     26  H   LIG d   1      11.670  11.708  -0.421  0.00  0.00     0.062 H 
ATOM     27  H   LIG d   1      14.136   8.016  -1.024  0.00  0.00     0.062 H 
ATOM     28  H   LIG d   1      15.549   8.464  -3.009  0.00  0.00     0.062 H 
ATOM     29  H   LIG d   1      14.725   9.770  -4.900  0.00  0.00     0.062 H 
ATOM     30  H   LIG d   1      11.631  12.578  -3.878  0.00  0.00     0.029 H 
ATOM     31  H   LIG d   1      10.663  12.437  -5.359  0.00  0.00     0.029 H 
ENDROOT
BRANCH   1  32
ATOM     32  C   LIG d   1      10.167   7.000  -1.652  0.00  0.00     0.342 C 
ATOM     33  O   LIG d   1       8.951   6.960  -1.614  0.00  0.00    -0.245 OA
BRANCH  32  34
ATOM     34  O   LIG d   1      10.832   6.400  -2.662  0.00  0.00    -0.462 OA
BRANCH  34  35
ATOM     35  C   LIG d   1      10.402   6.703  -3.991  0.00  0.00     0.090 C 
ATOM     36  H   LIG d   1       9.716   5.929  -4.337  0.00  0.00     0.070 H 
ATOM     37  H   LIG d   1       9.896   7.668  -3.999  0.00  0.00     0.070 H 
BRANCH  35  38
ATOM     38  C   LIG d   1      11.618   6.758  -4.921  0.00  0.00    -0.031 C 
ATOM     39  H   LIG d   1      11.351   6.342  -5.892  0.00  0.00     0.026 H 
ATOM     40  H   LIG d   1      11.934   7.793  -5.043  0.00  0.00     0.026 H 
ATOM     41  H   LIG d   1      12.432   6.178  -4.488  0.00  0.00     0.026 H 
ENDBRANCH  35  38
ENDBRANCH  34  35
ENDBRANCH  32  34
ENDBRANCH   1  32
BRANCH   2  42
ATOM     42  N   LIG d   1      10.690   5.753   0.701  0.00  0.00    -0.329 N 
ATOM     43  H   LIG d   1      10.079   5.543   1.425  0.00  0.00     0.145 HD
ATOM     44  H   LIG d   1      10.987   5.052   0.100  0.00  0.00     0.145 HD
ENDBRANCH   2  42
BRANCH  20  45
ATOM     45  C   LIG d   1       9.101  12.108  -3.111  0.00  0.00    -0.043 C 
ATOM     46  H   LIG d   1       8.094  11.960  -3.503  0.00  0.00     0.025 H 
ATOM     47  H   LIG d   1       9.098  11.945  -2.033  0.00  0.00     0.025 H 
ATOM     48  H   LIG d   1       9.428  13.125  -3.325  0.00  0.00     0.025 H 
ENDBRANCH  20  45
BRANCH  20  49
ATOM     49  C   LIG d   1       9.278  10.209  -4.730  0.00  0.00    -0.043 C 
ATOM     50  H   LIG d   1       9.504   9.165  -4.507  0.00  0.00     0.025 H 
ATOM     51  H   LIG d   1       8.209  10.383  -4.605  0.00  0.00     0.025 H 
ATOM     52  H   LIG d   1       9.566  10.430  -5.758  0.00  0.00     0.025 H 
ENDBRANCH  20  49
BRANCH   6  53
ATOM     53  O   LIG d   1      12.712  11.599   3.967  0.00  0.00    -0.507 OA
ATOM     54  H   LIG d   1      12.913  10.989   4.688  0.00  0.00     0.292 HD
ENDBRANCH   6  53
BRANCH  22  55
ATOM     55  C   LIG d   1      13.268  11.750  -5.850  0.00  0.00    -0.058 C 
ATOM     56  H   LIG d   1      13.145  12.805  -5.603  0.00  0.00     0.024 H 
ATOM     57  H   LIG d   1      14.250  11.412  -5.521  0.00  0.00     0.024 H 
ATOM     58  H   LIG d   1      13.180  11.617  -6.928  0.00  0.00     0.024 H 
ENDBRANCH  22  55
TORSDOF 9
ENDMDL
MODEL 8
REMARK VINA RESULT:      -5.4      2.553      4.868
REMARK  9 active torsions:
REMARK  status: ('A' for Active; 'I' for Inactive)
REMARK    1  A    between atoms: C_1  and  C_2 
REMARK    2  A    between atoms: C_2  and  O_3 
REMARK    3  A    between atoms: O_3  and  C_4 
REMARK    4  A    between atoms: C_4  and  C_6 
REMARK    5  A    between atoms: C_7  and  N_33 
REMARK    6  A    between atoms: C_11  and  O_32 
REMARK    7  A    between atoms: C_25  and  C_30 
REMARK    8  A    between atoms: C_25  and  C_31 
REMARK    9  A    between atoms: C_27  and  C_29 
ROOT
ATOM      1  C   LIG d   1       6.711  -4.272  -6.223  0.00  0.00     0.117 C 
ATOM      2  C   LIG d   1       6.252  -5.412  -6.804  0.00  0.00     0.196 C 
ATOM      3  O   LIG d   1       5.076  -5.455  -7.449  0.00  0.00    -0.441 OA
ATOM      4  C   LIG d   1       4.489  -4.310  -7.875  0.00  0.00     0.138 A 
ATOM      5  C   LIG d   1       3.512  -4.371  -8.859  0.00  0.00     0.022 A 
ATOM      6  C   LIG d   1       2.902  -3.210  -9.305  0.00  0.00     0.120 A 
ATOM      7  C   LIG d   1       3.270  -1.984  -8.767  0.00  0.00    -0.020 A 
ATOM      8  C   LIG d   1       4.243  -1.925  -7.789  0.00  0.00    -0.050 A 
ATOM      9  C   LIG d   1       4.855  -3.083  -7.342  0.00  0.00     0.019 A 
ATOM     10  C   LIG d   1       5.915  -3.001  -6.279  0.00  0.00     0.139 A 
ATOM     11  C   LIG d   1       5.317  -2.681  -4.948  0.00  0.00    -0.002 A 
ATOM     12  C   LIG d   1       4.418  -3.312  -4.115  0.00  0.00    -0.055 A 
ATOM     13  C   LIG d   1       4.107  -2.673  -2.917  0.00  0.00    -0.061 A 
ATOM     14  C   LIG d   1       4.665  -1.455  -2.556  0.00  0.00    -0.057 A 
ATOM     15  C   LIG d   1       5.562  -0.822  -3.383  0.00  0.00    -0.023 A 
ATOM     16  C   LIG d   1       5.873  -1.462  -4.583  0.00  0.00     0.045 A 
ATOM     17  N   LIG d   1       6.754  -0.977  -5.544  0.00  0.00    -0.264 N 
ATOM     18  C   LIG d   1       6.839  -1.829  -6.576  0.00  0.00     0.240 A 
ATOM     19  O   LIG d   1       7.528  -1.693  -7.566  0.00  0.00    -0.274 OA
ATOM     20  C   LIG d   1       7.433   0.313  -5.343  0.00  0.00     0.037 C 
ATOM     21  C   LIG d   1       6.557   1.188  -4.438  0.00  0.00    -0.025 C 
ATOM     22  C   LIG d   1       6.237   0.492  -3.113  0.00  0.00    -0.015 C 
ATOM     23  H   LIG d   1       7.160   0.318  -2.561  0.00  0.00     0.035 H 
ATOM     24  H   LIG d   1       3.225  -5.324  -9.278  0.00  0.00     0.069 H 
ATOM     25  H   LIG d   1       2.795  -1.078  -9.113  0.00  0.00     0.065 H 
ATOM     26  H   LIG d   1       4.528  -0.971  -7.371  0.00  0.00     0.062 H 
ATOM     27  H   LIG d   1       3.975  -4.260  -4.380  0.00  0.00     0.062 H 
ATOM     28  H   LIG d   1       3.405  -3.143  -2.244  0.00  0.00     0.062 H 
ATOM     29  H   LIG d   1       4.393  -1.001  -1.615  0.00  0.00     0.062 H 
ATOM     30  H   LIG d   1       5.624   1.412  -4.957  0.00  0.00     0.029 H 
ATOM     31  H   LIG d   1       7.081   2.122  -4.232  0.00  0.00     0.029 H 
ENDROOT
BRANCH   1  32
ATOM     32  C   LIG d   1       7.948  -4.284  -5.563  0.00  0.00     0.342 C 
ATOM     33  O   LIG d   1       8.980  -4.196  -6.202  0.00  0.00    -0.245 OA
BRANCH  32  34
ATOM     34  O   LIG d   1       7.994  -4.392  -4.217  0.00  0.00    -0.462 OA
BRANCH  34  35
ATOM     35  C   LIG d   1       8.845  -3.479  -3.522  0.00  0.00     0.090 C 
ATOM     36  H   LIG d   1       9.550  -3.032  -4.224  0.00  0.00     0.070 H 
ATOM     37  H   LIG d   1       8.241  -2.694  -3.065  0.00  0.00     0.070 H 
BRANCH  35  38
ATOM     38  C   LIG d   1       9.616  -4.228  -2.432  0.00  0.00    -0.031 C 
ATOM     39  H   LIG d   1      10.560  -3.719  -2.240  0.00  0.00     0.026 H 
ATOM     40  H   LIG d   1       9.023  -4.250  -1.518  0.00  0.00     0.026 H 
ATOM     41  H   LIG d   1       9.813  -5.247  -2.763  0.00  0.00     0.026 H 
ENDBRANCH  35  38
ENDBRANCH  34  35
ENDBRANCH  32  34
ENDBRANCH   1  32
BRANCH   2  42
ATOM     42  N   LIG d   1       7.012  -6.548  -6.730  0.00  0.00    -0.329 N 
ATOM     43  H   LIG d   1       6.596  -7.418  -6.833  0.00  0.00     0.145 HD
ATOM     44  H   LIG d   1       7.967  -6.484  -6.573  0.00  0.00     0.145 HD
ENDBRANCH   2  42
BRANCH  20  45
ATOM     45  C   LIG d   1       7.632   1.006  -6.693  0.00  0.00    -0.043 C 
ATOM     46  H   LIG d   1       8.284   0.398  -7.320  0.00  0.00     0.025 H 
ATOM     47  H   LIG d   1       6.666   1.128  -7.184  0.00  0.00     0.025 H 
ATOM     48  H   LIG d   1       8.086   1.984  -6.537  0.00  0.00     0.025 H 
ENDBRANCH  20  45
BRANCH  20  49
ATOM     49  C   LIG d   1       8.791   0.083  -4.677  0.00  0.00    -0.043 C 
ATOM     50  H   LIG d   1       8.655  -0.025  -3.601  0.00  0.00     0.025 H 
ATOM     51  H   LIG d   1       9.242  -0.825  -5.078  0.00  0.00     0.025 H 
ATOM     52  H   LIG d   1       9.443   0.933  -4.877  0.00  0.00     0.025 H 
ENDBRANCH  20  49
BRANCH   6  53
ATOM     53  O   LIG d   1       1.945  -3.270 -10.268  0.00  0.00    -0.507 OA
ATOM     54  H   LIG d   1       1.981  -2.543 -10.904  0.00  0.00     0.292 HD
ENDBRANCH   6  53
BRANCH  22  55
ATOM     55  C   LIG d   1       5.308   1.379  -2.282  0.00  0.00    -0.058 C 
ATOM     56  H   LIG d   1       4.758   0.763  -1.569  0.00  0.00     0.024 H 
ATOM     57  H   LIG d   1       5.898   2.119  -1.742  0.00  0.00     0.024 H 
ATOM     58  H   LIG d   1       4.604   1.886  -2.941  0.00  0.00     0.024 H 
ENDBRANCH  22  55
TORSDOF 9
ENDMDL
MODEL 9
REMARK VINA RESULT:      -5.3      2.412      4.520
REMARK  9 active torsions:
REMARK  status: ('A' for Active; 'I' for Inactive)
REMARK    1  A    between atoms: C_1  and  C_2 
REMARK    2  A    between atoms: C_2  and  O_3 
REMARK    3  A    between atoms: O_3  and  C_4 
REMARK    4  A    between atoms: C_4  and  C_6 
REMARK    5  A    between atoms: C_7  and  N_33 
REMARK    6  A    between atoms: C_11  and  O_32 
REMARK    7  A    between atoms: C_25  and  C_30 
REMARK    8  A    between atoms: C_25  and  C_31 
REMARK    9  A    between atoms: C_27  and  C_29 
ROOT
ATOM      1  C   LIG d   1       3.892  -1.060  -7.937  0.00  0.00     0.117 C 
ATOM      2  C   LIG d   1       2.909  -1.480  -8.776  0.00  0.00     0.196 C 
ATOM      3  O   LIG d   1       2.857  -2.741  -9.231  0.00  0.00    -0.441 OA
ATOM      4  C   LIG d   1       3.535  -3.726  -8.591  0.00  0.00     0.138 A 
ATOM      5  C   LIG d   1       3.176  -5.050  -8.807  0.00  0.00     0.022 A 
ATOM      6  C   LIG d   1       3.859  -6.068  -8.161  0.00  0.00     0.120 A 
ATOM      7  C   LIG d   1       4.902  -5.763  -7.297  0.00  0.00    -0.020 A 
ATOM      8  C   LIG d   1       5.256  -4.445  -7.083  0.00  0.00    -0.050 A 
ATOM      9  C   LIG d   1       4.576  -3.426  -7.725  0.00  0.00     0.019 A 
ATOM     10  C   LIG d   1       4.971  -1.996  -7.478  0.00  0.00     0.139 A 
ATOM     11  C   LIG d   1       6.275  -1.679  -8.135  0.00  0.00    -0.002 A 
ATOM     12  C   LIG d   1       6.721  -1.662  -9.440  0.00  0.00    -0.055 A 
ATOM     13  C   LIG d   1       8.049  -1.296  -9.650  0.00  0.00    -0.061 A 
ATOM     14  C   LIG d   1       8.903  -0.959  -8.610  0.00  0.00    -0.057 A 
ATOM     15  C   LIG d   1       8.463  -0.976  -7.308  0.00  0.00    -0.023 A 
ATOM     16  C   LIG d   1       7.133  -1.343  -7.097  0.00  0.00     0.045 A 
ATOM     17  N   LIG d   1       6.511  -1.418  -5.855  0.00  0.00    -0.264 N 
ATOM     18  C   LIG d   1       5.230  -1.793  -5.993  0.00  0.00     0.240 A 
ATOM     19  O   LIG d   1       4.425  -1.942  -5.098  0.00  0.00    -0.274 OA
ATOM     20  C   LIG d   1       7.265  -1.111  -4.629  0.00  0.00     0.037 C 
ATOM     21  C   LIG d   1       8.748  -1.405  -4.884  0.00  0.00    -0.025 C 
ATOM     22  C   LIG d   1       9.279  -0.635  -6.095  0.00  0.00    -0.015 C 
ATOM     23  H   LIG d   1       9.213   0.436  -5.903  0.00  0.00     0.035 H 
ATOM     24  H   LIG d   1       2.365  -5.288  -9.479  0.00  0.00     0.069 H 
ATOM     25  H   LIG d   1       5.435  -6.555  -6.793  0.00  0.00     0.065 H 
ATOM     26  H   LIG d   1       6.067  -4.209  -6.410  0.00  0.00     0.062 H 
ATOM     27  H   LIG d   1       6.070  -1.919 -10.261  0.00  0.00     0.062 H 
ATOM     28  H   LIG d   1       8.427  -1.273 -10.661  0.00  0.00     0.062 H 
ATOM     29  H   LIG d   1       9.924  -0.681  -8.825  0.00  0.00     0.062 H 
ATOM     30  H   LIG d   1       8.874  -2.474  -5.059  0.00  0.00     0.029 H 
ATOM     31  H   LIG d   1       9.323  -1.121  -4.002  0.00  0.00     0.029 H 
ENDROOT
BRANCH   1  32
ATOM     32  C   LIG d   1       3.897   0.270  -7.492  0.00  0.00     0.342 C 
ATOM     33  O   LIG d   1       3.029   0.661  -6.733  0.00  0.00    -0.245 OA
BRANCH  32  34
ATOM     34  O   LIG d   1       4.865   1.117  -7.904  0.00  0.00    -0.462 OA
BRANCH  34  35
ATOM     35  C   LIG d   1       4.813   1.548  -9.266  0.00  0.00     0.090 C 
ATOM     36  H   LIG d   1       5.812   1.835  -9.595  0.00  0.00     0.070 H 
ATOM     37  H   LIG d   1       4.444   0.735  -9.891  0.00  0.00     0.070 H 
BRANCH  35  38
ATOM     38  C   LIG d   1       3.872   2.749  -9.385  0.00  0.00    -0.031 C 
ATOM     39  H   LIG d   1       3.931   3.348  -8.476  0.00  0.00     0.026 H 
ATOM     40  H   LIG d   1       4.165   3.357 -10.240  0.00  0.00     0.026 H 
ATOM     41  H   LIG d   1       2.849   2.397  -9.521  0.00  0.00     0.026 H 
ENDBRANCH  35  38
ENDBRANCH  34  35
ENDBRANCH  32  34
ENDBRANCH   1  32
BRANCH   2  42
ATOM     42  N   LIG d   1       1.944  -0.592  -9.167  0.00  0.00    -0.329 N 
ATOM     43  H   LIG d   1       1.636   0.092  -8.553  0.00  0.00     0.145 HD
ATOM     44  H   LIG d   1       1.568  -0.646 -10.060  0.00  0.00     0.145 HD
ENDBRANCH   2  42
BRANCH  20  45
ATOM     45  C   LIG d   1       6.757  -1.986  -3.480  0.00  0.00    -0.043 C 
ATOM     46  H   LIG d   1       7.604  -2.419  -2.951  0.00  0.00     0.025 H 
ATOM     47  H   LIG d   1       6.171  -1.377  -2.791  0.00  0.00     0.025 H 
ATOM     48  H   LIG d   1       6.132  -2.784  -3.881  0.00  0.00     0.025 H 
ENDBRANCH  20  45
BRANCH  20  49
ATOM     49  C   LIG d   1       7.087   0.365  -4.270  0.00  0.00    -0.043 C 
ATOM     50  H   LIG d   1       8.020   0.755  -3.863  0.00  0.00     0.025 H 
ATOM     51  H   LIG d   1       6.818   0.926  -5.165  0.00  0.00     0.025 H 
ATOM     52  H   LIG d   1       6.296   0.466  -3.526  0.00  0.00     0.025 H 
ENDBRANCH  20  49
BRANCH   6  53
ATOM     53  O   LIG d   1       3.508  -7.364  -8.372  0.00  0.00    -0.507 OA
ATOM     54  H   LIG d   1       2.671  -7.617  -7.961  0.00  0.00     0.292 HD
ENDBRANCH   6  53
BRANCH  22  55
ATOM     55  C   LIG d   1      10.740  -1.017  -6.342  0.00  0.00    -0.058 C 
ATOM     56  H   LIG d   1      11.044  -0.673  -7.332  0.00  0.00     0.024 H 
ATOM     57  H   LIG d   1      11.371  -0.550  -5.586  0.00  0.00     0.024 H 
ATOM     58  H   LIG d   1      10.847  -2.100  -6.287  0.00  0.00     0.024 H 
ENDBRANCH  22  55
TORSDOF 9
ENDMDL
MODEL 10
REMARK VINA RESULT:      -5.3      2.148      2.809
REMARK  9 active torsions:
REMARK  status: ('A' for Active; 'I' for Inactive)
REMARK    1  A    between atoms: C_1  and  C_2 
REMARK    2  A    between atoms: C_2  and  O_3 
REMARK    3  A    between atoms: O_3  and  C_4 
REMARK    4  A    between atoms: C_4  and  C_6 
REMARK    5  A    between atoms: C_7  and  N_33 
REMARK    6  A    between atoms: C_11  and  O_32 
REMARK    7  A    between atoms: C_25  and  C_30 
REMARK    8  A    between atoms: C_25  and  C_31 
REMARK    9  A    between atoms: C_27  and  C_29 
ROOT
ATOM      1  C   LIG d   1       4.293  -0.525  -6.614  0.00  0.00     0.117 C 
ATOM      2  C   LIG d   1       3.128   0.173  -6.578  0.00  0.00     0.196 C 
ATOM      3  O   LIG d   1       2.352   0.312  -7.664  0.00  0.00    -0.441 OA
ATOM      4  C   LIG d   1       2.490  -0.535  -8.715  0.00  0.00     0.138 A 
ATOM      5  C   LIG d   1       1.459  -0.648  -9.637  0.00  0.00     0.022 A 
ATOM      6  C   LIG d   1       1.584  -1.509 -10.715  0.00  0.00     0.120 A 
ATOM      7  C   LIG d   1       2.742  -2.258 -10.872  0.00  0.00    -0.020 A 
ATOM      8  C   LIG d   1       3.766  -2.145  -9.953  0.00  0.00    -0.050 A 
ATOM      9  C   LIG d   1       3.644  -1.287  -8.874  0.00  0.00     0.019 A 
ATOM     10  C   LIG d   1       4.766  -1.178  -7.879  0.00  0.00     0.139 A 
ATOM     11  C   LIG d   1       5.930  -0.444  -8.461  0.00  0.00    -0.002 A 
ATOM     12  C   LIG d   1       6.125   0.833  -8.942  0.00  0.00    -0.055 A 
ATOM     13  C   LIG d   1       7.399   1.146  -9.413  0.00  0.00    -0.061 A 
ATOM     14  C   LIG d   1       8.440   0.230  -9.406  0.00  0.00    -0.057 A 
ATOM     15  C   LIG d   1       8.251  -1.045  -8.928  0.00  0.00    -0.023 A 
ATOM     16  C   LIG d   1       6.975  -1.358  -8.458  0.00  0.00     0.045 A 
ATOM     17  N   LIG d   1       6.593  -2.592  -7.940  0.00  0.00    -0.264 N 
ATOM     18  C   LIG d   1       5.304  -2.567  -7.570  0.00  0.00     0.240 A 
ATOM     19  O   LIG d   1       4.680  -3.485  -7.078  0.00  0.00    -0.274 OA
ATOM     20  C   LIG d   1       7.563  -3.697  -7.867  0.00  0.00     0.037 C 
ATOM     21  C   LIG d   1       8.611  -3.497  -8.968  0.00  0.00    -0.025 C 
ATOM     22  C   LIG d   1       9.289  -2.128  -8.865  0.00  0.00    -0.015 C 
ATOM     23  H   LIG d   1       9.827  -2.059  -7.920  0.00  0.00     0.035 H 
ATOM     24  H   LIG d   1       0.558  -0.065  -9.516  0.00  0.00     0.069 H 
ATOM     25  H   LIG d   1       2.842  -2.929 -11.713  0.00  0.00     0.065 H 
ATOM     26  H   LIG d   1       4.667  -2.729 -10.075  0.00  0.00     0.062 H 
ATOM     27  H   LIG d   1       5.326   1.559  -8.953  0.00  0.00     0.062 H 
ATOM     28  H   LIG d   1       7.582   2.138  -9.796  0.00  0.00     0.062 H 
ATOM     29  H   LIG d   1       9.411   0.521  -9.780  0.00  0.00     0.062 H 
ATOM     30  H   LIG d   1       8.126  -3.581  -9.941  0.00  0.00     0.029 H 
ATOM     31  H   LIG d   1       9.369  -4.276  -8.882  0.00  0.00     0.029 H 
ENDROOT
BRANCH   1  32
ATOM     32  C   LIG d   1       5.065  -0.639  -5.448  0.00  0.00     0.342 C 
ATOM     33  O   LIG d   1       6.002   0.117  -5.263  0.00  0.00    -0.245 OA
BRANCH  32  34
ATOM     34  O   LIG d   1       4.769  -1.584  -4.531  0.00  0.00    -0.462 OA
BRANCH  34  35
ATOM     35  C   LIG d   1       4.835  -1.198  -3.156  0.00  0.00     0.090 C 
ATOM     36  H   LIG d   1       5.848  -1.350  -2.784  0.00  0.00     0.070 H 
ATOM     37  H   LIG d   1       4.566  -0.145  -3.061  0.00  0.00     0.070 H 
BRANCH  35  38
ATOM     38  C   LIG d   1       3.858  -2.048  -2.340  0.00  0.00    -0.031 C 
ATOM     39  H   LIG d   1       4.127  -3.100  -2.433  0.00  0.00     0.026 H 
ATOM     40  H   LIG d   1       3.908  -1.752  -1.292  0.00  0.00     0.026 H 
ATOM     41  H   LIG d   1       2.846  -1.898  -2.713  0.00  0.00     0.026 H 
ENDBRANCH  35  38
ENDBRANCH  34  35
ENDBRANCH  32  34
ENDBRANCH   1  32
BRANCH   2  42
ATOM     42  N   LIG d   1       2.735   0.751  -5.402  0.00  0.00    -0.329 N 
ATOM     43  H   LIG d   1       1.921   0.457  -4.964  0.00  0.00     0.145 HD
ATOM     44  H   LIG d   1       3.270   1.457  -5.005  0.00  0.00     0.145 HD
ENDBRANCH   2  42
BRANCH  20  45
ATOM     45  C   LIG d   1       6.840  -5.029  -8.080  0.00  0.00    -0.043 C 
ATOM     46  H   LIG d   1       5.817  -4.840  -8.402  0.00  0.00     0.025 H 
ATOM     47  H   LIG d   1       7.360  -5.607  -8.845  0.00  0.00     0.025 H 
ATOM     48  H   LIG d   1       6.830  -5.590  -7.146  0.00  0.00     0.025 H 
ENDBRANCH  20  45
BRANCH  20  49
ATOM     49  C   LIG d   1       8.246  -3.694  -6.499  0.00  0.00    -0.043 C 
ATOM     50  H   LIG d   1       7.871  -2.859  -5.907  0.00  0.00     0.025 H 
ATOM     51  H   LIG d   1       8.031  -4.630  -5.983  0.00  0.00     0.025 H 
ATOM     52  H   LIG d   1       9.323  -3.591  -6.630  0.00  0.00     0.025 H 
ENDBRANCH  20  49
BRANCH   6  53
ATOM     53  O   LIG d   1       0.575  -1.619 -11.619  0.00  0.00    -0.507 OA
ATOM     54  H   LIG d   1      -0.270  -1.267 -11.310  0.00  0.00     0.292 HD
ENDBRANCH   6  53
BRANCH  22  55
ATOM     55  C   LIG d   1      10.273  -1.957 -10.024  0.00  0.00    -0.058 C 
ATOM     56  H   LIG d   1      10.864  -2.867 -10.136  0.00  0.00     0.024 H 
ATOM     57  H   LIG d   1       9.722  -1.767 -10.944  0.00  0.00     0.024 H 
ATOM     58  H   LIG d   1      10.937  -1.118  -9.817  0.00  0.00     0.024 H 
ENDBRANCH  22  55
TORSDOF 9
ENDMDL
