MODEL 1
REMARK VINA RESULT:      -6.0      0.000      0.000
REMARK  12 active torsions:
REMARK  status: ('A' for Active; 'I' for Inactive)
REMARK    1  A    between atoms: C_1  and  C_2 
REMARK    2  A    between atoms: C_2  and  O_3 
REMARK    3  A    between atoms: O_3  and  C_4 
REMARK    4  A    between atoms: C_12  and  C_13 
REMARK    5  A    between atoms: C_16  and  O_21 
REMARK    6  A    between atoms: C_17  and  O_19 
REMARK    7  A    between atoms: O_19  and  C_20 
REMARK    8  A    between atoms: O_21  and  C_22 
REMARK    9  A    between atoms: C_22  and  C_24 
REMARK   10  A    between atoms: C_22  and  C_25 
REMARK   11  A    between atoms: C_25  and  O_27 
REMARK   12  A    between atoms: O_27  and  C_28 
ROOT
ATOM      1  C   LIG d   1       9.740   4.223  -4.049  0.00  0.00    -0.018 A 
ATOM      2  C   LIG d   1       9.322   5.354  -4.762  0.00  0.00    -0.051 A 
ATOM      3  C   LIG d   1       9.294   6.585  -4.145  0.00  0.00    -0.016 A 
ATOM      4  C   LIG d   1       9.678   6.709  -2.817  0.00  0.00     0.163 A 
ATOM      5  C   LIG d   1      10.096   5.589  -2.099  0.00  0.00     0.162 A 
ATOM      6  C   LIG d   1      10.122   4.349  -2.707  0.00  0.00    -0.009 A 
ATOM      7  H   LIG d   1       9.023   5.260  -5.796  0.00  0.00     0.062 H 
ATOM      8  H   LIG d   1       8.971   7.456  -4.697  0.00  0.00     0.066 H 
ATOM      9  H   LIG d   1      10.441   3.480  -2.150  0.00  0.00     0.066 H 
ENDROOT
BRANCH   1  10
ATOM     10  C   LIG d   1       9.773   2.910  -4.703  0.00  0.00    -0.008 C 
ATOM     11  C   LIG d   1       8.843   1.972  -4.389  0.00  0.00     0.176 A 
ATOM     12  O   LIG d   1       7.764   2.151  -3.590  0.00  0.00    -0.451 OA
ATOM     13  C   LIG d   1       8.824   0.577  -4.852  0.00  0.00     0.232 A 
ATOM     14  C   LIG d   1       7.031   1.022  -3.475  0.00  0.00     0.143 A 
ATOM     15  C   LIG d   1       7.622  -0.004  -4.230  0.00  0.00     0.068 A 
ATOM     16  C   LIG d   1       5.863   0.752  -2.771  0.00  0.00     0.023 A 
ATOM     17  C   LIG d   1       7.045  -1.274  -4.269  0.00  0.00    -0.044 A 
ATOM     18  C   LIG d   1       5.897  -1.524  -3.571  0.00  0.00    -0.019 A 
ATOM     19  H   LIG d   1       7.505  -2.060  -4.851  0.00  0.00     0.063 H 
ATOM     20  C   LIG d   1       5.302  -0.513  -2.820  0.00  0.00     0.124 A 
ATOM     21  H   LIG d   1       5.450  -2.506  -3.602  0.00  0.00     0.065 H 
ATOM     22  H   LIG d   1       5.394   1.529  -2.186  0.00  0.00     0.069 H 
ATOM     23  O   LIG d   1       9.625   0.025  -5.587  0.00  0.00    -0.283 OA
ATOM     24  H   LIG d   1      10.537   2.689  -5.434  0.00  0.00     0.066 H 
BRANCH  20  25
ATOM     25  O   LIG d   1       4.160  -0.769  -2.134  0.00  0.00    -0.492 OA
BRANCH  25  26
ATOM     26  C   LIG d   1       3.095  -1.392  -2.856  0.00  0.00     0.087 C 
ATOM     27  H   LIG d   1       3.494  -2.206  -3.461  0.00  0.00     0.069 H 
ATOM     28  H   LIG d   1       2.363  -1.789  -2.151  0.00  0.00     0.069 H 
BRANCH  26  29
ATOM     29  C   LIG d   1       2.422  -0.362  -3.764  0.00  0.00    -0.031 C 
ATOM     30  H   LIG d   1       1.369  -0.617  -3.885  0.00  0.00     0.026 H 
ATOM     31  H   LIG d   1       2.508   0.628  -3.316  0.00  0.00     0.026 H 
ATOM     32  H   LIG d   1       2.911  -0.362  -4.738  0.00  0.00     0.026 H 
ENDBRANCH  26  29
ENDBRANCH  25  26
ENDBRANCH  20  25
ENDBRANCH   1  10
BRANCH   5  33
ATOM     33  O   LIG d   1      10.471   5.715  -0.798  0.00  0.00    -0.491 OA
BRANCH  33  34
ATOM     34  C   LIG d   1      11.866   5.603  -0.511  0.00  0.00     0.079 C 
ATOM     35  H   LIG d   1      11.998   5.174   0.483  0.00  0.00     0.066 H 
ATOM     36  H   LIG d   1      12.339   4.958  -1.251  0.00  0.00     0.066 H 
ATOM     37  H   LIG d   1      12.324   6.591  -0.544  0.00  0.00     0.066 H 
ENDBRANCH  33  34
ENDBRANCH   5  33
BRANCH   4  38
ATOM     38  O   LIG d   1       9.647   7.926  -2.214  0.00  0.00    -0.474 OA
BRANCH  38  39
ATOM     39  C   LIG d   1      10.380   8.979  -2.843  0.00  0.00     0.193 C 
ATOM     40  H   LIG d   1      10.383   8.827  -3.921  0.00  0.00     0.085 H 
BRANCH  39  41
ATOM     41  C   LIG d   1      11.819   8.980  -2.324  0.00  0.00    -0.017 C 
ATOM     42  H   LIG d   1      12.085   9.983  -1.989  0.00  0.00     0.027 H 
ATOM     43  H   LIG d   1      11.904   8.284  -1.489  0.00  0.00     0.027 H 
ATOM     44  H   LIG d   1      12.494   8.673  -3.123  0.00  0.00     0.027 H 
ENDBRANCH  39  41
BRANCH  39  45
ATOM     45  C   LIG d   1       9.731  10.302  -2.523  0.00  0.00     0.348 C 
ATOM     46  O   LIG d   1       9.346  10.531  -1.401  0.00  0.00    -0.247 OA
BRANCH  45  47
ATOM     47  O   LIG d   1       9.581  11.226  -3.486  0.00  0.00    -0.465 OA
BRANCH  47  48
ATOM     48  C   LIG d   1       9.355  10.741  -4.836  0.00  0.00     0.082 C 
ATOM     49  H   LIG d   1       8.309  10.889  -5.104  0.00  0.00     0.066 H 
ATOM     50  H   LIG d   1       9.990  11.292  -5.531  0.00  0.00     0.066 H 
ATOM     51  H   LIG d   1       9.597   9.680  -4.887  0.00  0.00     0.066 H 
ENDBRANCH  47  48
ENDBRANCH  45  47
ENDBRANCH  39  45
ENDBRANCH  38  39
ENDBRANCH   4  38
TORSDOF 12
ENDMDL
MODEL 2
REMARK VINA RESULT:      -5.9      1.472      2.683
REMARK  12 active torsions:
REMARK  status: ('A' for Active; 'I' for Inactive)
REMARK    1  A    between atoms: C_1  and  C_2 
REMARK    2  A    between atoms: C_2  and  O_3 
REMARK    3  A    between atoms: O_3  and  C_4 
REMARK    4  A    between atoms: C_12  and  C_13 
REMARK    5  A    between atoms: C_16  and  O_21 
REMARK    6  A    between atoms: C_17  and  O_19 
REMARK    7  A    between atoms: O_19  and  C_20 
REMARK    8  A    between atoms: O_21  and  C_22 
REMARK    9  A    between atoms: C_22  and  C_24 
REMARK   10  A    between atoms: C_22  and  C_25 
REMARK   11  A    between atoms: C_25  and  O_27 
REMARK   12  A    between atoms: O_27  and  C_28 
ROOT
ATOM      1  C   LIG d   1       9.831   3.987  -3.997  0.00  0.00    -0.018 A 
ATOM      2  C   LIG d   1      10.197   4.230  -2.666  0.00  0.00    -0.051 A 
ATOM      3  C   LIG d   1      10.199   5.517  -2.178  0.00  0.00    -0.016 A 
ATOM      4  C   LIG d   1       9.839   6.577  -2.999  0.00  0.00     0.163 A 
ATOM      5  C   LIG d   1       9.473   6.345  -4.325  0.00  0.00     0.162 A 
ATOM      6  C   LIG d   1       9.473   5.058  -4.826  0.00  0.00    -0.009 A 
ATOM      7  H   LIG d   1      10.478   3.407  -2.025  0.00  0.00     0.062 H 
ATOM      8  H   LIG d   1      10.482   5.703  -1.152  0.00  0.00     0.066 H 
ATOM      9  H   LIG d   1       9.195   4.877  -5.854  0.00  0.00     0.066 H 
ENDROOT
BRANCH   1  10
ATOM     10  C   LIG d   1       9.827   2.616  -4.521  0.00  0.00    -0.008 C 
ATOM     11  C   LIG d   1       8.798   1.780  -4.227  0.00  0.00     0.176 A 
ATOM     12  O   LIG d   1       7.660   2.111  -3.573  0.00  0.00    -0.451 OA
ATOM     13  C   LIG d   1       8.717   0.351  -4.562  0.00  0.00     0.232 A 
ATOM     14  C   LIG d   1       6.832   1.052  -3.438  0.00  0.00     0.143 A 
ATOM     15  C   LIG d   1       7.415  -0.082  -4.026  0.00  0.00     0.068 A 
ATOM     16  C   LIG d   1       5.580   0.934  -2.846  0.00  0.00     0.023 A 
ATOM     17  C   LIG d   1       6.747  -1.307  -4.013  0.00  0.00    -0.044 A 
ATOM     18  C   LIG d   1       5.516  -1.406  -3.427  0.00  0.00    -0.019 A 
ATOM     19  H   LIG d   1       7.201  -2.176  -4.467  0.00  0.00     0.063 H 
ATOM     20  C   LIG d   1       4.929  -0.288  -2.841  0.00  0.00     0.124 A 
ATOM     21  H   LIG d   1       4.999  -2.354  -3.418  0.00  0.00     0.065 H 
ATOM     22  H   LIG d   1       5.116   1.796  -2.389  0.00  0.00     0.069 H 
ATOM     23  O   LIG d   1       9.544  -0.325  -5.150  0.00  0.00    -0.283 OA
ATOM     24  H   LIG d   1      10.643   2.272  -5.140  0.00  0.00     0.066 H 
BRANCH  20  25
ATOM     25  O   LIG d   1       3.704  -0.395  -2.265  0.00  0.00    -0.492 OA
BRANCH  25  26
ATOM     26  C   LIG d   1       2.646  -0.905  -3.080  0.00  0.00     0.087 C 
ATOM     27  H   LIG d   1       2.928  -1.883  -3.471  0.00  0.00     0.069 H 
ATOM     28  H   LIG d   1       1.741  -1.001  -2.481  0.00  0.00     0.069 H 
BRANCH  26  29
ATOM     29  C   LIG d   1       2.390   0.056  -4.243  0.00  0.00    -0.031 C 
ATOM     30  H   LIG d   1       1.349  -0.025  -4.558  0.00  0.00     0.026 H 
ATOM     31  H   LIG d   1       2.594   1.078  -3.921  0.00  0.00     0.026 H 
ATOM     32  H   LIG d   1       3.043  -0.199  -5.077  0.00  0.00     0.026 H 
ENDBRANCH  26  29
ENDBRANCH  25  26
ENDBRANCH  20  25
ENDBRANCH   1  10
BRANCH   5  33
ATOM     33  O   LIG d   1       9.121   7.385  -5.126  0.00  0.00    -0.491 OA
BRANCH  33  34
ATOM     34  C   LIG d   1       9.660   7.397  -6.450  0.00  0.00     0.079 C 
ATOM     35  H   LIG d   1      10.729   7.186  -6.407  0.00  0.00     0.066 H 
ATOM     36  H   LIG d   1       9.164   6.636  -7.051  0.00  0.00     0.066 H 
ATOM     37  H   LIG d   1       9.500   8.377  -6.898  0.00  0.00     0.066 H 
ENDBRANCH  33  34
ENDBRANCH   5  33
BRANCH   4  38
ATOM     38  O   LIG d   1       9.844   7.844  -2.512  0.00  0.00    -0.474 OA
BRANCH  38  39
ATOM     39  C   LIG d   1       9.767   7.993  -1.092  0.00  0.00     0.193 C 
ATOM     40  H   LIG d   1       9.592   7.020  -0.634  0.00  0.00     0.085 H 
BRANCH  39  41
ATOM     41  C   LIG d   1       8.615   8.937  -0.740  0.00  0.00    -0.017 C 
ATOM     42  H   LIG d   1       7.708   8.610  -1.247  0.00  0.00     0.027 H 
ATOM     43  H   LIG d   1       8.452   8.923   0.339  0.00  0.00     0.027 H 
ATOM     44  H   LIG d   1       8.865   9.949  -1.057  0.00  0.00     0.027 H 
ENDBRANCH  39  41
BRANCH  39  45
ATOM     45  C   LIG d   1      11.061   8.566  -0.577  0.00  0.00     0.348 C 
ATOM     46  O   LIG d   1      11.625   9.439  -1.194  0.00  0.00    -0.247 OA
BRANCH  45  47
ATOM     47  O   LIG d   1      11.590   8.108   0.570  0.00  0.00    -0.465 OA
BRANCH  47  48
ATOM     48  C   LIG d   1      11.117   6.820   1.044  0.00  0.00     0.082 C 
ATOM     49  H   LIG d   1      11.684   6.528   1.929  0.00  0.00     0.066 H 
ATOM     50  H   LIG d   1      10.059   6.893   1.299  0.00  0.00     0.066 H 
ATOM     51  H   LIG d   1      11.252   6.072   0.263  0.00  0.00     0.066 H 
ENDBRANCH  47  48
ENDBRANCH  45  47
ENDBRANCH  39  45
ENDBRANCH  38  39
ENDBRANCH   4  38
TORSDOF 12
ENDMDL
MODEL 3
REMARK VINA RESULT:      -5.4      1.491      2.118
REMARK  12 active torsions:
REMARK  status: ('A' for Active; 'I' for Inactive)
REMARK    1  A    between atoms: C_1  and  C_2 
REMARK    2  A    between atoms: C_2  and  O_3 
REMARK    3  A    between atoms: O_3  and  C_4 
REMARK    4  A    between atoms: C_12  and  C_13 
REMARK    5  A    between atoms: C_16  and  O_21 
REMARK    6  A    between atoms: C_17  and  O_19 
REMARK    7  A    between atoms: O_19  and  C_20 
REMARK    8  A    between atoms: O_21  and  C_22 
REMARK    9  A    between atoms: C_22  and  C_24 
REMARK   10  A    between atoms: C_22  and  C_25 
REMARK   11  A    between atoms: C_25  and  O_27 
REMARK   12  A    between atoms: O_27  and  C_28 
ROOT
ATOM      1  C   LIG d   1      10.459   3.435  -4.619  0.00  0.00    -0.018 A 
ATOM      2  C   LIG d   1       9.740   4.550  -5.070  0.00  0.00    -0.051 A 
ATOM      3  C   LIG d   1       9.939   5.779  -4.483  0.00  0.00    -0.016 A 
ATOM      4  C   LIG d   1      10.850   5.919  -3.446  0.00  0.00     0.163 A 
ATOM      5  C   LIG d   1      11.571   4.815  -2.990  0.00  0.00     0.162 A 
ATOM      6  C   LIG d   1      11.374   3.576  -3.568  0.00  0.00    -0.009 A 
ATOM      7  H   LIG d   1       9.030   4.443  -5.877  0.00  0.00     0.062 H 
ATOM      8  H   LIG d   1       9.383   6.638  -4.832  0.00  0.00     0.066 H 
ATOM      9  H   LIG d   1      11.928   2.719  -3.213  0.00  0.00     0.066 H 
ENDROOT
BRANCH   1  10
ATOM     10  C   LIG d   1      10.250   2.123  -5.242  0.00  0.00    -0.008 C 
ATOM     11  C   LIG d   1       9.224   1.333  -4.834  0.00  0.00     0.176 A 
ATOM     12  O   LIG d   1       8.249   1.677  -3.959  0.00  0.00    -0.451 OA
ATOM     13  C   LIG d   1       8.968  -0.050  -5.261  0.00  0.00     0.232 A 
ATOM     14  C   LIG d   1       7.373   0.668  -3.761  0.00  0.00     0.143 A 
ATOM     15  C   LIG d   1       7.748  -0.443  -4.533  0.00  0.00     0.068 A 
ATOM     16  C   LIG d   1       6.238   0.579  -2.962  0.00  0.00     0.023 A 
ATOM     17  C   LIG d   1       6.994  -1.616  -4.497  0.00  0.00    -0.044 A 
ATOM     18  C   LIG d   1       5.881  -1.688  -3.707  0.00  0.00    -0.019 A 
ATOM     19  H   LIG d   1       7.288  -2.467  -5.094  0.00  0.00     0.063 H 
ATOM     20  C   LIG d   1       5.500  -0.592  -2.937  0.00  0.00     0.124 A 
ATOM     21  H   LIG d   1       5.297  -2.595  -3.680  0.00  0.00     0.065 H 
ATOM     22  H   LIG d   1       5.934   1.423  -2.362  0.00  0.00     0.069 H 
ATOM     23  O   LIG d   1       9.620  -0.721  -6.042  0.00  0.00    -0.283 OA
ATOM     24  H   LIG d   1      10.914   1.784  -6.024  0.00  0.00     0.066 H 
BRANCH  20  25
ATOM     25  O   LIG d   1       4.390  -0.670  -2.159  0.00  0.00    -0.492 OA
BRANCH  25  26
ATOM     26  C   LIG d   1       3.296   0.184  -2.501  0.00  0.00     0.087 C 
ATOM     27  H   LIG d   1       2.694   0.375  -1.613  0.00  0.00     0.069 H 
ATOM     28  H   LIG d   1       3.681   1.128  -2.888  0.00  0.00     0.069 H 
BRANCH  26  29
ATOM     29  C   LIG d   1       2.435  -0.492  -3.568  0.00  0.00    -0.031 C 
ATOM     30  H   LIG d   1       2.204  -1.511  -3.257  0.00  0.00     0.026 H 
ATOM     31  H   LIG d   1       1.508   0.068  -3.696  0.00  0.00     0.026 H 
ATOM     32  H   LIG d   1       2.978  -0.515  -4.513  0.00  0.00     0.026 H 
ENDBRANCH  26  29
ENDBRANCH  25  26
ENDBRANCH  20  25
ENDBRANCH   1  10
BRANCH   5  33
ATOM     33  O   LIG d   1      12.462   4.957  -1.973  0.00  0.00    -0.491 OA
BRANCH  33  34
ATOM     34  C   LIG d   1      13.847   4.813  -2.299  0.00  0.00     0.079 C 
ATOM     35  H   LIG d   1      14.136   3.767  -2.199  0.00  0.00     0.066 H 
ATOM     36  H   LIG d   1      14.014   5.140  -3.325  0.00  0.00     0.066 H 
ATOM     37  H   LIG d   1      14.443   5.422  -1.620  0.00  0.00     0.066 H 
ENDBRANCH  33  34
ENDBRANCH   5  33
BRANCH   4  38
ATOM     38  O   LIG d   1      11.041   7.135  -2.871  0.00  0.00    -0.474 OA
BRANCH  38  39
ATOM     39  C   LIG d   1       9.873   7.905  -2.581  0.00  0.00     0.193 C 
ATOM     40  H   LIG d   1       9.100   7.685  -3.316  0.00  0.00     0.085 H 
BRANCH  39  41
ATOM     41  C   LIG d   1      10.218   9.395  -2.635  0.00  0.00    -0.017 C 
ATOM     42  H   LIG d   1       9.874   9.881  -1.722  0.00  0.00     0.027 H 
ATOM     43  H   LIG d   1      11.298   9.515  -2.725  0.00  0.00     0.027 H 
ATOM     44  H   LIG d   1       9.729   9.851  -3.496  0.00  0.00     0.027 H 
ENDBRANCH  39  41
BRANCH  39  45
ATOM     45  C   LIG d   1       9.371   7.556  -1.204  0.00  0.00     0.348 C 
ATOM     46  O   LIG d   1       8.295   7.961  -0.832  0.00  0.00    -0.247 OA
BRANCH  45  47
ATOM     47  O   LIG d   1      10.119   6.795  -0.389  0.00  0.00    -0.465 OA
BRANCH  47  48
ATOM     48  C   LIG d   1      11.008   7.486   0.527  0.00  0.00     0.082 C 
ATOM     49  H   LIG d   1      10.662   7.338   1.550  0.00  0.00     0.066 H 
ATOM     50  H   LIG d   1      12.018   7.087   0.424  0.00  0.00     0.066 H 
ATOM     51  H   LIG d   1      11.013   8.551   0.296  0.00  0.00     0.066 H 
ENDBRANCH  47  48
ENDBRANCH  45  47
ENDBRANCH  39  45
ENDBRANCH  38  39
ENDBRANCH   4  38
TORSDOF 12
ENDMDL
MODEL 4
REMARK VINA RESULT:      -5.4      2.052      3.205
REMARK  12 active torsions:
REMARK  status: ('A' for Active; 'I' for Inactive)
REMARK    1  A    between atoms: C_1  and  C_2 
REMARK    2  A    between atoms: C_2  and  O_3 
REMARK    3  A    between atoms: O_3  and  C_4 
REMARK    4  A    between atoms: C_12  and  C_13 
REMARK    5  A    between atoms: C_16  and  O_21 
REMARK    6  A    between atoms: C_17  and  O_19 
REMARK    7  A    between atoms: O_19  and  C_20 
REMARK    8  A    between atoms: O_21  and  C_22 
REMARK    9  A    between atoms: C_22  and  C_24 
REMARK   10  A    between atoms: C_22  and  C_25 
REMARK   11  A    between atoms: C_25  and  O_27 
REMARK   12  A    between atoms: O_27  and  C_28 
ROOT
ATOM      1  C   LIG d   1      10.304   5.256  -4.815  0.00  0.00    -0.018 A 
ATOM      2  C   LIG d   1       9.399   6.177  -4.271  0.00  0.00    -0.051 A 
ATOM      3  C   LIG d   1       9.800   7.023  -3.261  0.00  0.00    -0.016 A 
ATOM      4  C   LIG d   1      11.101   6.967  -2.780  0.00  0.00     0.163 A 
ATOM      5  C   LIG d   1      12.010   6.054  -3.314  0.00  0.00     0.162 A 
ATOM      6  C   LIG d   1      11.615   5.197  -4.323  0.00  0.00    -0.009 A 
ATOM      7  H   LIG d   1       8.386   6.222  -4.644  0.00  0.00     0.062 H 
ATOM      8  H   LIG d   1       9.101   7.732  -2.843  0.00  0.00     0.066 H 
ATOM      9  H   LIG d   1      12.316   4.486  -4.735  0.00  0.00     0.066 H 
ENDROOT
BRANCH   1  10
ATOM     10  C   LIG d   1       9.880   4.353  -5.890  0.00  0.00    -0.008 C 
ATOM     11  C   LIG d   1       9.107   3.274  -5.606  0.00  0.00     0.176 A 
ATOM     12  O   LIG d   1       8.554   2.981  -4.405  0.00  0.00    -0.451 OA
ATOM     13  C   LIG d   1       8.717   2.212  -6.544  0.00  0.00     0.232 A 
ATOM     14  C   LIG d   1       7.839   1.835  -4.448  0.00  0.00     0.143 A 
ATOM     15  C   LIG d   1       7.889   1.294  -5.743  0.00  0.00     0.068 A 
ATOM     16  C   LIG d   1       7.113   1.167  -3.468  0.00  0.00     0.023 A 
ATOM     17  C   LIG d   1       7.223   0.104  -6.038  0.00  0.00    -0.044 A 
ATOM     18  C   LIG d   1       6.515  -0.541  -5.063  0.00  0.00    -0.019 A 
ATOM     19  H   LIG d   1       7.266  -0.307  -7.036  0.00  0.00     0.063 H 
ATOM     20  C   LIG d   1       6.457  -0.013  -3.776  0.00  0.00     0.124 A 
ATOM     21  H   LIG d   1       5.998  -1.461  -5.292  0.00  0.00     0.065 H 
ATOM     22  H   LIG d   1       7.063   1.569  -2.467  0.00  0.00     0.069 H 
ATOM     23  O   LIG d   1       9.014   2.113  -7.723  0.00  0.00    -0.283 OA
ATOM     24  H   LIG d   1      10.183   4.547  -6.909  0.00  0.00     0.066 H 
BRANCH  20  25
ATOM     25  O   LIG d   1       5.747  -0.658  -2.816  0.00  0.00    -0.492 OA
BRANCH  25  26
ATOM     26  C   LIG d   1       5.268  -1.966  -3.132  0.00  0.00     0.087 C 
ATOM     27  H   LIG d   1       5.219  -2.084  -4.214  0.00  0.00     0.069 H 
ATOM     28  H   LIG d   1       5.947  -2.711  -2.716  0.00  0.00     0.069 H 
BRANCH  26  29
ATOM     29  C   LIG d   1       3.873  -2.157  -2.533  0.00  0.00    -0.031 C 
ATOM     30  H   LIG d   1       3.149  -1.581  -3.109  0.00  0.00     0.026 H 
ATOM     31  H   LIG d   1       3.606  -3.214  -2.565  0.00  0.00     0.026 H 
ATOM     32  H   LIG d   1       3.872  -1.814  -1.498  0.00  0.00     0.026 H 
ENDBRANCH  26  29
ENDBRANCH  25  26
ENDBRANCH  20  25
ENDBRANCH   1  10
BRANCH   5  33
ATOM     33  O   LIG d   1      13.283   6.002  -2.840  0.00  0.00    -0.491 OA
BRANCH  33  34
ATOM     34  C   LIG d   1      13.784   4.718  -2.464  0.00  0.00     0.079 C 
ATOM     35  H   LIG d   1      14.442   4.342  -3.249  0.00  0.00     0.066 H 
ATOM     36  H   LIG d   1      14.343   4.804  -1.532  0.00  0.00     0.066 H 
ATOM     37  H   LIG d   1      12.952   4.029  -2.327  0.00  0.00     0.066 H 
ENDBRANCH  33  34
ENDBRANCH   5  33
BRANCH   4  38
ATOM     38  O   LIG d   1      11.491   7.803  -1.784  0.00  0.00    -0.474 OA
BRANCH  38  39
ATOM     39  C   LIG d   1      10.769   7.726  -0.552  0.00  0.00     0.193 C 
ATOM     40  H   LIG d   1       9.731   7.468  -0.755  0.00  0.00     0.085 H 
BRANCH  39  41
ATOM     41  C   LIG d   1      10.828   9.079   0.160  0.00  0.00    -0.017 C 
ATOM     42  H   LIG d   1      10.534   9.868  -0.532  0.00  0.00     0.027 H 
ATOM     43  H   LIG d   1      10.146   9.071   1.011  0.00  0.00     0.027 H 
ATOM     44  H   LIG d   1      11.845   9.262   0.510  0.00  0.00     0.027 H 
ENDBRANCH  39  41
BRANCH  39  45
ATOM     45  C   LIG d   1      11.387   6.669   0.326  0.00  0.00     0.348 C 
ATOM     46  O   LIG d   1      12.589   6.569   0.398  0.00  0.00    -0.247 OA
BRANCH  45  47
ATOM     47  O   LIG d   1      10.602   5.838   1.031  0.00  0.00    -0.465 OA
BRANCH  47  48
ATOM     48  C   LIG d   1      10.861   5.737   2.455  0.00  0.00     0.082 C 
ATOM     49  H   LIG d   1      11.622   4.976   2.633  0.00  0.00     0.066 H 
ATOM     50  H   LIG d   1      11.214   6.698   2.830  0.00  0.00     0.066 H 
ATOM     51  H   LIG d   1       9.943   5.461   2.974  0.00  0.00     0.066 H 
ENDBRANCH  47  48
ENDBRANCH  45  47
ENDBRANCH  39  45
ENDBRANCH  38  39
ENDBRANCH   4  38
TORSDOF 12
ENDMDL
MODEL 5
REMARK VINA RESULT:      -5.3      1.556      2.001
REMARK  12 active torsions:
REMARK  status: ('A' for Active; 'I' for Inactive)
REMARK    1  A    between atoms: C_1  and  C_2 
REMARK    2  A    between atoms: C_2  and  O_3 
REMARK    3  A    between atoms: O_3  and  C_4 
REMARK    4  A    between atoms: C_12  and  C_13 
REMARK    5  A    between atoms: C_16  and  O_21 
REMARK    6  A    between atoms: C_17  and  O_19 
REMARK    7  A    between atoms: O_19  and  C_20 
REMARK    8  A    between atoms: O_21  and  C_22 
REMARK    9  A    between atoms: C_22  and  C_24 
REMARK   10  A    between atoms: C_22  and  C_25 
REMARK   11  A    between atoms: C_25  and  O_27 
REMARK   12  A    between atoms: O_27  and  C_28 
ROOT
ATOM      1  C   LIG d   1       9.764   4.325  -5.453  0.00  0.00    -0.018 A 
ATOM      2  C   LIG d   1       9.787   5.208  -6.541  0.00  0.00    -0.051 A 
ATOM      3  C   LIG d   1       9.674   6.564  -6.329  0.00  0.00    -0.016 A 
ATOM      4  C   LIG d   1       9.537   7.060  -5.039  0.00  0.00     0.163 A 
ATOM      5  C   LIG d   1       9.512   6.189  -3.950  0.00  0.00     0.162 A 
ATOM      6  C   LIG d   1       9.619   4.827  -4.153  0.00  0.00    -0.009 A 
ATOM      7  H   LIG d   1       9.894   4.825  -7.545  0.00  0.00     0.062 H 
ATOM      8  H   LIG d   1       9.692   7.243  -7.169  0.00  0.00     0.066 H 
ATOM      9  H   LIG d   1       9.595   4.151  -3.311  0.00  0.00     0.066 H 
ENDROOT
BRANCH   1  10
ATOM     10  C   LIG d   1       9.885   2.880  -5.675  0.00  0.00    -0.008 C 
ATOM     11  C   LIG d   1       9.006   2.028  -5.088  0.00  0.00     0.176 A 
ATOM     12  O   LIG d   1       7.905   2.375  -4.381  0.00  0.00    -0.451 OA
ATOM     13  C   LIG d   1       9.077   0.559  -5.103  0.00  0.00     0.232 A 
ATOM     14  C   LIG d   1       7.238   1.292  -3.925  0.00  0.00     0.143 A 
ATOM     15  C   LIG d   1       7.900   0.123  -4.331  0.00  0.00     0.068 A 
ATOM     16  C   LIG d   1       6.076   1.179  -3.171  0.00  0.00     0.023 A 
ATOM     17  C   LIG d   1       7.400  -1.131  -3.980  0.00  0.00    -0.044 A 
ATOM     18  C   LIG d   1       6.257  -1.226  -3.237  0.00  0.00    -0.019 A 
ATOM     19  H   LIG d   1       7.915  -2.027  -4.295  0.00  0.00     0.063 H 
ATOM     20  C   LIG d   1       5.591  -0.072  -2.830  0.00  0.00     0.124 A 
ATOM     21  H   LIG d   1       5.869  -2.196  -2.967  0.00  0.00     0.065 H 
ATOM     22  H   LIG d   1       5.552   2.067  -2.850  0.00  0.00     0.069 H 
ATOM     23  O   LIG d   1       9.922  -0.140  -5.636  0.00  0.00    -0.283 OA
ATOM     24  H   LIG d   1      10.673   2.494  -6.305  0.00  0.00     0.066 H 
BRANCH  20  25
ATOM     25  O   LIG d   1       4.453  -0.176  -2.097  0.00  0.00    -0.492 OA
BRANCH  25  26
ATOM     26  C   LIG d   1       3.551  -1.229  -2.444  0.00  0.00     0.087 C 
ATOM     27  H   LIG d   1       4.097  -2.021  -2.958  0.00  0.00     0.069 H 
ATOM     28  H   LIG d   1       3.097  -1.631  -1.538  0.00  0.00     0.069 H 
BRANCH  26  29
ATOM     29  C   LIG d   1       2.458  -0.682  -3.364  0.00  0.00    -0.031 C 
ATOM     30  H   LIG d   1       1.970   0.165  -2.883  0.00  0.00     0.026 H 
ATOM     31  H   LIG d   1       2.903  -0.360  -4.306  0.00  0.00     0.026 H 
ATOM     32  H   LIG d   1       1.722  -1.463  -3.558  0.00  0.00     0.026 H 
ENDBRANCH  26  29
ENDBRANCH  25  26
ENDBRANCH  20  25
ENDBRANCH   1  10
BRANCH   5  33
ATOM     33  O   LIG d   1       9.377   6.680  -2.689  0.00  0.00    -0.491 OA
BRANCH  33  34
ATOM     34  C   LIG d   1      10.505   6.557  -1.820  0.00  0.00     0.079 C 
ATOM     35  H   LIG d   1      11.315   6.051  -2.347  0.00  0.00     0.066 H 
ATOM     36  H   LIG d   1      10.836   7.549  -1.512  0.00  0.00     0.066 H 
ATOM     37  H   LIG d   1      10.225   5.977  -0.942  0.00  0.00     0.066 H 
ENDBRANCH  33  34
ENDBRANCH   5  33
BRANCH   4  38
ATOM     38  O   LIG d   1       9.425   8.399  -4.837  0.00  0.00    -0.474 OA
BRANCH  38  39
ATOM     39  C   LIG d   1      10.472   9.222  -5.354  0.00  0.00     0.193 C 
ATOM     40  H   LIG d   1      11.092   8.638  -6.033  0.00  0.00     0.085 H 
BRANCH  39  41
ATOM     41  C   LIG d   1      11.331   9.742  -4.200  0.00  0.00    -0.017 C 
ATOM     42  H   LIG d   1      10.999   9.288  -3.266  0.00  0.00     0.027 H 
ATOM     43  H   LIG d   1      12.375   9.482  -4.378  0.00  0.00     0.027 H 
ATOM     44  H   LIG d   1      11.232  10.826  -4.133  0.00  0.00     0.027 H 
ENDBRANCH  39  41
BRANCH  39  45
ATOM     45  C   LIG d   1       9.873  10.387  -6.098  0.00  0.00     0.348 C 
ATOM     46  O   LIG d   1       9.374  11.303  -5.488  0.00  0.00    -0.247 OA
BRANCH  45  47
ATOM     47  O   LIG d   1       9.894  10.409  -7.441  0.00  0.00    -0.465 OA
BRANCH  47  48
ATOM     48  C   LIG d   1      10.937   9.641  -8.096  0.00  0.00     0.082 C 
ATOM     49  H   LIG d   1      11.035   8.671  -7.608  0.00  0.00     0.066 H 
ATOM     50  H   LIG d   1      10.676   9.494  -9.145  0.00  0.00     0.066 H 
ATOM     51  H   LIG d   1      11.882  10.179  -8.030  0.00  0.00     0.066 H 
ENDBRANCH  47  48
ENDBRANCH  45  47
ENDBRANCH  39  45
ENDBRANCH  38  39
ENDBRANCH   4  38
TORSDOF 12
ENDMDL
MODEL 6
REMARK VINA RESULT:      -5.2      1.466      2.336
REMARK  12 active torsions:
REMARK  status: ('A' for Active; 'I' for Inactive)
REMARK    1  A    between atoms: C_1  and  C_2 
REMARK    2  A    between atoms: C_2  and  O_3 
REMARK    3  A    between atoms: O_3  and  C_4 
REMARK    4  A    between atoms: C_12  and  C_13 
REMARK    5  A    between atoms: C_16  and  O_21 
REMARK    6  A    between atoms: C_17  and  O_19 
REMARK    7  A    between atoms: O_19  and  C_20 
REMARK    8  A    between atoms: O_21  and  C_22 
REMARK    9  A    between atoms: C_22  and  C_24 
REMARK   10  A    between atoms: C_22  and  C_25 
REMARK   11  A    between atoms: C_25  and  O_27 
REMARK   12  A    between atoms: O_27  and  C_28 
ROOT
ATOM      1  C   LIG d   1      10.544   4.801  -3.124  0.00  0.00    -0.018 A 
ATOM      2  C   LIG d   1      10.697   4.673  -1.738  0.00  0.00    -0.051 A 
ATOM      3  C   LIG d   1      10.537   5.772  -0.924  0.00  0.00    -0.016 A 
ATOM      4  C   LIG d   1      10.223   7.008  -1.472  0.00  0.00     0.163 A 
ATOM      5  C   LIG d   1      10.068   7.145  -2.852  0.00  0.00     0.162 A 
ATOM      6  C   LIG d   1      10.232   6.050  -3.677  0.00  0.00    -0.009 A 
ATOM      7  H   LIG d   1      10.942   3.713  -1.308  0.00  0.00     0.062 H 
ATOM      8  H   LIG d   1      10.656   5.671   0.146  0.00  0.00     0.066 H 
ATOM      9  H   LIG d   1      10.118   6.156  -4.746  0.00  0.00     0.066 H 
ENDROOT
BRANCH   1  10
ATOM     10  C   LIG d   1      10.714   3.632  -3.995  0.00  0.00    -0.008 C 
ATOM     11  C   LIG d   1       9.738   2.692  -4.068  0.00  0.00     0.176 A 
ATOM     12  O   LIG d   1       8.513   2.764  -3.494  0.00  0.00    -0.451 OA
ATOM     13  C   LIG d   1       9.817   1.410  -4.782  0.00  0.00     0.232 A 
ATOM     14  C   LIG d   1       7.772   1.665  -3.753  0.00  0.00     0.143 A 
ATOM     15  C   LIG d   1       8.509   0.773  -4.548  0.00  0.00     0.068 A 
ATOM     16  C   LIG d   1       6.480   1.317  -3.374  0.00  0.00     0.023 A 
ATOM     17  C   LIG d   1       7.953  -0.442  -4.949  0.00  0.00    -0.044 A 
ATOM     18  C   LIG d   1       6.682  -0.769  -4.568  0.00  0.00    -0.019 A 
ATOM     19  H   LIG d   1       8.526  -1.124  -5.561  0.00  0.00     0.063 H 
ATOM     20  C   LIG d   1       5.941   0.108  -3.779  0.00  0.00     0.124 A 
ATOM     21  H   LIG d   1       6.251  -1.709  -4.879  0.00  0.00     0.065 H 
ATOM     22  H   LIG d   1       5.897   1.991  -2.763  0.00  0.00     0.069 H 
ATOM     23  O   LIG d   1      10.756   0.971  -5.425  0.00  0.00    -0.283 OA
ATOM     24  H   LIG d   1      11.617   3.520  -4.578  0.00  0.00     0.066 H 
BRANCH  20  25
ATOM     25  O   LIG d   1       4.678  -0.223  -3.410  0.00  0.00    -0.492 OA
BRANCH  25  26
ATOM     26  C   LIG d   1       4.522  -0.890  -2.156  0.00  0.00     0.087 C 
ATOM     27  H   LIG d   1       5.504  -1.082  -1.722  0.00  0.00     0.069 H 
ATOM     28  H   LIG d   1       3.944  -0.260  -1.480  0.00  0.00     0.069 H 
BRANCH  26  29
ATOM     29  C   LIG d   1       3.790  -2.216  -2.370  0.00  0.00    -0.031 C 
ATOM     30  H   LIG d   1       2.912  -2.254  -1.725  0.00  0.00     0.026 H 
ATOM     31  H   LIG d   1       3.480  -2.295  -3.412  0.00  0.00     0.026 H 
ATOM     32  H   LIG d   1       4.457  -3.043  -2.126  0.00  0.00     0.026 H 
ENDBRANCH  26  29
ENDBRANCH  25  26
ENDBRANCH  20  25
ENDBRANCH   1  10
BRANCH   5  33
ATOM     33  O   LIG d   1       9.760   8.357  -3.385  0.00  0.00    -0.491 OA
BRANCH  33  34
ATOM     34  C   LIG d   1      10.490   8.760  -4.546  0.00  0.00     0.079 C 
ATOM     35  H   LIG d   1      11.546   8.525  -4.410  0.00  0.00     0.066 H 
ATOM     36  H   LIG d   1      10.108   8.228  -5.417  0.00  0.00     0.066 H 
ATOM     37  H   LIG d   1      10.372   9.833  -4.694  0.00  0.00     0.066 H 
ENDBRANCH  33  34
ENDBRANCH   5  33
BRANCH   4  38
ATOM     38  O   LIG d   1      10.066   8.088  -0.664  0.00  0.00    -0.474 OA
BRANCH  38  39
ATOM     39  C   LIG d   1      11.248   8.808  -0.309  0.00  0.00     0.193 C 
ATOM     40  H   LIG d   1      12.081   8.465  -0.921  0.00  0.00     0.085 H 
BRANCH  39  41
ATOM     41  C   LIG d   1      11.568   8.569   1.168  0.00  0.00    -0.017 C 
ATOM     42  H   LIG d   1      12.493   9.082   1.428  0.00  0.00     0.027 H 
ATOM     43  H   LIG d   1      10.754   8.955   1.783  0.00  0.00     0.027 H 
ATOM     44  H   LIG d   1      11.682   7.499   1.347  0.00  0.00     0.027 H 
ENDBRANCH  39  41
BRANCH  39  45
ATOM     45  C   LIG d   1      11.027  10.281  -0.542  0.00  0.00     0.348 C 
ATOM     46  O   LIG d   1      11.915  11.069  -0.315  0.00  0.00    -0.247 OA
BRANCH  45  47
ATOM     47  O   LIG d   1       9.844  10.718  -1.002  0.00  0.00    -0.465 OA
BRANCH  47  48
ATOM     48  C   LIG d   1       9.874  11.676  -2.093  0.00  0.00     0.082 C 
ATOM     49  H   LIG d   1      10.514  11.298  -2.890  0.00  0.00     0.066 H 
ATOM     50  H   LIG d   1       8.864  11.821  -2.477  0.00  0.00     0.066 H 
ATOM     51  H   LIG d   1      10.266  12.626  -1.732  0.00  0.00     0.066 H 
ENDBRANCH  47  48
ENDBRANCH  45  47
ENDBRANCH  39  45
ENDBRANCH  38  39
ENDBRANCH   4  38
TORSDOF 12
ENDMDL
MODEL 7
REMARK VINA RESULT:      -5.1      7.632     11.173
REMARK  12 active torsions:
REMARK  status: ('A' for Active; 'I' for Inactive)
REMARK    1  A    between atoms: C_1  and  C_2 
REMARK    2  A    between atoms: C_2  and  O_3 
REMARK    3  A    between atoms: O_3  and  C_4 
REMARK    4  A    between atoms: C_12  and  C_13 
REMARK    5  A    between atoms: C_16  and  O_21 
REMARK    6  A    between atoms: C_17  and  O_19 
REMARK    7  A    between atoms: O_19  and  C_20 
REMARK    8  A    between atoms: O_21  and  C_22 
REMARK    9  A    between atoms: C_22  and  C_24 
REMARK   10  A    between atoms: C_22  and  C_25 
REMARK   11  A    between atoms: C_25  and  O_27 
REMARK   12  A    between atoms: O_27  and  C_28 
ROOT
ATOM      1  C   LIG d   1       3.262  -2.001  -8.548  0.00  0.00    -0.018 A 
ATOM      2  C   LIG d   1       4.216  -2.554  -7.683  0.00  0.00    -0.051 A 
ATOM      3  C   LIG d   1       4.756  -1.788  -6.675  0.00  0.00    -0.016 A 
ATOM      4  C   LIG d   1       4.358  -0.468  -6.510  0.00  0.00     0.163 A 
ATOM      5  C   LIG d   1       3.409   0.091  -7.366  0.00  0.00     0.162 A 
ATOM      6  C   LIG d   1       2.866  -0.667  -8.385  0.00  0.00    -0.009 A 
ATOM      7  H   LIG d   1       4.527  -3.580  -7.809  0.00  0.00     0.062 H 
ATOM      8  H   LIG d   1       5.491  -2.216  -6.009  0.00  0.00     0.066 H 
ATOM      9  H   LIG d   1       2.135  -0.234  -9.051  0.00  0.00     0.066 H 
ENDROOT
BRANCH   1  10
ATOM     10  C   LIG d   1       2.684  -2.814  -9.624  0.00  0.00    -0.008 C 
ATOM     11  C   LIG d   1       2.880  -2.462 -10.920  0.00  0.00     0.176 A 
ATOM     12  O   LIG d   1       3.683  -1.467 -11.367  0.00  0.00    -0.451 OA
ATOM     13  C   LIG d   1       2.259  -3.091 -12.095  0.00  0.00     0.232 A 
ATOM     14  C   LIG d   1       3.660  -1.370 -12.714  0.00  0.00     0.143 A 
ATOM     15  C   LIG d   1       2.799  -2.344 -13.244  0.00  0.00     0.068 A 
ATOM     16  C   LIG d   1       4.319  -0.509 -13.585  0.00  0.00     0.023 A 
ATOM     17  C   LIG d   1       2.607  -2.443 -14.623  0.00  0.00    -0.044 A 
ATOM     18  C   LIG d   1       3.262  -1.589 -15.465  0.00  0.00    -0.019 A 
ATOM     19  H   LIG d   1       1.943  -3.194 -15.025  0.00  0.00     0.063 H 
ATOM     20  C   LIG d   1       4.119  -0.620 -14.951  0.00  0.00     0.124 A 
ATOM     21  H   LIG d   1       3.115  -1.666 -16.532  0.00  0.00     0.065 H 
ATOM     22  H   LIG d   1       4.986   0.246 -13.195  0.00  0.00     0.069 H 
ATOM     23  O   LIG d   1       1.472  -4.022 -12.113  0.00  0.00    -0.283 OA
ATOM     24  H   LIG d   1       2.102  -3.692  -9.384  0.00  0.00     0.066 H 
BRANCH  20  25
ATOM     25  O   LIG d   1       4.769   0.221 -15.795  0.00  0.00    -0.492 OA
BRANCH  25  26
ATOM     26  C   LIG d   1       4.119   0.531 -17.030  0.00  0.00     0.087 C 
ATOM     27  H   LIG d   1       4.788   0.305 -17.860  0.00  0.00     0.069 H 
ATOM     28  H   LIG d   1       3.211  -0.066 -17.121  0.00  0.00     0.069 H 
BRANCH  26  29
ATOM     29  C   LIG d   1       3.756   2.017 -17.056  0.00  0.00    -0.031 C 
ATOM     30  H   LIG d   1       3.516   2.314 -18.077  0.00  0.00     0.026 H 
ATOM     31  H   LIG d   1       2.892   2.191 -16.413  0.00  0.00     0.026 H 
ATOM     32  H   LIG d   1       4.601   2.604 -16.695  0.00  0.00     0.026 H 
ENDBRANCH  26  29
ENDBRANCH  25  26
ENDBRANCH  20  25
ENDBRANCH   1  10
BRANCH   5  33
ATOM     33  O   LIG d   1       3.023   1.385  -7.202  0.00  0.00    -0.491 OA
BRANCH  33  34
ATOM     34  C   LIG d   1       2.846   2.165  -8.386  0.00  0.00     0.079 C 
ATOM     35  H   LIG d   1       2.980   1.530  -9.262  0.00  0.00     0.066 H 
ATOM     36  H   LIG d   1       1.842   2.590  -8.395  0.00  0.00     0.066 H 
ATOM     37  H   LIG d   1       3.581   2.968  -8.404  0.00  0.00     0.066 H 
ENDBRANCH  33  34
ENDBRANCH   5  33
BRANCH   4  38
ATOM     38  O   LIG d   1       4.895   0.283  -5.514  0.00  0.00    -0.474 OA
BRANCH  38  39
ATOM     39  C   LIG d   1       4.615  -0.126  -4.173  0.00  0.00     0.193 C 
ATOM     40  H   LIG d   1       4.482  -1.207  -4.142  0.00  0.00     0.085 H 
BRANCH  39  41
ATOM     41  C   LIG d   1       3.337   0.560  -3.686  0.00  0.00    -0.017 C 
ATOM     42  H   LIG d   1       2.895  -0.026  -2.880  0.00  0.00     0.027 H 
ATOM     43  H   LIG d   1       3.578   1.558  -3.318  0.00  0.00     0.027 H 
ATOM     44  H   LIG d   1       2.629   0.638  -4.511  0.00  0.00     0.027 H 
ENDBRANCH  39  41
BRANCH  39  45
ATOM     45  C   LIG d   1       5.765   0.264  -3.280  0.00  0.00     0.348 C 
ATOM     46  O   LIG d   1       5.632   1.159  -2.479  0.00  0.00    -0.247 OA
BRANCH  45  47
ATOM     47  O   LIG d   1       6.938  -0.384  -3.374  0.00  0.00    -0.465 OA
BRANCH  47  48
ATOM     48  C   LIG d   1       6.894  -1.835  -3.333  0.00  0.00     0.082 C 
ATOM     49  H   LIG d   1       6.698  -2.220  -4.334  0.00  0.00     0.066 H 
ATOM     50  H   LIG d   1       7.852  -2.217  -2.978  0.00  0.00     0.066 H 
ATOM     51  H   LIG d   1       6.102  -2.156  -2.658  0.00  0.00     0.066 H 
ENDBRANCH  47  48
ENDBRANCH  45  47
ENDBRANCH  39  45
ENDBRANCH  38  39
ENDBRANCH   4  38
TORSDOF 12
ENDMDL
MODEL 8
REMARK VINA RESULT:      -5.0      4.704      8.976
REMARK  12 active torsions:
REMARK  status: ('A' for Active; 'I' for Inactive)
REMARK    1  A    between atoms: C_1  and  C_2 
REMARK    2  A    between atoms: C_2  and  O_3 
REMARK    3  A    between atoms: O_3  and  C_4 
REMARK    4  A    between atoms: C_12  and  C_13 
REMARK    5  A    between atoms: C_16  and  O_21 
REMARK    6  A    between atoms: C_17  and  O_19 
REMARK    7  A    between atoms: O_19  and  C_20 
REMARK    8  A    between atoms: O_21  and  C_22 
REMARK    9  A    between atoms: C_22  and  C_24 
REMARK   10  A    between atoms: C_22  and  C_25 
REMARK   11  A    between atoms: C_25  and  O_27 
REMARK   12  A    between atoms: O_27  and  C_28 
ROOT
ATOM      1  C   LIG d   1       9.092   1.521  -4.980  0.00  0.00    -0.018 A 
ATOM      2  C   LIG d   1       8.229   2.082  -4.029  0.00  0.00    -0.051 A 
ATOM      3  C   LIG d   1       7.096   1.403  -3.643  0.00  0.00    -0.016 A 
ATOM      4  C   LIG d   1       6.804   0.162  -4.192  0.00  0.00     0.163 A 
ATOM      5  C   LIG d   1       7.656  -0.405  -5.139  0.00  0.00     0.162 A 
ATOM      6  C   LIG d   1       8.793   0.271  -5.538  0.00  0.00    -0.009 A 
ATOM      7  H   LIG d   1       8.454   3.048  -3.601  0.00  0.00     0.062 H 
ATOM      8  H   LIG d   1       6.431   1.838  -2.910  0.00  0.00     0.066 H 
ATOM      9  H   LIG d   1       9.452  -0.165  -6.275  0.00  0.00     0.066 H 
ENDROOT
BRANCH   1  10
ATOM     10  C   LIG d   1      10.301   2.242  -5.394  0.00  0.00    -0.008 C 
ATOM     11  C   LIG d   1      10.281   3.018  -6.507  0.00  0.00     0.176 A 
ATOM     12  O   LIG d   1       9.191   3.317  -7.254  0.00  0.00    -0.451 OA
ATOM     13  C   LIG d   1      11.436   3.688  -7.122  0.00  0.00     0.232 A 
ATOM     14  C   LIG d   1       9.503   4.114  -8.300  0.00  0.00     0.143 A 
ATOM     15  C   LIG d   1      10.879   4.392  -8.290  0.00  0.00     0.068 A 
ATOM     16  C   LIG d   1       8.714   4.659  -9.307  0.00  0.00     0.023 A 
ATOM     17  C   LIG d   1      11.444   5.200  -9.277  0.00  0.00    -0.044 A 
ATOM     18  C   LIG d   1      10.655   5.728 -10.260  0.00  0.00    -0.019 A 
ATOM     19  H   LIG d   1      12.504   5.410  -9.264  0.00  0.00     0.063 H 
ATOM     20  C   LIG d   1       9.289   5.460 -10.280  0.00  0.00     0.124 A 
ATOM     21  H   LIG d   1      11.092   6.354 -11.023  0.00  0.00     0.065 H 
ATOM     22  H   LIG d   1       7.653   4.457  -9.330  0.00  0.00     0.069 H 
ATOM     23  O   LIG d   1      12.596   3.664  -6.748  0.00  0.00    -0.283 OA
ATOM     24  H   LIG d   1      11.208   2.154  -4.814  0.00  0.00     0.066 H 
BRANCH  20  25
ATOM     25  O   LIG d   1       8.513   5.992 -11.257  0.00  0.00    -0.492 OA
BRANCH  25  26
ATOM     26  C   LIG d   1       9.186   6.613 -12.355  0.00  0.00     0.087 C 
ATOM     27  H   LIG d   1       8.791   7.618 -12.501  0.00  0.00     0.069 H 
ATOM     28  H   LIG d   1      10.253   6.670 -12.140  0.00  0.00     0.069 H 
BRANCH  26  29
ATOM     29  C   LIG d   1       8.964   5.787 -13.623  0.00  0.00    -0.031 C 
ATOM     30  H   LIG d   1       8.299   6.327 -14.296  0.00  0.00     0.026 H 
ATOM     31  H   LIG d   1       9.921   5.616 -14.117  0.00  0.00     0.026 H 
ATOM     32  H   LIG d   1       8.516   4.829 -13.359  0.00  0.00     0.026 H 
ENDBRANCH  26  29
ENDBRANCH  25  26
ENDBRANCH  20  25
ENDBRANCH   1  10
BRANCH   5  33
ATOM     33  O   LIG d   1       7.367  -1.621  -5.675  0.00  0.00    -0.491 OA
BRANCH  33  34
ATOM     34  C   LIG d   1       7.434  -1.736  -7.098  0.00  0.00     0.079 C 
ATOM     35  H   LIG d   1       8.453  -1.986  -7.393  0.00  0.00     0.066 H 
ATOM     36  H   LIG d   1       6.757  -2.523  -7.431  0.00  0.00     0.066 H 
ATOM     37  H   LIG d   1       7.145  -0.790  -7.553  0.00  0.00     0.066 H 
ENDBRANCH  33  34
ENDBRANCH   5  33
BRANCH   4  38
ATOM     38  O   LIG d   1       5.684  -0.503  -3.808  0.00  0.00    -0.474 OA
BRANCH  38  39
ATOM     39  C   LIG d   1       5.055  -0.068  -2.600  0.00  0.00     0.193 C 
ATOM     40  H   LIG d   1       5.784   0.444  -1.974  0.00  0.00     0.085 H 
BRANCH  39  41
ATOM     41  C   LIG d   1       4.500  -1.280  -1.848  0.00  0.00    -0.017 C 
ATOM     42  H   LIG d   1       3.493  -1.498  -2.204  0.00  0.00     0.027 H 
ATOM     43  H   LIG d   1       5.142  -2.143  -2.027  0.00  0.00     0.027 H 
ATOM     44  H   LIG d   1       4.470  -1.063  -0.780  0.00  0.00     0.027 H 
ENDBRANCH  39  41
BRANCH  39  45
ATOM     45  C   LIG d   1       3.928   0.875  -2.933  0.00  0.00     0.348 C 
ATOM     46  O   LIG d   1       3.335   1.446  -2.048  0.00  0.00    -0.247 OA
BRANCH  45  47
ATOM     47  O   LIG d   1       3.581   1.082  -4.214  0.00  0.00    -0.465 OA
BRANCH  47  48
ATOM     48  C   LIG d   1       2.429   0.353  -4.711  0.00  0.00     0.082 C 
ATOM     49  H   LIG d   1       1.891   0.970  -5.431  0.00  0.00     0.066 H 
ATOM     50  H   LIG d   1       2.762  -0.564  -5.198  0.00  0.00     0.066 H 
ATOM     51  H   LIG d   1       1.770   0.104  -3.881  0.00  0.00     0.066 H 
ENDBRANCH  47  48
ENDBRANCH  45  47
ENDBRANCH  39  45
ENDBRANCH  38  39
ENDBRANCH   4  38
TORSDOF 12
ENDMDL
MODEL 9
REMARK VINA RESULT:      -5.0      2.165      8.911
REMARK  12 active torsions:
REMARK  status: ('A' for Active; 'I' for Inactive)
REMARK    1  A    between atoms: C_1  and  C_2 
REMARK    2  A    between atoms: C_2  and  O_3 
REMARK    3  A    between atoms: O_3  and  C_4 
REMARK    4  A    between atoms: C_12  and  C_13 
REMARK    5  A    between atoms: C_16  and  O_21 
REMARK    6  A    between atoms: C_17  and  O_19 
REMARK    7  A    between atoms: O_19  and  C_20 
REMARK    8  A    between atoms: O_21  and  C_22 
REMARK    9  A    between atoms: C_22  and  C_24 
REMARK   10  A    between atoms: C_22  and  C_25 
REMARK   11  A    between atoms: C_25  and  O_27 
REMARK   12  A    between atoms: O_27  and  C_28 
ROOT
ATOM      1  C   LIG d   1       8.521   2.053  -5.415  0.00  0.00    -0.018 A 
ATOM      2  C   LIG d   1       8.330   1.965  -4.030  0.00  0.00    -0.051 A 
ATOM      3  C   LIG d   1       7.401   1.087  -3.518  0.00  0.00    -0.016 A 
ATOM      4  C   LIG d   1       6.652   0.287  -4.371  0.00  0.00     0.163 A 
ATOM      5  C   LIG d   1       6.835   0.367  -5.751  0.00  0.00     0.162 A 
ATOM      6  C   LIG d   1       7.761   1.249  -6.274  0.00  0.00    -0.009 A 
ATOM      7  H   LIG d   1       8.911   2.586  -3.365  0.00  0.00     0.062 H 
ATOM      8  H   LIG d   1       7.255   1.021  -2.450  0.00  0.00     0.066 H 
ATOM      9  H   LIG d   1       7.900   1.316  -7.344  0.00  0.00     0.066 H 
ENDROOT
BRANCH   1  10
ATOM     10  C   LIG d   1       9.511   2.987  -5.964  0.00  0.00    -0.008 C 
ATOM     11  C   LIG d   1       9.761   4.161  -5.331  0.00  0.00     0.176 A 
ATOM     12  O   LIG d   1       9.268   4.542  -4.128  0.00  0.00    -0.451 OA
ATOM     13  C   LIG d   1      10.615   5.250  -5.824  0.00  0.00     0.232 A 
ATOM     14  C   LIG d   1       9.706   5.769  -3.772  0.00  0.00     0.143 A 
ATOM     15  C   LIG d   1      10.549   6.280  -4.772  0.00  0.00     0.068 A 
ATOM     16  C   LIG d   1       9.461   6.540  -2.641  0.00  0.00     0.023 A 
ATOM     17  C   LIG d   1      11.128   7.541  -4.632  0.00  0.00    -0.044 A 
ATOM     18  C   LIG d   1      10.877   8.287  -3.515  0.00  0.00    -0.019 A 
ATOM     19  H   LIG d   1      11.775   7.929  -5.405  0.00  0.00     0.063 H 
ATOM     20  C   LIG d   1      10.042   7.790  -2.516  0.00  0.00     0.124 A 
ATOM     21  H   LIG d   1      11.326   9.263  -3.406  0.00  0.00     0.065 H 
ATOM     22  H   LIG d   1       8.815   6.163  -1.861  0.00  0.00     0.069 H 
ATOM     23  O   LIG d   1      11.239   5.293  -6.871  0.00  0.00    -0.283 OA
ATOM     24  H   LIG d   1      10.040   2.740  -6.874  0.00  0.00     0.066 H 
BRANCH  20  25
ATOM     25  O   LIG d   1       9.803   8.536  -1.408  0.00  0.00    -0.492 OA
BRANCH  25  26
ATOM     26  C   LIG d   1      10.913   9.238  -0.845  0.00  0.00     0.087 C 
ATOM     27  H   LIG d   1      11.748   9.218  -1.546  0.00  0.00     0.069 H 
ATOM     28  H   LIG d   1      10.627  10.272  -0.651  0.00  0.00     0.069 H 
BRANCH  26  29
ATOM     29  C   LIG d   1      11.329   8.570   0.466  0.00  0.00    -0.031 C 
ATOM     30  H   LIG d   1      11.577   9.335   1.201  0.00  0.00     0.026 H 
ATOM     31  H   LIG d   1      10.507   7.959   0.839  0.00  0.00     0.026 H 
ATOM     32  H   LIG d   1      12.200   7.938   0.291  0.00  0.00     0.026 H 
ENDBRANCH  26  29
ENDBRANCH  25  26
ENDBRANCH  20  25
ENDBRANCH   1  10
BRANCH   5  33
ATOM     33  O   LIG d   1       6.099  -0.417  -6.582  0.00  0.00    -0.491 OA
BRANCH  33  34
ATOM     34  C   LIG d   1       6.223  -0.173  -7.985  0.00  0.00     0.079 C 
ATOM     35  H   LIG d   1       6.067   0.888  -8.183  0.00  0.00     0.066 H 
ATOM     36  H   LIG d   1       7.220  -0.462  -8.318  0.00  0.00     0.066 H 
ATOM     37  H   LIG d   1       5.477  -0.757  -8.522  0.00  0.00     0.066 H 
ENDBRANCH  33  34
ENDBRANCH   5  33
BRANCH   4  38
ATOM     38  O   LIG d   1       5.737  -0.576  -3.860  0.00  0.00    -0.474 OA
BRANCH  38  39
ATOM     39  C   LIG d   1       4.920  -0.097  -2.790  0.00  0.00     0.193 C 
ATOM     40  H   LIG d   1       5.515   0.536  -2.133  0.00  0.00     0.085 H 
BRANCH  39  41
ATOM     41  C   LIG d   1       4.371  -1.283  -1.994  0.00  0.00    -0.017 C 
ATOM     42  H   LIG d   1       5.092  -1.574  -1.230  0.00  0.00     0.027 H 
ATOM     43  H   LIG d   1       3.433  -0.998  -1.517  0.00  0.00     0.027 H 
ATOM     44  H   LIG d   1       4.196  -2.123  -2.668  0.00  0.00     0.027 H 
ENDBRANCH  39  41
BRANCH  39  45
ATOM     45  C   LIG d   1       3.773   0.703  -3.353  0.00  0.00     0.348 C 
ATOM     46  O   LIG d   1       3.737   1.901  -3.197  0.00  0.00    -0.247 OA
BRANCH  45  47
ATOM     47  O   LIG d   1       2.791   0.084  -4.028  0.00  0.00    -0.465 OA
BRANCH  47  48
ATOM     48  C   LIG d   1       2.707   0.344  -5.454  0.00  0.00     0.082 C 
ATOM     49  H   LIG d   1       2.259   1.325  -5.618  0.00  0.00     0.066 H 
ATOM     50  H   LIG d   1       3.708   0.326  -5.886  0.00  0.00     0.066 H 
ATOM     51  H   LIG d   1       2.092  -0.420  -5.928  0.00  0.00     0.066 H 
ENDBRANCH  47  48
ENDBRANCH  45  47
ENDBRANCH  39  45
ENDBRANCH  38  39
ENDBRANCH   4  38
TORSDOF 12
ENDMDL
MODEL 10
REMARK VINA RESULT:      -5.0      7.851     11.811
REMARK  12 active torsions:
REMARK  status: ('A' for Active; 'I' for Inactive)
REMARK    1  A    between atoms: C_1  and  C_2 
REMARK    2  A    between atoms: C_2  and  O_3 
REMARK    3  A    between atoms: O_3  and  C_4 
REMARK    4  A    between atoms: C_12  and  C_13 
REMARK    5  A    between atoms: C_16  and  O_21 
REMARK    6  A    between atoms: C_17  and  O_19 
REMARK    7  A    between atoms: O_19  and  C_20 
REMARK    8  A    between atoms: O_21  and  C_22 
REMARK    9  A    between atoms: C_22  and  C_24 
REMARK   10  A    between atoms: C_22  and  C_25 
REMARK   11  A    between atoms: C_25  and  O_27 
REMARK   12  A    between atoms: O_27  and  C_28 
ROOT
ATOM      1  C   LIG d   1       2.608  -1.258 -10.242  0.00  0.00    -0.018 A 
ATOM      2  C   LIG d   1       3.126  -2.131  -9.277  0.00  0.00    -0.051 A 
ATOM      3  C   LIG d   1       3.601  -1.635  -8.084  0.00  0.00    -0.016 A 
ATOM      4  C   LIG d   1       3.569  -0.269  -7.833  0.00  0.00     0.163 A 
ATOM      5  C   LIG d   1       3.055   0.608  -8.788  0.00  0.00     0.162 A 
ATOM      6  C   LIG d   1       2.582   0.120  -9.990  0.00  0.00    -0.009 A 
ATOM      7  H   LIG d   1       3.153  -3.194  -9.470  0.00  0.00     0.062 H 
ATOM      8  H   LIG d   1       4.001  -2.310  -7.341  0.00  0.00     0.066 H 
ATOM      9  H   LIG d   1       2.188   0.799 -10.733  0.00  0.00     0.066 H 
ENDROOT
BRANCH   1  10
ATOM     10  C   LIG d   1       2.101  -1.783 -11.515  0.00  0.00    -0.008 C 
ATOM     11  C   LIG d   1       1.217  -2.813 -11.520  0.00  0.00     0.176 A 
ATOM     12  O   LIG d   1       0.626  -3.366 -10.433  0.00  0.00    -0.451 OA
ATOM     13  C   LIG d   1       0.726  -3.533 -12.704  0.00  0.00     0.232 A 
ATOM     14  C   LIG d   1      -0.204  -4.376 -10.773  0.00  0.00     0.143 A 
ATOM     15  C   LIG d   1      -0.200  -4.544 -12.167  0.00  0.00     0.068 A 
ATOM     16  C   LIG d   1      -1.003  -5.208  -9.998  0.00  0.00     0.023 A 
ATOM     17  C   LIG d   1      -0.984  -5.533 -12.762  0.00  0.00    -0.044 A 
ATOM     18  C   LIG d   1      -1.764  -6.344 -11.986  0.00  0.00    -0.019 A 
ATOM     19  H   LIG d   1      -0.976  -5.658 -13.835  0.00  0.00     0.063 H 
ATOM     20  C   LIG d   1      -1.777  -6.185 -10.602  0.00  0.00     0.124 A 
ATOM     21  H   LIG d   1      -2.372  -7.108 -12.446  0.00  0.00     0.065 H 
ATOM     22  H   LIG d   1      -1.020  -5.093  -8.924  0.00  0.00     0.069 H 
ATOM     23  O   LIG d   1       1.022  -3.335 -13.871  0.00  0.00    -0.283 OA
ATOM     24  H   LIG d   1       2.432  -1.351 -12.448  0.00  0.00     0.066 H 
BRANCH  20  25
ATOM     25  O   LIG d   1      -2.558  -6.991  -9.840  0.00  0.00    -0.492 OA
BRANCH  25  26
ATOM     26  C   LIG d   1      -3.312  -7.997 -10.521  0.00  0.00     0.087 C 
ATOM     27  H   LIG d   1      -4.370  -7.878 -10.288  0.00  0.00     0.069 H 
ATOM     28  H   LIG d   1      -3.164  -7.895 -11.596  0.00  0.00     0.069 H 
BRANCH  26  29
ATOM     29  C   LIG d   1      -2.842  -9.381 -10.070  0.00  0.00    -0.031 C 
ATOM     30  H   LIG d   1      -1.797  -9.327  -9.764  0.00  0.00     0.026 H 
ATOM     31  H   LIG d   1      -3.451  -9.716  -9.230  0.00  0.00     0.026 H 
ATOM     32  H   LIG d   1      -2.943 -10.086 -10.896  0.00  0.00     0.026 H 
ENDBRANCH  26  29
ENDBRANCH  25  26
ENDBRANCH  20  25
ENDBRANCH   1  10
BRANCH   5  33
ATOM     33  O   LIG d   1       3.025   1.944  -8.539  0.00  0.00    -0.491 OA
BRANCH  33  34
ATOM     34  C   LIG d   1       3.947   2.761  -9.263  0.00  0.00     0.079 C 
ATOM     35  H   LIG d   1       4.114   3.690  -8.718  0.00  0.00     0.066 H 
ATOM     36  H   LIG d   1       4.893   2.231  -9.375  0.00  0.00     0.066 H 
ATOM     37  H   LIG d   1       3.538   2.985 -10.247  0.00  0.00     0.066 H 
ENDBRANCH  33  34
ENDBRANCH   5  33
BRANCH   4  38
ATOM     38  O   LIG d   1       4.039   0.214  -6.655  0.00  0.00    -0.474 OA
BRANCH  38  39
ATOM     39  C   LIG d   1       3.540  -0.391  -5.460  0.00  0.00     0.193 C 
ATOM     40  H   LIG d   1       3.173  -1.392  -5.686  0.00  0.00     0.085 H 
BRANCH  39  41
ATOM     41  C   LIG d   1       2.398   0.456  -4.896  0.00  0.00    -0.017 C 
ATOM     42  H   LIG d   1       1.496   0.288  -5.485  0.00  0.00     0.027 H 
ATOM     43  H   LIG d   1       2.213   0.172  -3.860  0.00  0.00     0.027 H 
ATOM     44  H   LIG d   1       2.671   1.511  -4.941  0.00  0.00     0.027 H 
ENDBRANCH  39  41
BRANCH  39  45
ATOM     45  C   LIG d   1       4.648  -0.481  -4.443  0.00  0.00     0.348 C 
ATOM     46  O   LIG d   1       5.327   0.489  -4.201  0.00  0.00    -0.247 OA
BRANCH  45  47
ATOM     47  O   LIG d   1       4.881  -1.639  -3.803  0.00  0.00    -0.465 OA
BRANCH  47  48
ATOM     48  C   LIG d   1       3.933  -2.025  -2.774  0.00  0.00     0.082 C 
ATOM     49  H   LIG d   1       3.093  -1.331  -2.775  0.00  0.00     0.066 H 
ATOM     50  H   LIG d   1       3.570  -3.034  -2.975  0.00  0.00     0.066 H 
ATOM     51  H   LIG d   1       4.423  -2.003  -1.801  0.00  0.00     0.066 H 
ENDBRANCH  47  48
ENDBRANCH  45  47
ENDBRANCH  39  45
ENDBRANCH  38  39
ENDBRANCH   4  38
TORSDOF 12
ENDMDL
