MODEL 1
REMARK VINA RESULT:      -6.6      0.000      0.000
REMARK  5 active torsions:
REMARK  status: ('A' for Active; 'I' for Inactive)
REMARK    1  A    between atoms: C_1  and  C_2 
REMARK    2  A    between atoms: C_2  and  C_11 
REMARK    3  A    between atoms: N_3  and  C_4 
REMARK    4  A    between atoms: C_9  and  N_10 
REMARK    5  A    between atoms: N_19  and  C_22 
ROOT
ATOM      1  C   LIG d   1       6.189  -1.561  -5.862  0.00  0.00     0.052 A 
ATOM      2  C   LIG d   1       5.763  -0.382  -6.536  0.00  0.00     0.198 A 
ATOM      3  C   LIG d   1       4.689  -0.512  -7.538  0.00  0.00     0.046 A 
ATOM      4  C   LIG d   1       4.220   0.600  -8.238  0.00  0.00    -0.049 A 
ATOM      5  C   LIG d   1       3.216   0.446  -9.168  0.00  0.00    -0.061 A 
ATOM      6  C   LIG d   1       2.670  -0.806  -9.409  0.00  0.00    -0.060 A 
ATOM      7  C   LIG d   1       3.123  -1.913  -8.724  0.00  0.00    -0.037 A 
ATOM      8  C   LIG d   1       4.138  -1.780  -7.781  0.00  0.00     0.052 A 
ATOM      9  N   LIG d   1       4.602  -2.880  -7.088  0.00  0.00    -0.356 N 
ATOM     10  C   LIG d   1       5.591  -2.781  -6.170  0.00  0.00    -0.023 A 
ATOM     11  O   LIG d   1       6.005  -3.893  -5.530  0.00  0.00    -0.861 OA
ATOM     12  O   LIG d   1       6.270   0.700  -6.293  0.00  0.00    -0.286 OA
ATOM     13  H   LIG d   1       4.643   1.577  -8.052  0.00  0.00     0.062 H 
ATOM     14  H   LIG d   1       2.851   1.305  -9.712  0.00  0.00     0.062 H 
ATOM     15  H   LIG d   1       1.883  -0.915 -10.140  0.00  0.00     0.062 H 
ATOM     16  H   LIG d   1       2.691  -2.884  -8.920  0.00  0.00     0.064 H 
ENDROOT
BRANCH   1  17
ATOM     17  C   LIG d   1       7.252  -1.493  -4.858  0.00  0.00     0.051 C 
ATOM     18  N   LIG d   1       6.956  -1.259  -3.607  0.00  0.00    -0.250 NA
BRANCH  17  19
ATOM     19  C   LIG d   1       8.690  -1.693  -5.266  0.00  0.00    -0.022 C 
ATOM     20  H   LIG d   1       8.787  -1.539  -6.341  0.00  0.00     0.029 H 
ATOM     21  H   LIG d   1       9.320  -0.978  -4.738  0.00  0.00     0.029 H 
ATOM     22  H   LIG d   1       9.001  -2.707  -5.015  0.00  0.00     0.029 H 
ENDBRANCH  17  19
BRANCH  18  23
ATOM     23  C   LIG d   1       5.670  -0.945  -3.256  0.00  0.00     0.085 A 
ATOM     24  C   LIG d   1       5.281   0.397  -3.135  0.00  0.00     0.050 A 
ATOM     25  C   LIG d   1       3.976   0.704  -2.784  0.00  0.00    -0.039 A 
ATOM     26  C   LIG d   1       3.066  -0.309  -2.544  0.00  0.00    -0.060 A 
ATOM     27  H   LIG d   1       3.670   1.736  -2.694  0.00  0.00     0.064 H 
ATOM     28  C   LIG d   1       3.448  -1.635  -2.658  0.00  0.00    -0.060 A 
ATOM     29  H   LIG d   1       2.051  -0.065  -2.267  0.00  0.00     0.062 H 
ATOM     30  C   LIG d   1       4.742  -1.958  -3.011  0.00  0.00    -0.035 A 
ATOM     31  H   LIG d   1       2.731  -2.419  -2.469  0.00  0.00     0.062 H 
ATOM     32  H   LIG d   1       5.036  -2.994  -3.099  0.00  0.00     0.064 H 
BRANCH  24  33
ATOM     33  N   LIG d   1       6.202   1.419  -3.372  0.00  0.00    -0.356 N 
ATOM     34  H   LIG d   1       6.798   1.367  -4.135  0.00  0.00     0.142 HD
ATOM     35  H   LIG d   1       6.246   2.181  -2.773  0.00  0.00     0.142 HD
ENDBRANCH  24  33
ENDBRANCH  18  23
ENDBRANCH   1  17
BRANCH   9  36
ATOM     36  C   LIG d   1       4.012  -4.193  -7.358  0.00  0.00     0.011 C 
ATOM     37  H   LIG d   1       2.950  -4.172  -7.117  0.00  0.00     0.045 H 
ATOM     38  H   LIG d   1       4.141  -4.439  -8.412  0.00  0.00     0.045 H 
ATOM     39  H   LIG d   1       4.508  -4.946  -6.745  0.00  0.00     0.045 H 
ENDBRANCH   9  36
TORSDOF 5
ENDMDL
MODEL 2
REMARK VINA RESULT:      -6.5      2.082      3.437
REMARK  5 active torsions:
REMARK  status: ('A' for Active; 'I' for Inactive)
REMARK    1  A    between atoms: C_1  and  C_2 
REMARK    2  A    between atoms: C_2  and  C_11 
REMARK    3  A    between atoms: N_3  and  C_4 
REMARK    4  A    between atoms: C_9  and  N_10 
REMARK    5  A    between atoms: N_19  and  C_22 
ROOT
ATOM      1  C   LIG d   1       5.510  -1.645  -5.424  0.00  0.00     0.052 A 
ATOM      2  C   LIG d   1       5.022  -0.928  -6.552  0.00  0.00     0.198 A 
ATOM      3  C   LIG d   1       5.912   0.072  -7.170  0.00  0.00     0.046 A 
ATOM      4  C   LIG d   1       5.502   0.814  -8.278  0.00  0.00    -0.049 A 
ATOM      5  C   LIG d   1       6.356   1.740  -8.832  0.00  0.00    -0.061 A 
ATOM      6  C   LIG d   1       7.620   1.938  -8.294  0.00  0.00    -0.060 A 
ATOM      7  C   LIG d   1       8.039   1.212  -7.201  0.00  0.00    -0.037 A 
ATOM      8  C   LIG d   1       7.191   0.271  -6.624  0.00  0.00     0.052 A 
ATOM      9  N   LIG d   1       7.596  -0.462  -5.527  0.00  0.00    -0.356 N 
ATOM     10  C   LIG d   1       6.791  -1.379  -4.944  0.00  0.00    -0.023 A 
ATOM     11  O   LIG d   1       7.242  -2.061  -3.871  0.00  0.00    -0.861 OA
ATOM     12  O   LIG d   1       3.904  -1.134  -6.993  0.00  0.00    -0.286 OA
ATOM     13  H   LIG d   1       4.518   0.662  -8.699  0.00  0.00     0.062 H 
ATOM     14  H   LIG d   1       6.041   2.316  -9.690  0.00  0.00     0.062 H 
ATOM     15  H   LIG d   1       8.281   2.668  -8.737  0.00  0.00     0.062 H 
ATOM     16  H   LIG d   1       9.025   1.375  -6.790  0.00  0.00     0.064 H 
ENDROOT
BRANCH   1  17
ATOM     17  C   LIG d   1       4.671  -2.651  -4.769  0.00  0.00     0.051 C 
ATOM     18  N   LIG d   1       3.876  -2.303  -3.792  0.00  0.00    -0.250 NA
BRANCH  17  19
ATOM     19  C   LIG d   1       4.723  -4.087  -5.222  0.00  0.00    -0.022 C 
ATOM     20  H   LIG d   1       5.554  -4.220  -5.915  0.00  0.00     0.029 H 
ATOM     21  H   LIG d   1       4.863  -4.736  -4.358  0.00  0.00     0.029 H 
ATOM     22  H   LIG d   1       3.789  -4.345  -5.722  0.00  0.00     0.029 H 
ENDBRANCH  17  19
BRANCH  18  23
ATOM     23  C   LIG d   1       3.925  -1.029  -3.291  0.00  0.00     0.085 A 
ATOM     24  C   LIG d   1       3.071  -0.039  -3.799  0.00  0.00     0.050 A 
ATOM     25  C   LIG d   1       3.126   1.245  -3.281  0.00  0.00    -0.039 A 
ATOM     26  C   LIG d   1       4.025   1.550  -2.276  0.00  0.00    -0.060 A 
ATOM     27  H   LIG d   1       2.468   2.011  -3.666  0.00  0.00     0.064 H 
ATOM     28  C   LIG d   1       4.872   0.576  -1.776  0.00  0.00    -0.060 A 
ATOM     29  H   LIG d   1       4.067   2.553  -1.878  0.00  0.00     0.062 H 
ATOM     30  C   LIG d   1       4.827  -0.709  -2.276  0.00  0.00    -0.035 A 
ATOM     31  H   LIG d   1       5.570   0.823  -0.990  0.00  0.00     0.062 H 
ATOM     32  H   LIG d   1       5.490  -1.466  -1.883  0.00  0.00     0.064 H 
BRANCH  24  33
ATOM     33  N   LIG d   1       2.168  -0.347  -4.818  0.00  0.00    -0.356 N 
ATOM     34  H   LIG d   1       1.687  -1.189  -4.802  0.00  0.00     0.142 HD
ATOM     35  H   LIG d   1       2.021   0.282  -5.542  0.00  0.00     0.142 HD
ENDBRANCH  24  33
ENDBRANCH  18  23
ENDBRANCH   1  17
BRANCH   9  36
ATOM     36  C   LIG d   1       8.934  -0.237  -4.975  0.00  0.00     0.011 C 
ATOM     37  H   LIG d   1       9.025   0.800  -4.653  0.00  0.00     0.045 H 
ATOM     38  H   LIG d   1       9.091  -0.897  -4.122  0.00  0.00     0.045 H 
ATOM     39  H   LIG d   1       9.682  -0.447  -5.740  0.00  0.00     0.045 H 
ENDBRANCH   9  36
TORSDOF 5
ENDMDL
MODEL 3
REMARK VINA RESULT:      -6.4      2.200      4.014
REMARK  5 active torsions:
REMARK  status: ('A' for Active; 'I' for Inactive)
REMARK    1  A    between atoms: C_1  and  C_2 
REMARK    2  A    between atoms: C_2  and  C_11 
REMARK    3  A    between atoms: N_3  and  C_4 
REMARK    4  A    between atoms: C_9  and  N_10 
REMARK    5  A    between atoms: N_19  and  C_22 
ROOT
ATOM      1  C   LIG d   1       5.598  -1.628  -5.298  0.00  0.00     0.052 A 
ATOM      2  C   LIG d   1       6.864  -1.334  -4.718  0.00  0.00     0.198 A 
ATOM      3  C   LIG d   1       7.698  -0.307  -5.369  0.00  0.00     0.046 A 
ATOM      4  C   LIG d   1       8.951   0.033  -4.857  0.00  0.00    -0.049 A 
ATOM      5  C   LIG d   1       9.705   0.996  -5.488  0.00  0.00    -0.061 A 
ATOM      6  C   LIG d   1       9.226   1.628  -6.627  0.00  0.00    -0.060 A 
ATOM      7  C   LIG d   1       7.990   1.303  -7.142  0.00  0.00    -0.037 A 
ATOM      8  C   LIG d   1       7.211   0.331  -6.521  0.00  0.00     0.052 A 
ATOM      9  N   LIG d   1       5.972  -0.006  -7.027  0.00  0.00    -0.356 N 
ATOM     10  C   LIG d   1       5.196  -0.950  -6.447  0.00  0.00    -0.023 A 
ATOM     11  O   LIG d   1       3.997  -1.240  -6.992  0.00  0.00    -0.861 OA
ATOM     12  O   LIG d   1       7.247  -1.914  -3.716  0.00  0.00    -0.286 OA
ATOM     13  H   LIG d   1       9.327  -0.457  -3.971  0.00  0.00     0.062 H 
ATOM     14  H   LIG d   1      10.676   1.261  -5.095  0.00  0.00     0.062 H 
ATOM     15  H   LIG d   1       9.827   2.382  -7.113  0.00  0.00     0.062 H 
ATOM     16  H   LIG d   1       7.627   1.801  -8.029  0.00  0.00     0.064 H 
ENDROOT
BRANCH   1  17
ATOM     17  C   LIG d   1       4.727  -2.639  -4.695  0.00  0.00     0.051 C 
ATOM     18  N   LIG d   1       3.880  -2.299  -3.760  0.00  0.00    -0.250 NA
BRANCH  17  19
ATOM     19  C   LIG d   1       4.808  -4.074  -5.153  0.00  0.00    -0.022 C 
ATOM     20  H   LIG d   1       4.287  -4.712  -4.440  0.00  0.00     0.029 H 
ATOM     21  H   LIG d   1       4.342  -4.168  -6.134  0.00  0.00     0.029 H 
ATOM     22  H   LIG d   1       5.853  -4.376  -5.217  0.00  0.00     0.029 H 
ENDBRANCH  17  19
BRANCH  18  23
ATOM     23  C   LIG d   1       3.899  -1.029  -3.249  0.00  0.00     0.085 A 
ATOM     24  C   LIG d   1       3.087  -0.033  -3.810  0.00  0.00     0.050 A 
ATOM     25  C   LIG d   1       3.110   1.249  -3.283  0.00  0.00    -0.039 A 
ATOM     26  C   LIG d   1       3.938   1.545  -2.216  0.00  0.00    -0.060 A 
ATOM     27  H   LIG d   1       2.483   2.019  -3.709  0.00  0.00     0.064 H 
ATOM     28  C   LIG d   1       4.744   0.564  -1.663  0.00  0.00    -0.060 A 
ATOM     29  H   LIG d   1       3.956   2.545  -1.810  0.00  0.00     0.062 H 
ATOM     30  C   LIG d   1       4.730  -0.718  -2.172  0.00  0.00    -0.035 A 
ATOM     31  H   LIG d   1       5.387   0.804  -0.829  0.00  0.00     0.062 H 
ATOM     32  H   LIG d   1       5.360  -1.479  -1.738  0.00  0.00     0.064 H 
BRANCH  24  33
ATOM     33  N   LIG d   1       2.256  -0.331  -4.892  0.00  0.00    -0.356 N 
ATOM     34  H   LIG d   1       2.536  -0.112  -5.794  0.00  0.00     0.142 HD
ATOM     35  H   LIG d   1       1.397  -0.757  -4.740  0.00  0.00     0.142 HD
ENDBRANCH  24  33
ENDBRANCH  18  23
ENDBRANCH   1  17
BRANCH   9  36
ATOM     36  C   LIG d   1       5.485   0.673  -8.230  0.00  0.00     0.011 C 
ATOM     37  H   LIG d   1       4.682   0.088  -8.679  0.00  0.00     0.045 H 
ATOM     38  H   LIG d   1       5.109   1.661  -7.963  0.00  0.00     0.045 H 
ATOM     39  H   LIG d   1       6.302   0.775  -8.944  0.00  0.00     0.045 H 
ENDBRANCH   9  36
TORSDOF 5
ENDMDL
MODEL 4
REMARK VINA RESULT:      -6.2      1.621      2.430
REMARK  5 active torsions:
REMARK  status: ('A' for Active; 'I' for Inactive)
REMARK    1  A    between atoms: C_1  and  C_2 
REMARK    2  A    between atoms: C_2  and  C_11 
REMARK    3  A    between atoms: N_3  and  C_4 
REMARK    4  A    between atoms: C_9  and  N_10 
REMARK    5  A    between atoms: N_19  and  C_22 
ROOT
ATOM      1  C   LIG d   1       6.382  -1.525  -5.393  0.00  0.00     0.052 A 
ATOM      2  C   LIG d   1       7.119  -0.398  -5.852  0.00  0.00     0.198 A 
ATOM      3  C   LIG d   1       6.630   0.302  -7.054  0.00  0.00     0.046 A 
ATOM      4  C   LIG d   1       7.302   1.415  -7.562  0.00  0.00    -0.049 A 
ATOM      5  C   LIG d   1       6.820   2.047  -8.687  0.00  0.00    -0.061 A 
ATOM      6  C   LIG d   1       5.673   1.582  -9.314  0.00  0.00    -0.060 A 
ATOM      7  C   LIG d   1       4.999   0.486  -8.823  0.00  0.00    -0.037 A 
ATOM      8  C   LIG d   1       5.469  -0.169  -7.688  0.00  0.00     0.052 A 
ATOM      9  N   LIG d   1       4.805  -1.270  -7.185  0.00  0.00    -0.356 N 
ATOM     10  C   LIG d   1       5.243  -1.928  -6.087  0.00  0.00    -0.023 A 
ATOM     11  O   LIG d   1       4.554  -3.000  -5.648  0.00  0.00    -0.861 OA
ATOM     12  O   LIG d   1       8.123  -0.023  -5.270  0.00  0.00    -0.286 OA
ATOM     13  H   LIG d   1       8.196   1.779  -7.076  0.00  0.00     0.062 H 
ATOM     14  H   LIG d   1       7.338   2.908  -9.083  0.00  0.00     0.062 H 
ATOM     15  H   LIG d   1       5.304   2.086 -10.196  0.00  0.00     0.062 H 
ATOM     16  H   LIG d   1       4.107   0.133  -9.320  0.00  0.00     0.064 H 
ENDROOT
BRANCH   1  17
ATOM     17  C   LIG d   1       6.820  -2.259  -4.205  0.00  0.00     0.051 C 
ATOM     18  N   LIG d   1       6.287  -1.997  -3.041  0.00  0.00    -0.250 NA
BRANCH  17  19
ATOM     19  C   LIG d   1       7.886  -3.318  -4.324  0.00  0.00    -0.022 C 
ATOM     20  H   LIG d   1       8.813  -2.863  -4.671  0.00  0.00     0.029 H 
ATOM     21  H   LIG d   1       8.049  -3.780  -3.350  0.00  0.00     0.029 H 
ATOM     22  H   LIG d   1       7.566  -4.078  -5.037  0.00  0.00     0.029 H 
ENDBRANCH  17  19
BRANCH  18  23
ATOM     23  C   LIG d   1       5.419  -0.947  -2.907  0.00  0.00     0.085 A 
ATOM     24  C   LIG d   1       4.039  -1.181  -2.827  0.00  0.00     0.050 A 
ATOM     25  C   LIG d   1       3.168  -0.111  -2.687  0.00  0.00    -0.039 A 
ATOM     26  C   LIG d   1       3.659   1.181  -2.638  0.00  0.00    -0.060 A 
ATOM     27  H   LIG d   1       2.104  -0.286  -2.621  0.00  0.00     0.064 H 
ATOM     28  C   LIG d   1       5.022   1.415  -2.721  0.00  0.00    -0.060 A 
ATOM     29  H   LIG d   1       2.978   2.011  -2.532  0.00  0.00     0.062 H 
ATOM     30  C   LIG d   1       5.902   0.361  -2.856  0.00  0.00    -0.035 A 
ATOM     31  H   LIG d   1       5.396   2.427  -2.681  0.00  0.00     0.062 H 
ATOM     32  H   LIG d   1       6.964   0.549  -2.921  0.00  0.00     0.064 H 
BRANCH  24  33
ATOM     33  N   LIG d   1       3.543  -2.485  -2.883  0.00  0.00    -0.356 N 
ATOM     34  H   LIG d   1       4.090  -3.225  -2.578  0.00  0.00     0.142 HD
ATOM     35  H   LIG d   1       2.651  -2.650  -3.227  0.00  0.00     0.142 HD
ENDBRANCH  24  33
ENDBRANCH  18  23
ENDBRANCH   1  17
BRANCH   9  36
ATOM     36  C   LIG d   1       3.596  -1.743  -7.863  0.00  0.00     0.011 C 
ATOM     37  H   LIG d   1       2.903  -0.912  -7.994  0.00  0.00     0.045 H 
ATOM     38  H   LIG d   1       3.862  -2.152  -8.838  0.00  0.00     0.045 H 
ATOM     39  H   LIG d   1       3.123  -2.519  -7.260  0.00  0.00     0.045 H 
ENDBRANCH   9  36
TORSDOF 5
ENDMDL
MODEL 5
REMARK VINA RESULT:      -6.2      1.616      2.830
REMARK  5 active torsions:
REMARK  status: ('A' for Active; 'I' for Inactive)
REMARK    1  A    between atoms: C_1  and  C_2 
REMARK    2  A    between atoms: C_2  and  C_11 
REMARK    3  A    between atoms: N_3  and  C_4 
REMARK    4  A    between atoms: C_9  and  N_10 
REMARK    5  A    between atoms: N_19  and  C_22 
ROOT
ATOM      1  C   LIG d   1       6.344  -1.443  -5.639  0.00  0.00     0.052 A 
ATOM      2  C   LIG d   1       5.079  -1.759  -6.208  0.00  0.00     0.198 A 
ATOM      3  C   LIG d   1       4.590  -0.912  -7.312  0.00  0.00     0.046 A 
ATOM      4  C   LIG d   1       3.357  -1.161  -7.918  0.00  0.00    -0.049 A 
ATOM      5  C   LIG d   1       2.929  -0.352  -8.946  0.00  0.00    -0.061 A 
ATOM      6  C   LIG d   1       3.715   0.705  -9.381  0.00  0.00    -0.060 A 
ATOM      7  C   LIG d   1       4.934   0.962  -8.792  0.00  0.00    -0.037 A 
ATOM      8  C   LIG d   1       5.386   0.158  -7.750  0.00  0.00     0.052 A 
ATOM      9  N   LIG d   1       6.605   0.403  -7.150  0.00  0.00    -0.356 N 
ATOM     10  C   LIG d   1       7.066  -0.359  -6.132  0.00  0.00    -0.023 A 
ATOM     11  O   LIG d   1       8.262  -0.065  -5.583  0.00  0.00    -0.861 OA
ATOM     12  O   LIG d   1       4.419  -2.699  -5.796  0.00  0.00    -0.286 OA
ATOM     13  H   LIG d   1       2.743  -1.984  -7.582  0.00  0.00     0.062 H 
ATOM     14  H   LIG d   1       1.975  -0.541  -9.417  0.00  0.00     0.062 H 
ATOM     15  H   LIG d   1       3.368   1.333 -10.188  0.00  0.00     0.062 H 
ATOM     16  H   LIG d   1       5.538   1.789  -9.138  0.00  0.00     0.064 H 
ENDROOT
BRANCH   1  17
ATOM     17  C   LIG d   1       6.881  -2.249  -4.540  0.00  0.00     0.051 C 
ATOM     18  N   LIG d   1       6.470  -2.043  -3.317  0.00  0.00    -0.250 NA
BRANCH  17  19
ATOM     19  C   LIG d   1       7.906  -3.318  -4.820  0.00  0.00    -0.022 C 
ATOM     20  H   LIG d   1       8.542  -3.003  -5.647  0.00  0.00     0.029 H 
ATOM     21  H   LIG d   1       8.517  -3.476  -3.932  0.00  0.00     0.029 H 
ATOM     22  H   LIG d   1       7.401  -4.247  -5.084  0.00  0.00     0.029 H 
ENDBRANCH  17  19
BRANCH  18  23
ATOM     23  C   LIG d   1       5.642  -0.987  -3.043  0.00  0.00     0.085 A 
ATOM     24  C   LIG d   1       4.279  -1.207  -2.796  0.00  0.00     0.050 A 
ATOM     25  C   LIG d   1       3.451  -0.132  -2.514  0.00  0.00    -0.039 A 
ATOM     26  C   LIG d   1       3.964   1.151  -2.488  0.00  0.00    -0.060 A 
ATOM     27  H   LIG d   1       2.401  -0.297  -2.318  0.00  0.00     0.064 H 
ATOM     28  C   LIG d   1       5.309   1.372  -2.737  0.00  0.00    -0.060 A 
ATOM     29  H   LIG d   1       3.315   1.986  -2.272  0.00  0.00     0.062 H 
ATOM     30  C   LIG d   1       6.148   0.313  -3.013  0.00  0.00    -0.035 A 
ATOM     31  H   LIG d   1       5.701   2.377  -2.714  0.00  0.00     0.062 H 
ATOM     32  H   LIG d   1       7.196   0.490  -3.207  0.00  0.00     0.064 H 
BRANCH  24  33
ATOM     33  N   LIG d   1       3.760  -2.503  -2.827  0.00  0.00    -0.356 N 
ATOM     34  H   LIG d   1       3.918  -3.069  -3.598  0.00  0.00     0.142 HD
ATOM     35  H   LIG d   1       3.242  -2.836  -2.078  0.00  0.00     0.142 HD
ENDBRANCH  24  33
ENDBRANCH  18  23
ENDBRANCH   1  17
BRANCH   9  36
ATOM     36  C   LIG d   1       7.419   1.525  -7.624  0.00  0.00     0.011 C 
ATOM     37  H   LIG d   1       7.793   1.307  -8.624  0.00  0.00     0.045 H 
ATOM     38  H   LIG d   1       6.810   2.429  -7.652  0.00  0.00     0.045 H 
ATOM     39  H   LIG d   1       8.260   1.674  -6.946  0.00  0.00     0.045 H 
ENDBRANCH   9  36
TORSDOF 5
ENDMDL
MODEL 6
REMARK VINA RESULT:      -6.2      0.806      2.554
REMARK  5 active torsions:
REMARK  status: ('A' for Active; 'I' for Inactive)
REMARK    1  A    between atoms: C_1  and  C_2 
REMARK    2  A    between atoms: C_2  and  C_11 
REMARK    3  A    between atoms: N_3  and  C_4 
REMARK    4  A    between atoms: C_9  and  N_10 
REMARK    5  A    between atoms: N_19  and  C_22 
ROOT
ATOM      1  C   LIG d   1       6.478  -1.631  -5.707  0.00  0.00     0.052 A 
ATOM      2  C   LIG d   1       5.978  -2.944  -5.936  0.00  0.00     0.198 A 
ATOM      3  C   LIG d   1       4.994  -3.127  -7.019  0.00  0.00     0.046 A 
ATOM      4  C   LIG d   1       4.460  -4.385  -7.300  0.00  0.00    -0.049 A 
ATOM      5  C   LIG d   1       3.543  -4.523  -8.318  0.00  0.00    -0.061 A 
ATOM      6  C   LIG d   1       3.150  -3.420  -9.062  0.00  0.00    -0.060 A 
ATOM      7  C   LIG d   1       3.670  -2.172  -8.796  0.00  0.00    -0.037 A 
ATOM      8  C   LIG d   1       4.598  -2.010  -7.771  0.00  0.00     0.052 A 
ATOM      9  N   LIG d   1       5.127  -0.765  -7.492  0.00  0.00    -0.356 N 
ATOM     10  C   LIG d   1       6.025  -0.578  -6.498  0.00  0.00    -0.023 A 
ATOM     11  O   LIG d   1       6.501   0.663  -6.270  0.00  0.00    -0.861 OA
ATOM     12  O   LIG d   1       6.351  -3.887  -5.258  0.00  0.00    -0.286 OA
ATOM     13  H   LIG d   1       4.764  -5.246  -6.723  0.00  0.00     0.062 H 
ATOM     14  H   LIG d   1       3.127  -5.495  -8.538  0.00  0.00     0.062 H 
ATOM     15  H   LIG d   1       2.430  -3.541  -9.858  0.00  0.00     0.062 H 
ATOM     16  H   LIG d   1       3.357  -1.320  -9.381  0.00  0.00     0.064 H 
ENDROOT
BRANCH   1  17
ATOM     17  C   LIG d   1       7.457  -1.390  -4.645  0.00  0.00     0.051 C 
ATOM     18  N   LIG d   1       7.053  -1.109  -3.435  0.00  0.00    -0.250 NA
BRANCH  17  19
ATOM     19  C   LIG d   1       8.932  -1.465  -4.948  0.00  0.00    -0.022 C 
ATOM     20  H   LIG d   1       9.499  -1.337  -4.026  0.00  0.00     0.029 H 
ATOM     21  H   LIG d   1       9.163  -2.435  -5.386  0.00  0.00     0.029 H 
ATOM     22  H   LIG d   1       9.199  -0.676  -5.651  0.00  0.00     0.029 H 
ENDBRANCH  17  19
BRANCH  18  23
ATOM     23  C   LIG d   1       5.721  -0.908  -3.188  0.00  0.00     0.085 A 
ATOM     24  C   LIG d   1       5.193   0.391  -3.187  0.00  0.00     0.050 A 
ATOM     25  C   LIG d   1       3.842   0.583  -2.940  0.00  0.00    -0.039 A 
ATOM     26  C   LIG d   1       3.023  -0.502  -2.687  0.00  0.00    -0.060 A 
ATOM     27  H   LIG d   1       3.430   1.581  -2.942  0.00  0.00     0.064 H 
ATOM     28  C   LIG d   1       3.542  -1.786  -2.683  0.00  0.00    -0.060 A 
ATOM     29  H   LIG d   1       1.972  -0.348  -2.492  0.00  0.00     0.062 H 
ATOM     30  C   LIG d   1       4.883  -1.994  -2.931  0.00  0.00    -0.035 A 
ATOM     31  H   LIG d   1       2.895  -2.626  -2.485  0.00  0.00     0.062 H 
ATOM     32  H   LIG d   1       5.284  -2.998  -2.927  0.00  0.00     0.064 H 
BRANCH  24  33
ATOM     33  N   LIG d   1       6.022   1.486  -3.437  0.00  0.00    -0.356 N 
ATOM     34  H   LIG d   1       6.967   1.437  -3.224  0.00  0.00     0.142 HD
ATOM     35  H   LIG d   1       5.653   2.295  -3.823  0.00  0.00     0.142 HD
ENDBRANCH  24  33
ENDBRANCH  18  23
ENDBRANCH   1  17
BRANCH   9  36
ATOM     36  C   LIG d   1       4.698   0.386  -8.289  0.00  0.00     0.011 C 
ATOM     37  H   LIG d   1       4.521   1.238  -7.632  0.00  0.00     0.045 H 
ATOM     38  H   LIG d   1       5.474   0.638  -9.011  0.00  0.00     0.045 H 
ATOM     39  H   LIG d   1       3.776   0.138  -8.817  0.00  0.00     0.045 H 
ENDBRANCH   9  36
TORSDOF 5
ENDMDL
MODEL 7
REMARK VINA RESULT:      -6.1      1.605      5.284
REMARK  5 active torsions:
REMARK  status: ('A' for Active; 'I' for Inactive)
REMARK    1  A    between atoms: C_1  and  C_2 
REMARK    2  A    between atoms: C_2  and  C_11 
REMARK    3  A    between atoms: N_3  and  C_4 
REMARK    4  A    between atoms: C_9  and  N_10 
REMARK    5  A    between atoms: N_19  and  C_22 
ROOT
ATOM      1  C   LIG d   1       6.363  -2.519  -4.984  0.00  0.00     0.052 A 
ATOM      2  C   LIG d   1       5.096  -2.436  -4.340  0.00  0.00     0.198 A 
ATOM      3  C   LIG d   1       4.785  -1.207  -3.588  0.00  0.00     0.046 A 
ATOM      4  C   LIG d   1       3.563  -1.056  -2.931  0.00  0.00    -0.049 A 
ATOM      5  C   LIG d   1       3.303   0.105  -2.237  0.00  0.00    -0.061 A 
ATOM      6  C   LIG d   1       4.247   1.120  -2.190  0.00  0.00    -0.060 A 
ATOM      7  C   LIG d   1       5.457   0.985  -2.835  0.00  0.00    -0.037 A 
ATOM      8  C   LIG d   1       5.742  -0.180  -3.541  0.00  0.00     0.052 A 
ATOM      9  N   LIG d   1       6.950  -0.331  -4.191  0.00  0.00    -0.356 N 
ATOM     10  C   LIG d   1       7.255  -1.454  -4.880  0.00  0.00    -0.023 A 
ATOM     11  O   LIG d   1       8.455  -1.544  -5.490  0.00  0.00    -0.861 OA
ATOM     12  O   LIG d   1       4.295  -3.354  -4.408  0.00  0.00    -0.286 OA
ATOM     13  H   LIG d   1       2.826  -1.845  -2.966  0.00  0.00     0.062 H 
ATOM     14  H   LIG d   1       2.358   0.225  -1.726  0.00  0.00     0.062 H 
ATOM     15  H   LIG d   1       4.031   2.026  -1.642  0.00  0.00     0.062 H 
ATOM     16  H   LIG d   1       6.185   1.782  -2.791  0.00  0.00     0.064 H 
ENDROOT
BRANCH   1  17
ATOM     17  C   LIG d   1       6.727  -3.716  -5.745  0.00  0.00     0.051 C 
ATOM     18  N   LIG d   1       6.433  -3.798  -7.016  0.00  0.00    -0.250 NA
BRANCH  17  19
ATOM     19  C   LIG d   1       7.441  -4.855  -5.063  0.00  0.00    -0.022 C 
ATOM     20  H   LIG d   1       7.185  -5.792  -5.556  0.00  0.00     0.029 H 
ATOM     21  H   LIG d   1       8.517  -4.695  -5.121  0.00  0.00     0.029 H 
ATOM     22  H   LIG d   1       7.136  -4.900  -4.017  0.00  0.00     0.029 H 
ENDBRANCH  17  19
BRANCH  18  23
ATOM     23  C   LIG d   1       5.668  -2.826  -7.604  0.00  0.00     0.085 A 
ATOM     24  C   LIG d   1       4.284  -3.006  -7.740  0.00  0.00     0.050 A 
ATOM     25  C   LIG d   1       3.518  -2.014  -8.333  0.00  0.00    -0.039 A 
ATOM     26  C   LIG d   1       4.119  -0.859  -8.799  0.00  0.00    -0.060 A 
ATOM     27  H   LIG d   1       2.451  -2.146  -8.436  0.00  0.00     0.064 H 
ATOM     28  C   LIG d   1       5.486  -0.681  -8.670  0.00  0.00    -0.060 A 
ATOM     29  H   LIG d   1       3.519  -0.091  -9.263  0.00  0.00     0.062 H 
ATOM     30  C   LIG d   1       6.262  -1.656  -8.077  0.00  0.00    -0.035 A 
ATOM     31  H   LIG d   1       5.946   0.224  -9.036  0.00  0.00     0.062 H 
ATOM     32  H   LIG d   1       7.328  -1.512  -7.980  0.00  0.00     0.064 H 
BRANCH  24  33
ATOM     33  N   LIG d   1       3.679  -4.175  -7.275  0.00  0.00    -0.356 N 
ATOM     34  H   LIG d   1       3.463  -4.268  -6.334  0.00  0.00     0.142 HD
ATOM     35  H   LIG d   1       3.475  -4.894  -7.893  0.00  0.00     0.142 HD
ENDBRANCH  24  33
ENDBRANCH  18  23
ENDBRANCH   1  17
BRANCH   9  36
ATOM     36  C   LIG d   1       7.933   0.753  -4.128  0.00  0.00     0.011 C 
ATOM     37  H   LIG d   1       7.588   1.517  -3.431  0.00  0.00     0.045 H 
ATOM     38  H   LIG d   1       8.889   0.357  -3.789  0.00  0.00     0.045 H 
ATOM     39  H   LIG d   1       8.051   1.194  -5.118  0.00  0.00     0.045 H 
ENDBRANCH   9  36
TORSDOF 5
ENDMDL
MODEL 8
REMARK VINA RESULT:      -6.1      1.820      5.197
REMARK  5 active torsions:
REMARK  status: ('A' for Active; 'I' for Inactive)
REMARK    1  A    between atoms: C_1  and  C_2 
REMARK    2  A    between atoms: C_2  and  C_11 
REMARK    3  A    between atoms: N_3  and  C_4 
REMARK    4  A    between atoms: C_9  and  N_10 
REMARK    5  A    between atoms: N_19  and  C_22 
ROOT
ATOM      1  C   LIG d   1       6.239  -1.458  -6.469  0.00  0.00     0.052 A 
ATOM      2  C   LIG d   1       5.292  -2.187  -5.696  0.00  0.00     0.198 A 
ATOM      3  C   LIG d   1       4.994  -1.702  -4.336  0.00  0.00     0.046 A 
ATOM      4  C   LIG d   1       4.077  -2.366  -3.520  0.00  0.00    -0.049 A 
ATOM      5  C   LIG d   1       3.820  -1.888  -2.255  0.00  0.00    -0.061 A 
ATOM      6  C   LIG d   1       4.467  -0.752  -1.791  0.00  0.00    -0.060 A 
ATOM      7  C   LIG d   1       5.374  -0.086  -2.585  0.00  0.00    -0.037 A 
ATOM      8  C   LIG d   1       5.649  -0.552  -3.867  0.00  0.00     0.052 A 
ATOM      9  N   LIG d   1       6.556   0.104  -4.675  0.00  0.00    -0.356 N 
ATOM     10  C   LIG d   1       6.847  -0.331  -5.923  0.00  0.00    -0.023 A 
ATOM     11  O   LIG d   1       7.747   0.350  -6.661  0.00  0.00    -0.861 OA
ATOM     12  O   LIG d   1       4.746  -3.182  -6.144  0.00  0.00    -0.286 OA
ATOM     13  H   LIG d   1       3.571  -3.251  -3.880  0.00  0.00     0.062 H 
ATOM     14  H   LIG d   1       3.111  -2.400  -1.621  0.00  0.00     0.062 H 
ATOM     15  H   LIG d   1       4.257  -0.386  -0.796  0.00  0.00     0.062 H 
ATOM     16  H   LIG d   1       5.872   0.798  -2.213  0.00  0.00     0.064 H 
ENDROOT
BRANCH   1  17
ATOM     17  C   LIG d   1       6.575  -1.893  -7.826  0.00  0.00     0.051 C 
ATOM     18  N   LIG d   1       5.963  -1.366  -8.853  0.00  0.00    -0.250 NA
BRANCH  17  19
ATOM     19  C   LIG d   1       7.628  -2.951  -8.040  0.00  0.00    -0.022 C 
ATOM     20  H   LIG d   1       8.438  -2.807  -7.325  0.00  0.00     0.029 H 
ATOM     21  H   LIG d   1       7.187  -3.937  -7.895  0.00  0.00     0.029 H 
ATOM     22  H   LIG d   1       8.020  -2.874  -9.054  0.00  0.00     0.029 H 
ENDBRANCH  17  19
BRANCH  18  23
ATOM     23  C   LIG d   1       4.915  -0.505  -8.656  0.00  0.00     0.085 A 
ATOM     24  C   LIG d   1       5.102   0.876  -8.805  0.00  0.00     0.050 A 
ATOM     25  C   LIG d   1       4.034   1.738  -8.608  0.00  0.00    -0.039 A 
ATOM     26  C   LIG d   1       2.794   1.237  -8.257  0.00  0.00    -0.060 A 
ATOM     27  H   LIG d   1       4.172   2.803  -8.726  0.00  0.00     0.064 H 
ATOM     28  C   LIG d   1       2.608  -0.127  -8.105  0.00  0.00    -0.060 A 
ATOM     29  H   LIG d   1       1.966   1.912  -8.101  0.00  0.00     0.062 H 
ATOM     30  C   LIG d   1       3.660  -0.999  -8.302  0.00  0.00    -0.035 A 
ATOM     31  H   LIG d   1       1.636  -0.509  -7.831  0.00  0.00     0.062 H 
ATOM     32  H   LIG d   1       3.509  -2.062  -8.182  0.00  0.00     0.064 H 
BRANCH  24  33
ATOM     33  N   LIG d   1       6.356   1.382  -9.154  0.00  0.00    -0.356 N 
ATOM     34  H   LIG d   1       7.154   1.041  -8.721  0.00  0.00     0.142 HD
ATOM     35  H   LIG d   1       6.428   2.075  -9.829  0.00  0.00     0.142 HD
ENDBRANCH  24  33
ENDBRANCH  18  23
ENDBRANCH   1  17
BRANCH   9  36
ATOM     36  C   LIG d   1       7.228   1.301  -4.164  0.00  0.00     0.011 C 
ATOM     37  H   LIG d   1       8.061   1.558  -4.819  0.00  0.00     0.045 H 
ATOM     38  H   LIG d   1       6.521   2.129  -4.133  0.00  0.00     0.045 H 
ATOM     39  H   LIG d   1       7.605   1.105  -3.160  0.00  0.00     0.045 H 
ENDBRANCH   9  36
TORSDOF 5
ENDMDL
MODEL 9
REMARK VINA RESULT:      -6.1      2.208      5.074
REMARK  5 active torsions:
REMARK  status: ('A' for Active; 'I' for Inactive)
REMARK    1  A    between atoms: C_1  and  C_2 
REMARK    2  A    between atoms: C_2  and  C_11 
REMARK    3  A    between atoms: N_3  and  C_4 
REMARK    4  A    between atoms: C_9  and  N_10 
REMARK    5  A    between atoms: N_19  and  C_22 
ROOT
ATOM      1  C   LIG d   1       3.958  -1.233  -7.119  0.00  0.00     0.052 A 
ATOM      2  C   LIG d   1       3.615  -0.169  -6.237  0.00  0.00     0.198 A 
ATOM      3  C   LIG d   1       3.791  -0.390  -4.790  0.00  0.00     0.046 A 
ATOM      4  C   LIG d   1       3.475   0.607  -3.866  0.00  0.00    -0.049 A 
ATOM      5  C   LIG d   1       3.652   0.370  -2.521  0.00  0.00    -0.061 A 
ATOM      6  C   LIG d   1       4.141  -0.852  -2.083  0.00  0.00    -0.060 A 
ATOM      7  C   LIG d   1       4.458  -1.845  -2.984  0.00  0.00    -0.037 A 
ATOM      8  C   LIG d   1       4.286  -1.628  -4.348  0.00  0.00     0.052 A 
ATOM      9  N   LIG d   1       4.598  -2.614  -5.262  0.00  0.00    -0.356 N 
ATOM     10  C   LIG d   1       4.436  -2.431  -6.593  0.00  0.00    -0.023 A 
ATOM     11  O   LIG d   1       4.753  -3.435  -7.436  0.00  0.00    -0.861 OA
ATOM     12  O   LIG d   1       3.188   0.890  -6.665  0.00  0.00    -0.286 OA
ATOM     13  H   LIG d   1       3.095   1.560  -4.205  0.00  0.00     0.062 H 
ATOM     14  H   LIG d   1       3.408   1.140  -1.804  0.00  0.00     0.062 H 
ATOM     15  H   LIG d   1       4.275  -1.026  -1.026  0.00  0.00     0.062 H 
ATOM     16  H   LIG d   1       4.837  -2.793  -2.632  0.00  0.00     0.064 H 
ENDROOT
BRANCH   1  17
ATOM     17  C   LIG d   1       3.803  -1.071  -8.565  0.00  0.00     0.051 C 
ATOM     18  N   LIG d   1       4.805  -0.645  -9.287  0.00  0.00    -0.250 NA
BRANCH  17  19
ATOM     19  C   LIG d   1       2.486  -1.395  -9.223  0.00  0.00    -0.022 C 
ATOM     20  H   LIG d   1       2.187  -2.410  -8.959  0.00  0.00     0.029 H 
ATOM     21  H   LIG d   1       1.726  -0.692  -8.882  0.00  0.00     0.029 H 
ATOM     22  H   LIG d   1       2.592  -1.319 -10.305  0.00  0.00     0.029 H 
ENDBRANCH  17  19
BRANCH  18  23
ATOM     23  C   LIG d   1       5.956  -0.224  -8.676  0.00  0.00     0.085 A 
ATOM     24  C   LIG d   1       6.155   1.139  -8.414  0.00  0.00     0.050 A 
ATOM     25  C   LIG d   1       7.322   1.556  -7.791  0.00  0.00    -0.039 A 
ATOM     26  C   LIG d   1       8.289   0.631  -7.442  0.00  0.00    -0.060 A 
ATOM     27  H   LIG d   1       7.478   2.604  -7.583  0.00  0.00     0.064 H 
ATOM     28  C   LIG d   1       8.097  -0.715  -7.704  0.00  0.00    -0.060 A 
ATOM     29  H   LIG d   1       9.198   0.960  -6.960  0.00  0.00     0.062 H 
ATOM     30  C   LIG d   1       6.939  -1.146  -8.318  0.00  0.00    -0.035 A 
ATOM     31  H   LIG d   1       8.858  -1.429  -7.427  0.00  0.00     0.062 H 
ATOM     32  H   LIG d   1       6.795  -2.197  -8.521  0.00  0.00     0.064 H 
BRANCH  24  33
ATOM     33  N   LIG d   1       5.180   2.073  -8.772  0.00  0.00    -0.356 N 
ATOM     34  H   LIG d   1       4.956   2.796  -8.167  0.00  0.00     0.142 HD
ATOM     35  H   LIG d   1       4.728   1.997  -9.627  0.00  0.00     0.142 HD
ENDBRANCH  24  33
ENDBRANCH  18  23
ENDBRANCH   1  17
BRANCH   9  36
ATOM     36  C   LIG d   1       5.112  -3.897  -4.778  0.00  0.00     0.011 C 
ATOM     37  H   LIG d   1       4.370  -4.676  -4.953  0.00  0.00     0.045 H 
ATOM     38  H   LIG d   1       6.031  -4.144  -5.310  0.00  0.00     0.045 H 
ATOM     39  H   LIG d   1       5.318  -3.825  -3.710  0.00  0.00     0.045 H 
ENDBRANCH   9  36
TORSDOF 5
ENDMDL
