MODEL 1
REMARK VINA RESULT:      -5.5      0.000      0.000
REMARK  10 active torsions:
REMARK  status: ('A' for Active; 'I' for Inactive)
REMARK    1  A    between atoms: C_1  and  O_2 
REMARK    2  A    between atoms: O_2  and  C_3 
REMARK    3  A    between atoms: C_6  and  C_11 
REMARK    4  A    between atoms: C_8  and  O_9 
REMARK    5  A    between atoms: O_9  and  C_10 
REMARK    6  A    between atoms: C_15  and  O_24 
REMARK    7  A    between atoms: C_16  and  O_22 
REMARK    8  A    between atoms: C_19  and  O_21 
REMARK    9  A    between atoms: O_22  and  C_23 
REMARK   10  A    between atoms: O_24  and  C_25 
ROOT
ATOM      1  C   LIG d   1       9.634   6.761  -5.550  0.00  0.00    -0.014 A 
ATOM      2  C   LIG d   1       9.728   5.598  -6.294  0.00  0.00    -0.046 A 
ATOM      3  C   LIG d   1       9.544   5.648  -7.685  0.00  0.00    -0.010 A 
ATOM      4  C   LIG d   1       9.628   4.484  -8.469  0.00  0.00    -0.009 A 
ATOM      5  C   LIG d   1       9.450   4.564  -9.820  0.00  0.00     0.162 A 
ATOM      6  C   LIG d   1       9.183   5.796 -10.437  0.00  0.00     0.162 A 
ATOM      7  C   LIG d   1       9.095   6.941  -9.701  0.00  0.00    -0.005 A 
ATOM      8  C   LIG d   1       9.275   6.892  -8.310  0.00  0.00     0.027 A 
ATOM      9  C   LIG d   1       9.189   8.061  -7.525  0.00  0.00     0.125 A 
ATOM     10  C   LIG d   1       9.367   7.988  -6.174  0.00  0.00    -0.012 A 
ATOM     11  H   LIG d   1       9.939   4.657  -5.808  0.00  0.00     0.063 H 
ATOM     12  H   LIG d   1       9.831   3.530  -8.005  0.00  0.00     0.066 H 
ATOM     13  H   LIG d   1       8.889   7.883 -10.189  0.00  0.00     0.066 H 
ATOM     14  H   LIG d   1       9.301   8.886  -5.578  0.00  0.00     0.066 H 
ENDROOT
BRANCH   1  15
ATOM     15  C   LIG d   1       9.824   6.709  -4.080  0.00  0.00    -0.014 A 
ATOM     16  C   LIG d   1       9.913   5.479  -3.430  0.00  0.00    -0.050 A 
ATOM     17  C   LIG d   1      10.084   5.432  -2.062  0.00  0.00    -0.016 A 
ATOM     18  H   LIG d   1       9.844   4.563  -3.998  0.00  0.00     0.062 H 
ATOM     19  C   LIG d   1      10.178   6.607  -1.332  0.00  0.00     0.162 A 
ATOM     20  H   LIG d   1      10.149   4.478  -1.560  0.00  0.00     0.066 H 
ATOM     21  C   LIG d   1      10.089   7.838  -1.975  0.00  0.00     0.162 A 
ATOM     22  C   LIG d   1       9.913   7.891  -3.346  0.00  0.00    -0.009 A 
ATOM     23  H   LIG d   1       9.844   8.845  -3.847  0.00  0.00     0.066 H 
BRANCH  19  24
ATOM     24  O   LIG d   1      10.351   6.557   0.016  0.00  0.00    -0.491 OA
BRANCH  24  25
ATOM     25  C   LIG d   1      11.414   5.735   0.503  0.00  0.00     0.079 C 
ATOM     26  H   LIG d   1      11.285   4.718   0.135  0.00  0.00     0.066 H 
ATOM     27  H   LIG d   1      12.368   6.130   0.153  0.00  0.00     0.066 H 
ATOM     28  H   LIG d   1      11.399   5.732   1.593  0.00  0.00     0.066 H 
ENDBRANCH  24  25
ENDBRANCH  19  24
BRANCH  21  29
ATOM     29  O   LIG d   1      10.177   8.990  -1.256  0.00  0.00    -0.491 OA
BRANCH  29  30
ATOM     30  C   LIG d   1       8.949   9.635  -0.913  0.00  0.00     0.079 C 
ATOM     31  H   LIG d   1       8.625  10.264  -1.743  0.00  0.00     0.066 H 
ATOM     32  H   LIG d   1       8.187   8.883  -0.709  0.00  0.00     0.066 H 
ATOM     33  H   LIG d   1       9.097  10.252  -0.027  0.00  0.00     0.066 H 
ENDBRANCH  29  30
ENDBRANCH  21  29
ENDBRANCH   1  15
BRANCH   9  34
ATOM     34  O   LIG d   1       8.932   9.258  -8.113  0.00  0.00    -0.506 OA
ATOM     35  H   LIG d   1       8.900  10.002  -7.495  0.00  0.00     0.292 HD
ENDBRANCH   9  34
BRANCH   5  36
ATOM     36  O   LIG d   1       9.531   3.438 -10.577  0.00  0.00    -0.491 OA
BRANCH  36  37
ATOM     37  C   LIG d   1       9.256   2.197  -9.924  0.00  0.00     0.079 C 
ATOM     38  H   LIG d   1       9.122   2.370  -8.857  0.00  0.00     0.066 H 
ATOM     39  H   LIG d   1       8.346   1.762 -10.339  0.00  0.00     0.066 H 
ATOM     40  H   LIG d   1      10.089   1.512 -10.078  0.00  0.00     0.066 H 
ENDBRANCH  36  37
ENDBRANCH   5  36
BRANCH   6  41
ATOM     41  O   LIG d   1       9.010   5.847 -11.784  0.00  0.00    -0.491 OA
BRANCH  41  42
ATOM     42  C   LIG d   1       9.517   7.001 -12.460  0.00  0.00     0.079 C 
ATOM     43  H   LIG d   1       8.783   7.805 -12.406  0.00  0.00     0.066 H 
ATOM     44  H   LIG d   1      10.444   7.322 -11.985  0.00  0.00     0.066 H 
ATOM     45  H   LIG d   1       9.709   6.754 -13.504  0.00  0.00     0.066 H 
ENDBRANCH  41  42
ENDBRANCH   6  41
TORSDOF 10
ENDMDL
MODEL 2
REMARK VINA RESULT:      -5.3      1.486      8.494
REMARK  10 active torsions:
REMARK  status: ('A' for Active; 'I' for Inactive)
REMARK    1  A    between atoms: C_1  and  O_2 
REMARK    2  A    between atoms: O_2  and  C_3 
REMARK    3  A    between atoms: C_6  and  C_11 
REMARK    4  A    between atoms: C_8  and  O_9 
REMARK    5  A    between atoms: O_9  and  C_10 
REMARK    6  A    between atoms: C_15  and  O_24 
REMARK    7  A    between atoms: C_16  and  O_22 
REMARK    8  A    between atoms: C_19  and  O_21 
REMARK    9  A    between atoms: O_22  and  C_23 
REMARK   10  A    between atoms: O_24  and  C_25 
ROOT
ATOM      1  C   LIG d   1       9.965   5.044  -4.976  0.00  0.00    -0.014 A 
ATOM      2  C   LIG d   1       9.809   6.292  -4.399  0.00  0.00    -0.046 A 
ATOM      3  C   LIG d   1      10.022   6.450  -3.020  0.00  0.00    -0.010 A 
ATOM      4  C   LIG d   1       9.868   7.703  -2.402  0.00  0.00    -0.009 A 
ATOM      5  C   LIG d   1      10.087   7.827  -1.061  0.00  0.00     0.162 A 
ATOM      6  C   LIG d   1      10.466   6.717  -0.290  0.00  0.00     0.162 A 
ATOM      7  C   LIG d   1      10.622   5.489  -0.862  0.00  0.00    -0.005 A 
ATOM      8  C   LIG d   1      10.405   5.329  -2.240  0.00  0.00     0.027 A 
ATOM      9  C   LIG d   1      10.560   4.070  -2.858  0.00  0.00     0.125 A 
ATOM     10  C   LIG d   1      10.342   3.939  -4.198  0.00  0.00    -0.012 A 
ATOM     11  H   LIG d   1       9.523   7.139  -5.004  0.00  0.00     0.063 H 
ATOM     12  H   LIG d   1       9.576   8.564  -2.985  0.00  0.00     0.066 H 
ATOM     13  H   LIG d   1      10.913   4.643  -0.257  0.00  0.00     0.066 H 
ATOM     14  H   LIG d   1      10.463   2.974  -4.666  0.00  0.00     0.066 H 
ENDROOT
BRANCH   1  15
ATOM     15  C   LIG d   1       9.736   4.874  -6.432  0.00  0.00    -0.014 A 
ATOM     16  C   LIG d   1       9.565   3.599  -6.968  0.00  0.00    -0.050 A 
ATOM     17  C   LIG d   1       9.357   3.441  -8.322  0.00  0.00    -0.016 A 
ATOM     18  H   LIG d   1       9.600   2.733  -6.322  0.00  0.00     0.062 H 
ATOM     19  C   LIG d   1       9.306   4.552  -9.152  0.00  0.00     0.162 A 
ATOM     20  H   LIG d   1       9.229   2.452  -8.736  0.00  0.00     0.066 H 
ATOM     21  C   LIG d   1       9.476   5.828  -8.622  0.00  0.00     0.162 A 
ATOM     22  C   LIG d   1       9.690   5.991  -7.266  0.00  0.00    -0.009 A 
ATOM     23  H   LIG d   1       9.822   6.980  -6.853  0.00  0.00     0.066 H 
BRANCH  19  24
ATOM     24  O   LIG d   1       9.096   4.393 -10.487  0.00  0.00    -0.491 OA
BRANCH  24  25
ATOM     25  C   LIG d   1      10.200   3.927 -11.265  0.00  0.00     0.079 C 
ATOM     26  H   LIG d   1       9.926   2.997 -11.764  0.00  0.00     0.066 H 
ATOM     27  H   LIG d   1      10.460   4.676 -12.012  0.00  0.00     0.066 H 
ATOM     28  H   LIG d   1      11.056   3.752 -10.613  0.00  0.00     0.066 H 
ENDBRANCH  24  25
ENDBRANCH  19  24
BRANCH  21  29
ATOM     29  O   LIG d   1       9.431   6.914  -9.439  0.00  0.00    -0.491 OA
BRANCH  29  30
ATOM     30  C   LIG d   1      10.677   7.535  -9.762  0.00  0.00     0.079 C 
ATOM     31  H   LIG d   1      10.502   8.368 -10.444  0.00  0.00     0.066 H 
ATOM     32  H   LIG d   1      11.146   7.904  -8.851  0.00  0.00     0.066 H 
ATOM     33  H   LIG d   1      11.333   6.807 -10.240  0.00  0.00     0.066 H 
ENDBRANCH  29  30
ENDBRANCH  21  29
ENDBRANCH   1  15
BRANCH   9  34
ATOM     34  O   LIG d   1      10.925   2.990  -2.119  0.00  0.00    -0.506 OA
ATOM     35  H   LIG d   1      11.544   3.195  -1.404  0.00  0.00     0.292 HD
ENDBRANCH   9  34
BRANCH   5  36
ATOM     36  O   LIG d   1       9.938   9.040  -0.465  0.00  0.00    -0.491 OA
BRANCH  36  37
ATOM     37  C   LIG d   1       8.761   9.782  -0.792  0.00  0.00     0.079 C 
ATOM     38  H   LIG d   1       8.434  10.347   0.081  0.00  0.00     0.066 H 
ATOM     39  H   LIG d   1       8.981  10.470  -1.609  0.00  0.00     0.066 H 
ATOM     40  H   LIG d   1       7.972   9.096  -1.097  0.00  0.00     0.066 H 
ENDBRANCH  36  37
ENDBRANCH   5  36
BRANCH   6  41
ATOM     41  O   LIG d   1      10.677   6.869   1.044  0.00  0.00    -0.491 OA
BRANCH  41  42
ATOM     42  C   LIG d   1      10.975   5.687   1.792  0.00  0.00     0.079 C 
ATOM     43  H   LIG d   1      11.504   5.960   2.706  0.00  0.00     0.066 H 
ATOM     44  H   LIG d   1      10.047   5.175   2.048  0.00  0.00     0.066 H 
ATOM     45  H   LIG d   1      11.603   5.027   1.193  0.00  0.00     0.066 H 
ENDBRANCH  41  42
ENDBRANCH   6  41
TORSDOF 10
ENDMDL
MODEL 3
REMARK VINA RESULT:      -5.3      0.941      2.021
REMARK  10 active torsions:
REMARK  status: ('A' for Active; 'I' for Inactive)
REMARK    1  A    between atoms: C_1  and  O_2 
REMARK    2  A    between atoms: O_2  and  C_3 
REMARK    3  A    between atoms: C_6  and  C_11 
REMARK    4  A    between atoms: C_8  and  O_9 
REMARK    5  A    between atoms: O_9  and  C_10 
REMARK    6  A    between atoms: C_15  and  O_24 
REMARK    7  A    between atoms: C_16  and  O_22 
REMARK    8  A    between atoms: C_19  and  O_21 
REMARK    9  A    between atoms: O_22  and  C_23 
REMARK   10  A    between atoms: O_24  and  C_25 
ROOT
ATOM      1  C   LIG d   1       9.662   7.614  -5.587  0.00  0.00    -0.014 A 
ATOM      2  C   LIG d   1       9.921   6.331  -6.033  0.00  0.00    -0.046 A 
ATOM      3  C   LIG d   1       9.723   6.013  -7.387  0.00  0.00    -0.010 A 
ATOM      4  C   LIG d   1       9.974   4.718  -7.871  0.00  0.00    -0.009 A 
ATOM      5  C   LIG d   1       9.777   4.441  -9.193  0.00  0.00     0.162 A 
ATOM      6  C   LIG d   1       9.328   5.434 -10.076  0.00  0.00     0.162 A 
ATOM      7  C   LIG d   1       9.077   6.700  -9.634  0.00  0.00    -0.005 A 
ATOM      8  C   LIG d   1       9.270   7.017  -8.280  0.00  0.00     0.027 A 
ATOM      9  C   LIG d   1       9.018   8.318  -7.795  0.00  0.00     0.125 A 
ATOM     10  C   LIG d   1       9.212   8.602  -6.476  0.00  0.00    -0.012 A 
ATOM     11  H   LIG d   1      10.272   5.576  -5.345  0.00  0.00     0.063 H 
ATOM     12  H   LIG d   1      10.318   3.944  -7.201  0.00  0.00     0.066 H 
ATOM     13  H   LIG d   1       8.731   7.456 -10.324  0.00  0.00     0.066 H 
ATOM     14  H   LIG d   1       9.019   9.599  -6.110  0.00  0.00     0.066 H 
ENDROOT
BRANCH   1  15
ATOM     15  C   LIG d   1       9.866   7.949  -4.157  0.00  0.00    -0.014 A 
ATOM     16  C   LIG d   1      10.139   9.263  -3.780  0.00  0.00    -0.050 A 
ATOM     17  C   LIG d   1      10.334   9.574  -2.450  0.00  0.00    -0.016 A 
ATOM     18  H   LIG d   1      10.202  10.038  -4.530  0.00  0.00     0.062 H 
ATOM     19  C   LIG d   1      10.247   8.582  -1.484  0.00  0.00     0.162 A 
ATOM     20  H   LIG d   1      10.549  10.592  -2.160  0.00  0.00     0.066 H 
ATOM     21  C   LIG d   1       9.975   7.268  -1.855  0.00  0.00     0.162 A 
ATOM     22  C   LIG d   1       9.784   6.951  -3.187  0.00  0.00    -0.009 A 
ATOM     23  H   LIG d   1       9.572   5.932  -3.476  0.00  0.00     0.066 H 
BRANCH  19  24
ATOM     24  O   LIG d   1      10.435   8.893  -0.173  0.00  0.00    -0.491 OA
BRANCH  24  25
ATOM     25  C   LIG d   1      10.242  10.258   0.204  0.00  0.00     0.079 C 
ATOM     26  H   LIG d   1      10.482  10.380   1.260  0.00  0.00     0.066 H 
ATOM     27  H   LIG d   1      10.894  10.895  -0.393  0.00  0.00     0.066 H 
ATOM     28  H   LIG d   1       9.203  10.537   0.031  0.00  0.00     0.066 H 
ENDBRANCH  24  25
ENDBRANCH  19  24
BRANCH  21  29
ATOM     29  O   LIG d   1       9.896   6.297  -0.906  0.00  0.00    -0.491 OA
BRANCH  29  30
ATOM     30  C   LIG d   1      11.070   5.515  -0.679  0.00  0.00     0.079 C 
ATOM     31  H   LIG d   1      10.824   4.456  -0.765  0.00  0.00     0.066 H 
ATOM     32  H   LIG d   1      11.828   5.774  -1.418  0.00  0.00     0.066 H 
ATOM     33  H   LIG d   1      11.454   5.717   0.321  0.00  0.00     0.066 H 
ENDBRANCH  29  30
ENDBRANCH  21  29
ENDBRANCH   1  15
BRANCH   9  34
ATOM     34  O   LIG d   1       8.583   9.287  -8.643  0.00  0.00    -0.506 OA
ATOM     35  H   LIG d   1       9.294   9.808  -9.042  0.00  0.00     0.292 HD
ENDBRANCH   9  34
BRANCH   5  36
ATOM     36  O   LIG d   1      10.020   3.187  -9.660  0.00  0.00    -0.491 OA
BRANCH  36  37
ATOM     37  C   LIG d   1       9.025   2.194  -9.399  0.00  0.00     0.079 C 
ATOM     38  H   LIG d   1       9.355   1.236  -9.798  0.00  0.00     0.066 H 
ATOM     39  H   LIG d   1       8.873   2.107  -8.322  0.00  0.00     0.066 H 
ATOM     40  H   LIG d   1       8.089   2.483  -9.875  0.00  0.00     0.066 H 
ENDBRANCH  36  37
ENDBRANCH   5  36
BRANCH   6  41
ATOM     41  O   LIG d   1       9.141   5.131 -11.388  0.00  0.00    -0.491 OA
BRANCH  41  42
ATOM     42  C   LIG d   1       9.083   6.226 -12.305  0.00  0.00     0.079 C 
ATOM     43  H   LIG d   1       9.923   6.896 -12.124  0.00  0.00     0.066 H 
ATOM     44  H   LIG d   1       9.133   5.848 -13.326  0.00  0.00     0.066 H 
ATOM     45  H   LIG d   1       8.149   6.769 -12.163  0.00  0.00     0.066 H 
ENDBRANCH  41  42
ENDBRANCH   6  41
TORSDOF 10
ENDMDL
MODEL 4
REMARK VINA RESULT:      -5.2     15.438     17.283
REMARK  10 active torsions:
REMARK  status: ('A' for Active; 'I' for Inactive)
REMARK    1  A    between atoms: C_1  and  O_2 
REMARK    2  A    between atoms: O_2  and  C_3 
REMARK    3  A    between atoms: C_6  and  C_11 
REMARK    4  A    between atoms: C_8  and  O_9 
REMARK    5  A    between atoms: O_9  and  C_10 
REMARK    6  A    between atoms: C_15  and  O_24 
REMARK    7  A    between atoms: C_16  and  O_22 
REMARK    8  A    between atoms: C_19  and  O_21 
REMARK    9  A    between atoms: O_22  and  C_23 
REMARK   10  A    between atoms: O_24  and  C_25 
ROOT
ATOM      1  C   LIG d   1       8.423  -9.747  -1.531  0.00  0.00    -0.014 A 
ATOM      2  C   LIG d   1       7.925  -9.244  -2.719  0.00  0.00    -0.046 A 
ATOM      3  C   LIG d   1       6.666  -9.665  -3.177  0.00  0.00    -0.010 A 
ATOM      4  C   LIG d   1       6.133  -9.176  -4.383  0.00  0.00    -0.009 A 
ATOM      5  C   LIG d   1       4.905  -9.600  -4.800  0.00  0.00     0.162 A 
ATOM      6  C   LIG d   1       4.166 -10.518  -4.039  0.00  0.00     0.162 A 
ATOM      7  C   LIG d   1       4.658 -11.010  -2.866  0.00  0.00    -0.005 A 
ATOM      8  C   LIG d   1       5.919 -10.594  -2.409  0.00  0.00     0.027 A 
ATOM      9  C   LIG d   1       6.452 -11.086  -1.199  0.00  0.00     0.125 A 
ATOM     10  C   LIG d   1       7.679 -10.666  -0.777  0.00  0.00    -0.012 A 
ATOM     11  H   LIG d   1       8.501  -8.533  -3.292  0.00  0.00     0.063 H 
ATOM     12  H   LIG d   1       6.693  -8.469  -4.977  0.00  0.00     0.066 H 
ATOM     13  H   LIG d   1       4.079 -11.718  -2.290  0.00  0.00     0.066 H 
ATOM     14  H   LIG d   1       8.082 -11.045   0.150  0.00  0.00     0.066 H 
ENDROOT
BRANCH   1  15
ATOM     15  C   LIG d   1       9.755  -9.307  -1.048  0.00  0.00    -0.014 A 
ATOM     16  C   LIG d   1      10.633  -8.658  -1.915  0.00  0.00    -0.050 A 
ATOM     17  C   LIG d   1      11.873  -8.254  -1.466  0.00  0.00    -0.016 A 
ATOM     18  H   LIG d   1      10.343  -8.476  -2.939  0.00  0.00     0.062 H 
ATOM     19  C   LIG d   1      12.245  -8.482  -0.150  0.00  0.00     0.162 A 
ATOM     20  H   LIG d   1      12.554  -7.755  -2.140  0.00  0.00     0.066 H 
ATOM     21  C   LIG d   1      11.373  -9.130   0.720  0.00  0.00     0.162 A 
ATOM     22  C   LIG d   1      10.130  -9.541   0.274  0.00  0.00    -0.009 A 
ATOM     23  H   LIG d   1       9.452 -10.043   0.948  0.00  0.00     0.066 H 
BRANCH  19  24
ATOM     24  O   LIG d   1      13.467  -8.078   0.290  0.00  0.00    -0.491 OA
BRANCH  24  25
ATOM     25  C   LIG d   1      14.557  -8.981   0.097  0.00  0.00     0.079 C 
ATOM     26  H   LIG d   1      15.499  -8.454   0.253  0.00  0.00     0.066 H 
ATOM     27  H   LIG d   1      14.479  -9.803   0.808  0.00  0.00     0.066 H 
ATOM     28  H   LIG d   1      14.525  -9.375  -0.919  0.00  0.00     0.066 H 
ENDBRANCH  24  25
ENDBRANCH  19  24
BRANCH  21  29
ATOM     29  O   LIG d   1      11.742  -9.356   2.010  0.00  0.00    -0.491 OA
BRANCH  29  30
ATOM     30  C   LIG d   1      11.080  -8.589   3.018  0.00  0.00     0.079 C 
ATOM     31  H   LIG d   1      11.755  -8.437   3.860  0.00  0.00     0.066 H 
ATOM     32  H   LIG d   1      10.788  -7.623   2.607  0.00  0.00     0.066 H 
ATOM     33  H   LIG d   1      10.191  -9.123   3.356  0.00  0.00     0.066 H 
ENDBRANCH  29  30
ENDBRANCH  21  29
ENDBRANCH   1  15
BRANCH   9  34
ATOM     34  O   LIG d   1       5.744 -11.976  -0.457  0.00  0.00    -0.506 OA
ATOM     35  H   LIG d   1       6.293 -12.569   0.076  0.00  0.00     0.292 HD
ENDBRANCH   9  34
BRANCH   5  36
ATOM     36  O   LIG d   1       4.391  -9.126  -5.966  0.00  0.00    -0.491 OA
BRANCH  36  37
ATOM     37  C   LIG d   1       4.817  -7.827  -6.382  0.00  0.00     0.079 C 
ATOM     38  H   LIG d   1       5.363  -7.907  -7.321  0.00  0.00     0.066 H 
ATOM     39  H   LIG d   1       3.945  -7.186  -6.521  0.00  0.00     0.066 H 
ATOM     40  H   LIG d   1       5.466  -7.396  -5.620  0.00  0.00     0.066 H 
ENDBRANCH  36  37
ENDBRANCH   5  36
BRANCH   6  41
ATOM     41  O   LIG d   1       2.945 -10.924  -4.478  0.00  0.00    -0.491 OA
BRANCH  41  42
ATOM     42  C   LIG d   1       2.902 -12.115  -5.267  0.00  0.00     0.079 C 
ATOM     43  H   LIG d   1       3.619 -12.035  -6.085  0.00  0.00     0.066 H 
ATOM     44  H   LIG d   1       3.155 -12.973  -4.644  0.00  0.00     0.066 H 
ATOM     45  H   LIG d   1       1.899 -12.245  -5.675  0.00  0.00     0.066 H 
ENDBRANCH  41  42
ENDBRANCH   6  41
TORSDOF 10
ENDMDL
MODEL 5
REMARK VINA RESULT:      -5.1      9.453     11.869
REMARK  10 active torsions:
REMARK  status: ('A' for Active; 'I' for Inactive)
REMARK    1  A    between atoms: C_1  and  O_2 
REMARK    2  A    between atoms: O_2  and  C_3 
REMARK    3  A    between atoms: C_6  and  C_11 
REMARK    4  A    between atoms: C_8  and  O_9 
REMARK    5  A    between atoms: O_9  and  C_10 
REMARK    6  A    between atoms: C_15  and  O_24 
REMARK    7  A    between atoms: C_16  and  O_22 
REMARK    8  A    between atoms: C_19  and  O_21 
REMARK    9  A    between atoms: O_22  and  C_23 
REMARK   10  A    between atoms: O_24  and  C_25 
ROOT
ATOM      1  C   LIG d   1       6.180  -3.279  -4.968  0.00  0.00    -0.014 A 
ATOM      2  C   LIG d   1       7.114  -4.298  -4.940  0.00  0.00    -0.046 A 
ATOM      3  C   LIG d   1       6.736  -5.596  -5.319  0.00  0.00    -0.010 A 
ATOM      4  C   LIG d   1       7.660  -6.655  -5.297  0.00  0.00    -0.009 A 
ATOM      5  C   LIG d   1       7.265  -7.905  -5.677  0.00  0.00     0.162 A 
ATOM      6  C   LIG d   1       5.946  -8.147  -6.089  0.00  0.00     0.162 A 
ATOM      7  C   LIG d   1       5.028  -7.139  -6.120  0.00  0.00    -0.005 A 
ATOM      8  C   LIG d   1       5.403  -5.841  -5.736  0.00  0.00     0.027 A 
ATOM      9  C   LIG d   1       4.474  -4.780  -5.758  0.00  0.00     0.125 A 
ATOM     10  C   LIG d   1       4.862  -3.528  -5.381  0.00  0.00    -0.012 A 
ATOM     11  H   LIG d   1       8.128  -4.098  -4.626  0.00  0.00     0.063 H 
ATOM     12  H   LIG d   1       8.678  -6.482  -4.981  0.00  0.00     0.066 H 
ATOM     13  H   LIG d   1       4.015  -7.338  -6.439  0.00  0.00     0.066 H 
ATOM     14  H   LIG d   1       4.148  -2.719  -5.400  0.00  0.00     0.066 H 
ENDROOT
BRANCH   1  15
ATOM     15  C   LIG d   1       6.576  -1.908  -4.563  0.00  0.00    -0.014 A 
ATOM     16  C   LIG d   1       7.679  -1.296  -5.156  0.00  0.00    -0.050 A 
ATOM     17  C   LIG d   1       8.051  -0.023  -4.775  0.00  0.00    -0.016 A 
ATOM     18  H   LIG d   1       8.247  -1.821  -5.911  0.00  0.00     0.062 H 
ATOM     19  C   LIG d   1       7.321   0.655  -3.810  0.00  0.00     0.162 A 
ATOM     20  H   LIG d   1       8.908   0.447  -5.232  0.00  0.00     0.066 H 
ATOM     21  C   LIG d   1       6.219   0.049  -3.214  0.00  0.00     0.162 A 
ATOM     22  C   LIG d   1       5.845  -1.229  -3.590  0.00  0.00    -0.009 A 
ATOM     23  H   LIG d   1       4.990  -1.700  -3.129  0.00  0.00     0.066 H 
BRANCH  19  24
ATOM     24  O   LIG d   1       7.687   1.911  -3.440  0.00  0.00    -0.491 OA
BRANCH  24  25
ATOM     25  C   LIG d   1       8.942   2.391  -3.929  0.00  0.00     0.079 C 
ATOM     26  H   LIG d   1       8.859   3.454  -4.160  0.00  0.00     0.066 H 
ATOM     27  H   LIG d   1       9.708   2.243  -3.169  0.00  0.00     0.066 H 
ATOM     28  H   LIG d   1       9.212   1.843  -4.831  0.00  0.00     0.066 H 
ENDBRANCH  24  25
ENDBRANCH  19  24
BRANCH  21  29
ATOM     29  O   LIG d   1       5.507   0.714  -2.265  0.00  0.00    -0.491 OA
BRANCH  29  30
ATOM     30  C   LIG d   1       4.150   0.311  -2.070  0.00  0.00     0.079 C 
ATOM     31  H   LIG d   1       3.625   0.329  -3.026  0.00  0.00     0.066 H 
ATOM     32  H   LIG d   1       4.126  -0.699  -1.661  0.00  0.00     0.066 H 
ATOM     33  H   LIG d   1       3.663   0.996  -1.376  0.00  0.00     0.066 H 
ENDBRANCH  29  30
ENDBRANCH  21  29
ENDBRANCH   1  15
BRANCH   9  34
ATOM     34  O   LIG d   1       3.195  -5.005  -6.156  0.00  0.00    -0.506 OA
ATOM     35  H   LIG d   1       3.054  -5.875  -6.555  0.00  0.00     0.292 HD
ENDBRANCH   9  34
BRANCH   5  36
ATOM     36  O   LIG d   1       8.160  -8.929  -5.655  0.00  0.00    -0.491 OA
BRANCH  36  37
ATOM     37  C   LIG d   1       8.507  -9.459  -4.374  0.00  0.00     0.079 C 
ATOM     38  H   LIG d   1       8.083  -8.829  -3.593  0.00  0.00     0.066 H 
ATOM     39  H   LIG d   1       8.110 -10.471  -4.281  0.00  0.00     0.066 H 
ATOM     40  H   LIG d   1       9.591  -9.484  -4.272  0.00  0.00     0.066 H 
ENDBRANCH  36  37
ENDBRANCH   5  36
BRANCH   6  41
ATOM     41  O   LIG d   1       5.579  -9.402  -6.461  0.00  0.00    -0.491 OA
BRANCH  41  42
ATOM     42  C   LIG d   1       4.586  -9.510  -7.484  0.00  0.00     0.079 C 
ATOM     43  H   LIG d   1       5.046  -9.334  -8.457  0.00  0.00     0.066 H 
ATOM     44  H   LIG d   1       4.151 -10.510  -7.463  0.00  0.00     0.066 H 
ATOM     45  H   LIG d   1       3.805  -8.769  -7.312  0.00  0.00     0.066 H 
ENDBRANCH  41  42
ENDBRANCH   6  41
TORSDOF 10
ENDMDL
MODEL 6
REMARK VINA RESULT:      -5.1      1.847      7.899
REMARK  10 active torsions:
REMARK  status: ('A' for Active; 'I' for Inactive)
REMARK    1  A    between atoms: C_1  and  O_2 
REMARK    2  A    between atoms: O_2  and  C_3 
REMARK    3  A    between atoms: C_6  and  C_11 
REMARK    4  A    between atoms: C_8  and  O_9 
REMARK    5  A    between atoms: O_9  and  C_10 
REMARK    6  A    between atoms: C_15  and  O_24 
REMARK    7  A    between atoms: C_16  and  O_22 
REMARK    8  A    between atoms: C_19  and  O_21 
REMARK    9  A    between atoms: O_22  and  C_23 
REMARK   10  A    between atoms: O_24  and  C_25 
ROOT
ATOM      1  C   LIG d   1       9.643   7.148  -7.400  0.00  0.00    -0.014 A 
ATOM      2  C   LIG d   1       9.858   5.990  -6.674  0.00  0.00    -0.046 A 
ATOM      3  C   LIG d   1       9.852   6.041  -5.270  0.00  0.00    -0.010 A 
ATOM      4  C   LIG d   1      10.071   4.884  -4.502  0.00  0.00    -0.009 A 
ATOM      5  C   LIG d   1      10.054   4.963  -3.140  0.00  0.00     0.162 A 
ATOM      6  C   LIG d   1       9.820   6.187  -2.495  0.00  0.00     0.162 A 
ATOM      7  C   LIG d   1       9.605   7.326  -3.214  0.00  0.00    -0.005 A 
ATOM      8  C   LIG d   1       9.615   7.277  -4.617  0.00  0.00     0.027 A 
ATOM      9  C   LIG d   1       9.395   8.440  -5.386  0.00  0.00     0.125 A 
ATOM     10  C   LIG d   1       9.411   8.368  -6.748  0.00  0.00    -0.012 A 
ATOM     11  H   LIG d   1      10.031   5.054  -7.182  0.00  0.00     0.063 H 
ATOM     12  H   LIG d   1      10.254   3.937  -4.988  0.00  0.00     0.066 H 
ATOM     13  H   LIG d   1       9.426   8.262  -2.705  0.00  0.00     0.066 H 
ATOM     14  H   LIG d   1       9.241   9.260  -7.331  0.00  0.00     0.066 H 
ENDROOT
BRANCH   1  15
ATOM     15  C   LIG d   1       9.654   7.097  -8.882  0.00  0.00    -0.014 A 
ATOM     16  C   LIG d   1       9.260   5.935  -9.544  0.00  0.00    -0.050 A 
ATOM     17  C   LIG d   1       9.276   5.886 -10.923  0.00  0.00    -0.016 A 
ATOM     18  H   LIG d   1       8.948   5.070  -8.977  0.00  0.00     0.062 H 
ATOM     19  C   LIG d   1       9.672   6.997 -11.654  0.00  0.00     0.162 A 
ATOM     20  H   LIG d   1       8.975   4.984 -11.433  0.00  0.00     0.066 H 
ATOM     21  C   LIG d   1      10.066   8.159 -10.998  0.00  0.00     0.162 A 
ATOM     22  C   LIG d   1      10.057   8.212  -9.616  0.00  0.00    -0.009 A 
ATOM     23  H   LIG d   1      10.362   9.113  -9.106  0.00  0.00     0.066 H 
BRANCH  19  24
ATOM     24  O   LIG d   1       9.682   6.947 -13.013  0.00  0.00    -0.491 OA
BRANCH  24  25
ATOM     25  C   LIG d   1       8.818   5.991 -13.632  0.00  0.00     0.079 C 
ATOM     26  H   LIG d   1       7.802   6.384 -13.660  0.00  0.00     0.066 H 
ATOM     27  H   LIG d   1       9.161   5.796 -14.648  0.00  0.00     0.066 H 
ATOM     28  H   LIG d   1       8.834   5.063 -13.059  0.00  0.00     0.066 H 
ENDBRANCH  24  25
ENDBRANCH  19  24
BRANCH  21  29
ATOM     29  O   LIG d   1      10.459   9.246 -11.717  0.00  0.00    -0.491 OA
BRANCH  29  30
ATOM     30  C   LIG d   1      11.843   9.596 -11.658  0.00  0.00     0.079 C 
ATOM     31  H   LIG d   1      11.965  10.491 -11.047  0.00  0.00     0.066 H 
ATOM     32  H   LIG d   1      12.407   8.775 -11.218  0.00  0.00     0.066 H 
ATOM     33  H   LIG d   1      12.211   9.792 -12.666  0.00  0.00     0.066 H 
ENDBRANCH  29  30
ENDBRANCH  21  29
ENDBRANCH   1  15
BRANCH   9  34
ATOM     34  O   LIG d   1       9.168   9.629  -4.770  0.00  0.00    -0.506 OA
ATOM     35  H   LIG d   1       8.696   9.552  -3.929  0.00  0.00     0.292 HD
ENDBRANCH   9  34
BRANCH   5  36
ATOM     36  O   LIG d   1      10.266   3.843  -2.399  0.00  0.00    -0.491 OA
BRANCH  36  37
ATOM     37  C   LIG d   1      10.480   2.624  -3.113  0.00  0.00     0.079 C 
ATOM     38  H   LIG d   1      11.541   2.376  -3.099  0.00  0.00     0.066 H 
ATOM     39  H   LIG d   1       9.913   1.822  -2.640  0.00  0.00     0.066 H 
ATOM     40  H   LIG d   1      10.149   2.744  -4.144  0.00  0.00     0.066 H 
ENDBRANCH  36  37
ENDBRANCH   5  36
BRANCH   6  41
ATOM     41  O   LIG d   1       9.809   6.238  -1.137  0.00  0.00    -0.491 OA
BRANCH  41  42
ATOM     42  C   LIG d   1      10.306   7.432  -0.528  0.00  0.00     0.079 C 
ATOM     43  H   LIG d   1       9.597   8.243  -0.688  0.00  0.00     0.066 H 
ATOM     44  H   LIG d   1      10.435   7.268   0.542  0.00  0.00     0.066 H 
ATOM     45  H   LIG d   1      11.265   7.695  -0.975  0.00  0.00     0.066 H 
ENDBRANCH  41  42
ENDBRANCH   6  41
TORSDOF 10
ENDMDL
MODEL 7
REMARK VINA RESULT:      -5.1     10.273     12.927
REMARK  10 active torsions:
REMARK  status: ('A' for Active; 'I' for Inactive)
REMARK    1  A    between atoms: C_1  and  O_2 
REMARK    2  A    between atoms: O_2  and  C_3 
REMARK    3  A    between atoms: C_6  and  C_11 
REMARK    4  A    between atoms: C_8  and  O_9 
REMARK    5  A    between atoms: O_9  and  C_10 
REMARK    6  A    between atoms: C_15  and  O_24 
REMARK    7  A    between atoms: C_16  and  O_22 
REMARK    8  A    between atoms: C_19  and  O_21 
REMARK    9  A    between atoms: O_22  and  C_23 
REMARK   10  A    between atoms: O_24  and  C_25 
ROOT
ATOM      1  C   LIG d   1       5.565  -4.067  -5.036  0.00  0.00    -0.014 A 
ATOM      2  C   LIG d   1       4.834  -5.214  -5.284  0.00  0.00    -0.046 A 
ATOM      3  C   LIG d   1       5.493  -6.375  -5.722  0.00  0.00    -0.010 A 
ATOM      4  C   LIG d   1       4.779  -7.557  -5.987  0.00  0.00    -0.009 A 
ATOM      5  C   LIG d   1       5.447  -8.670  -6.406  0.00  0.00     0.162 A 
ATOM      6  C   LIG d   1       6.839  -8.651  -6.575  0.00  0.00     0.162 A 
ATOM      7  C   LIG d   1       7.558  -7.518  -6.326  0.00  0.00    -0.005 A 
ATOM      8  C   LIG d   1       6.900  -6.356  -5.893  0.00  0.00     0.027 A 
ATOM      9  C   LIG d   1       7.618  -5.171  -5.627  0.00  0.00     0.125 A 
ATOM     10  C   LIG d   1       6.957  -4.055  -5.208  0.00  0.00    -0.012 A 
ATOM     11  H   LIG d   1       3.763  -5.218  -5.145  0.00  0.00     0.063 H 
ATOM     12  H   LIG d   1       3.706  -7.583  -5.862  0.00  0.00     0.066 H 
ATOM     13  H   LIG d   1       8.630  -7.516  -6.460  0.00  0.00     0.066 H 
ATOM     14  H   LIG d   1       7.511  -3.151  -5.005  0.00  0.00     0.066 H 
ENDROOT
BRANCH   1  15
ATOM     15  C   LIG d   1       4.870  -2.839  -4.578  0.00  0.00    -0.014 A 
ATOM     16  C   LIG d   1       4.461  -2.721  -3.250  0.00  0.00    -0.050 A 
ATOM     17  C   LIG d   1       3.810  -1.581  -2.827  0.00  0.00    -0.016 A 
ATOM     18  H   LIG d   1       4.650  -3.525  -2.554  0.00  0.00     0.062 H 
ATOM     19  C   LIG d   1       3.571  -0.545  -3.717  0.00  0.00     0.162 A 
ATOM     20  H   LIG d   1       3.490  -1.494  -1.799  0.00  0.00     0.066 H 
ATOM     21  C   LIG d   1       3.977  -0.657  -5.044  0.00  0.00     0.162 A 
ATOM     22  C   LIG d   1       4.626  -1.800  -5.475  0.00  0.00    -0.009 A 
ATOM     23  H   LIG d   1       4.942  -1.888  -6.504  0.00  0.00     0.066 H 
BRANCH  19  24
ATOM     24  O   LIG d   1       2.933   0.580  -3.295  0.00  0.00    -0.491 OA
BRANCH  24  25
ATOM     25  C   LIG d   1       3.644   1.427  -2.389  0.00  0.00     0.079 C 
ATOM     26  H   LIG d   1       3.032   1.609  -1.505  0.00  0.00     0.066 H 
ATOM     27  H   LIG d   1       4.575   0.943  -2.093  0.00  0.00     0.066 H 
ATOM     28  H   LIG d   1       3.867   2.375  -2.879  0.00  0.00     0.066 H 
ENDBRANCH  24  25
ENDBRANCH  19  24
BRANCH  21  29
ATOM     29  O   LIG d   1       3.737   0.359  -5.916  0.00  0.00    -0.491 OA
BRANCH  29  30
ATOM     30  C   LIG d   1       3.090   0.020  -7.145  0.00  0.00     0.079 C 
ATOM     31  H   LIG d   1       2.758  -1.018  -7.105  0.00  0.00     0.066 H 
ATOM     32  H   LIG d   1       2.230   0.672  -7.294  0.00  0.00     0.066 H 
ATOM     33  H   LIG d   1       3.789   0.146  -7.971  0.00  0.00     0.066 H 
ENDBRANCH  29  30
ENDBRANCH  21  29
ENDBRANCH   1  15
BRANCH   9  34
ATOM     34  O   LIG d   1       8.967  -5.143  -5.788  0.00  0.00    -0.506 OA
ATOM     35  H   LIG d   1       9.455  -5.616  -5.099  0.00  0.00     0.292 HD
ENDBRANCH   9  34
BRANCH   5  36
ATOM     36  O   LIG d   1       4.755  -9.812  -6.663  0.00  0.00    -0.491 OA
BRANCH  36  37
ATOM     37  C   LIG d   1       4.397 -10.619  -5.539  0.00  0.00     0.079 C 
ATOM     38  H   LIG d   1       3.435 -11.096  -5.726  0.00  0.00     0.066 H 
ATOM     39  H   LIG d   1       5.158 -11.385  -5.385  0.00  0.00     0.066 H 
ATOM     40  H   LIG d   1       4.325  -9.994  -4.650  0.00  0.00     0.066 H 
ENDBRANCH  36  37
ENDBRANCH   5  36
BRANCH   6  41
ATOM     41  O   LIG d   1       7.480  -9.774  -6.994  0.00  0.00    -0.491 OA
BRANCH  41  42
ATOM     42  C   LIG d   1       8.392 -10.382  -6.075  0.00  0.00     0.079 C 
ATOM     43  H   LIG d   1       9.198  -9.684  -5.850  0.00  0.00     0.066 H 
ATOM     44  H   LIG d   1       7.865 -10.638  -5.156  0.00  0.00     0.066 H 
ATOM     45  H   LIG d   1       8.808 -11.285  -6.521  0.00  0.00     0.066 H 
ENDBRANCH  41  42
ENDBRANCH   6  41
TORSDOF 10
ENDMDL
MODEL 8
REMARK VINA RESULT:      -5.0      3.628      8.178
REMARK  10 active torsions:
REMARK  status: ('A' for Active; 'I' for Inactive)
REMARK    1  A    between atoms: C_1  and  O_2 
REMARK    2  A    between atoms: O_2  and  C_3 
REMARK    3  A    between atoms: C_6  and  C_11 
REMARK    4  A    between atoms: C_8  and  O_9 
REMARK    5  A    between atoms: O_9  and  C_10 
REMARK    6  A    between atoms: C_15  and  O_24 
REMARK    7  A    between atoms: C_16  and  O_22 
REMARK    8  A    between atoms: C_19  and  O_21 
REMARK    9  A    between atoms: O_22  and  C_23 
REMARK   10  A    between atoms: O_24  and  C_25 
ROOT
ATOM      1  C   LIG d   1       9.503   4.201  -4.056  0.00  0.00    -0.014 A 
ATOM      2  C   LIG d   1       9.959   4.303  -2.755  0.00  0.00    -0.046 A 
ATOM      3  C   LIG d   1      10.128   5.572  -2.176  0.00  0.00    -0.010 A 
ATOM      4  C   LIG d   1      10.593   5.710  -0.857  0.00  0.00    -0.009 A 
ATOM      5  C   LIG d   1      10.742   6.955  -0.320  0.00  0.00     0.162 A 
ATOM      6  C   LIG d   1      10.436   8.102  -1.069  0.00  0.00     0.162 A 
ATOM      7  C   LIG d   1       9.983   7.998  -2.351  0.00  0.00    -0.005 A 
ATOM      8  C   LIG d   1       9.818   6.730  -2.932  0.00  0.00     0.027 A 
ATOM      9  C   LIG d   1       9.351   6.593  -4.257  0.00  0.00     0.125 A 
ATOM     10  C   LIG d   1       9.200   5.351  -4.799  0.00  0.00    -0.012 A 
ATOM     11  H   LIG d   1      10.186   3.413  -2.187  0.00  0.00     0.063 H 
ATOM     12  H   LIG d   1      10.834   4.835  -0.271  0.00  0.00     0.066 H 
ATOM     13  H   LIG d   1       9.750   8.888  -2.918  0.00  0.00     0.066 H 
ATOM     14  H   LIG d   1       8.841   5.252  -5.813  0.00  0.00     0.066 H 
ENDROOT
BRANCH   1  15
ATOM     15  C   LIG d   1       9.329   2.862  -4.671  0.00  0.00    -0.014 A 
ATOM     16  C   LIG d   1      10.314   2.346  -5.512  0.00  0.00    -0.050 A 
ATOM     17  C   LIG d   1      10.149   1.103  -6.087  0.00  0.00    -0.016 A 
ATOM     18  H   LIG d   1      11.204   2.922  -5.717  0.00  0.00     0.062 H 
ATOM     19  C   LIG d   1       9.008   0.359  -5.821  0.00  0.00     0.162 A 
ATOM     20  H   LIG d   1      10.910   0.707  -6.742  0.00  0.00     0.066 H 
ATOM     21  C   LIG d   1       8.022   0.869  -4.982  0.00  0.00     0.162 A 
ATOM     22  C   LIG d   1       8.181   2.117  -4.407  0.00  0.00    -0.009 A 
ATOM     23  H   LIG d   1       7.416   2.514  -3.755  0.00  0.00     0.066 H 
BRANCH  19  24
ATOM     24  O   LIG d   1       8.851  -0.868  -6.387  0.00  0.00    -0.491 OA
BRANCH  24  25
ATOM     25  C   LIG d   1       9.873  -1.834  -6.132  0.00  0.00     0.079 C 
ATOM     26  H   LIG d   1       9.571  -2.798  -6.541  0.00  0.00     0.066 H 
ATOM     27  H   LIG d   1      10.802  -1.514  -6.605  0.00  0.00     0.066 H 
ATOM     28  H   LIG d   1      10.025  -1.926  -5.057  0.00  0.00     0.066 H 
ENDBRANCH  24  25
ENDBRANCH  19  24
BRANCH  21  29
ATOM     29  O   LIG d   1       6.903   0.140  -4.727  0.00  0.00    -0.491 OA
BRANCH  29  30
ATOM     30  C   LIG d   1       6.821  -0.497  -3.449  0.00  0.00     0.079 C 
ATOM     31  H   LIG d   1       7.574  -1.282  -3.386  0.00  0.00     0.066 H 
ATOM     32  H   LIG d   1       6.996   0.239  -2.665  0.00  0.00     0.066 H 
ATOM     33  H   LIG d   1       5.830  -0.933  -3.323  0.00  0.00     0.066 H 
ENDBRANCH  29  30
ENDBRANCH  21  29
ENDBRANCH   1  15
BRANCH   9  34
ATOM     34  O   LIG d   1       9.052   7.697  -4.989  0.00  0.00    -0.506 OA
ATOM     35  H   LIG d   1       8.619   7.504  -5.833  0.00  0.00     0.292 HD
ENDBRANCH   9  34
BRANCH   5  36
ATOM     36  O   LIG d   1      11.193   7.088   0.956  0.00  0.00    -0.491 OA
BRANCH  36  37
ATOM     37  C   LIG d   1      11.019   5.966   1.825  0.00  0.00     0.079 C 
ATOM     38  H   LIG d   1      11.695   5.166   1.524  0.00  0.00     0.066 H 
ATOM     39  H   LIG d   1      11.241   6.263   2.850  0.00  0.00     0.066 H 
ATOM     40  H   LIG d   1       9.990   5.615   1.763  0.00  0.00     0.066 H 
ENDBRANCH  36  37
ENDBRANCH   5  36
BRANCH   6  41
ATOM     41  O   LIG d   1      10.593   9.330  -0.509  0.00  0.00    -0.491 OA
BRANCH  41  42
ATOM     42  C   LIG d   1       9.404  10.074  -0.232  0.00  0.00     0.079 C 
ATOM     43  H   LIG d   1       9.048   9.829   0.768  0.00  0.00     0.066 H 
ATOM     44  H   LIG d   1       9.621  11.141  -0.289  0.00  0.00     0.066 H 
ATOM     45  H   LIG d   1       8.637   9.819  -0.963  0.00  0.00     0.066 H 
ENDBRANCH  41  42
ENDBRANCH   6  41
TORSDOF 10
ENDMDL
MODEL 9
REMARK VINA RESULT:      -5.0      1.268      8.617
REMARK  10 active torsions:
REMARK  status: ('A' for Active; 'I' for Inactive)
REMARK    1  A    between atoms: C_1  and  O_2 
REMARK    2  A    between atoms: O_2  and  C_3 
REMARK    3  A    between atoms: C_6  and  C_11 
REMARK    4  A    between atoms: C_8  and  O_9 
REMARK    5  A    between atoms: O_9  and  C_10 
REMARK    6  A    between atoms: C_15  and  O_24 
REMARK    7  A    between atoms: C_16  and  O_22 
REMARK    8  A    between atoms: C_19  and  O_21 
REMARK    9  A    between atoms: O_22  and  C_23 
REMARK   10  A    between atoms: O_24  and  C_25 
ROOT
ATOM      1  C   LIG d   1       9.743   5.292  -6.108  0.00  0.00    -0.014 A 
ATOM      2  C   LIG d   1       9.814   6.475  -5.396  0.00  0.00    -0.046 A 
ATOM      3  C   LIG d   1       9.935   6.437  -3.997  0.00  0.00    -0.010 A 
ATOM      4  C   LIG d   1      10.005   7.621  -3.244  0.00  0.00    -0.009 A 
ATOM      5  C   LIG d   1      10.129   7.553  -1.887  0.00  0.00     0.162 A 
ATOM      6  C   LIG d   1      10.187   6.313  -1.233  0.00  0.00     0.162 A 
ATOM      7  C   LIG d   1      10.120   5.147  -1.938  0.00  0.00    -0.005 A 
ATOM      8  C   LIG d   1       9.994   5.184  -3.336  0.00  0.00     0.027 A 
ATOM      9  C   LIG d   1       9.924   3.994  -4.091  0.00  0.00     0.125 A 
ATOM     10  C   LIG d   1       9.801   4.055  -5.448  0.00  0.00    -0.012 A 
ATOM     11  H   LIG d   1       9.773   7.423  -5.911  0.00  0.00     0.063 H 
ATOM     12  H   LIG d   1       9.960   8.582  -3.736  0.00  0.00     0.066 H 
ATOM     13  H   LIG d   1      10.166   4.198  -1.423  0.00  0.00     0.066 H 
ATOM     14  H   LIG d   1       9.748   3.142  -6.020  0.00  0.00     0.066 H 
ENDROOT
BRANCH   1  15
ATOM     15  C   LIG d   1       9.609   5.330  -7.585  0.00  0.00    -0.014 A 
ATOM     16  C   LIG d   1       9.577   6.554  -8.252  0.00  0.00    -0.050 A 
ATOM     17  C   LIG d   1       9.447   6.590  -9.624  0.00  0.00    -0.016 A 
ATOM     18  H   LIG d   1       9.649   7.475  -7.692  0.00  0.00     0.062 H 
ATOM     19  C   LIG d   1       9.360   5.408 -10.346  0.00  0.00     0.162 A 
ATOM     20  H   LIG d   1       9.418   7.539 -10.139  0.00  0.00     0.066 H 
ATOM     21  C   LIG d   1       9.392   4.183  -9.686  0.00  0.00     0.162 A 
ATOM     22  C   LIG d   1       9.517   4.142  -8.309  0.00  0.00    -0.009 A 
ATOM     23  H   LIG d   1       9.542   3.193  -7.795  0.00  0.00     0.066 H 
BRANCH  19  24
ATOM     24  O   LIG d   1       9.237   5.447 -11.700  0.00  0.00    -0.491 OA
BRANCH  24  25
ATOM     25  C   LIG d   1      10.417   5.746 -12.450  0.00  0.00     0.079 C 
ATOM     26  H   LIG d   1      10.141   6.010 -13.471  0.00  0.00     0.066 H 
ATOM     27  H   LIG d   1      10.938   6.584 -11.986  0.00  0.00     0.066 H 
ATOM     28  H   LIG d   1      11.069   4.873 -12.463  0.00  0.00     0.066 H 
ENDBRANCH  24  25
ENDBRANCH  19  24
BRANCH  21  29
ATOM     29  O   LIG d   1       9.302   3.026 -10.395  0.00  0.00    -0.491 OA
BRANCH  29  30
ATOM     30  C   LIG d   1      10.435   2.156 -10.364  0.00  0.00     0.079 C 
ATOM     31  H   LIG d   1      10.359   1.490  -9.504  0.00  0.00     0.066 H 
ATOM     32  H   LIG d   1      10.466   1.566 -11.280  0.00  0.00     0.066 H 
ATOM     33  H   LIG d   1      11.347   2.749 -10.283  0.00  0.00     0.066 H 
ENDBRANCH  29  30
ENDBRANCH  21  29
ENDBRANCH   1  15
BRANCH   9  34
ATOM     34  O   LIG d   1       9.979   2.789  -3.466  0.00  0.00    -0.506 OA
ATOM     35  H   LIG d   1      10.829   2.604  -3.043  0.00  0.00     0.292 HD
ENDBRANCH   9  34
BRANCH   5  36
ATOM     36  O   LIG d   1      10.196   8.699  -1.159  0.00  0.00    -0.491 OA
BRANCH  36  37
ATOM     37  C   LIG d   1       8.960   9.351  -0.861  0.00  0.00     0.079 C 
ATOM     38  H   LIG d   1       8.307   9.308  -1.732  0.00  0.00     0.066 H 
ATOM     39  H   LIG d   1       8.479   8.851  -0.020  0.00  0.00     0.066 H 
ATOM     40  H   LIG d   1       9.151  10.392  -0.602  0.00  0.00     0.066 H 
ENDBRANCH  36  37
ENDBRANCH   5  36
BRANCH   6  41
ATOM     41  O   LIG d   1      10.310   6.273   0.120  0.00  0.00    -0.491 OA
BRANCH  41  42
ATOM     42  C   LIG d   1      11.546   5.782   0.645  0.00  0.00     0.079 C 
ATOM     43  H   LIG d   1      11.758   4.802   0.219  0.00  0.00     0.066 H 
ATOM     44  H   LIG d   1      12.349   6.473   0.388  0.00  0.00     0.066 H 
ATOM     45  H   LIG d   1      11.471   5.698   1.730  0.00  0.00     0.066 H 
ENDBRANCH  41  42
ENDBRANCH   6  41
TORSDOF 10
ENDMDL
MODEL 10
REMARK VINA RESULT:      -5.0      2.196      3.860
REMARK  10 active torsions:
REMARK  status: ('A' for Active; 'I' for Inactive)
REMARK    1  A    between atoms: C_1  and  O_2 
REMARK    2  A    between atoms: O_2  and  C_3 
REMARK    3  A    between atoms: C_6  and  C_11 
REMARK    4  A    between atoms: C_8  and  O_9 
REMARK    5  A    between atoms: O_9  and  C_10 
REMARK    6  A    between atoms: C_15  and  O_24 
REMARK    7  A    between atoms: C_16  and  O_22 
REMARK    8  A    between atoms: C_19  and  O_21 
REMARK    9  A    between atoms: O_22  and  C_23 
REMARK   10  A    between atoms: O_24  and  C_25 
ROOT
ATOM      1  C   LIG d   1       9.950   4.786  -3.278  0.00  0.00    -0.014 A 
ATOM      2  C   LIG d   1       9.993   5.306  -4.559  0.00  0.00    -0.046 A 
ATOM      3  C   LIG d   1       9.730   4.470  -5.656  0.00  0.00    -0.010 A 
ATOM      4  C   LIG d   1       9.770   4.967  -6.971  0.00  0.00    -0.009 A 
ATOM      5  C   LIG d   1       9.504   4.133  -8.017  0.00  0.00     0.162 A 
ATOM      6  C   LIG d   1       9.190   2.783  -7.797  0.00  0.00     0.162 A 
ATOM      7  C   LIG d   1       9.144   2.273  -6.533  0.00  0.00    -0.005 A 
ATOM      8  C   LIG d   1       9.412   3.107  -5.435  0.00  0.00     0.027 A 
ATOM      9  C   LIG d   1       9.371   2.606  -4.116  0.00  0.00     0.125 A 
ATOM     10  C   LIG d   1       9.636   3.435  -3.066  0.00  0.00    -0.012 A 
ATOM     11  H   LIG d   1      10.231   6.348  -4.715  0.00  0.00     0.063 H 
ATOM     12  H   LIG d   1      10.012   6.004  -7.153  0.00  0.00     0.066 H 
ATOM     13  H   LIG d   1       8.901   1.232  -6.377  0.00  0.00     0.066 H 
ATOM     14  H   LIG d   1       9.603   3.047  -2.059  0.00  0.00     0.066 H 
ENDROOT
BRANCH   1  15
ATOM     15  C   LIG d   1      10.233   5.665  -2.118  0.00  0.00    -0.014 A 
ATOM     16  C   LIG d   1      11.189   5.292  -1.175  0.00  0.00    -0.050 A 
ATOM     17  C   LIG d   1      11.448   6.108  -0.093  0.00  0.00    -0.016 A 
ATOM     18  H   LIG d   1      11.724   4.360  -1.289  0.00  0.00     0.062 H 
ATOM     19  C   LIG d   1      10.766   7.307   0.053  0.00  0.00     0.162 A 
ATOM     20  H   LIG d   1      12.186   5.815   0.638  0.00  0.00     0.066 H 
ATOM     21  C   LIG d   1       9.810   7.685  -0.886  0.00  0.00     0.162 A 
ATOM     22  C   LIG d   1       9.544   6.868  -1.970  0.00  0.00    -0.009 A 
ATOM     23  H   LIG d   1       8.803   7.160  -2.698  0.00  0.00     0.066 H 
BRANCH  19  24
ATOM     24  O   LIG d   1      11.028   8.111   1.118  0.00  0.00    -0.491 OA
BRANCH  24  25
ATOM     25  C   LIG d   1      12.184   8.947   1.031  0.00  0.00     0.079 C 
ATOM     26  H   LIG d   1      11.879   9.963   0.779  0.00  0.00     0.066 H 
ATOM     27  H   LIG d   1      12.703   8.950   1.989  0.00  0.00     0.066 H 
ATOM     28  H   LIG d   1      12.850   8.564   0.258  0.00  0.00     0.066 H 
ENDBRANCH  24  25
ENDBRANCH  19  24
BRANCH  21  29
ATOM     29  O   LIG d   1       9.140   8.859  -0.738  0.00  0.00    -0.491 OA
BRANCH  29  30
ATOM     30  C   LIG d   1       9.537   9.943  -1.581  0.00  0.00     0.079 C 
ATOM     31  H   LIG d   1       8.676  10.581  -1.781  0.00  0.00     0.066 H 
ATOM     32  H   LIG d   1      10.312  10.525  -1.083  0.00  0.00     0.066 H 
ATOM     33  H   LIG d   1       9.924   9.550  -2.521  0.00  0.00     0.066 H 
ENDBRANCH  29  30
ENDBRANCH  21  29
ENDBRANCH   1  15
BRANCH   9  34
ATOM     34  O   LIG d   1       9.068   1.301  -3.894  0.00  0.00    -0.506 OA
ATOM     35  H   LIG d   1       9.058   0.757  -4.694  0.00  0.00     0.292 HD
ENDBRANCH   9  34
BRANCH   5  36
ATOM     36  O   LIG d   1       9.543   4.614  -9.288  0.00  0.00    -0.491 OA
BRANCH  36  37
ATOM     37  C   LIG d   1       8.576   5.607  -9.635  0.00  0.00     0.079 C 
ATOM     38  H   LIG d   1       7.660   5.435  -9.071  0.00  0.00     0.066 H 
ATOM     39  H   LIG d   1       8.969   6.596  -9.397  0.00  0.00     0.066 H 
ATOM     40  H   LIG d   1       8.361   5.548 -10.702  0.00  0.00     0.066 H 
ENDBRANCH  36  37
ENDBRANCH   5  36
BRANCH   6  41
ATOM     41  O   LIG d   1       8.929   1.973  -8.858  0.00  0.00    -0.491 OA
BRANCH  41  42
ATOM     42  C   LIG d   1       7.559   1.650  -9.105  0.00  0.00     0.079 C 
ATOM     43  H   LIG d   1       7.442   0.567  -9.138  0.00  0.00     0.066 H 
ATOM     44  H   LIG d   1       6.939   2.058  -8.306  0.00  0.00     0.066 H 
ATOM     45  H   LIG d   1       7.251   2.077 -10.060  0.00  0.00     0.066 H 
ENDBRANCH  41  42
ENDBRANCH   6  41
TORSDOF 10
ENDMDL
