MODEL 1
REMARK VINA RESULT:      -5.4      0.000      0.000
REMARK  16 active torsions:
REMARK  status: ('A' for Active; 'I' for Inactive)
REMARK    1  A    between atoms: C_1  and  C_2 
REMARK    2  A    between atoms: C_2  and  C_3 
REMARK    3  A    between atoms: C_3  and  N_62 
REMARK    4  A    between atoms: C_4  and  C_5 
REMARK    5  A    between atoms: C_4  and  N_62 
REMARK    6  A    between atoms: C_5  and  C_6 
REMARK    7  A    between atoms: C_7  and  C_8 
REMARK    8  A    between atoms: C_7  and  N_62 
REMARK    9  A    between atoms: C_9  and  O_30 
REMARK   10  A    between atoms: C_14  and  C_18 
REMARK   11  A    between atoms: C_15  and  C_17 
REMARK   12  A    between atoms: C_18  and  C_20 
REMARK   13  A    between atoms: C_22  and  O_28 
REMARK   14  A    between atoms: C_25  and  O_26 
REMARK   15  A    between atoms: O_26  and  C_27 
REMARK   16  A    between atoms: O_28  and  C_29 
ROOT
ATOM      1  C   LIG d   1       5.444  -1.298  -3.988  0.00  0.00     0.050 A 
ATOM      2  C   LIG d   1       4.460  -1.494  -3.036  0.00  0.00     0.126 A 
ATOM      3  C   LIG d   1       4.205  -0.514  -2.084  0.00  0.00    -0.016 A 
ATOM      4  C   LIG d   1       4.927   0.661  -2.076  0.00  0.00    -0.015 A 
ATOM      5  C   LIG d   1       5.919   0.874  -3.025  0.00  0.00     0.137 A 
ATOM      6  C   LIG d   1       6.171  -0.113  -3.989  0.00  0.00     0.043 A 
ATOM      7  C   LIG d   1       7.268   0.422  -4.822  0.00  0.00     0.071 A 
ATOM      8  C   LIG d   1       7.559   1.648  -4.305  0.00  0.00     0.114 A 
ATOM      9  O   LIG d   1       6.766   1.899  -3.258  0.00  0.00    -0.459 OA
ATOM     10  H   LIG d   1       3.435  -0.673  -1.344  0.00  0.00     0.066 H 
ATOM     11  H   LIG d   1       4.721   1.416  -1.332  0.00  0.00     0.066 H 
ENDROOT
BRANCH   1  12
ATOM     12  C   LIG d   1       5.722  -2.359  -5.021  0.00  0.00    -0.002 C 
ATOM     13  H   LIG d   1       6.499  -2.009  -5.702  0.00  0.00     0.087 H 
ATOM     14  H   LIG d   1       6.057  -3.270  -4.525  0.00  0.00     0.087 H 
BRANCH  12  15
ATOM     15  N   LIG d   1       4.474  -2.638  -5.762  0.00  0.00     0.239 N 
ATOM     16  H   LIG d   1       3.686  -2.628  -5.103  0.00  0.00     0.204 HD
BRANCH  15  17
ATOM     17  C   LIG d   1       4.254  -1.600  -6.791  0.00  0.00    -0.032 C 
ATOM     18  H   LIG d   1       3.460  -0.930  -6.459  0.00  0.00     0.081 H 
ATOM     19  H   LIG d   1       5.166  -1.029  -6.957  0.00  0.00     0.081 H 
BRANCH  17  20
ATOM     20  C   LIG d   1       3.833  -2.282  -8.094  0.00  0.00    -0.015 C 
ATOM     21  H   LIG d   1       4.721  -2.572  -8.656  0.00  0.00     0.031 H 
ATOM     22  H   LIG d   1       3.242  -3.169  -7.865  0.00  0.00     0.031 H 
BRANCH  20  23
ATOM     23  C   LIG d   1       2.994  -1.312  -8.929  0.00  0.00    -0.060 C 
ATOM     24  H   LIG d   1       3.519  -0.360  -9.016  0.00  0.00     0.023 H 
ATOM     25  H   LIG d   1       2.836  -1.731  -9.923  0.00  0.00     0.023 H 
ATOM     26  H   LIG d   1       2.032  -1.154  -8.444  0.00  0.00     0.023 H 
ENDBRANCH  20  23
ENDBRANCH  17  20
ENDBRANCH  15  17
BRANCH  15  27
ATOM     27  C   LIG d   1       4.550  -3.971  -6.397  0.00  0.00    -0.032 C 
ATOM     28  H   LIG d   1       3.541  -4.338  -6.584  0.00  0.00     0.081 H 
ATOM     29  H   LIG d   1       5.097  -3.914  -7.338  0.00  0.00     0.081 H 
BRANCH  27  30
ATOM     30  C   LIG d   1       5.273  -4.926  -5.445  0.00  0.00    -0.015 C 
ATOM     31  H   LIG d   1       6.346  -4.875  -5.623  0.00  0.00     0.031 H 
ATOM     32  H   LIG d   1       5.061  -4.642  -4.415  0.00  0.00     0.031 H 
BRANCH  30  33
ATOM     33  C   LIG d   1       4.784  -6.356  -5.689  0.00  0.00    -0.060 C 
ATOM     34  H   LIG d   1       5.642  -7.010  -5.852  0.00  0.00     0.023 H 
ATOM     35  H   LIG d   1       4.225  -6.702  -4.821  0.00  0.00     0.023 H 
ATOM     36  H   LIG d   1       4.141  -6.375  -6.569  0.00  0.00     0.023 H 
ENDBRANCH  30  33
ENDBRANCH  27  30
ENDBRANCH  15  27
ENDBRANCH  12  15
ENDBRANCH   1  12
BRANCH   2  37
ATOM     37  O   LIG d   1       3.740  -2.648  -3.032  0.00  0.00    -0.506 OA
ATOM     38  H   LIG d   1       4.280  -3.449  -3.080  0.00  0.00     0.292 HD
ENDBRANCH   2  37
BRANCH   7  39
ATOM     39  C   LIG d   1       7.906  -0.231  -5.974  0.00  0.00     0.201 C 
ATOM     40  O   LIG d   1       8.894  -0.923  -5.812  0.00  0.00    -0.286 OA
BRANCH  39  41
ATOM     41  C   LIG d   1       7.350  -0.046  -7.328  0.00  0.00     0.067 A 
ATOM     42  C   LIG d   1       7.409  -1.089  -8.262  0.00  0.00     0.131 A 
ATOM     43  C   LIG d   1       6.884  -0.908  -9.533  0.00  0.00    -0.016 A 
ATOM     44  C   LIG d   1       6.305   0.297  -9.878  0.00  0.00    -0.017 A 
ATOM     45  H   LIG d   1       6.928  -1.711 -10.253  0.00  0.00     0.066 H 
ATOM     46  C   LIG d   1       6.243   1.336  -8.956  0.00  0.00     0.121 A 
ATOM     47  H   LIG d   1       5.898   0.432 -10.869  0.00  0.00     0.066 H 
ATOM     48  C   LIG d   1       6.766   1.171  -7.687  0.00  0.00    -0.006 A 
ATOM     49  H   LIG d   1       6.720   1.982  -6.974  0.00  0.00     0.066 H 
BRANCH  42  50
ATOM     50  O   LIG d   1       7.978  -2.274  -7.923  0.00  0.00    -0.494 OA
BRANCH  50  51
ATOM     51  C   LIG d   1       7.478  -3.443  -8.577  0.00  0.00     0.079 C 
ATOM     52  H   LIG d   1       6.393  -3.477  -8.480  0.00  0.00     0.066 H 
ATOM     53  H   LIG d   1       7.748  -3.414  -9.632  0.00  0.00     0.066 H 
ATOM     54  H   LIG d   1       7.912  -4.331  -8.115  0.00  0.00     0.066 H 
ENDBRANCH  50  51
ENDBRANCH  42  50
BRANCH  46  55
ATOM     55  O   LIG d   1       5.671   2.518  -9.306  0.00  0.00    -0.495 OA
BRANCH  55  56
ATOM     56  C   LIG d   1       4.242   2.575  -9.300  0.00  0.00     0.079 C 
ATOM     57  H   LIG d   1       3.840   1.643  -9.696  0.00  0.00     0.066 H 
ATOM     58  H   LIG d   1       3.889   2.720  -8.280  0.00  0.00     0.066 H 
ATOM     59  H   LIG d   1       3.910   3.407  -9.922  0.00  0.00     0.066 H 
ENDBRANCH  55  56
ENDBRANCH  46  55
ENDBRANCH  39  41
ENDBRANCH   7  39
BRANCH   8  60
ATOM     60  C   LIG d   1       8.617   2.582  -4.834  0.00  0.00    -0.006 C 
ATOM     61  H   LIG d   1       9.120   2.118  -5.683  0.00  0.00     0.031 H 
ATOM     62  H   LIG d   1       8.152   3.514  -5.154  0.00  0.00     0.031 H 
ATOM     63  H   LIG d   1       9.344   2.789  -4.050  0.00  0.00     0.031 H 
ENDBRANCH   8  60
TORSDOF 16
ENDMDL
MODEL 2
REMARK VINA RESULT:      -5.3      2.714      6.257
REMARK  16 active torsions:
REMARK  status: ('A' for Active; 'I' for Inactive)
REMARK    1  A    between atoms: C_1  and  C_2 
REMARK    2  A    between atoms: C_2  and  C_3 
REMARK    3  A    between atoms: C_3  and  N_62 
REMARK    4  A    between atoms: C_4  and  C_5 
REMARK    5  A    between atoms: C_4  and  N_62 
REMARK    6  A    between atoms: C_5  and  C_6 
REMARK    7  A    between atoms: C_7  and  C_8 
REMARK    8  A    between atoms: C_7  and  N_62 
REMARK    9  A    between atoms: C_9  and  O_30 
REMARK   10  A    between atoms: C_14  and  C_18 
REMARK   11  A    between atoms: C_15  and  C_17 
REMARK   12  A    between atoms: C_18  and  C_20 
REMARK   13  A    between atoms: C_22  and  O_28 
REMARK   14  A    between atoms: C_25  and  O_26 
REMARK   15  A    between atoms: O_26  and  C_27 
REMARK   16  A    between atoms: O_28  and  C_29 
ROOT
ATOM      1  C   LIG d   1       6.070  -0.502  -3.584  0.00  0.00     0.050 A 
ATOM      2  C   LIG d   1       5.294   0.300  -2.767  0.00  0.00     0.126 A 
ATOM      3  C   LIG d   1       4.076  -0.166  -2.285  0.00  0.00    -0.016 A 
ATOM      4  C   LIG d   1       3.629  -1.428  -2.614  0.00  0.00    -0.015 A 
ATOM      5  C   LIG d   1       4.396  -2.246  -3.434  0.00  0.00     0.137 A 
ATOM      6  C   LIG d   1       5.627  -1.777  -3.915  0.00  0.00     0.043 A 
ATOM      7  C   LIG d   1       6.169  -2.874  -4.743  0.00  0.00     0.071 A 
ATOM      8  C   LIG d   1       5.248  -3.876  -4.678  0.00  0.00     0.114 A 
ATOM      9  O   LIG d   1       4.219  -3.497  -3.912  0.00  0.00    -0.459 OA
ATOM     10  H   LIG d   1       3.476   0.465  -1.647  0.00  0.00     0.066 H 
ATOM     11  H   LIG d   1       2.681  -1.780  -2.234  0.00  0.00     0.066 H 
ENDROOT
BRANCH   1  12
ATOM     12  C   LIG d   1       7.390   0.002  -4.109  0.00  0.00    -0.002 C 
ATOM     13  H   LIG d   1       8.001   0.355  -3.278  0.00  0.00     0.087 H 
ATOM     14  H   LIG d   1       7.909  -0.807  -4.623  0.00  0.00     0.087 H 
BRANCH  12  15
ATOM     15  N   LIG d   1       7.133   1.100  -5.064  0.00  0.00     0.239 N 
ATOM     16  H   LIG d   1       6.250   1.561  -4.812  0.00  0.00     0.204 HD
BRANCH  15  17
ATOM     17  C   LIG d   1       8.227   2.092  -5.000  0.00  0.00    -0.032 C 
ATOM     18  H   LIG d   1       8.929   1.904  -5.814  0.00  0.00     0.081 H 
ATOM     19  H   LIG d   1       7.831   3.103  -5.090  0.00  0.00     0.081 H 
BRANCH  17  20
ATOM     20  C   LIG d   1       8.949   1.943  -3.660  0.00  0.00    -0.015 C 
ATOM     21  H   LIG d   1       8.230   1.668  -2.888  0.00  0.00     0.031 H 
ATOM     22  H   LIG d   1       9.709   1.165  -3.741  0.00  0.00     0.031 H 
BRANCH  20  23
ATOM     23  C   LIG d   1       9.614   3.270  -3.288  0.00  0.00    -0.060 C 
ATOM     24  H   LIG d   1      10.661   3.249  -3.591  0.00  0.00     0.023 H 
ATOM     25  H   LIG d   1       9.105   4.087  -3.799  0.00  0.00     0.023 H 
ATOM     26  H   LIG d   1       9.550   3.419  -2.210  0.00  0.00     0.023 H 
ENDBRANCH  20  23
ENDBRANCH  17  20
ENDBRANCH  15  17
BRANCH  15  27
ATOM     27  C   LIG d   1       7.020   0.561  -6.435  0.00  0.00    -0.032 C 
ATOM     28  H   LIG d   1       7.505  -0.415  -6.479  0.00  0.00     0.081 H 
ATOM     29  H   LIG d   1       5.973   0.460  -6.721  0.00  0.00     0.081 H 
BRANCH  27  30
ATOM     30  C   LIG d   1       7.720   1.522  -7.398  0.00  0.00    -0.015 C 
ATOM     31  H   LIG d   1       7.927   2.462  -6.887  0.00  0.00     0.031 H 
ATOM     32  H   LIG d   1       8.656   1.079  -7.738  0.00  0.00     0.031 H 
BRANCH  30  33
ATOM     33  C   LIG d   1       6.814   1.787  -8.604  0.00  0.00    -0.060 C 
ATOM     34  H   LIG d   1       6.225   2.687  -8.424  0.00  0.00     0.023 H 
ATOM     35  H   LIG d   1       7.427   1.926  -9.494  0.00  0.00     0.023 H 
ATOM     36  H   LIG d   1       6.146   0.938  -8.750  0.00  0.00     0.023 H 
ENDBRANCH  30  33
ENDBRANCH  27  30
ENDBRANCH  15  27
ENDBRANCH  12  15
ENDBRANCH   1  12
BRANCH   2  37
ATOM     37  O   LIG d   1       5.723   1.547  -2.435  0.00  0.00    -0.506 OA
ATOM     38  H   LIG d   1       5.081   2.063  -1.929  0.00  0.00     0.292 HD
ENDBRANCH   2  37
BRANCH   7  39
ATOM     39  C   LIG d   1       7.442  -2.885  -5.478  0.00  0.00     0.201 C 
ATOM     40  O   LIG d   1       7.454  -2.684  -6.678  0.00  0.00    -0.286 OA
BRANCH  39  41
ATOM     41  C   LIG d   1       8.706  -3.141  -4.760  0.00  0.00     0.067 A 
ATOM     42  C   LIG d   1       9.893  -2.529  -5.184  0.00  0.00     0.131 A 
ATOM     43  C   LIG d   1      11.077  -2.774  -4.504  0.00  0.00    -0.016 A 
ATOM     44  C   LIG d   1      11.087  -3.620  -3.413  0.00  0.00    -0.017 A 
ATOM     45  H   LIG d   1      11.992  -2.303  -4.829  0.00  0.00     0.066 H 
ATOM     46  C   LIG d   1       9.913  -4.230  -2.987  0.00  0.00     0.121 A 
ATOM     47  H   LIG d   1      12.011  -3.807  -2.888  0.00  0.00     0.066 H 
ATOM     48  C   LIG d   1       8.726  -3.998  -3.657  0.00  0.00    -0.006 A 
ATOM     49  H   LIG d   1       7.816  -4.477  -3.326  0.00  0.00     0.066 H 
BRANCH  42  50
ATOM     50  O   LIG d   1       9.884  -1.697  -6.257  0.00  0.00    -0.494 OA
BRANCH  50  51
ATOM     51  C   LIG d   1      10.655  -0.498  -6.154  0.00  0.00     0.079 C 
ATOM     52  H   LIG d   1      10.495   0.113  -7.042  0.00  0.00     0.066 H 
ATOM     53  H   LIG d   1      10.345   0.059  -5.270  0.00  0.00     0.066 H 
ATOM     54  H   LIG d   1      11.712  -0.751  -6.073  0.00  0.00     0.066 H 
ENDBRANCH  50  51
ENDBRANCH  42  50
BRANCH  46  55
ATOM     55  O   LIG d   1       9.933  -5.061  -1.911  0.00  0.00    -0.495 OA
BRANCH  55  56
ATOM     56  C   LIG d   1       9.895  -6.465  -2.174  0.00  0.00     0.079 C 
ATOM     57  H   LIG d   1       8.940  -6.724  -2.631  0.00  0.00     0.066 H 
ATOM     58  H   LIG d   1      10.706  -6.730  -2.851  0.00  0.00     0.066 H 
ATOM     59  H   LIG d   1      10.010  -7.012  -1.238  0.00  0.00     0.066 H 
ENDBRANCH  55  56
ENDBRANCH  46  55
ENDBRANCH  39  41
ENDBRANCH   7  39
BRANCH   8  60
ATOM     60  C   LIG d   1       5.370  -5.210  -5.366  0.00  0.00    -0.006 C 
ATOM     61  H   LIG d   1       5.112  -6.005  -4.666  0.00  0.00     0.031 H 
ATOM     62  H   LIG d   1       4.692  -5.243  -6.219  0.00  0.00     0.031 H 
ATOM     63  H   LIG d   1       6.394  -5.349  -5.711  0.00  0.00     0.031 H 
ENDBRANCH   8  60
TORSDOF 16
ENDMDL
MODEL 3
REMARK VINA RESULT:      -5.2      2.429      4.329
REMARK  16 active torsions:
REMARK  status: ('A' for Active; 'I' for Inactive)
REMARK    1  A    between atoms: C_1  and  C_2 
REMARK    2  A    between atoms: C_2  and  C_3 
REMARK    3  A    between atoms: C_3  and  N_62 
REMARK    4  A    between atoms: C_4  and  C_5 
REMARK    5  A    between atoms: C_4  and  N_62 
REMARK    6  A    between atoms: C_5  and  C_6 
REMARK    7  A    between atoms: C_7  and  C_8 
REMARK    8  A    between atoms: C_7  and  N_62 
REMARK    9  A    between atoms: C_9  and  O_30 
REMARK   10  A    between atoms: C_14  and  C_18 
REMARK   11  A    between atoms: C_15  and  C_17 
REMARK   12  A    between atoms: C_18  and  C_20 
REMARK   13  A    between atoms: C_22  and  O_28 
REMARK   14  A    between atoms: C_25  and  O_26 
REMARK   15  A    between atoms: O_26  and  C_27 
REMARK   16  A    between atoms: O_28  and  C_29 
ROOT
ATOM      1  C   LIG d   1       5.170  -1.104  -4.092  0.00  0.00     0.050 A 
ATOM      2  C   LIG d   1       3.972  -1.013  -3.407  0.00  0.00     0.126 A 
ATOM      3  C   LIG d   1       3.724   0.073  -2.576  0.00  0.00    -0.016 A 
ATOM      4  C   LIG d   1       4.666   1.069  -2.424  0.00  0.00    -0.015 A 
ATOM      5  C   LIG d   1       5.874   0.994  -3.105  0.00  0.00     0.137 A 
ATOM      6  C   LIG d   1       6.121  -0.100  -3.948  0.00  0.00     0.043 A 
ATOM      7  C   LIG d   1       7.472   0.126  -4.500  0.00  0.00     0.071 A 
ATOM      8  C   LIG d   1       7.898   1.303  -3.963  0.00  0.00     0.114 A 
ATOM      9  O   LIG d   1       6.958   1.798  -3.151  0.00  0.00    -0.459 OA
ATOM     10  H   LIG d   1       2.786   0.139  -2.045  0.00  0.00     0.066 H 
ATOM     11  H   LIG d   1       4.463   1.909  -1.776  0.00  0.00     0.066 H 
ENDROOT
BRANCH   1  12
ATOM     12  C   LIG d   1       5.441  -2.281  -4.994  0.00  0.00    -0.002 C 
ATOM     13  H   LIG d   1       6.427  -2.173  -5.445  0.00  0.00     0.087 H 
ATOM     14  H   LIG d   1       5.406  -3.201  -4.411  0.00  0.00     0.087 H 
BRANCH  12  15
ATOM     15  N   LIG d   1       4.397  -2.326  -6.040  0.00  0.00     0.239 N 
ATOM     16  H   LIG d   1       3.493  -2.075  -5.620  0.00  0.00     0.204 HD
BRANCH  15  17
ATOM     17  C   LIG d   1       4.713  -1.359  -7.112  0.00  0.00    -0.032 C 
ATOM     18  H   LIG d   1       5.330  -0.559  -6.702  0.00  0.00     0.081 H 
ATOM     19  H   LIG d   1       5.249  -1.851  -7.923  0.00  0.00     0.081 H 
BRANCH  17  20
ATOM     20  C   LIG d   1       3.405  -0.772  -7.647  0.00  0.00    -0.015 C 
ATOM     21  H   LIG d   1       3.584  -0.312  -8.618  0.00  0.00     0.031 H 
ATOM     22  H   LIG d   1       2.667  -1.568  -7.753  0.00  0.00     0.031 H 
BRANCH  20  23
ATOM     23  C   LIG d   1       2.882   0.282  -6.669  0.00  0.00    -0.060 C 
ATOM     24  H   LIG d   1       1.912  -0.030  -6.283  0.00  0.00     0.023 H 
ATOM     25  H   LIG d   1       3.584   0.391  -5.843  0.00  0.00     0.023 H 
ATOM     26  H   LIG d   1       2.779   1.236  -7.186  0.00  0.00     0.023 H 
ENDBRANCH  20  23
ENDBRANCH  17  20
ENDBRANCH  15  17
BRANCH  15  27
ATOM     27  C   LIG d   1       4.303  -3.690  -6.601  0.00  0.00    -0.032 C 
ATOM     28  H   LIG d   1       3.290  -4.068  -6.461  0.00  0.00     0.081 H 
ATOM     29  H   LIG d   1       4.545  -3.683  -7.664  0.00  0.00     0.081 H 
BRANCH  27  30
ATOM     30  C   LIG d   1       5.292  -4.593  -5.860  0.00  0.00    -0.015 C 
ATOM     31  H   LIG d   1       6.178  -4.744  -6.475  0.00  0.00     0.031 H 
ATOM     32  H   LIG d   1       5.577  -4.124  -4.919  0.00  0.00     0.031 H 
BRANCH  30  33
ATOM     33  C   LIG d   1       4.633  -5.946  -5.577  0.00  0.00    -0.060 C 
ATOM     34  H   LIG d   1       5.371  -6.627  -5.152  0.00  0.00     0.023 H 
ATOM     35  H   LIG d   1       3.816  -5.810  -4.869  0.00  0.00     0.023 H 
ATOM     36  H   LIG d   1       4.245  -6.363  -6.505  0.00  0.00     0.023 H 
ENDBRANCH  30  33
ENDBRANCH  27  30
ENDBRANCH  15  27
ENDBRANCH  12  15
ENDBRANCH   1  12
BRANCH   2  37
ATOM     37  O   LIG d   1       3.034  -1.988  -3.548  0.00  0.00    -0.506 OA
ATOM     38  H   LIG d   1       2.414  -2.048  -2.808  0.00  0.00     0.292 HD
ENDBRANCH   2  37
BRANCH   7  39
ATOM     39  C   LIG d   1       8.203  -0.737  -5.440  0.00  0.00     0.201 C 
ATOM     40  O   LIG d   1       8.026  -0.619  -6.638  0.00  0.00    -0.286 OA
BRANCH  39  41
ATOM     41  C   LIG d   1       9.150  -1.747  -4.930  0.00  0.00     0.067 A 
ATOM     42  C   LIG d   1      10.529  -1.576  -5.115  0.00  0.00     0.131 A 
ATOM     43  C   LIG d   1      11.413  -2.529  -4.632  0.00  0.00    -0.016 A 
ATOM     44  C   LIG d   1      10.937  -3.645  -3.973  0.00  0.00    -0.017 A 
ATOM     45  H   LIG d   1      12.475  -2.399  -4.773  0.00  0.00     0.066 H 
ATOM     46  C   LIG d   1       9.570  -3.821  -3.786  0.00  0.00     0.121 A 
ATOM     47  H   LIG d   1      11.630  -4.384  -3.600  0.00  0.00     0.066 H 
ATOM     48  C   LIG d   1       8.677  -2.881  -4.265  0.00  0.00    -0.006 A 
ATOM     49  H   LIG d   1       7.615  -3.022  -4.122  0.00  0.00     0.066 H 
BRANCH  42  50
ATOM     50  O   LIG d   1      10.997  -0.479  -5.763  0.00  0.00    -0.494 OA
BRANCH  50  51
ATOM     51  C   LIG d   1      12.267   0.028  -5.345  0.00  0.00     0.079 C 
ATOM     52  H   LIG d   1      12.278   0.126  -4.259  0.00  0.00     0.066 H 
ATOM     53  H   LIG d   1      13.054  -0.658  -5.656  0.00  0.00     0.066 H 
ATOM     54  H   LIG d   1      12.434   1.005  -5.799  0.00  0.00     0.066 H 
ENDBRANCH  50  51
ENDBRANCH  42  50
BRANCH  46  55
ATOM     55  O   LIG d   1       9.112  -4.922  -3.135  0.00  0.00    -0.495 OA
BRANCH  55  56
ATOM     56  C   LIG d   1       9.833  -5.336  -1.972  0.00  0.00     0.079 C 
ATOM     57  H   LIG d   1      10.903  -5.228  -2.150  0.00  0.00     0.066 H 
ATOM     58  H   LIG d   1       9.541  -4.717  -1.125  0.00  0.00     0.066 H 
ATOM     59  H   LIG d   1       9.604  -6.380  -1.756  0.00  0.00     0.066 H 
ENDBRANCH  55  56
ENDBRANCH  46  55
ENDBRANCH  39  41
ENDBRANCH   7  39
BRANCH   8  60
ATOM     60  C   LIG d   1       9.230   1.950  -4.242  0.00  0.00    -0.006 C 
ATOM     61  H   LIG d   1       9.447   1.891  -5.308  0.00  0.00     0.031 H 
ATOM     62  H   LIG d   1       9.197   2.996  -3.936  0.00  0.00     0.031 H 
ATOM     63  H   LIG d   1      10.009   1.434  -3.683  0.00  0.00     0.031 H 
ENDBRANCH   8  60
TORSDOF 16
ENDMDL
MODEL 4
REMARK VINA RESULT:      -5.1      2.113      3.659
REMARK  16 active torsions:
REMARK  status: ('A' for Active; 'I' for Inactive)
REMARK    1  A    between atoms: C_1  and  C_2 
REMARK    2  A    between atoms: C_2  and  C_3 
REMARK    3  A    between atoms: C_3  and  N_62 
REMARK    4  A    between atoms: C_4  and  C_5 
REMARK    5  A    between atoms: C_4  and  N_62 
REMARK    6  A    between atoms: C_5  and  C_6 
REMARK    7  A    between atoms: C_7  and  C_8 
REMARK    8  A    between atoms: C_7  and  N_62 
REMARK    9  A    between atoms: C_9  and  O_30 
REMARK   10  A    between atoms: C_14  and  C_18 
REMARK   11  A    between atoms: C_15  and  C_17 
REMARK   12  A    between atoms: C_18  and  C_20 
REMARK   13  A    between atoms: C_22  and  O_28 
REMARK   14  A    between atoms: C_25  and  O_26 
REMARK   15  A    between atoms: O_26  and  C_27 
REMARK   16  A    between atoms: O_28  and  C_29 
ROOT
ATOM      1  C   LIG d   1       4.064  -0.695  -5.068  0.00  0.00     0.050 A 
ATOM      2  C   LIG d   1       2.928  -0.564  -4.291  0.00  0.00     0.126 A 
ATOM      3  C   LIG d   1       2.908  -1.065  -2.995  0.00  0.00    -0.016 A 
ATOM      4  C   LIG d   1       4.015  -1.696  -2.469  0.00  0.00    -0.015 A 
ATOM      5  C   LIG d   1       5.165  -1.836  -3.236  0.00  0.00     0.137 A 
ATOM      6  C   LIG d   1       5.186  -1.326  -4.542  0.00  0.00     0.043 A 
ATOM      7  C   LIG d   1       6.531  -1.643  -5.066  0.00  0.00     0.071 A 
ATOM      8  C   LIG d   1       7.178  -2.287  -4.056  0.00  0.00     0.114 A 
ATOM      9  O   LIG d   1       6.371  -2.394  -2.995  0.00  0.00    -0.459 OA
ATOM     10  H   LIG d   1       2.017  -0.958  -2.393  0.00  0.00     0.066 H 
ATOM     11  H   LIG d   1       3.989  -2.081  -1.460  0.00  0.00     0.066 H 
ENDROOT
BRANCH   1  12
ATOM     12  C   LIG d   1       4.089  -0.154  -6.475  0.00  0.00    -0.002 C 
ATOM     13  H   LIG d   1       3.842   0.908  -6.459  0.00  0.00     0.087 H 
ATOM     14  H   LIG d   1       5.083  -0.290  -6.899  0.00  0.00     0.087 H 
BRANCH  12  15
ATOM     15  N   LIG d   1       3.106  -0.901  -7.287  0.00  0.00     0.239 N 
ATOM     16  H   LIG d   1       2.379  -1.278  -6.668  0.00  0.00     0.204 HD
BRANCH  15  17
ATOM     17  C   LIG d   1       2.476   0.000  -8.275  0.00  0.00    -0.032 C 
ATOM     18  H   LIG d   1       2.657  -0.386  -9.279  0.00  0.00     0.081 H 
ATOM     19  H   LIG d   1       1.403   0.068  -8.100  0.00  0.00     0.081 H 
BRANCH  17  20
ATOM     20  C   LIG d   1       3.104   1.389  -8.143  0.00  0.00    -0.015 C 
ATOM     21  H   LIG d   1       2.386   2.071  -7.688  0.00  0.00     0.031 H 
ATOM     22  H   LIG d   1       3.994   1.327  -7.516  0.00  0.00     0.031 H 
BRANCH  20  23
ATOM     23  C   LIG d   1       3.492   1.907  -9.530  0.00  0.00    -0.060 C 
ATOM     24  H   LIG d   1       4.485   1.540  -9.790  0.00  0.00     0.023 H 
ATOM     25  H   LIG d   1       2.770   1.553 -10.265  0.00  0.00     0.023 H 
ATOM     26  H   LIG d   1       3.498   2.997  -9.521  0.00  0.00     0.023 H 
ENDBRANCH  20  23
ENDBRANCH  17  20
ENDBRANCH  15  17
BRANCH  15  27
ATOM     27  C   LIG d   1       3.774  -2.023  -7.981  0.00  0.00    -0.032 C 
ATOM     28  H   LIG d   1       4.834  -1.795  -8.095  0.00  0.00     0.081 H 
ATOM     29  H   LIG d   1       3.659  -2.946  -7.414  0.00  0.00     0.081 H 
BRANCH  27  30
ATOM     30  C   LIG d   1       3.138  -2.191  -9.363  0.00  0.00    -0.015 C 
ATOM     31  H   LIG d   1       2.442  -3.029  -9.343  0.00  0.00     0.031 H 
ATOM     32  H   LIG d   1       2.603  -1.281  -9.630  0.00  0.00     0.031 H 
BRANCH  30  33
ATOM     33  C   LIG d   1       4.232  -2.463 -10.398  0.00  0.00    -0.060 C 
ATOM     34  H   LIG d   1       5.050  -1.756 -10.257  0.00  0.00     0.023 H 
ATOM     35  H   LIG d   1       4.605  -3.479 -10.273  0.00  0.00     0.023 H 
ATOM     36  H   LIG d   1       3.821  -2.347 -11.401  0.00  0.00     0.023 H 
ENDBRANCH  30  33
ENDBRANCH  27  30
ENDBRANCH  15  27
ENDBRANCH  12  15
ENDBRANCH   1  12
BRANCH   2  37
ATOM     37  O   LIG d   1       1.829   0.057  -4.797  0.00  0.00    -0.506 OA
ATOM     38  H   LIG d   1       1.014  -0.459  -4.718  0.00  0.00     0.292 HD
ENDBRANCH   2  37
BRANCH   7  39
ATOM     39  C   LIG d   1       7.061  -1.324  -6.400  0.00  0.00     0.201 C 
ATOM     40  O   LIG d   1       7.039  -2.162  -7.281  0.00  0.00    -0.286 OA
BRANCH  39  41
ATOM     41  C   LIG d   1       7.622   0.015  -6.669  0.00  0.00     0.067 A 
ATOM     42  C   LIG d   1       7.335   0.669  -7.875  0.00  0.00     0.131 A 
ATOM     43  C   LIG d   1       7.865   1.926  -8.120  0.00  0.00    -0.016 A 
ATOM     44  C   LIG d   1       8.675   2.532  -7.181  0.00  0.00    -0.017 A 
ATOM     45  H   LIG d   1       7.645   2.432  -9.048  0.00  0.00     0.066 H 
ATOM     46  C   LIG d   1       8.964   1.889  -5.983  0.00  0.00     0.121 A 
ATOM     47  H   LIG d   1       9.086   3.511  -7.378  0.00  0.00     0.066 H 
ATOM     48  C   LIG d   1       8.445   0.634  -5.726  0.00  0.00    -0.006 A 
ATOM     49  H   LIG d   1       8.675   0.134  -4.795  0.00  0.00     0.066 H 
BRANCH  42  50
ATOM     50  O   LIG d   1       6.539   0.073  -8.799  0.00  0.00    -0.494 OA
BRANCH  50  51
ATOM     51  C   LIG d   1       6.972   0.129 -10.160  0.00  0.00     0.079 C 
ATOM     52  H   LIG d   1       6.652   1.072 -10.604  0.00  0.00     0.066 H 
ATOM     53  H   LIG d   1       8.058   0.059 -10.200  0.00  0.00     0.066 H 
ATOM     54  H   LIG d   1       6.533  -0.700 -10.715  0.00  0.00     0.066 H 
ENDBRANCH  50  51
ENDBRANCH  42  50
BRANCH  46  55
ATOM     55  O   LIG d   1       9.762   2.495  -5.064  0.00  0.00    -0.495 OA
BRANCH  55  56
ATOM     56  C   LIG d   1       9.414   2.324  -3.688  0.00  0.00     0.079 C 
ATOM     57  H   LIG d   1       9.301   3.301  -3.218  0.00  0.00     0.066 H 
ATOM     58  H   LIG d   1       8.475   1.776  -3.616  0.00  0.00     0.066 H 
ATOM     59  H   LIG d   1      10.201   1.765  -3.182  0.00  0.00     0.066 H 
ENDBRANCH  55  56
ENDBRANCH  46  55
ENDBRANCH  39  41
ENDBRANCH   7  39
BRANCH   8  60
ATOM     60  C   LIG d   1       8.592  -2.803  -4.124  0.00  0.00    -0.006 C 
ATOM     61  H   LIG d   1       8.803  -3.405  -3.239  0.00  0.00     0.031 H 
ATOM     62  H   LIG d   1       8.714  -3.415  -5.017  0.00  0.00     0.031 H 
ATOM     63  H   LIG d   1       9.284  -1.963  -4.163  0.00  0.00     0.031 H 
ENDBRANCH   8  60
TORSDOF 16
ENDMDL
MODEL 5
REMARK VINA RESULT:      -5.0      2.285      5.039
REMARK  16 active torsions:
REMARK  status: ('A' for Active; 'I' for Inactive)
REMARK    1  A    between atoms: C_1  and  C_2 
REMARK    2  A    between atoms: C_2  and  C_3 
REMARK    3  A    between atoms: C_3  and  N_62 
REMARK    4  A    between atoms: C_4  and  C_5 
REMARK    5  A    between atoms: C_4  and  N_62 
REMARK    6  A    between atoms: C_5  and  C_6 
REMARK    7  A    between atoms: C_7  and  C_8 
REMARK    8  A    between atoms: C_7  and  N_62 
REMARK    9  A    between atoms: C_9  and  O_30 
REMARK   10  A    between atoms: C_14  and  C_18 
REMARK   11  A    between atoms: C_15  and  C_17 
REMARK   12  A    between atoms: C_18  and  C_20 
REMARK   13  A    between atoms: C_22  and  O_28 
REMARK   14  A    between atoms: C_25  and  O_26 
REMARK   15  A    between atoms: O_26  and  C_27 
REMARK   16  A    between atoms: O_28  and  C_29 
ROOT
ATOM      1  C   LIG d   1       4.310  -0.377  -5.007  0.00  0.00     0.050 A 
ATOM      2  C   LIG d   1       3.563   0.524  -4.270  0.00  0.00     0.126 A 
ATOM      3  C   LIG d   1       3.872   0.758  -2.935  0.00  0.00    -0.016 A 
ATOM      4  C   LIG d   1       4.923   0.098  -2.332  0.00  0.00    -0.015 A 
ATOM      5  C   LIG d   1       5.683  -0.809  -3.059  0.00  0.00     0.137 A 
ATOM      6  C   LIG d   1       5.373  -1.041  -4.407  0.00  0.00     0.043 A 
ATOM      7  C   LIG d   1       6.354  -2.044  -4.869  0.00  0.00     0.071 A 
ATOM      8  C   LIG d   1       7.146  -2.310  -3.792  0.00  0.00     0.114 A 
ATOM      9  O   LIG d   1       6.743  -1.584  -2.743  0.00  0.00    -0.459 OA
ATOM     10  H   LIG d   1       3.286   1.463  -2.365  0.00  0.00     0.066 H 
ATOM     11  H   LIG d   1       5.154   0.288  -1.294  0.00  0.00     0.066 H 
ENDROOT
BRANCH   1  12
ATOM     12  C   LIG d   1       3.976  -0.633  -6.455  0.00  0.00    -0.002 C 
ATOM     13  H   LIG d   1       4.594  -1.448  -6.832  0.00  0.00     0.087 H 
ATOM     14  H   LIG d   1       2.924  -0.904  -6.543  0.00  0.00     0.087 H 
BRANCH  12  15
ATOM     15  N   LIG d   1       4.227   0.604  -7.224  0.00  0.00     0.239 N 
ATOM     16  H   LIG d   1       4.225   1.404  -6.580  0.00  0.00     0.204 HD
BRANCH  15  17
ATOM     17  C   LIG d   1       5.544   0.527  -7.891  0.00  0.00    -0.032 C 
ATOM     18  H   LIG d   1       6.330   0.599  -7.139  0.00  0.00     0.081 H 
ATOM     19  H   LIG d   1       5.644  -0.414  -8.431  0.00  0.00     0.081 H 
BRANCH  17  20
ATOM     20  C   LIG d   1       5.668   1.694  -8.872  0.00  0.00    -0.015 C 
ATOM     21  H   LIG d   1       5.370   1.365  -9.867  0.00  0.00     0.031 H 
ATOM     22  H   LIG d   1       5.020   2.509  -8.550  0.00  0.00     0.031 H 
BRANCH  20  23
ATOM     23  C   LIG d   1       7.119   2.179  -8.907  0.00  0.00    -0.060 C 
ATOM     24  H   LIG d   1       7.697   1.545  -9.580  0.00  0.00     0.023 H 
ATOM     25  H   LIG d   1       7.149   3.209  -9.263  0.00  0.00     0.023 H 
ATOM     26  H   LIG d   1       7.543   2.127  -7.904  0.00  0.00     0.023 H 
ENDBRANCH  20  23
ENDBRANCH  17  20
ENDBRANCH  15  17
BRANCH  15  27
ATOM     27  C   LIG d   1       3.162   0.797  -8.231  0.00  0.00    -0.032 C 
ATOM     28  H   LIG d   1       2.459   1.549  -7.871  0.00  0.00     0.081 H 
ATOM     29  H   LIG d   1       3.588   1.122  -9.180  0.00  0.00     0.081 H 
BRANCH  27  30
ATOM     30  C   LIG d   1       2.430  -0.532  -8.430  0.00  0.00    -0.015 C 
ATOM     31  H   LIG d   1       3.149  -1.351  -8.397  0.00  0.00     0.031 H 
ATOM     32  H   LIG d   1       1.693  -0.663  -7.640  0.00  0.00     0.031 H 
BRANCH  30  33
ATOM     33  C   LIG d   1       1.726  -0.528  -9.789  0.00  0.00    -0.060 C 
ATOM     34  H   LIG d   1       2.287   0.094 -10.488  0.00  0.00     0.023 H 
ATOM     35  H   LIG d   1       1.673  -1.547 -10.174  0.00  0.00     0.023 H 
ATOM     36  H   LIG d   1       0.719  -0.129  -9.676  0.00  0.00     0.023 H 
ENDBRANCH  30  33
ENDBRANCH  27  30
ENDBRANCH  15  27
ENDBRANCH  12  15
ENDBRANCH   1  12
BRANCH   2  37
ATOM     37  O   LIG d   1       2.524   1.181  -4.851  0.00  0.00    -0.506 OA
ATOM     38  H   LIG d   1       1.852   1.487  -4.227  0.00  0.00     0.292 HD
ENDBRANCH   2  37
BRANCH   7  39
ATOM     39  C   LIG d   1       6.459  -2.630  -6.213  0.00  0.00     0.201 C 
ATOM     40  O   LIG d   1       7.253  -2.175  -7.015  0.00  0.00    -0.286 OA
BRANCH  39  41
ATOM     41  C   LIG d   1       5.600  -3.769  -6.591  0.00  0.00     0.067 A 
ATOM     42  C   LIG d   1       4.992  -3.805  -7.852  0.00  0.00     0.131 A 
ATOM     43  C   LIG d   1       4.187  -4.879  -8.200  0.00  0.00    -0.016 A 
ATOM     44  C   LIG d   1       3.982  -5.910  -7.305  0.00  0.00    -0.017 A 
ATOM     45  H   LIG d   1       3.718  -4.909  -9.172  0.00  0.00     0.066 H 
ATOM     46  C   LIG d   1       4.582  -5.881  -6.051  0.00  0.00     0.121 A 
ATOM     47  H   LIG d   1       3.353  -6.743  -7.580  0.00  0.00     0.066 H 
ATOM     48  C   LIG d   1       5.384  -4.814  -5.689  0.00  0.00    -0.006 A 
ATOM     49  H   LIG d   1       5.846  -4.792  -4.713  0.00  0.00     0.066 H 
BRANCH  42  50
ATOM     50  O   LIG d   1       5.192  -2.792  -8.733  0.00  0.00    -0.494 OA
BRANCH  50  51
ATOM     51  C   LIG d   1       5.277  -3.143 -10.117  0.00  0.00     0.079 C 
ATOM     52  H   LIG d   1       6.238  -3.616 -10.313  0.00  0.00     0.066 H 
ATOM     53  H   LIG d   1       4.473  -3.835 -10.366  0.00  0.00     0.066 H 
ATOM     54  H   LIG d   1       5.184  -2.243 -10.725  0.00  0.00     0.066 H 
ENDBRANCH  50  51
ENDBRANCH  42  50
BRANCH  46  55
ATOM     55  O   LIG d   1       4.375  -6.901  -5.177  0.00  0.00    -0.495 OA
BRANCH  55  56
ATOM     56  C   LIG d   1       5.197  -8.061  -5.325  0.00  0.00     0.079 C 
ATOM     57  H   LIG d   1       6.244  -7.761  -5.364  0.00  0.00     0.066 H 
ATOM     58  H   LIG d   1       5.041  -8.727  -4.478  0.00  0.00     0.066 H 
ATOM     59  H   LIG d   1       4.932  -8.577  -6.248  0.00  0.00     0.066 H 
ENDBRANCH  55  56
ENDBRANCH  46  55
ENDBRANCH  39  41
ENDBRANCH   7  39
BRANCH   8  60
ATOM     60  C   LIG d   1       8.301  -3.277  -3.784  0.00  0.00    -0.006 C 
ATOM     61  H   LIG d   1       8.532  -3.559  -2.757  0.00  0.00     0.031 H 
ATOM     62  H   LIG d   1       8.034  -4.167  -4.354  0.00  0.00     0.031 H 
ATOM     63  H   LIG d   1       9.173  -2.805  -4.236  0.00  0.00     0.031 H 
ENDBRANCH   8  60
TORSDOF 16
ENDMDL
MODEL 6
REMARK VINA RESULT:      -4.9      1.753      4.679
REMARK  16 active torsions:
REMARK  status: ('A' for Active; 'I' for Inactive)
REMARK    1  A    between atoms: C_1  and  C_2 
REMARK    2  A    between atoms: C_2  and  C_3 
REMARK    3  A    between atoms: C_3  and  N_62 
REMARK    4  A    between atoms: C_4  and  C_5 
REMARK    5  A    between atoms: C_4  and  N_62 
REMARK    6  A    between atoms: C_5  and  C_6 
REMARK    7  A    between atoms: C_7  and  C_8 
REMARK    8  A    between atoms: C_7  and  N_62 
REMARK    9  A    between atoms: C_9  and  O_30 
REMARK   10  A    between atoms: C_14  and  C_18 
REMARK   11  A    between atoms: C_15  and  C_17 
REMARK   12  A    between atoms: C_18  and  C_20 
REMARK   13  A    between atoms: C_22  and  O_28 
REMARK   14  A    between atoms: C_25  and  O_26 
REMARK   15  A    between atoms: O_26  and  C_27 
REMARK   16  A    between atoms: O_28  and  C_29 
ROOT
ATOM      1  C   LIG d   1       5.658  -0.354  -3.883  0.00  0.00     0.050 A 
ATOM      2  C   LIG d   1       5.280   0.193  -2.670  0.00  0.00     0.126 A 
ATOM      3  C   LIG d   1       4.497  -0.541  -1.787  0.00  0.00    -0.016 A 
ATOM      4  C   LIG d   1       4.089  -1.819  -2.107  0.00  0.00    -0.015 A 
ATOM      5  C   LIG d   1       4.460  -2.384  -3.320  0.00  0.00     0.137 A 
ATOM      6  C   LIG d   1       5.255  -1.644  -4.209  0.00  0.00     0.043 A 
ATOM      7  C   LIG d   1       5.457  -2.522  -5.380  0.00  0.00     0.071 A 
ATOM      8  C   LIG d   1       4.794  -3.677  -5.094  0.00  0.00     0.114 A 
ATOM      9  O   LIG d   1       4.217  -3.583  -3.891  0.00  0.00    -0.459 OA
ATOM     10  H   LIG d   1       4.206  -0.108  -0.841  0.00  0.00     0.066 H 
ATOM     11  H   LIG d   1       3.482  -2.381  -1.413  0.00  0.00     0.066 H 
ENDROOT
BRANCH   1  12
ATOM     12  C   LIG d   1       6.506   0.440  -4.842  0.00  0.00    -0.002 C 
ATOM     13  H   LIG d   1       6.613  -0.112  -5.776  0.00  0.00     0.087 H 
ATOM     14  H   LIG d   1       6.029   1.400  -5.040  0.00  0.00     0.087 H 
BRANCH  12  15
ATOM     15  N   LIG d   1       7.829   0.672  -4.225  0.00  0.00     0.239 N 
ATOM     16  H   LIG d   1       7.810   0.329  -3.257  0.00  0.00     0.204 HD
BRANCH  15  17
ATOM     17  C   LIG d   1       8.872  -0.062  -4.974  0.00  0.00    -0.032 C 
ATOM     18  H   LIG d   1       9.839   0.108  -4.500  0.00  0.00     0.081 H 
ATOM     19  H   LIG d   1       8.655  -1.130  -4.983  0.00  0.00     0.081 H 
BRANCH  17  20
ATOM     20  C   LIG d   1       8.908   0.464  -6.410  0.00  0.00    -0.015 C 
ATOM     21  H   LIG d   1       7.968   0.226  -6.908  0.00  0.00     0.031 H 
ATOM     22  H   LIG d   1       9.047   1.546  -6.396  0.00  0.00     0.031 H 
BRANCH  20  23
ATOM     23  C   LIG d   1      10.067  -0.190  -7.164  0.00  0.00    -0.060 C 
ATOM     24  H   LIG d   1      10.887  -0.384  -6.472  0.00  0.00     0.023 H 
ATOM     25  H   LIG d   1       9.731  -1.130  -7.601  0.00  0.00     0.023 H 
ATOM     26  H   LIG d   1      10.408   0.477  -7.955  0.00  0.00     0.023 H 
ENDBRANCH  20  23
ENDBRANCH  17  20
ENDBRANCH  15  17
BRANCH  15  27
ATOM     27  C   LIG d   1       8.137   2.117  -4.217  0.00  0.00    -0.032 C 
ATOM     28  H   LIG d   1       8.279   2.460  -5.242  0.00  0.00     0.081 H 
ATOM     29  H   LIG d   1       7.325   2.678  -3.755  0.00  0.00     0.081 H 
BRANCH  27  30
ATOM     30  C   LIG d   1       9.425   2.339  -3.421  0.00  0.00    -0.015 C 
ATOM     31  H   LIG d   1       9.319   1.903  -2.428  0.00  0.00     0.031 H 
ATOM     32  H   LIG d   1      10.258   1.864  -3.939  0.00  0.00     0.031 H 
BRANCH  30  33
ATOM     33  C   LIG d   1       9.693   3.840  -3.292  0.00  0.00    -0.060 C 
ATOM     34  H   LIG d   1       9.936   4.251  -4.272  0.00  0.00     0.023 H 
ATOM     35  H   LIG d   1       8.804   4.335  -2.901  0.00  0.00     0.023 H 
ATOM     36  H   LIG d   1      10.529   4.003  -2.613  0.00  0.00     0.023 H 
ENDBRANCH  30  33
ENDBRANCH  27  30
ENDBRANCH  15  27
ENDBRANCH  12  15
ENDBRANCH   1  12
BRANCH   2  37
ATOM     37  O   LIG d   1       5.675   1.452  -2.342  0.00  0.00    -0.506 OA
ATOM     38  H   LIG d   1       6.359   1.814  -2.921  0.00  0.00     0.292 HD
ENDBRANCH   2  37
BRANCH   7  39
ATOM     39  C   LIG d   1       6.220  -2.214  -6.598  0.00  0.00     0.201 C 
ATOM     40  O   LIG d   1       7.392  -2.533  -6.679  0.00  0.00    -0.286 OA
BRANCH  39  41
ATOM     41  C   LIG d   1       5.566  -1.518  -7.723  0.00  0.00     0.067 A 
ATOM     42  C   LIG d   1       5.282  -2.208  -8.909  0.00  0.00     0.131 A 
ATOM     43  C   LIG d   1       4.667  -1.547  -9.961  0.00  0.00    -0.016 A 
ATOM     44  C   LIG d   1       4.336  -0.212  -9.842  0.00  0.00    -0.017 A 
ATOM     45  H   LIG d   1       4.448  -2.077 -10.876  0.00  0.00     0.066 H 
ATOM     46  C   LIG d   1       4.615   0.479  -8.668  0.00  0.00     0.121 A 
ATOM     47  H   LIG d   1       3.858   0.298 -10.665  0.00  0.00     0.066 H 
ATOM     48  C   LIG d   1       5.231  -0.166  -7.612  0.00  0.00    -0.006 A 
ATOM     49  H   LIG d   1       5.450   0.374  -6.702  0.00  0.00     0.066 H 
BRANCH  42  50
ATOM     50  O   LIG d   1       5.608  -3.520  -9.027  0.00  0.00    -0.494 OA
BRANCH  50  51
ATOM     51  C   LIG d   1       6.569  -3.863 -10.028  0.00  0.00     0.079 C 
ATOM     52  H   LIG d   1       7.107  -4.760  -9.722  0.00  0.00     0.066 H 
ATOM     53  H   LIG d   1       6.060  -4.049 -10.973  0.00  0.00     0.066 H 
ATOM     54  H   LIG d   1       7.275  -3.040 -10.150  0.00  0.00     0.066 H 
ENDBRANCH  50  51
ENDBRANCH  42  50
BRANCH  46  55
ATOM     55  O   LIG d   1       4.284   1.793  -8.561  0.00  0.00    -0.495 OA
BRANCH  55  56
ATOM     56  C   LIG d   1       2.899   2.127  -8.684  0.00  0.00     0.079 C 
ATOM     57  H   LIG d   1       2.325   1.573  -7.942  0.00  0.00     0.066 H 
ATOM     58  H   LIG d   1       2.768   3.196  -8.522  0.00  0.00     0.066 H 
ATOM     59  H   LIG d   1       2.551   1.865  -9.683  0.00  0.00     0.066 H 
ENDBRANCH  55  56
ENDBRANCH  46  55
ENDBRANCH  39  41
ENDBRANCH   7  39
BRANCH   8  60
ATOM     60  C   LIG d   1       4.721  -4.880  -5.999  0.00  0.00    -0.006 C 
ATOM     61  H   LIG d   1       5.485  -4.800  -6.772  0.00  0.00     0.031 H 
ATOM     62  H   LIG d   1       4.889  -5.784  -5.415  0.00  0.00     0.031 H 
ATOM     63  H   LIG d   1       3.737  -4.926  -6.464  0.00  0.00     0.031 H 
ENDBRANCH   8  60
TORSDOF 16
ENDMDL
MODEL 7
REMARK VINA RESULT:      -4.8      2.398      4.540
REMARK  16 active torsions:
REMARK  status: ('A' for Active; 'I' for Inactive)
REMARK    1  A    between atoms: C_1  and  C_2 
REMARK    2  A    between atoms: C_2  and  C_3 
REMARK    3  A    between atoms: C_3  and  N_62 
REMARK    4  A    between atoms: C_4  and  C_5 
REMARK    5  A    between atoms: C_4  and  N_62 
REMARK    6  A    between atoms: C_5  and  C_6 
REMARK    7  A    between atoms: C_7  and  C_8 
REMARK    8  A    between atoms: C_7  and  N_62 
REMARK    9  A    between atoms: C_9  and  O_30 
REMARK   10  A    between atoms: C_14  and  C_18 
REMARK   11  A    between atoms: C_15  and  C_17 
REMARK   12  A    between atoms: C_18  and  C_20 
REMARK   13  A    between atoms: C_22  and  O_28 
REMARK   14  A    between atoms: C_25  and  O_26 
REMARK   15  A    between atoms: O_26  and  C_27 
REMARK   16  A    between atoms: O_28  and  C_29 
ROOT
ATOM      1  C   LIG d   1       4.259  -1.848  -4.530  0.00  0.00     0.050 A 
ATOM      2  C   LIG d   1       3.521  -1.655  -3.376  0.00  0.00     0.126 A 
ATOM      3  C   LIG d   1       2.602  -0.615  -3.302  0.00  0.00    -0.016 A 
ATOM      4  C   LIG d   1       2.414   0.233  -4.373  0.00  0.00    -0.015 A 
ATOM      5  C   LIG d   1       3.146   0.053  -5.540  0.00  0.00     0.137 A 
ATOM      6  C   LIG d   1       4.070  -0.999  -5.615  0.00  0.00     0.043 A 
ATOM      7  C   LIG d   1       4.666  -0.903  -6.964  0.00  0.00     0.071 A 
ATOM      8  C   LIG d   1       4.059   0.160  -7.561  0.00  0.00     0.114 A 
ATOM      9  O   LIG d   1       3.175   0.709  -6.719  0.00  0.00    -0.459 OA
ATOM     10  H   LIG d   1       2.028  -0.470  -2.398  0.00  0.00     0.066 H 
ATOM     11  H   LIG d   1       1.696   1.038  -4.305  0.00  0.00     0.066 H 
ENDROOT
BRANCH   1  12
ATOM     12  C   LIG d   1       5.257  -2.974  -4.613  0.00  0.00    -0.002 C 
ATOM     13  H   LIG d   1       5.090  -3.669  -3.790  0.00  0.00     0.087 H 
ATOM     14  H   LIG d   1       5.137  -3.497  -5.562  0.00  0.00     0.087 H 
BRANCH  12  15
ATOM     15  N   LIG d   1       6.620  -2.405  -4.540  0.00  0.00     0.239 N 
ATOM     16  H   LIG d   1       6.781  -1.819  -5.368  0.00  0.00     0.204 HD
BRANCH  15  17
ATOM     17  C   LIG d   1       6.755  -1.571  -3.327  0.00  0.00    -0.032 C 
ATOM     18  H   LIG d   1       5.779  -1.473  -2.850  0.00  0.00     0.081 H 
ATOM     19  H   LIG d   1       7.456  -2.025  -2.628  0.00  0.00     0.081 H 
BRANCH  17  20
ATOM     20  C   LIG d   1       7.264  -0.188  -3.736  0.00  0.00    -0.015 C 
ATOM     21  H   LIG d   1       8.244  -0.015  -3.290  0.00  0.00     0.031 H 
ATOM     22  H   LIG d   1       7.346  -0.138  -4.822  0.00  0.00     0.031 H 
BRANCH  20  23
ATOM     23  C   LIG d   1       6.284   0.881  -3.247  0.00  0.00    -0.060 C 
ATOM     24  H   LIG d   1       5.284   0.653  -3.616  0.00  0.00     0.023 H 
ATOM     25  H   LIG d   1       6.276   0.896  -2.158  0.00  0.00     0.023 H 
ATOM     26  H   LIG d   1       6.596   1.857  -3.621  0.00  0.00     0.023 H 
ENDBRANCH  20  23
ENDBRANCH  17  20
ENDBRANCH  15  17
BRANCH  15  27
ATOM     27  C   LIG d   1       7.620  -3.493  -4.519  0.00  0.00    -0.032 C 
ATOM     28  H   LIG d   1       8.536  -3.148  -5.001  0.00  0.00     0.081 H 
ATOM     29  H   LIG d   1       7.839  -3.791  -3.494  0.00  0.00     0.081 H 
BRANCH  27  30
ATOM     30  C   LIG d   1       7.059  -4.689  -5.290  0.00  0.00    -0.015 C 
ATOM     31  H   LIG d   1       7.092  -5.577  -4.658  0.00  0.00     0.031 H 
ATOM     32  H   LIG d   1       6.028  -4.486  -5.576  0.00  0.00     0.031 H 
BRANCH  30  33
ATOM     33  C   LIG d   1       7.900  -4.927  -6.546  0.00  0.00    -0.060 C 
ATOM     34  H   LIG d   1       8.055  -5.998  -6.682  0.00  0.00     0.023 H 
ATOM     35  H   LIG d   1       7.378  -4.524  -7.414  0.00  0.00     0.023 H 
ATOM     36  H   LIG d   1       8.864  -4.431  -6.438  0.00  0.00     0.023 H 
ENDBRANCH  30  33
ENDBRANCH  27  30
ENDBRANCH  15  27
ENDBRANCH  12  15
ENDBRANCH   1  12
BRANCH   2  37
ATOM     37  O   LIG d   1       3.696  -2.483  -2.313  0.00  0.00    -0.506 OA
ATOM     38  H   LIG d   1       4.328  -3.198  -2.470  0.00  0.00     0.292 HD
ENDBRANCH   2  37
BRANCH   7  39
ATOM     39  C   LIG d   1       5.696  -1.777  -7.543  0.00  0.00     0.201 C 
ATOM     40  O   LIG d   1       6.872  -1.580  -7.297  0.00  0.00    -0.286 OA
BRANCH  39  41
ATOM     41  C   LIG d   1       5.305  -2.895  -8.423  0.00  0.00     0.067 A 
ATOM     42  C   LIG d   1       5.693  -2.900  -9.770  0.00  0.00     0.131 A 
ATOM     43  C   LIG d   1       5.322  -3.954 -10.590  0.00  0.00    -0.016 A 
ATOM     44  C   LIG d   1       4.570  -4.996 -10.084  0.00  0.00    -0.017 A 
ATOM     45  H   LIG d   1       5.620  -3.960 -11.628  0.00  0.00     0.066 H 
ATOM     46  C   LIG d   1       4.182  -4.997  -8.749  0.00  0.00     0.121 A 
ATOM     47  H   LIG d   1       4.283  -5.814 -10.727  0.00  0.00     0.066 H 
ATOM     48  C   LIG d   1       4.542  -3.951  -7.920  0.00  0.00    -0.006 A 
ATOM     49  H   LIG d   1       4.235  -3.952  -6.884  0.00  0.00     0.066 H 
BRANCH  42  50
ATOM     50  O   LIG d   1       6.432  -1.877 -10.269  0.00  0.00    -0.494 OA
BRANCH  50  51
ATOM     51  C   LIG d   1       6.284  -1.589 -11.662  0.00  0.00     0.079 C 
ATOM     52  H   LIG d   1       5.565  -2.281 -12.100  0.00  0.00     0.066 H 
ATOM     53  H   LIG d   1       5.928  -0.567 -11.786  0.00  0.00     0.066 H 
ATOM     54  H   LIG d   1       7.247  -1.702 -12.159  0.00  0.00     0.066 H 
ENDBRANCH  50  51
ENDBRANCH  42  50
BRANCH  46  55
ATOM     55  O   LIG d   1       3.443  -6.027  -8.259  0.00  0.00    -0.495 OA
BRANCH  55  56
ATOM     56  C   LIG d   1       3.388  -7.219  -9.047  0.00  0.00     0.079 C 
ATOM     57  H   LIG d   1       2.548  -7.159  -9.738  0.00  0.00     0.066 H 
ATOM     58  H   LIG d   1       4.315  -7.326  -9.609  0.00  0.00     0.066 H 
ATOM     59  H   LIG d   1       3.259  -8.081  -8.392  0.00  0.00     0.066 H 
ENDBRANCH  55  56
ENDBRANCH  46  55
ENDBRANCH  39  41
ENDBRANCH   7  39
BRANCH   8  60
ATOM     60  C   LIG d   1       4.341   0.646  -8.959  0.00  0.00    -0.006 C 
ATOM     61  H   LIG d   1       5.382   0.445  -9.211  0.00  0.00     0.031 H 
ATOM     62  H   LIG d   1       3.690   0.126  -9.662  0.00  0.00     0.031 H 
ATOM     63  H   LIG d   1       4.154   1.717  -9.016  0.00  0.00     0.031 H 
ENDBRANCH   8  60
TORSDOF 16
ENDMDL
MODEL 8
REMARK VINA RESULT:      -4.7      2.632      4.886
REMARK  16 active torsions:
REMARK  status: ('A' for Active; 'I' for Inactive)
REMARK    1  A    between atoms: C_1  and  C_2 
REMARK    2  A    between atoms: C_2  and  C_3 
REMARK    3  A    between atoms: C_3  and  N_62 
REMARK    4  A    between atoms: C_4  and  C_5 
REMARK    5  A    between atoms: C_4  and  N_62 
REMARK    6  A    between atoms: C_5  and  C_6 
REMARK    7  A    between atoms: C_7  and  C_8 
REMARK    8  A    between atoms: C_7  and  N_62 
REMARK    9  A    between atoms: C_9  and  O_30 
REMARK   10  A    between atoms: C_14  and  C_18 
REMARK   11  A    between atoms: C_15  and  C_17 
REMARK   12  A    between atoms: C_18  and  C_20 
REMARK   13  A    between atoms: C_22  and  O_28 
REMARK   14  A    between atoms: C_25  and  O_26 
REMARK   15  A    between atoms: O_26  and  C_27 
REMARK   16  A    between atoms: O_28  and  C_29 
ROOT
ATOM      1  C   LIG d   1       4.180  -1.707  -4.915  0.00  0.00     0.050 A 
ATOM      2  C   LIG d   1       3.654  -1.716  -3.636  0.00  0.00     0.126 A 
ATOM      3  C   LIG d   1       2.759  -0.728  -3.243  0.00  0.00    -0.016 A 
ATOM      4  C   LIG d   1       2.387   0.270  -4.119  0.00  0.00    -0.015 A 
ATOM      5  C   LIG d   1       2.905   0.294  -5.407  0.00  0.00     0.137 A 
ATOM      6  C   LIG d   1       3.804  -0.707  -5.805  0.00  0.00     0.043 A 
ATOM      7  C   LIG d   1       4.157  -0.385  -7.203  0.00  0.00     0.071 A 
ATOM      8  C   LIG d   1       3.453   0.740  -7.512  0.00  0.00     0.114 A 
ATOM      9  O   LIG d   1       2.728   1.126  -6.456  0.00  0.00    -0.459 OA
ATOM     10  H   LIG d   1       2.351  -0.742  -2.243  0.00  0.00     0.066 H 
ATOM     11  H   LIG d   1       1.690   1.033  -3.803  0.00  0.00     0.066 H 
ENDROOT
BRANCH   1  12
ATOM     12  C   LIG d   1       5.150  -2.777  -5.345  0.00  0.00    -0.002 C 
ATOM     13  H   LIG d   1       4.668  -3.752  -5.280  0.00  0.00     0.087 H 
ATOM     14  H   LIG d   1       5.464  -2.593  -6.372  0.00  0.00     0.087 H 
BRANCH  12  15
ATOM     15  N   LIG d   1       6.333  -2.727  -4.459  0.00  0.00     0.239 N 
ATOM     16  H   LIG d   1       6.020  -2.776  -3.481  0.00  0.00     0.204 HD
BRANCH  15  17
ATOM     17  C   LIG d   1       7.222  -3.875  -4.737  0.00  0.00    -0.032 C 
ATOM     18  H   LIG d   1       6.963  -4.698  -4.069  0.00  0.00     0.081 H 
ATOM     19  H   LIG d   1       7.114  -4.199  -5.771  0.00  0.00     0.081 H 
BRANCH  17  20
ATOM     20  C   LIG d   1       8.669  -3.448  -4.483  0.00  0.00    -0.015 C 
ATOM     21  H   LIG d   1       9.288  -3.741  -5.331  0.00  0.00     0.031 H 
ATOM     22  H   LIG d   1       8.712  -2.366  -4.359  0.00  0.00     0.031 H 
BRANCH  20  23
ATOM     23  C   LIG d   1       9.186  -4.129  -3.214  0.00  0.00    -0.060 C 
ATOM     24  H   LIG d   1      10.250  -4.341  -3.323  0.00  0.00     0.023 H 
ATOM     25  H   LIG d   1       9.034  -3.469  -2.360  0.00  0.00     0.023 H 
ATOM     26  H   LIG d   1       8.643  -5.060  -3.055  0.00  0.00     0.023 H 
ENDBRANCH  20  23
ENDBRANCH  17  20
ENDBRANCH  15  17
BRANCH  15  27
ATOM     27  C   LIG d   1       7.065  -1.460  -4.665  0.00  0.00    -0.032 C 
ATOM     28  H   LIG d   1       8.093  -1.682  -4.953  0.00  0.00     0.081 H 
ATOM     29  H   LIG d   1       6.589  -0.866  -5.445  0.00  0.00     0.081 H 
BRANCH  27  30
ATOM     30  C   LIG d   1       7.062  -0.673  -3.352  0.00  0.00    -0.015 C 
ATOM     31  H   LIG d   1       6.410  -1.169  -2.633  0.00  0.00     0.031 H 
ATOM     32  H   LIG d   1       8.074  -0.626  -2.954  0.00  0.00     0.031 H 
BRANCH  30  33
ATOM     33  C   LIG d   1       6.548   0.746  -3.609  0.00  0.00    -0.060 C 
ATOM     34  H   LIG d   1       5.840   1.023  -2.828  0.00  0.00     0.023 H 
ATOM     35  H   LIG d   1       7.386   1.442  -3.602  0.00  0.00     0.023 H 
ATOM     36  H   LIG d   1       6.052   0.783  -4.579  0.00  0.00     0.023 H 
ENDBRANCH  30  33
ENDBRANCH  27  30
ENDBRANCH  15  27
ENDBRANCH  12  15
ENDBRANCH   1  12
BRANCH   2  37
ATOM     37  O   LIG d   1       4.012  -2.695  -2.763  0.00  0.00    -0.506 OA
ATOM     38  H   LIG d   1       3.379  -3.424  -2.706  0.00  0.00     0.292 HD
ENDBRANCH   2  37
BRANCH   7  39
ATOM     39  C   LIG d   1       5.072  -1.129  -8.081  0.00  0.00     0.201 C 
ATOM     40  O   LIG d   1       6.274  -0.963  -7.988  0.00  0.00    -0.286 OA
BRANCH  39  41
ATOM     41  C   LIG d   1       4.533  -2.077  -9.075  0.00  0.00     0.067 A 
ATOM     42  C   LIG d   1       4.666  -1.812 -10.444  0.00  0.00     0.131 A 
ATOM     43  C   LIG d   1       4.157  -2.708 -11.373  0.00  0.00    -0.016 A 
ATOM     44  C   LIG d   1       3.520  -3.857 -10.950  0.00  0.00    -0.017 A 
ATOM     45  H   LIG d   1       4.258  -2.506 -12.428  0.00  0.00     0.066 H 
ATOM     46  C   LIG d   1       3.384  -4.126  -9.592  0.00  0.00     0.121 A 
ATOM     47  H   LIG d   1       3.125  -4.551 -11.676  0.00  0.00     0.066 H 
ATOM     48  C   LIG d   1       3.884  -3.240  -8.655  0.00  0.00    -0.006 A 
ATOM     49  H   LIG d   1       3.774  -3.449  -7.601  0.00  0.00     0.066 H 
BRANCH  42  50
ATOM     50  O   LIG d   1       5.292  -0.682 -10.862  0.00  0.00    -0.494 OA
BRANCH  50  51
ATOM     51  C   LIG d   1       6.491  -0.848 -11.622  0.00  0.00     0.079 C 
ATOM     52  H   LIG d   1       6.403  -0.305 -12.562  0.00  0.00     0.066 H 
ATOM     53  H   LIG d   1       7.337  -0.460 -11.056  0.00  0.00     0.066 H 
ATOM     54  H   LIG d   1       6.646  -1.908 -11.828  0.00  0.00     0.066 H 
ENDBRANCH  50  51
ENDBRANCH  42  50
BRANCH  46  55
ATOM     55  O   LIG d   1       2.756  -5.260  -9.185  0.00  0.00    -0.495 OA
BRANCH  55  56
ATOM     56  C   LIG d   1       1.940  -5.932 -10.148  0.00  0.00     0.079 C 
ATOM     57  H   LIG d   1       1.509  -6.826  -9.698  0.00  0.00     0.066 H 
ATOM     58  H   LIG d   1       1.141  -5.267 -10.473  0.00  0.00     0.066 H 
ATOM     59  H   LIG d   1       2.550  -6.214 -11.006  0.00  0.00     0.066 H 
ENDBRANCH  55  56
ENDBRANCH  46  55
ENDBRANCH  39  41
ENDBRANCH   7  39
BRANCH   8  60
ATOM     60  C   LIG d   1       3.487   1.444  -8.843  0.00  0.00    -0.006 C 
ATOM     61  H   LIG d   1       3.630   0.712  -9.639  0.00  0.00     0.031 H 
ATOM     62  H   LIG d   1       2.546   1.971  -9.000  0.00  0.00     0.031 H 
ATOM     63  H   LIG d   1       4.309   2.159  -8.856  0.00  0.00     0.031 H 
ENDBRANCH   8  60
TORSDOF 16
ENDMDL
MODEL 9
REMARK VINA RESULT:      -4.7      1.793      2.622
REMARK  16 active torsions:
REMARK  status: ('A' for Active; 'I' for Inactive)
REMARK    1  A    between atoms: C_1  and  C_2 
REMARK    2  A    between atoms: C_2  and  C_3 
REMARK    3  A    between atoms: C_3  and  N_62 
REMARK    4  A    between atoms: C_4  and  C_5 
REMARK    5  A    between atoms: C_4  and  N_62 
REMARK    6  A    between atoms: C_5  and  C_6 
REMARK    7  A    between atoms: C_7  and  C_8 
REMARK    8  A    between atoms: C_7  and  N_62 
REMARK    9  A    between atoms: C_9  and  O_30 
REMARK   10  A    between atoms: C_14  and  C_18 
REMARK   11  A    between atoms: C_15  and  C_17 
REMARK   12  A    between atoms: C_18  and  C_20 
REMARK   13  A    between atoms: C_22  and  O_28 
REMARK   14  A    between atoms: C_25  and  O_26 
REMARK   15  A    between atoms: O_26  and  C_27 
REMARK   16  A    between atoms: O_28  and  C_29 
ROOT
ATOM      1  C   LIG d   1       5.568  -1.674  -4.064  0.00  0.00     0.050 A 
ATOM      2  C   LIG d   1       4.577  -2.166  -3.235  0.00  0.00     0.126 A 
ATOM      3  C   LIG d   1       4.118  -1.403  -2.167  0.00  0.00    -0.016 A 
ATOM      4  C   LIG d   1       4.644  -0.152  -1.923  0.00  0.00    -0.015 A 
ATOM      5  C   LIG d   1       5.639   0.357  -2.746  0.00  0.00     0.137 A 
ATOM      6  C   LIG d   1       6.097  -0.411  -3.826  0.00  0.00     0.043 A 
ATOM      7  C   LIG d   1       7.139   0.410  -4.479  0.00  0.00     0.071 A 
ATOM      8  C   LIG d   1       7.204   1.564  -3.759  0.00  0.00     0.114 A 
ATOM      9  O   LIG d   1       6.325   1.521  -2.751  0.00  0.00    -0.459 OA
ATOM     10  H   LIG d   1       3.343  -1.793  -1.524  0.00  0.00     0.066 H 
ATOM     11  H   LIG d   1       4.280   0.432  -1.090  0.00  0.00     0.066 H 
ENDROOT
BRANCH   1  12
ATOM     12  C   LIG d   1       6.067  -2.499  -5.223  0.00  0.00    -0.002 C 
ATOM     13  H   LIG d   1       5.260  -2.644  -5.941  0.00  0.00     0.087 H 
ATOM     14  H   LIG d   1       6.896  -1.983  -5.706  0.00  0.00     0.087 H 
BRANCH  12  15
ATOM     15  N   LIG d   1       6.539  -3.802  -4.707  0.00  0.00     0.239 N 
ATOM     16  H   LIG d   1       5.989  -4.051  -3.876  0.00  0.00     0.204 HD
BRANCH  15  17
ATOM     17  C   LIG d   1       6.357  -4.849  -5.735  0.00  0.00    -0.032 C 
ATOM     18  H   LIG d   1       7.296  -5.388  -5.867  0.00  0.00     0.081 H 
ATOM     19  H   LIG d   1       5.577  -5.547  -5.435  0.00  0.00     0.081 H 
BRANCH  17  20
ATOM     20  C   LIG d   1       5.963  -4.180  -7.054  0.00  0.00    -0.015 C 
ATOM     21  H   LIG d   1       5.017  -4.593  -7.402  0.00  0.00     0.031 H 
ATOM     22  H   LIG d   1       5.855  -3.106  -6.897  0.00  0.00     0.031 H 
BRANCH  20  23
ATOM     23  C   LIG d   1       7.050  -4.436  -8.100  0.00  0.00    -0.060 C 
ATOM     24  H   LIG d   1       6.584  -4.700  -9.049  0.00  0.00     0.023 H 
ATOM     25  H   LIG d   1       7.651  -3.536  -8.228  0.00  0.00     0.023 H 
ATOM     26  H   LIG d   1       7.688  -5.255  -7.767  0.00  0.00     0.023 H 
ENDBRANCH  20  23
ENDBRANCH  17  20
ENDBRANCH  15  17
BRANCH  15  27
ATOM     27  C   LIG d   1       7.965  -3.709  -4.329  0.00  0.00    -0.032 C 
ATOM     28  H   LIG d   1       8.428  -2.886  -4.876  0.00  0.00     0.081 H 
ATOM     29  H   LIG d   1       8.066  -3.536  -3.258  0.00  0.00     0.081 H 
BRANCH  27  30
ATOM     30  C   LIG d   1       8.657  -5.022  -4.701  0.00  0.00    -0.015 C 
ATOM     31  H   LIG d   1       8.765  -5.640  -3.811  0.00  0.00     0.031 H 
ATOM     32  H   LIG d   1       8.058  -5.551  -5.441  0.00  0.00     0.031 H 
BRANCH  30  33
ATOM     33  C   LIG d   1      10.040  -4.722  -5.285  0.00  0.00    -0.060 C 
ATOM     34  H   LIG d   1      10.026  -3.746  -5.769  0.00  0.00     0.023 H 
ATOM     35  H   LIG d   1      10.778  -4.718  -4.483  0.00  0.00     0.023 H 
ATOM     36  H   LIG d   1      10.300  -5.487  -6.016  0.00  0.00     0.023 H 
ENDBRANCH  30  33
ENDBRANCH  27  30
ENDBRANCH  15  27
ENDBRANCH  12  15
ENDBRANCH   1  12
BRANCH   2  37
ATOM     37  O   LIG d   1       4.050  -3.399  -3.465  0.00  0.00    -0.506 OA
ATOM     38  H   LIG d   1       4.572  -4.125  -3.097  0.00  0.00     0.292 HD
ENDBRANCH   2  37
BRANCH   7  39
ATOM     39  C   LIG d   1       7.935   0.055  -5.663  0.00  0.00     0.201 C 
ATOM     40  O   LIG d   1       8.908  -0.666  -5.549  0.00  0.00    -0.286 OA
BRANCH  39  41
ATOM     41  C   LIG d   1       7.553   0.575  -6.990  0.00  0.00     0.067 A 
ATOM     42  C   LIG d   1       8.404   1.453  -7.674  0.00  0.00     0.131 A 
ATOM     43  C   LIG d   1       8.039   1.937  -8.921  0.00  0.00    -0.016 A 
ATOM     44  C   LIG d   1       6.839   1.556  -9.488  0.00  0.00    -0.017 A 
ATOM     45  H   LIG d   1       8.694   2.614  -9.450  0.00  0.00     0.066 H 
ATOM     46  C   LIG d   1       5.990   0.685  -8.815  0.00  0.00     0.121 A 
ATOM     47  H   LIG d   1       6.560   1.936 -10.459  0.00  0.00     0.066 H 
ATOM     48  C   LIG d   1       6.340   0.198  -7.569  0.00  0.00    -0.006 A 
ATOM     49  H   LIG d   1       5.676  -0.476  -7.046  0.00  0.00     0.066 H 
BRANCH  42  50
ATOM     50  O   LIG d   1       9.584   1.829  -7.118  0.00  0.00    -0.494 OA
BRANCH  50  51
ATOM     51  C   LIG d   1      10.751   1.724  -7.937  0.00  0.00     0.079 C 
ATOM     52  H   LIG d   1      11.328   0.849  -7.637  0.00  0.00     0.066 H 
ATOM     53  H   LIG d   1      10.454   1.622  -8.981  0.00  0.00     0.066 H 
ATOM     54  H   LIG d   1      11.360   2.620  -7.818  0.00  0.00     0.066 H 
ENDBRANCH  50  51
ENDBRANCH  42  50
BRANCH  46  55
ATOM     55  O   LIG d   1       4.811   0.315  -9.382  0.00  0.00    -0.495 OA
BRANCH  55  56
ATOM     56  C   LIG d   1       4.428   0.990 -10.583  0.00  0.00     0.079 C 
ATOM     57  H   LIG d   1       3.369   0.819 -10.772  0.00  0.00     0.066 H 
ATOM     58  H   LIG d   1       4.610   2.058 -10.473  0.00  0.00     0.066 H 
ATOM     59  H   LIG d   1       5.014   0.605 -11.417  0.00  0.00     0.066 H 
ENDBRANCH  55  56
ENDBRANCH  46  55
ENDBRANCH  39  41
ENDBRANCH   7  39
BRANCH   8  60
ATOM     60  C   LIG d   1       8.127   2.717  -4.053  0.00  0.00    -0.006 C 
ATOM     61  H   LIG d   1       8.724   2.941  -3.169  0.00  0.00     0.031 H 
ATOM     62  H   LIG d   1       8.788   2.453  -4.879  0.00  0.00     0.031 H 
ATOM     63  H   LIG d   1       7.540   3.593  -4.326  0.00  0.00     0.031 H 
ENDBRANCH   8  60
TORSDOF 16
ENDMDL
MODEL 10
REMARK VINA RESULT:      -4.7      4.328      8.524
REMARK  16 active torsions:
REMARK  status: ('A' for Active; 'I' for Inactive)
REMARK    1  A    between atoms: C_1  and  C_2 
REMARK    2  A    between atoms: C_2  and  C_3 
REMARK    3  A    between atoms: C_3  and  N_62 
REMARK    4  A    between atoms: C_4  and  C_5 
REMARK    5  A    between atoms: C_4  and  N_62 
REMARK    6  A    between atoms: C_5  and  C_6 
REMARK    7  A    between atoms: C_7  and  C_8 
REMARK    8  A    between atoms: C_7  and  N_62 
REMARK    9  A    between atoms: C_9  and  O_30 
REMARK   10  A    between atoms: C_14  and  C_18 
REMARK   11  A    between atoms: C_15  and  C_17 
REMARK   12  A    between atoms: C_18  and  C_20 
REMARK   13  A    between atoms: C_22  and  O_28 
REMARK   14  A    between atoms: C_25  and  O_26 
REMARK   15  A    between atoms: O_26  and  C_27 
REMARK   16  A    between atoms: O_28  and  C_29 
ROOT
ATOM      1  C   LIG d   1       9.745   5.682  -4.535  0.00  0.00     0.050 A 
ATOM      2  C   LIG d   1       9.558   7.044  -4.685  0.00  0.00     0.126 A 
ATOM      3  C   LIG d   1       9.520   7.607  -5.955  0.00  0.00    -0.016 A 
ATOM      4  C   LIG d   1       9.668   6.818  -7.077  0.00  0.00    -0.015 A 
ATOM      5  C   LIG d   1       9.857   5.449  -6.944  0.00  0.00     0.137 A 
ATOM      6  C   LIG d   1       9.890   4.881  -5.662  0.00  0.00     0.043 A 
ATOM      7  C   LIG d   1      10.108   3.435  -5.878  0.00  0.00     0.071 A 
ATOM      8  C   LIG d   1      10.175   3.270  -7.228  0.00  0.00     0.114 A 
ATOM      9  O   LIG d   1      10.028   4.452  -7.838  0.00  0.00    -0.459 OA
ATOM     10  H   LIG d   1       9.372   8.671  -6.065  0.00  0.00     0.066 H 
ATOM     11  H   LIG d   1       9.637   7.267  -8.059  0.00  0.00     0.066 H 
ENDROOT
BRANCH   1  12
ATOM     12  C   LIG d   1       9.787   5.068  -3.159  0.00  0.00    -0.002 C 
ATOM     13  H   LIG d   1       8.812   5.174  -2.684  0.00  0.00     0.087 H 
ATOM     14  H   LIG d   1      10.040   4.011  -3.239  0.00  0.00     0.087 H 
BRANCH  12  15
ATOM     15  N   LIG d   1      10.826   5.758  -2.365  0.00  0.00     0.239 N 
ATOM     16  H   LIG d   1      10.994   6.687  -2.770  0.00  0.00     0.204 HD
BRANCH  15  17
ATOM     17  C   LIG d   1      10.370   5.919  -0.968  0.00  0.00    -0.032 C 
ATOM     18  H   LIG d   1      10.119   6.966  -0.792  0.00  0.00     0.081 H 
ATOM     19  H   LIG d   1       9.495   5.299  -0.778  0.00  0.00     0.081 H 
BRANCH  17  20
ATOM     20  C   LIG d   1      11.504   5.503  -0.029  0.00  0.00    -0.015 C 
ATOM     21  H   LIG d   1      11.701   4.437  -0.147  0.00  0.00     0.031 H 
ATOM     22  H   LIG d   1      12.404   6.067  -0.275  0.00  0.00     0.031 H 
BRANCH  20  23
ATOM     23  C   LIG d   1      11.101   5.791   1.418  0.00  0.00    -0.060 C 
ATOM     24  H   LIG d   1      11.688   5.165   2.091  0.00  0.00     0.023 H 
ATOM     25  H   LIG d   1      11.286   6.841   1.645  0.00  0.00     0.023 H 
ATOM     26  H   LIG d   1      10.041   5.572   1.550  0.00  0.00     0.023 H 
ENDBRANCH  20  23
ENDBRANCH  17  20
ENDBRANCH  15  17
BRANCH  15  27
ATOM     27  C   LIG d   1      12.085   4.984  -2.399  0.00  0.00    -0.032 C 
ATOM     28  H   LIG d   1      12.450   4.847  -1.380  0.00  0.00     0.081 H 
ATOM     29  H   LIG d   1      11.922   4.010  -2.860  0.00  0.00     0.081 H 
BRANCH  27  30
ATOM     30  C   LIG d   1      13.119   5.767  -3.210  0.00  0.00    -0.015 C 
ATOM     31  H   LIG d   1      12.720   6.751  -3.454  0.00  0.00     0.031 H 
ATOM     32  H   LIG d   1      14.031   5.878  -2.625  0.00  0.00     0.031 H 
BRANCH  30  33
ATOM     33  C   LIG d   1      13.432   5.010  -4.503  0.00  0.00    -0.060 C 
ATOM     34  H   LIG d   1      13.061   3.987  -4.424  0.00  0.00     0.023 H 
ATOM     35  H   LIG d   1      12.945   5.507  -5.342  0.00  0.00     0.023 H 
ATOM     36  H   LIG d   1      14.509   4.994  -4.664  0.00  0.00     0.023 H 
ENDBRANCH  30  33
ENDBRANCH  27  30
ENDBRANCH  15  27
ENDBRANCH  12  15
ENDBRANCH   1  12
BRANCH   2  37
ATOM     37  O   LIG d   1       9.410   7.833  -3.587  0.00  0.00    -0.506 OA
ATOM     38  H   LIG d   1      10.245   8.110  -3.186  0.00  0.00     0.292 HD
ENDBRANCH   2  37
BRANCH   7  39
ATOM     39  C   LIG d   1      10.221   2.392  -4.849  0.00  0.00     0.201 C 
ATOM     40  O   LIG d   1      11.268   2.242  -4.246  0.00  0.00    -0.286 OA
BRANCH  39  41
ATOM     41  C   LIG d   1       9.066   1.524  -4.547  0.00  0.00     0.067 A 
ATOM     42  C   LIG d   1       9.084   0.173  -4.917  0.00  0.00     0.131 A 
ATOM     43  C   LIG d   1       7.995  -0.635  -4.630  0.00  0.00    -0.016 A 
ATOM     44  C   LIG d   1       6.894  -0.111  -3.983  0.00  0.00    -0.017 A 
ATOM     45  H   LIG d   1       8.007  -1.677  -4.914  0.00  0.00     0.066 H 
ATOM     46  C   LIG d   1       6.869   1.229  -3.613  0.00  0.00     0.121 A 
ATOM     47  H   LIG d   1       6.048  -0.745  -3.762  0.00  0.00     0.066 H 
ATOM     48  C   LIG d   1       7.947   2.048  -3.896  0.00  0.00    -0.006 A 
ATOM     49  H   LIG d   1       7.923   3.090  -3.611  0.00  0.00     0.066 H 
BRANCH  42  50
ATOM     50  O   LIG d   1      10.166  -0.344  -5.554  0.00  0.00    -0.494 OA
BRANCH  50  51
ATOM     51  C   LIG d   1      10.194  -1.761  -5.739  0.00  0.00     0.079 C 
ATOM     52  H   LIG d   1      11.091  -2.037  -6.292  0.00  0.00     0.066 H 
ATOM     53  H   LIG d   1      10.200  -2.255  -4.767  0.00  0.00     0.066 H 
ATOM     54  H   LIG d   1       9.312  -2.071  -6.300  0.00  0.00     0.066 H 
ENDBRANCH  50  51
ENDBRANCH  42  50
BRANCH  46  55
ATOM     55  O   LIG d   1       5.781   1.736  -2.975  0.00  0.00    -0.495 OA
BRANCH  55  56
ATOM     56  C   LIG d   1       4.981   0.818  -2.226  0.00  0.00     0.079 C 
ATOM     57  H   LIG d   1       5.629   0.117  -1.700  0.00  0.00     0.066 H 
ATOM     58  H   LIG d   1       4.377   1.367  -1.505  0.00  0.00     0.066 H 
ATOM     59  H   LIG d   1       4.327   0.270  -2.905  0.00  0.00     0.066 H 
ENDBRANCH  55  56
ENDBRANCH  46  55
ENDBRANCH  39  41
ENDBRANCH   7  39
BRANCH   8  60
ATOM     60  C   LIG d   1      10.383   1.953  -7.930  0.00  0.00    -0.006 C 
ATOM     61  H   LIG d   1      11.374   1.567  -7.691  0.00  0.00     0.031 H 
ATOM     62  H   LIG d   1       9.627   1.241  -7.600  0.00  0.00     0.031 H 
ATOM     63  H   LIG d   1      10.300   2.098  -9.007  0.00  0.00     0.031 H 
ENDBRANCH   8  60
TORSDOF 16
ENDMDL
