MODEL 1
REMARK VINA RESULT:      -6.3      0.000      0.000
REMARK  4 active torsions:
REMARK  status: ('A' for Active; 'I' for Inactive)
REMARK    1  A    between atoms: C_1  and  C_2 
REMARK    2  A    between atoms: C_2  and  C_11 
REMARK    3  A    between atoms: N_3  and  C_4 
REMARK    4  A    between atoms: N_19  and  C_22 
ROOT
ATOM      1  C   LIG d   1       4.370  -1.342  -4.646  0.00  0.00     0.052 A 
ATOM      2  C   LIG d   1       3.766  -0.180  -5.205  0.00  0.00     0.198 A 
ATOM      3  C   LIG d   1       3.538  -0.155  -6.660  0.00  0.00     0.046 A 
ATOM      4  C   LIG d   1       2.950   0.951  -7.277  0.00  0.00    -0.049 A 
ATOM      5  C   LIG d   1       2.751   0.944  -8.640  0.00  0.00    -0.061 A 
ATOM      6  C   LIG d   1       3.130  -0.154  -9.399  0.00  0.00    -0.060 A 
ATOM      7  C   LIG d   1       3.711  -1.253  -8.803  0.00  0.00    -0.037 A 
ATOM      8  C   LIG d   1       3.922  -1.267  -7.427  0.00  0.00     0.052 A 
ATOM      9  N   LIG d   1       4.503  -2.360  -6.816  0.00  0.00    -0.356 N 
ATOM     10  C   LIG d   1       4.725  -2.399  -5.482  0.00  0.00    -0.023 A 
ATOM     11  O   LIG d   1       5.301  -3.493  -4.946  0.00  0.00    -0.861 OA
ATOM     12  O   LIG d   1       3.447   0.763  -4.501  0.00  0.00    -0.286 OA
ATOM     13  H   LIG d   1       2.654   1.807  -6.690  0.00  0.00     0.062 H 
ATOM     14  H   LIG d   1       2.296   1.798  -9.121  0.00  0.00     0.062 H 
ATOM     15  H   LIG d   1       2.968  -0.148 -10.466  0.00  0.00     0.062 H 
ATOM     16  H   LIG d   1       4.002  -2.102  -9.403  0.00  0.00     0.064 H 
ENDROOT
BRANCH   1  17
ATOM     17  C   LIG d   1       4.621  -1.424  -3.207  0.00  0.00     0.051 C 
ATOM     18  N   LIG d   1       5.698  -0.887  -2.699  0.00  0.00    -0.252 NA
BRANCH  17  19
ATOM     19  C   LIG d   1       3.636  -2.130  -2.310  0.00  0.00    -0.022 C 
ATOM     20  H   LIG d   1       3.189  -1.411  -1.624  0.00  0.00     0.029 H 
ATOM     21  H   LIG d   1       2.854  -2.586  -2.917  0.00  0.00     0.029 H 
ATOM     22  H   LIG d   1       4.152  -2.904  -1.742  0.00  0.00     0.029 H 
ENDBRANCH  17  19
BRANCH  18  23
ATOM     23  C   LIG d   1       6.653  -0.357  -3.524  0.00  0.00     0.064 A 
ATOM     24  C   LIG d   1       7.516  -1.198  -4.230  0.00  0.00    -0.035 A 
ATOM     25  C   LIG d   1       8.472  -0.657  -5.064  0.00  0.00    -0.041 A 
ATOM     26  H   LIG d   1       7.432  -2.270  -4.126  0.00  0.00     0.064 H 
ATOM     27  C   LIG d   1       8.585   0.717  -5.194  0.00  0.00     0.041 A 
ATOM     28  H   LIG d   1       9.136  -1.306  -5.614  0.00  0.00     0.063 H 
ATOM     29  C   LIG d   1       7.735   1.556  -4.492  0.00  0.00    -0.041 A 
ATOM     30 CL   LIG d   1       9.795   1.391  -6.239  0.00  0.00    -0.084 Cl
ATOM     31  C   LIG d   1       6.772   1.028  -3.659  0.00  0.00    -0.035 A 
ATOM     32  H   LIG d   1       7.828   2.628  -4.597  0.00  0.00     0.063 H 
ATOM     33  H   LIG d   1       6.110   1.683  -3.112  0.00  0.00     0.064 H 
ENDBRANCH  18  23
ENDBRANCH   1  17
BRANCH   9  34
ATOM     34  C   LIG d   1       4.896  -3.508  -7.636  0.00  0.00     0.011 C 
ATOM     35  H   LIG d   1       4.231  -4.347  -7.429  0.00  0.00     0.045 H 
ATOM     36  H   LIG d   1       4.828  -3.242  -8.691  0.00  0.00     0.045 H 
ATOM     37  H   LIG d   1       5.921  -3.790  -7.398  0.00  0.00     0.045 H 
ENDBRANCH   9  34
TORSDOF 4
ENDMDL
MODEL 2
REMARK VINA RESULT:      -6.2      2.414      5.284
REMARK  4 active torsions:
REMARK  status: ('A' for Active; 'I' for Inactive)
REMARK    1  A    between atoms: C_1  and  C_2 
REMARK    2  A    between atoms: C_2  and  C_11 
REMARK    3  A    between atoms: N_3  and  C_4 
REMARK    4  A    between atoms: N_19  and  C_22 
ROOT
ATOM      1  C   LIG d   1       6.273  -2.059  -5.588  0.00  0.00     0.052 A 
ATOM      2  C   LIG d   1       5.120  -2.144  -4.756  0.00  0.00     0.198 A 
ATOM      3  C   LIG d   1       4.924  -1.092  -3.743  0.00  0.00     0.046 A 
ATOM      4  C   LIG d   1       3.817  -1.111  -2.893  0.00  0.00    -0.049 A 
ATOM      5  C   LIG d   1       3.662  -0.113  -1.955  0.00  0.00    -0.061 A 
ATOM      6  C   LIG d   1       4.599   0.905  -1.853  0.00  0.00    -0.060 A 
ATOM      7  C   LIG d   1       5.697   0.936  -2.686  0.00  0.00    -0.037 A 
ATOM      8  C   LIG d   1       5.873  -0.062  -3.641  0.00  0.00     0.052 A 
ATOM      9  N   LIG d   1       6.967  -0.045  -4.482  0.00  0.00    -0.356 N 
ATOM     10  C   LIG d   1       7.167  -1.004  -5.415  0.00  0.00    -0.023 A 
ATOM     11  O   LIG d   1       8.258  -0.935  -6.203  0.00  0.00    -0.861 OA
ATOM     12  O   LIG d   1       4.321  -3.056  -4.880  0.00  0.00    -0.286 OA
ATOM     13  H   LIG d   1       3.086  -1.901  -2.970  0.00  0.00     0.062 H 
ATOM     14  H   LIG d   1       2.807  -0.124  -1.296  0.00  0.00     0.062 H 
ATOM     15  H   LIG d   1       4.467   1.681  -1.115  0.00  0.00     0.062 H 
ATOM     16  H   LIG d   1       6.420   1.734  -2.599  0.00  0.00     0.064 H 
ENDROOT
BRANCH   1  17
ATOM     17  C   LIG d   1       6.520  -3.075  -6.613  0.00  0.00     0.051 C 
ATOM     18  N   LIG d   1       6.078  -2.898  -7.829  0.00  0.00    -0.252 NA
BRANCH  17  19
ATOM     19  C   LIG d   1       7.285  -4.326  -6.264  0.00  0.00    -0.022 C 
ATOM     20  H   LIG d   1       8.304  -4.246  -6.640  0.00  0.00     0.029 H 
ATOM     21  H   LIG d   1       7.308  -4.448  -5.180  0.00  0.00     0.029 H 
ATOM     22  H   LIG d   1       6.796  -5.189  -6.716  0.00  0.00     0.029 H 
ENDBRANCH  17  19
BRANCH  18  23
ATOM     23  C   LIG d   1       5.278  -1.825  -8.117  0.00  0.00     0.064 A 
ATOM     24  C   LIG d   1       3.891  -1.931  -7.993  0.00  0.00    -0.035 A 
ATOM     25  C   LIG d   1       3.090  -0.844  -8.279  0.00  0.00    -0.041 A 
ATOM     26  H   LIG d   1       3.446  -2.860  -7.669  0.00  0.00     0.064 H 
ATOM     27  C   LIG d   1       3.659   0.346  -8.700  0.00  0.00     0.041 A 
ATOM     28  H   LIG d   1       2.018  -0.924  -8.178  0.00  0.00     0.063 H 
ATOM     29  C   LIG d   1       5.033   0.455  -8.830  0.00  0.00    -0.041 A 
ATOM     30 CL   LIG d   1       2.645   1.706  -9.065  0.00  0.00    -0.084 Cl
ATOM     31  C   LIG d   1       5.844  -0.622  -8.542  0.00  0.00    -0.035 A 
ATOM     32  H   LIG d   1       5.471   1.387  -9.159  0.00  0.00     0.063 H 
ATOM     33  H   LIG d   1       6.916  -0.535  -8.643  0.00  0.00     0.064 H 
ENDBRANCH  18  23
ENDBRANCH   1  17
BRANCH   9  34
ATOM     34  C   LIG d   1       7.944   1.040  -4.357  0.00  0.00     0.011 C 
ATOM     35  H   LIG d   1       8.134   1.472  -5.340  0.00  0.00     0.045 H 
ATOM     36  H   LIG d   1       7.551   1.808  -3.691  0.00  0.00     0.045 H 
ATOM     37  H   LIG d   1       8.874   0.646  -3.948  0.00  0.00     0.045 H 
ENDBRANCH   9  34
TORSDOF 4
ENDMDL
MODEL 3
REMARK VINA RESULT:      -6.1      1.984      4.290
REMARK  4 active torsions:
REMARK  status: ('A' for Active; 'I' for Inactive)
REMARK    1  A    between atoms: C_1  and  C_2 
REMARK    2  A    between atoms: C_2  and  C_11 
REMARK    3  A    between atoms: N_3  and  C_4 
REMARK    4  A    between atoms: N_19  and  C_22 
ROOT
ATOM      1  C   LIG d   1       3.929  -1.118  -7.051  0.00  0.00     0.052 A 
ATOM      2  C   LIG d   1       3.625  -0.109  -6.094  0.00  0.00     0.198 A 
ATOM      3  C   LIG d   1       3.834  -0.425  -4.670  0.00  0.00     0.046 A 
ATOM      4  C   LIG d   1       3.557   0.516  -3.677  0.00  0.00    -0.049 A 
ATOM      5  C   LIG d   1       3.762   0.190  -2.354  0.00  0.00    -0.061 A 
ATOM      6  C   LIG d   1       4.241  -1.065  -2.008  0.00  0.00    -0.060 A 
ATOM      7  C   LIG d   1       4.520  -2.004  -2.978  0.00  0.00    -0.037 A 
ATOM      8  C   LIG d   1       4.319  -1.695  -4.321  0.00  0.00     0.052 A 
ATOM      9  N   LIG d   1       4.593  -2.625  -5.304  0.00  0.00    -0.356 N 
ATOM     10  C   LIG d   1       4.403  -2.354  -6.616  0.00  0.00    -0.023 A 
ATOM     11  O   LIG d   1       4.683  -3.306  -7.528  0.00  0.00    -0.861 OA
ATOM     12  O   LIG d   1       3.206   0.982  -6.442  0.00  0.00    -0.286 OA
ATOM     13  H   LIG d   1       3.184   1.493  -3.943  0.00  0.00     0.062 H 
ATOM     14  H   LIG d   1       3.548   0.915  -1.583  0.00  0.00     0.062 H 
ATOM     15  H   LIG d   1       4.398  -1.310  -0.968  0.00  0.00     0.062 H 
ATOM     16  H   LIG d   1       4.893  -2.978  -2.698  0.00  0.00     0.064 H 
ENDROOT
BRANCH   1  17
ATOM     17  C   LIG d   1       3.742  -0.861  -8.480  0.00  0.00     0.051 C 
ATOM     18  N   LIG d   1       4.752  -0.474  -9.212  0.00  0.00    -0.252 NA
BRANCH  17  19
ATOM     19  C   LIG d   1       2.383  -1.043  -9.106  0.00  0.00    -0.022 C 
ATOM     20  H   LIG d   1       1.841  -1.825  -8.576  0.00  0.00     0.029 H 
ATOM     21  H   LIG d   1       1.826  -0.108  -9.041  0.00  0.00     0.029 H 
ATOM     22  H   LIG d   1       2.500  -1.324 -10.152  0.00  0.00     0.029 H 
ENDBRANCH  17  19
BRANCH  18  23
ATOM     23  C   LIG d   1       5.954  -0.189  -8.624  0.00  0.00     0.064 A 
ATOM     24  C   LIG d   1       6.206   1.092  -8.126  0.00  0.00    -0.035 A 
ATOM     25  C   LIG d   1       7.417   1.371  -7.529  0.00  0.00    -0.041 A 
ATOM     26  H   LIG d   1       5.450   1.860  -8.204  0.00  0.00     0.064 H 
ATOM     27  C   LIG d   1       8.389   0.389  -7.434  0.00  0.00     0.041 A 
ATOM     28  H   LIG d   1       7.610   2.360  -7.139  0.00  0.00     0.063 H 
ATOM     29  C   LIG d   1       8.148  -0.881  -7.931  0.00  0.00    -0.041 A 
ATOM     30 CL   LIG d   1       9.913   0.751  -6.689  0.00  0.00    -0.084 Cl
ATOM     31  C   LIG d   1       6.939  -1.175  -8.525  0.00  0.00    -0.035 A 
ATOM     32  H   LIG d   1       8.910  -1.643  -7.854  0.00  0.00     0.063 H 
ATOM     33  H   LIG d   1       6.752  -2.166  -8.912  0.00  0.00     0.064 H 
ENDBRANCH  18  23
ENDBRANCH   1  17
BRANCH   9  34
ATOM     34  C   LIG d   1       5.099  -3.944  -4.916  0.00  0.00     0.011 C 
ATOM     35  H   LIG d   1       6.066  -4.115  -5.387  0.00  0.00     0.045 H 
ATOM     36  H   LIG d   1       5.209  -3.986  -3.832  0.00  0.00     0.045 H 
ATOM     37  H   LIG d   1       4.396  -4.711  -5.240  0.00  0.00     0.045 H 
ENDBRANCH   9  34
TORSDOF 4
ENDMDL
MODEL 4
REMARK VINA RESULT:      -6.1      2.540      3.764
REMARK  4 active torsions:
REMARK  status: ('A' for Active; 'I' for Inactive)
REMARK    1  A    between atoms: C_1  and  C_2 
REMARK    2  A    between atoms: C_2  and  C_11 
REMARK    3  A    between atoms: N_3  and  C_4 
REMARK    4  A    between atoms: N_19  and  C_22 
ROOT
ATOM      1  C   LIG d   1       6.119  -2.048  -6.933  0.00  0.00     0.052 A 
ATOM      2  C   LIG d   1       4.745  -2.053  -7.304  0.00  0.00     0.198 A 
ATOM      3  C   LIG d   1       4.195  -0.836  -7.927  0.00  0.00     0.046 A 
ATOM      4  C   LIG d   1       2.857  -0.769  -8.316  0.00  0.00    -0.049 A 
ATOM      5  C   LIG d   1       2.373   0.383  -8.896  0.00  0.00    -0.061 A 
ATOM      6  C   LIG d   1       3.209   1.473  -9.094  0.00  0.00    -0.060 A 
ATOM      7  C   LIG d   1       4.533   1.420  -8.715  0.00  0.00    -0.037 A 
ATOM      8  C   LIG d   1       5.043   0.266  -8.127  0.00  0.00     0.052 A 
ATOM      9  N   LIG d   1       6.367   0.199  -7.743  0.00  0.00    -0.356 N 
ATOM     10  C   LIG d   1       6.887  -0.908  -7.164  0.00  0.00    -0.023 A 
ATOM     11  O   LIG d   1       8.186  -0.910  -6.805  0.00  0.00    -0.861 OA
ATOM     12  O   LIG d   1       4.046  -3.033  -7.112  0.00  0.00    -0.286 OA
ATOM     13  H   LIG d   1       2.204  -1.615  -8.164  0.00  0.00     0.062 H 
ATOM     14  H   LIG d   1       1.338   0.438  -9.198  0.00  0.00     0.062 H 
ATOM     15  H   LIG d   1       2.819   2.370  -9.550  0.00  0.00     0.062 H 
ATOM     16  H   LIG d   1       5.175   2.274  -8.875  0.00  0.00     0.064 H 
ENDROOT
BRANCH   1  17
ATOM     17  C   LIG d   1       6.721  -3.228  -6.311  0.00  0.00     0.051 C 
ATOM     18  N   LIG d   1       6.652  -3.392  -5.017  0.00  0.00    -0.252 NA
BRANCH  17  19
ATOM     19  C   LIG d   1       7.421  -4.255  -7.164  0.00  0.00    -0.022 C 
ATOM     20  H   LIG d   1       7.345  -5.234  -6.690  0.00  0.00     0.029 H 
ATOM     21  H   LIG d   1       6.952  -4.292  -8.147  0.00  0.00     0.029 H 
ATOM     22  H   LIG d   1       8.471  -3.983  -7.272  0.00  0.00     0.029 H 
ENDBRANCH  17  19
BRANCH  18  23
ATOM     23  C   LIG d   1       6.129  -2.403  -4.229  0.00  0.00     0.064 A 
ATOM     24  C   LIG d   1       6.919  -1.315  -3.850  0.00  0.00    -0.035 A 
ATOM     25  C   LIG d   1       6.383  -0.318  -3.062  0.00  0.00    -0.041 A 
ATOM     26  H   LIG d   1       7.946  -1.251  -4.179  0.00  0.00     0.064 H 
ATOM     27  C   LIG d   1       5.069  -0.400  -2.634  0.00  0.00     0.041 A 
ATOM     28  H   LIG d   1       6.992   0.526  -2.773  0.00  0.00     0.063 H 
ATOM     29  C   LIG d   1       4.282  -1.480  -3.001  0.00  0.00    -0.041 A 
ATOM     30 CL   LIG d   1       4.404   0.853  -1.635  0.00  0.00    -0.084 Cl
ATOM     31  C   LIG d   1       4.804  -2.479  -3.794  0.00  0.00    -0.035 A 
ATOM     32  H   LIG d   1       3.257  -1.538  -2.665  0.00  0.00     0.063 H 
ATOM     33  H   LIG d   1       4.189  -3.320  -4.080  0.00  0.00     0.064 H 
ENDBRANCH  18  23
ENDBRANCH   1  17
BRANCH   9  34
ATOM     34  C   LIG d   1       7.232   1.361  -7.961  0.00  0.00     0.011 C 
ATOM     35  H   LIG d   1       7.922   1.150  -8.777  0.00  0.00     0.045 H 
ATOM     36  H   LIG d   1       6.620   2.226  -8.215  0.00  0.00     0.045 H 
ATOM     37  H   LIG d   1       7.796   1.569  -7.053  0.00  0.00     0.045 H 
ENDBRANCH   9  34
TORSDOF 4
ENDMDL
MODEL 5
REMARK VINA RESULT:      -5.9      2.482      3.493
REMARK  4 active torsions:
REMARK  status: ('A' for Active; 'I' for Inactive)
REMARK    1  A    between atoms: C_1  and  C_2 
REMARK    2  A    between atoms: C_2  and  C_11 
REMARK    3  A    between atoms: N_3  and  C_4 
REMARK    4  A    between atoms: N_19  and  C_22 
ROOT
ATOM      1  C   LIG d   1       6.960  -0.858  -7.166  0.00  0.00     0.052 A 
ATOM      2  C   LIG d   1       6.328   0.350  -7.577  0.00  0.00     0.198 A 
ATOM      3  C   LIG d   1       4.924   0.276  -8.019  0.00  0.00     0.046 A 
ATOM      4  C   LIG d   1       4.241   1.420  -8.436  0.00  0.00    -0.049 A 
ATOM      5  C   LIG d   1       2.929   1.318  -8.843  0.00  0.00    -0.061 A 
ATOM      6  C   LIG d   1       2.287   0.088  -8.840  0.00  0.00    -0.060 A 
ATOM      7  C   LIG d   1       2.949  -1.050  -8.431  0.00  0.00    -0.037 A 
ATOM      8  C   LIG d   1       4.276  -0.970  -8.015  0.00  0.00     0.052 A 
ATOM      9  N   LIG d   1       4.952  -2.100  -7.602  0.00  0.00    -0.356 N 
ATOM     10  C   LIG d   1       6.242  -2.052  -7.199  0.00  0.00    -0.023 A 
ATOM     11  O   LIG d   1       6.850  -3.192  -6.812  0.00  0.00    -0.861 OA
ATOM     12  O   LIG d   1       6.929   1.410  -7.564  0.00  0.00    -0.286 OA
ATOM     13  H   LIG d   1       4.737   2.378  -8.439  0.00  0.00     0.062 H 
ATOM     14  H   LIG d   1       2.397   2.201  -9.167  0.00  0.00     0.062 H 
ATOM     15  H   LIG d   1       1.258   0.020  -9.162  0.00  0.00     0.062 H 
ATOM     16  H   LIG d   1       2.440  -2.002  -8.432  0.00  0.00     0.064 H 
ENDROOT
BRANCH   1  17
ATOM     17  C   LIG d   1       8.353  -0.847  -6.717  0.00  0.00     0.051 C 
ATOM     18  N   LIG d   1       8.631  -0.681  -5.451  0.00  0.00    -0.252 NA
BRANCH  17  19
ATOM     19  C   LIG d   1       9.468  -1.025  -7.716  0.00  0.00    -0.022 C 
ATOM     20  H   LIG d   1      10.350  -1.414  -7.209  0.00  0.00     0.029 H 
ATOM     21  H   LIG d   1       9.154  -1.728  -8.488  0.00  0.00     0.029 H 
ATOM     22  H   LIG d   1       9.703  -0.065  -8.173  0.00  0.00     0.029 H 
ENDBRANCH  17  19
BRANCH  18  23
ATOM     23  C   LIG d   1       7.630  -0.394  -4.563  0.00  0.00     0.064 A 
ATOM     24  C   LIG d   1       7.325   0.933  -4.253  0.00  0.00    -0.035 A 
ATOM     25  C   LIG d   1       6.311   1.215  -3.362  0.00  0.00    -0.041 A 
ATOM     26  H   LIG d   1       7.879   1.737  -4.715  0.00  0.00     0.064 H 
ATOM     27  C   LIG d   1       5.604   0.186  -2.764  0.00  0.00     0.041 A 
ATOM     28  H   LIG d   1       6.072   2.242  -3.126  0.00  0.00     0.063 H 
ATOM     29  C   LIG d   1       5.906  -1.133  -3.063  0.00  0.00    -0.041 A 
ATOM     30 CL   LIG d   1       4.336   0.548  -1.637  0.00  0.00    -0.084 Cl
ATOM     31  C   LIG d   1       6.913  -1.428  -3.957  0.00  0.00    -0.035 A 
ATOM     32  H   LIG d   1       5.350  -1.932  -2.594  0.00  0.00     0.063 H 
ATOM     33  H   LIG d   1       7.147  -2.457  -4.189  0.00  0.00     0.064 H 
ENDBRANCH  18  23
ENDBRANCH   1  17
BRANCH   9  34
ATOM     34  C   LIG d   1       4.255  -3.388  -7.607  0.00  0.00     0.011 C 
ATOM     35  H   LIG d   1       3.494  -3.392  -6.827  0.00  0.00     0.045 H 
ATOM     36  H   LIG d   1       3.783  -3.542  -8.577  0.00  0.00     0.045 H 
ATOM     37  H   LIG d   1       4.971  -4.188  -7.420  0.00  0.00     0.045 H 
ENDBRANCH   9  34
TORSDOF 4
ENDMDL
MODEL 6
REMARK VINA RESULT:      -5.9      2.123      4.006
REMARK  4 active torsions:
REMARK  status: ('A' for Active; 'I' for Inactive)
REMARK    1  A    between atoms: C_1  and  C_2 
REMARK    2  A    between atoms: C_2  and  C_11 
REMARK    3  A    between atoms: N_3  and  C_4 
REMARK    4  A    between atoms: N_19  and  C_22 
ROOT
ATOM      1  C   LIG d   1       5.850  -2.106  -5.198  0.00  0.00     0.052 A 
ATOM      2  C   LIG d   1       6.012  -1.641  -3.862  0.00  0.00     0.198 A 
ATOM      3  C   LIG d   1       5.118  -0.569  -3.393  0.00  0.00     0.046 A 
ATOM      4  C   LIG d   1       5.219  -0.064  -2.095  0.00  0.00    -0.049 A 
ATOM      5  C   LIG d   1       4.368   0.939  -1.687  0.00  0.00    -0.061 A 
ATOM      6  C   LIG d   1       3.414   1.447  -2.557  0.00  0.00    -0.060 A 
ATOM      7  C   LIG d   1       3.302   0.958  -3.841  0.00  0.00    -0.037 A 
ATOM      8  C   LIG d   1       4.152  -0.056  -4.275  0.00  0.00     0.052 A 
ATOM      9  N   LIG d   1       4.053  -0.555  -5.557  0.00  0.00    -0.356 N 
ATOM     10  C   LIG d   1       4.869  -1.536  -6.007  0.00  0.00    -0.023 A 
ATOM     11  O   LIG d   1       4.726  -1.978  -7.272  0.00  0.00    -0.861 OA
ATOM     12  O   LIG d   1       6.863  -2.117  -3.130  0.00  0.00    -0.286 OA
ATOM     13  H   LIG d   1       5.959  -0.457  -1.416  0.00  0.00     0.062 H 
ATOM     14  H   LIG d   1       4.443   1.332  -0.683  0.00  0.00     0.062 H 
ATOM     15  H   LIG d   1       2.752   2.233  -2.226  0.00  0.00     0.062 H 
ATOM     16  H   LIG d   1       2.556   1.360  -4.510  0.00  0.00     0.064 H 
ENDROOT
BRANCH   1  17
ATOM     17  C   LIG d   1       6.710  -3.169  -5.719  0.00  0.00     0.051 C 
ATOM     18  N   LIG d   1       7.864  -2.874  -6.255  0.00  0.00    -0.252 NA
BRANCH  17  19
ATOM     19  C   LIG d   1       6.263  -4.607  -5.639  0.00  0.00    -0.022 C 
ATOM     20  H   LIG d   1       5.421  -4.687  -4.952  0.00  0.00     0.029 H 
ATOM     21  H   LIG d   1       5.957  -4.948  -6.628  0.00  0.00     0.029 H 
ATOM     22  H   LIG d   1       7.086  -5.224  -5.281  0.00  0.00     0.029 H 
ENDBRANCH  17  19
BRANCH  18  23
ATOM     23  C   LIG d   1       8.217  -1.565  -6.443  0.00  0.00     0.064 A 
ATOM     24  C   LIG d   1       8.936  -0.885  -5.458  0.00  0.00    -0.035 A 
ATOM     25  C   LIG d   1       9.294   0.433  -5.656  0.00  0.00    -0.041 A 
ATOM     26  H   LIG d   1       9.217  -1.390  -4.546  0.00  0.00     0.064 H 
ATOM     27  C   LIG d   1       8.931   1.085  -6.821  0.00  0.00     0.041 A 
ATOM     28  H   LIG d   1       9.855   0.958  -4.897  0.00  0.00     0.063 H 
ATOM     29  C   LIG d   1       8.211   0.417  -7.799  0.00  0.00    -0.041 A 
ATOM     30 CL   LIG d   1       9.377   2.745  -7.059  0.00  0.00    -0.084 Cl
ATOM     31  C   LIG d   1       7.853  -0.901  -7.616  0.00  0.00    -0.035 A 
ATOM     32  H   LIG d   1       7.931   0.931  -8.707  0.00  0.00     0.063 H 
ATOM     33  H   LIG d   1       7.293  -1.421  -8.380  0.00  0.00     0.064 H 
ENDBRANCH  18  23
ENDBRANCH   1  17
BRANCH   9  34
ATOM     34  C   LIG d   1       3.039  -0.004  -6.460  0.00  0.00     0.011 C 
ATOM     35  H   LIG d   1       3.502   0.724  -7.125  0.00  0.00     0.045 H 
ATOM     36  H   LIG d   1       2.602  -0.810  -7.049  0.00  0.00     0.045 H 
ATOM     37  H   LIG d   1       2.259   0.483  -5.875  0.00  0.00     0.045 H 
ENDBRANCH   9  34
TORSDOF 4
ENDMDL
MODEL 7
REMARK VINA RESULT:      -5.8      2.734      5.287
REMARK  4 active torsions:
REMARK  status: ('A' for Active; 'I' for Inactive)
REMARK    1  A    between atoms: C_1  and  C_2 
REMARK    2  A    between atoms: C_2  and  C_11 
REMARK    3  A    between atoms: N_3  and  C_4 
REMARK    4  A    between atoms: N_19  and  C_22 
ROOT
ATOM      1  C   LIG d   1       7.233  -0.818  -5.856  0.00  0.00     0.052 A 
ATOM      2  C   LIG d   1       6.928   0.283  -5.006  0.00  0.00     0.198 A 
ATOM      3  C   LIG d   1       5.966   0.063  -3.912  0.00  0.00     0.046 A 
ATOM      4  C   LIG d   1       5.620   1.096  -3.040  0.00  0.00    -0.049 A 
ATOM      5  C   LIG d   1       4.717   0.859  -2.028  0.00  0.00    -0.061 A 
ATOM      6  C   LIG d   1       4.152  -0.399  -1.872  0.00  0.00    -0.060 A 
ATOM      7  C   LIG d   1       4.485  -1.429  -2.726  0.00  0.00    -0.037 A 
ATOM      8  C   LIG d   1       5.395  -1.211  -3.756  0.00  0.00     0.052 A 
ATOM      9  N   LIG d   1       5.738  -2.232  -4.619  0.00  0.00    -0.356 N 
ATOM     10  C   LIG d   1       6.616  -2.048  -5.632  0.00  0.00    -0.023 A 
ATOM     11  O   LIG d   1       6.906  -3.083  -6.444  0.00  0.00    -0.861 OA
ATOM     12  O   LIG d   1       7.448   1.372  -5.178  0.00  0.00    -0.286 OA
ATOM     13  H   LIG d   1       6.058   2.076  -3.158  0.00  0.00     0.062 H 
ATOM     14  H   LIG d   1       4.447   1.656  -1.351  0.00  0.00     0.062 H 
ATOM     15  H   LIG d   1       3.446  -0.573  -1.075  0.00  0.00     0.062 H 
ATOM     16  H   LIG d   1       4.040  -2.404  -2.595  0.00  0.00     0.064 H 
ENDROOT
BRANCH   1  17
ATOM     17  C   LIG d   1       8.182  -0.660  -6.959  0.00  0.00     0.051 C 
ATOM     18  N   LIG d   1       7.751  -0.349  -8.153  0.00  0.00    -0.252 NA
BRANCH  17  19
ATOM     19  C   LIG d   1       9.657  -0.856  -6.718  0.00  0.00    -0.022 C 
ATOM     20  H   LIG d   1       9.988  -0.182  -5.929  0.00  0.00     0.029 H 
ATOM     21  H   LIG d   1       9.841  -1.887  -6.414  0.00  0.00     0.029 H 
ATOM     22  H   LIG d   1      10.206  -0.644  -7.634  0.00  0.00     0.029 H 
ENDBRANCH  17  19
BRANCH  18  23
ATOM     23  C   LIG d   1       6.407  -0.294  -8.402  0.00  0.00     0.064 A 
ATOM     24  C   LIG d   1       5.704   0.896  -8.197  0.00  0.00    -0.035 A 
ATOM     25  C   LIG d   1       4.350   0.948  -8.457  0.00  0.00    -0.041 A 
ATOM     26  H   LIG d   1       6.221   1.776  -7.842  0.00  0.00     0.064 H 
ATOM     27  C   LIG d   1       3.685  -0.180  -8.907  0.00  0.00     0.041 A 
ATOM     28  H   LIG d   1       3.807   1.869  -8.304  0.00  0.00     0.063 H 
ATOM     29  C   LIG d   1       4.375  -1.364  -9.106  0.00  0.00    -0.041 A 
ATOM     30 CL   LIG d   1       1.980  -0.110  -9.224  0.00  0.00    -0.084 Cl
ATOM     31  C   LIG d   1       5.730  -1.427  -8.857  0.00  0.00    -0.035 A 
ATOM     32  H   LIG d   1       3.851  -2.241  -9.458  0.00  0.00     0.063 H 
ATOM     33  H   LIG d   1       6.267  -2.351  -9.013  0.00  0.00     0.064 H 
ENDBRANCH  18  23
ENDBRANCH   1  17
BRANCH   9  34
ATOM     34  C   LIG d   1       5.130  -3.553  -4.436  0.00  0.00     0.011 C 
ATOM     35  H   LIG d   1       4.731  -3.632  -3.425  0.00  0.00     0.045 H 
ATOM     36  H   LIG d   1       4.324  -3.684  -5.158  0.00  0.00     0.045 H 
ATOM     37  H   LIG d   1       5.884  -4.324  -4.590  0.00  0.00     0.045 H 
ENDBRANCH   9  34
TORSDOF 4
ENDMDL
MODEL 8
REMARK VINA RESULT:      -5.7      2.751      5.555
REMARK  4 active torsions:
REMARK  status: ('A' for Active; 'I' for Inactive)
REMARK    1  A    between atoms: C_1  and  C_2 
REMARK    2  A    between atoms: C_2  and  C_11 
REMARK    3  A    between atoms: N_3  and  C_4 
REMARK    4  A    between atoms: N_19  and  C_22 
ROOT
ATOM      1  C   LIG d   1       5.027  -0.165  -7.036  0.00  0.00     0.052 A 
ATOM      2  C   LIG d   1       3.830  -0.223  -6.268  0.00  0.00     0.198 A 
ATOM      3  C   LIG d   1       3.946  -0.547  -4.835  0.00  0.00     0.046 A 
ATOM      4  C   LIG d   1       2.815  -0.622  -4.021  0.00  0.00    -0.049 A 
ATOM      5  C   LIG d   1       2.957  -0.927  -2.685  0.00  0.00    -0.061 A 
ATOM      6  C   LIG d   1       4.215  -1.160  -2.148  0.00  0.00    -0.060 A 
ATOM      7  C   LIG d   1       5.341  -1.088  -2.940  0.00  0.00    -0.037 A 
ATOM      8  C   LIG d   1       5.220  -0.782  -4.293  0.00  0.00     0.052 A 
ATOM      9  N   LIG d   1       6.339  -0.708  -5.099  0.00  0.00    -0.356 N 
ATOM     10  C   LIG d   1       6.251  -0.417  -6.417  0.00  0.00    -0.023 A 
ATOM     11  O   LIG d   1       7.379  -0.365  -7.153  0.00  0.00    -0.861 OA
ATOM     12  O   LIG d   1       2.744  -0.012  -6.779  0.00  0.00    -0.286 OA
ATOM     13  H   LIG d   1       1.835  -0.442  -4.435  0.00  0.00     0.062 H 
ATOM     14  H   LIG d   1       2.084  -0.986  -2.052  0.00  0.00     0.062 H 
ATOM     15  H   LIG d   1       4.314  -1.398  -1.100  0.00  0.00     0.062 H 
ATOM     16  H   LIG d   1       6.316  -1.271  -2.513  0.00  0.00     0.064 H 
ENDROOT
BRANCH   1  17
ATOM     17  C   LIG d   1       4.974   0.152  -8.463  0.00  0.00     0.051 C 
ATOM     18  N   LIG d   1       4.818  -0.803  -9.340  0.00  0.00    -0.252 NA
BRANCH  17  19
ATOM     19  C   LIG d   1       5.101   1.583  -8.922  0.00  0.00    -0.022 C 
ATOM     20  H   LIG d   1       5.080   2.245  -8.057  0.00  0.00     0.029 H 
ATOM     21  H   LIG d   1       6.045   1.711  -9.453  0.00  0.00     0.029 H 
ATOM     22  H   LIG d   1       4.274   1.825  -9.588  0.00  0.00     0.029 H 
ENDBRANCH  17  19
BRANCH  18  23
ATOM     23  C   LIG d   1       4.828  -2.111  -8.937  0.00  0.00     0.064 A 
ATOM     24  C   LIG d   1       6.031  -2.819  -8.882  0.00  0.00    -0.035 A 
ATOM     25  C   LIG d   1       6.035  -4.135  -8.468  0.00  0.00    -0.041 A 
ATOM     26  H   LIG d   1       6.957  -2.335  -9.158  0.00  0.00     0.064 H 
ATOM     27  C   LIG d   1       4.849  -4.758  -8.120  0.00  0.00     0.041 A 
ATOM     28  H   LIG d   1       6.965  -4.682  -8.420  0.00  0.00     0.063 H 
ATOM     29  C   LIG d   1       3.652  -4.063  -8.178  0.00  0.00    -0.041 A 
ATOM     30 CL   LIG d   1       4.861  -6.416  -7.608  0.00  0.00    -0.084 Cl
ATOM     31  C   LIG d   1       3.636  -2.745  -8.584  0.00  0.00    -0.035 A 
ATOM     32  H   LIG d   1       2.730  -4.554  -7.905  0.00  0.00     0.063 H 
ATOM     33  H   LIG d   1       2.702  -2.204  -8.629  0.00  0.00     0.064 H 
ENDBRANCH  18  23
ENDBRANCH   1  17
BRANCH   9  34
ATOM     34  C   LIG d   1       7.657  -0.956  -4.512  0.00  0.00     0.011 C 
ATOM     35  H   LIG d   1       8.155  -1.754  -5.063  0.00  0.00     0.045 H 
ATOM     36  H   LIG d   1       8.256  -0.048  -4.566  0.00  0.00     0.045 H 
ATOM     37  H   LIG d   1       7.540  -1.253  -3.470  0.00  0.00     0.045 H 
ENDBRANCH   9  34
TORSDOF 4
ENDMDL
MODEL 9
REMARK VINA RESULT:      -5.6      2.132      4.800
REMARK  4 active torsions:
REMARK  status: ('A' for Active; 'I' for Inactive)
REMARK    1  A    between atoms: C_1  and  C_2 
REMARK    2  A    between atoms: C_2  and  C_11 
REMARK    3  A    between atoms: N_3  and  C_4 
REMARK    4  A    between atoms: N_19  and  C_22 
ROOT
ATOM      1  C   LIG d   1       4.083  -1.396  -7.019  0.00  0.00     0.052 A 
ATOM      2  C   LIG d   1       4.649  -2.101  -5.919  0.00  0.00     0.198 A 
ATOM      3  C   LIG d   1       4.421  -1.564  -4.567  0.00  0.00     0.046 A 
ATOM      4  C   LIG d   1       4.945  -2.202  -3.442  0.00  0.00    -0.049 A 
ATOM      5  C   LIG d   1       4.714  -1.674  -2.190  0.00  0.00    -0.061 A 
ATOM      6  C   LIG d   1       3.965  -0.515  -2.045  0.00  0.00    -0.060 A 
ATOM      7  C   LIG d   1       3.440   0.125  -3.147  0.00  0.00    -0.037 A 
ATOM      8  C   LIG d   1       3.662  -0.391  -4.421  0.00  0.00     0.052 A 
ATOM      9  N   LIG d   1       3.143   0.240  -5.534  0.00  0.00    -0.356 N 
ATOM     10  C   LIG d   1       3.347  -0.236  -6.784  0.00  0.00    -0.023 A 
ATOM     11  O   LIG d   1       2.819   0.428  -7.832  0.00  0.00    -0.861 OA
ATOM     12  O   LIG d   1       5.301  -3.116  -6.092  0.00  0.00    -0.286 OA
ATOM     13  H   LIG d   1       5.528  -3.103  -3.551  0.00  0.00     0.062 H 
ATOM     14  H   LIG d   1       5.118  -2.165  -1.317  0.00  0.00     0.062 H 
ATOM     15  H   LIG d   1       3.790  -0.111  -1.059  0.00  0.00     0.062 H 
ATOM     16  H   LIG d   1       2.858   1.026  -3.023  0.00  0.00     0.064 H 
ENDROOT
BRANCH   1  17
ATOM     17  C   LIG d   1       4.277  -1.882  -8.386  0.00  0.00     0.051 C 
ATOM     18  N   LIG d   1       5.316  -1.496  -9.077  0.00  0.00    -0.252 NA
BRANCH  17  19
ATOM     19  C   LIG d   1       3.274  -2.828  -8.998  0.00  0.00    -0.022 C 
ATOM     20  H   LIG d   1       2.809  -2.355  -9.862  0.00  0.00     0.029 H 
ATOM     21  H   LIG d   1       3.782  -3.740  -9.314  0.00  0.00     0.029 H 
ATOM     22  H   LIG d   1       2.510  -3.074  -8.261  0.00  0.00     0.029 H 
ENDBRANCH  17  19
BRANCH  18  23
ATOM     23  C   LIG d   1       6.158  -0.543  -8.572  0.00  0.00     0.064 A 
ATOM     24  C   LIG d   1       5.981   0.800  -8.910  0.00  0.00    -0.035 A 
ATOM     25  C   LIG d   1       6.829   1.757  -8.392  0.00  0.00    -0.041 A 
ATOM     26  H   LIG d   1       5.178   1.090  -9.571  0.00  0.00     0.064 H 
ATOM     27  C   LIG d   1       7.863   1.386  -7.548  0.00  0.00     0.041 A 
ATOM     28  H   LIG d   1       6.689   2.796  -8.649  0.00  0.00     0.063 H 
ATOM     29  C   LIG d   1       8.047   0.055  -7.214  0.00  0.00    -0.041 A 
ATOM     30 CL   LIG d   1       8.931   2.594  -6.908  0.00  0.00    -0.084 Cl
ATOM     31  C   LIG d   1       7.202  -0.910  -7.720  0.00  0.00    -0.035 A 
ATOM     32  H   LIG d   1       8.855  -0.229  -6.555  0.00  0.00     0.063 H 
ATOM     33  H   LIG d   1       7.347  -1.948  -7.459  0.00  0.00     0.064 H 
ENDBRANCH  18  23
ENDBRANCH   1  17
BRANCH   9  34
ATOM     34  C   LIG d   1       2.355   1.462  -5.358  0.00  0.00     0.011 C 
ATOM     35  H   LIG d   1       2.397   1.773  -4.314  0.00  0.00     0.045 H 
ATOM     36  H   LIG d   1       2.762   2.251  -5.990  0.00  0.00     0.045 H 
ATOM     37  H   LIG d   1       1.320   1.269  -5.639  0.00  0.00     0.045 H 
ENDBRANCH   9  34
TORSDOF 4
ENDMDL
