MODEL 1
REMARK VINA RESULT:      -6.0      0.000      0.000
REMARK  5 active torsions:
REMARK  status: ('A' for Active; 'I' for Inactive)
REMARK    1  A    between atoms: C_1  and  C_2 
REMARK    2  A    between atoms: C_2  and  C_3 
REMARK    3  A    between atoms: C_2  and  C_4 
REMARK    4  A    between atoms: C_2  and  C_6 
REMARK    5  A    between atoms: C_4  and  O_5 
ROOT
ATOM      1  C   LIG d   1       5.319  -2.966  -5.156  0.00  0.00     0.070 C 
ATOM      2  H   LIG d   1       6.190  -2.785  -4.530  0.00  0.00     0.060 H 
ATOM      3  C   LIG d   1       5.152  -1.834  -6.167  0.00  0.00    -0.007 C 
ATOM      4  H   LIG d   1       4.301  -2.048  -6.822  0.00  0.00     0.033 H 
ATOM      5  C   LIG d   1       6.424  -1.687  -7.008  0.00  0.00    -0.044 C 
ATOM      6  C   LIG d   1       7.625  -1.527  -6.076  0.00  0.00    -0.034 C 
ATOM      7  C   LIG d   1       7.343  -0.462  -5.057  0.00  0.00    -0.088 C 
ATOM      8  C   LIG d   1       6.156  -0.008  -4.799  0.00  0.00    -0.084 C 
ATOM      9  C   LIG d   1       4.902  -0.515  -5.431  0.00  0.00    -0.013 C 
ATOM     10  H   LIG d   1       4.602   0.223  -6.195  0.00  0.00     0.035 H 
ATOM     11  C   LIG d   1       3.748  -0.653  -4.456  0.00  0.00    -0.008 C 
ATOM     12  H   LIG d   1       2.833  -0.795  -5.083  0.00  0.00     0.033 H 
ATOM     13  C   LIG d   1       3.510   0.616  -3.653  0.00  0.00    -0.047 C 
ATOM     14  C   LIG d   1       4.359   0.752  -2.402  0.00  0.00    -0.053 C 
ATOM     15  C   LIG d   1       4.403  -0.535  -1.583  0.00  0.00    -0.051 C 
ATOM     16  C   LIG d   1       4.891  -1.681  -2.475  0.00  0.00    -0.026 C 
ATOM     17  C   LIG d   1       3.851  -1.887  -3.576  0.00  0.00     0.062 C 
ATOM     18  H   LIG d   1       2.872  -2.044  -3.087  0.00  0.00     0.060 H 
ATOM     19  O   LIG d   1       4.153  -3.049  -4.336  0.00  0.00    -0.372 OA
ATOM     20  H   LIG d   1       6.564  -2.554  -7.651  0.00  0.00     0.027 H 
ATOM     21  H   LIG d   1       6.340  -0.795  -7.638  0.00  0.00     0.027 H 
ATOM     22  H   LIG d   1       8.498  -1.237  -6.663  0.00  0.00     0.031 H 
ATOM     23  H   LIG d   1       7.833  -2.469  -5.572  0.00  0.00     0.031 H 
ATOM     24  H   LIG d   1       8.178  -0.033  -4.525  0.00  0.00     0.057 H 
ATOM     25  H   LIG d   1       6.088   0.806  -4.094  0.00  0.00     0.057 H 
ATOM     26  H   LIG d   1       2.448   0.658  -3.368  0.00  0.00     0.027 H 
ATOM     27  H   LIG d   1       3.694   1.484  -4.303  0.00  0.00     0.027 H 
ATOM     28  H   LIG d   1       3.920   1.543  -1.769  0.00  0.00     0.026 H 
ATOM     29  H   LIG d   1       5.371   1.070  -2.641  0.00  0.00     0.026 H 
ATOM     30  H   LIG d   1       3.407  -0.768  -1.208  0.00  0.00     0.027 H 
ATOM     31  H   LIG d   1       5.088  -0.415  -0.743  0.00  0.00     0.027 H 
ATOM     32  H   LIG d   1       4.979  -2.590  -1.881  0.00  0.00     0.029 H 
ATOM     33  H   LIG d   1       5.853  -1.425  -2.908  0.00  0.00     0.029 H 
ENDROOT
BRANCH   1  34
ATOM     34  C   LIG d   1       5.490  -4.299  -5.892  0.00  0.00     0.015 C 
BRANCH  34  35
ATOM     35  C   LIG d   1       5.324  -4.076  -7.396  0.00  0.00    -0.055 C 
ATOM     36  H   LIG d   1       4.592  -3.286  -7.568  0.00  0.00     0.024 H 
ATOM     37  H   LIG d   1       6.281  -3.784  -7.828  0.00  0.00     0.024 H 
ATOM     38  H   LIG d   1       4.981  -4.998  -7.865  0.00  0.00     0.024 H 
ENDBRANCH  34  35
BRANCH  34  39
ATOM     39  C   LIG d   1       6.884  -4.863  -5.611  0.00  0.00    -0.055 C 
ATOM     40  H   LIG d   1       6.870  -5.946  -5.735  0.00  0.00     0.024 H 
ATOM     41  H   LIG d   1       7.600  -4.426  -6.308  0.00  0.00     0.024 H 
ATOM     42  H   LIG d   1       7.176  -4.618  -4.589  0.00  0.00     0.024 H 
ENDBRANCH  34  39
BRANCH  34  43
ATOM     43  C   LIG d   1       4.432  -5.291  -5.403  0.00  0.00     0.052 C 
ATOM     44  H   LIG d   1       4.803  -6.308  -5.523  0.00  0.00     0.056 H 
ATOM     45  H   LIG d   1       4.217  -5.104  -4.350  0.00  0.00     0.056 H 
BRANCH  43  46
ATOM     46  O   LIG d   1       3.235  -5.127  -6.169  0.00  0.00    -0.394 OA
ATOM     47  H   LIG d   1       3.322  -4.507  -6.906  0.00  0.00     0.209 HD
ENDBRANCH  43  46
ENDBRANCH  34  43
ENDBRANCH   1  34
TORSDOF 5
ENDMDL
MODEL 2
REMARK VINA RESULT:      -5.9      2.381      3.506
REMARK  5 active torsions:
REMARK  status: ('A' for Active; 'I' for Inactive)
REMARK    1  A    between atoms: C_1  and  C_2 
REMARK    2  A    between atoms: C_2  and  C_3 
REMARK    3  A    between atoms: C_2  and  C_4 
REMARK    4  A    between atoms: C_2  and  C_6 
REMARK    5  A    between atoms: C_4  and  O_5 
ROOT
ATOM      1  C   LIG d   1       5.902  -0.459  -6.052  0.00  0.00     0.070 C 
ATOM      2  H   LIG d   1       5.894  -1.530  -5.859  0.00  0.00     0.060 H 
ATOM      3  C   LIG d   1       6.970   0.221  -5.200  0.00  0.00    -0.007 C 
ATOM      4  H   LIG d   1       7.003   1.290  -5.434  0.00  0.00     0.033 H 
ATOM      5  C   LIG d   1       8.341  -0.408  -5.471  0.00  0.00    -0.044 C 
ATOM      6  C   LIG d   1       8.246  -1.921  -5.273  0.00  0.00    -0.034 C 
ATOM      7  C   LIG d   1       7.596  -2.224  -3.955  0.00  0.00    -0.088 C 
ATOM      8  C   LIG d   1       6.918  -1.356  -3.269  0.00  0.00    -0.084 C 
ATOM      9  C   LIG d   1       6.641   0.041  -3.715  0.00  0.00    -0.013 C 
ATOM     10  H   LIG d   1       7.325   0.702  -3.155  0.00  0.00     0.035 H 
ATOM     11  C   LIG d   1       5.225   0.499  -3.419  0.00  0.00    -0.008 C 
ATOM     12  H   LIG d   1       5.224   1.607  -3.569  0.00  0.00     0.033 H 
ATOM     13  C   LIG d   1       4.831   0.273  -1.969  0.00  0.00    -0.047 C 
ATOM     14  C   LIG d   1       4.293  -1.111  -1.658  0.00  0.00    -0.053 C 
ATOM     15  C   LIG d   1       3.272  -1.586  -2.687  0.00  0.00    -0.051 C 
ATOM     16  C   LIG d   1       3.899  -1.524  -4.083  0.00  0.00    -0.026 C 
ATOM     17  C   LIG d   1       4.200  -0.058  -4.393  0.00  0.00     0.062 C 
ATOM     18  H   LIG d   1       3.260   0.510  -4.266  0.00  0.00     0.060 H 
ATOM     19  O   LIG d   1       4.622   0.091  -5.741  0.00  0.00    -0.372 OA
ATOM     20  H   LIG d   1       8.675  -0.185  -6.484  0.00  0.00     0.027 H 
ATOM     21  H   LIG d   1       9.072  -0.001  -4.765  0.00  0.00     0.027 H 
ATOM     22  H   LIG d   1       9.251  -2.347  -5.281  0.00  0.00     0.031 H 
ATOM     23  H   LIG d   1       7.665  -2.366  -6.078  0.00  0.00     0.031 H 
ATOM     24  H   LIG d   1       7.718  -3.214  -3.543  0.00  0.00     0.057 H 
ATOM     25  H   LIG d   1       6.556  -1.674  -2.305  0.00  0.00     0.057 H 
ATOM     26  H   LIG d   1       4.074   1.020  -1.689  0.00  0.00     0.027 H 
ATOM     27  H   LIG d   1       5.708   0.464  -1.332  0.00  0.00     0.027 H 
ATOM     28  H   LIG d   1       3.793  -1.077  -0.673  0.00  0.00     0.026 H 
ATOM     29  H   LIG d   1       5.095  -1.841  -1.574  0.00  0.00     0.026 H 
ATOM     30  H   LIG d   1       2.392  -0.942  -2.658  0.00  0.00     0.027 H 
ATOM     31  H   LIG d   1       2.977  -2.612  -2.469  0.00  0.00     0.027 H 
ATOM     32  H   LIG d   1       3.195  -1.916  -4.815  0.00  0.00     0.029 H 
ATOM     33  H   LIG d   1       4.815  -2.107  -4.099  0.00  0.00     0.029 H 
ENDROOT
BRANCH   1  34
ATOM     34  C   LIG d   1       6.188  -0.213  -7.538  0.00  0.00     0.015 C 
BRANCH  34  35
ATOM     35  C   LIG d   1       7.201   0.925  -7.680  0.00  0.00    -0.055 C 
ATOM     36  H   LIG d   1       7.711   1.079  -6.729  0.00  0.00     0.024 H 
ATOM     37  H   LIG d   1       7.931   0.667  -8.446  0.00  0.00     0.024 H 
ATOM     38  H   LIG d   1       6.681   1.840  -7.966  0.00  0.00     0.024 H 
ENDBRANCH  34  35
BRANCH  34  39
ATOM     39  C   LIG d   1       6.760  -1.486  -8.166  0.00  0.00    -0.055 C 
ATOM     40  H   LIG d   1       5.958  -2.210  -8.313  0.00  0.00     0.024 H 
ATOM     41  H   LIG d   1       7.213  -1.244  -9.127  0.00  0.00     0.024 H 
ATOM     42  H   LIG d   1       7.515  -1.910  -7.504  0.00  0.00     0.024 H 
ENDBRANCH  34  39
BRANCH  34  43
ATOM     43  C   LIG d   1       4.889   0.168  -8.251  0.00  0.00     0.052 C 
ATOM     44  H   LIG d   1       4.894  -0.240  -9.261  0.00  0.00     0.056 H 
ATOM     45  H   LIG d   1       4.039  -0.238  -7.699  0.00  0.00     0.056 H 
BRANCH  43  46
ATOM     46  O   LIG d   1       4.779   1.592  -8.312  0.00  0.00    -0.394 OA
ATOM     47  H   LIG d   1       4.851   1.953  -9.206  0.00  0.00     0.209 HD
ENDBRANCH  43  46
ENDBRANCH  34  43
ENDBRANCH   1  34
TORSDOF 5
ENDMDL
MODEL 3
REMARK VINA RESULT:      -5.7      2.200      3.982
REMARK  5 active torsions:
REMARK  status: ('A' for Active; 'I' for Inactive)
REMARK    1  A    between atoms: C_1  and  C_2 
REMARK    2  A    between atoms: C_2  and  C_3 
REMARK    3  A    between atoms: C_2  and  C_4 
REMARK    4  A    between atoms: C_2  and  C_6 
REMARK    5  A    between atoms: C_4  and  O_5 
ROOT
ATOM      1  C   LIG d   1       6.767  -0.764  -5.264  0.00  0.00     0.070 C 
ATOM      2  H   LIG d   1       6.020  -1.255  -5.885  0.00  0.00     0.060 H 
ATOM      3  C   LIG d   1       7.180  -1.681  -4.115  0.00  0.00    -0.007 C 
ATOM      4  H   LIG d   1       7.964  -1.199  -3.523  0.00  0.00     0.033 H 
ATOM      5  C   LIG d   1       7.696  -3.015  -4.665  0.00  0.00    -0.044 C 
ATOM      6  C   LIG d   1       6.645  -3.613  -5.600  0.00  0.00    -0.034 C 
ATOM      7  C   LIG d   1       5.304  -3.616  -4.927  0.00  0.00    -0.088 C 
ATOM      8  C   LIG d   1       5.025  -2.913  -3.873  0.00  0.00    -0.084 C 
ATOM      9  C   LIG d   1       5.972  -1.963  -3.217  0.00  0.00    -0.013 C 
ATOM     10  H   LIG d   1       6.358  -2.463  -2.312  0.00  0.00     0.035 H 
ATOM     11  C   LIG d   1       5.317  -0.668  -2.774  0.00  0.00    -0.008 C 
ATOM     12  H   LIG d   1       6.053  -0.169  -2.097  0.00  0.00     0.033 H 
ATOM     13  C   LIG d   1       4.071  -0.903  -1.937  0.00  0.00    -0.047 C 
ATOM     14  C   LIG d   1       2.793  -1.107  -2.730  0.00  0.00    -0.053 C 
ATOM     15  C   LIG d   1       2.635  -0.089  -3.855  0.00  0.00    -0.051 C 
ATOM     16  C   LIG d   1       3.873  -0.138  -4.756  0.00  0.00    -0.026 C 
ATOM     17  C   LIG d   1       5.074   0.302  -3.919  0.00  0.00     0.062 C 
ATOM     18  H   LIG d   1       4.836   1.291  -3.487  0.00  0.00     0.060 H 
ATOM     19  O   LIG d   1       6.226   0.447  -4.737  0.00  0.00    -0.372 OA
ATOM     20  H   LIG d   1       8.635  -2.875  -5.199  0.00  0.00     0.027 H 
ATOM     21  H   LIG d   1       7.868  -3.707  -3.833  0.00  0.00     0.027 H 
ATOM     22  H   LIG d   1       6.925  -4.639  -5.844  0.00  0.00     0.031 H 
ATOM     23  H   LIG d   1       6.592  -3.032  -6.519  0.00  0.00     0.031 H 
ATOM     24  H   LIG d   1       4.534  -4.257  -5.329  0.00  0.00     0.057 H 
ATOM     25  H   LIG d   1       4.047  -3.051  -3.441  0.00  0.00     0.057 H 
ATOM     26  H   LIG d   1       3.935  -0.046  -1.260  0.00  0.00     0.027 H 
ATOM     27  H   LIG d   1       4.237  -1.783  -1.298  0.00  0.00     0.027 H 
ATOM     28  H   LIG d   1       1.935  -0.991  -2.044  0.00  0.00     0.026 H 
ATOM     29  H   LIG d   1       2.733  -2.114  -3.136  0.00  0.00     0.026 H 
ATOM     30  H   LIG d   1       2.533   0.913  -3.436  0.00  0.00     0.027 H 
ATOM     31  H   LIG d   1       1.750  -0.325  -4.446  0.00  0.00     0.027 H 
ATOM     32  H   LIG d   1       3.740   0.546  -5.593  0.00  0.00     0.029 H 
ATOM     33  H   LIG d   1       4.020  -1.150  -5.122  0.00  0.00     0.029 H 
ENDROOT
BRANCH   1  34
ATOM     34  C   LIG d   1       7.991  -0.419  -6.119  0.00  0.00     0.015 C 
BRANCH  34  35
ATOM     35  C   LIG d   1       9.264  -0.806  -5.365  0.00  0.00    -0.055 C 
ATOM     36  H   LIG d   1       9.096  -0.708  -4.292  0.00  0.00     0.024 H 
ATOM     37  H   LIG d   1       9.525  -1.839  -5.598  0.00  0.00     0.024 H 
ATOM     38  H   LIG d   1      10.080  -0.149  -5.667  0.00  0.00     0.024 H 
ENDBRANCH  34  35
BRANCH  34  39
ATOM     39  C   LIG d   1       7.926  -1.188  -7.439  0.00  0.00    -0.055 C 
ATOM     40  H   LIG d   1       7.036  -1.818  -7.450  0.00  0.00     0.024 H 
ATOM     41  H   LIG d   1       7.882  -0.482  -8.269  0.00  0.00     0.024 H 
ATOM     42  H   LIG d   1       8.814  -1.813  -7.540  0.00  0.00     0.024 H 
ENDBRANCH  34  39
BRANCH  34  43
ATOM     43  C   LIG d   1       8.005   1.085  -6.405  0.00  0.00     0.052 C 
ATOM     44  H   LIG d   1       7.898   1.634  -5.470  0.00  0.00     0.056 H 
ATOM     45  H   LIG d   1       8.948   1.355  -6.881  0.00  0.00     0.056 H 
BRANCH  43  46
ATOM     46  O   LIG d   1       6.921   1.413  -7.277  0.00  0.00    -0.394 OA
ATOM     47  H   LIG d   1       6.519   0.648  -7.711  0.00  0.00     0.209 HD
ENDBRANCH  43  46
ENDBRANCH  34  43
ENDBRANCH   1  34
TORSDOF 5
ENDMDL
MODEL 4
REMARK VINA RESULT:      -5.7      1.865      2.847
REMARK  5 active torsions:
REMARK  status: ('A' for Active; 'I' for Inactive)
REMARK    1  A    between atoms: C_1  and  C_2 
REMARK    2  A    between atoms: C_2  and  C_3 
REMARK    3  A    between atoms: C_2  and  C_4 
REMARK    4  A    between atoms: C_2  and  C_6 
REMARK    5  A    between atoms: C_4  and  O_5 
ROOT
ATOM      1  C   LIG d   1       6.424  -2.323  -4.616  0.00  0.00     0.070 C 
ATOM      2  H   LIG d   1       6.597  -1.379  -5.129  0.00  0.00     0.060 H 
ATOM      3  C   LIG d   1       5.027  -2.848  -4.939  0.00  0.00    -0.007 C 
ATOM      4  H   LIG d   1       4.878  -3.820  -4.457  0.00  0.00     0.033 H 
ATOM      5  C   LIG d   1       4.856  -2.995  -6.455  0.00  0.00    -0.044 C 
ATOM      6  C   LIG d   1       5.201  -1.667  -7.129  0.00  0.00    -0.034 C 
ATOM      7  C   LIG d   1       4.465  -0.546  -6.458  0.00  0.00    -0.088 C 
ATOM      8  C   LIG d   1       3.909  -0.647  -5.289  0.00  0.00    -0.084 C 
ATOM      9  C   LIG d   1       3.972  -1.864  -4.427  0.00  0.00    -0.013 C 
ATOM     10  H   LIG d   1       2.995  -2.372  -4.512  0.00  0.00     0.035 H 
ATOM     11  C   LIG d   1       4.194  -1.553  -2.959  0.00  0.00    -0.008 C 
ATOM     12  H   LIG d   1       3.976  -2.501  -2.409  0.00  0.00     0.033 H 
ATOM     13  C   LIG d   1       3.210  -0.524  -2.426  0.00  0.00    -0.047 C 
ATOM     14  C   LIG d   1       3.612   0.923  -2.644  0.00  0.00    -0.053 C 
ATOM     15  C   LIG d   1       5.074   1.182  -2.291  0.00  0.00    -0.051 C 
ATOM     16  C   LIG d   1       5.961   0.223  -3.090  0.00  0.00    -0.026 C 
ATOM     17  C   LIG d   1       5.636  -1.200  -2.633  0.00  0.00     0.062 C 
ATOM     18  H   LIG d   1       5.760  -1.236  -1.536  0.00  0.00     0.060 H 
ATOM     19  O   LIG d   1       6.545  -2.128  -3.207  0.00  0.00    -0.372 OA
ATOM     20  H   LIG d   1       5.497  -3.787  -6.840  0.00  0.00     0.027 H 
ATOM     21  H   LIG d   1       3.815  -3.250  -6.679  0.00  0.00     0.027 H 
ATOM     22  H   LIG d   1       4.904  -1.711  -8.179  0.00  0.00     0.031 H 
ATOM     23  H   LIG d   1       6.273  -1.488  -7.071  0.00  0.00     0.031 H 
ATOM     24  H   LIG d   1       4.372   0.391  -6.985  0.00  0.00     0.057 H 
ATOM     25  H   LIG d   1       3.351   0.207  -4.941  0.00  0.00     0.057 H 
ATOM     26  H   LIG d   1       3.070  -0.696  -1.349  0.00  0.00     0.027 H 
ATOM     27  H   LIG d   1       2.231  -0.696  -2.899  0.00  0.00     0.027 H 
ATOM     28  H   LIG d   1       2.987   1.559  -1.993  0.00  0.00     0.026 H 
ATOM     29  H   LIG d   1       3.420   1.240  -3.666  0.00  0.00     0.026 H 
ATOM     30  H   LIG d   1       5.231   1.016  -1.225  0.00  0.00     0.027 H 
ATOM     31  H   LIG d   1       5.337   2.210  -2.541  0.00  0.00     0.027 H 
ATOM     32  H   LIG d   1       7.008   0.442  -2.885  0.00  0.00     0.029 H 
ATOM     33  H   LIG d   1       5.759   0.333  -4.151  0.00  0.00     0.029 H 
ENDROOT
BRANCH   1  34
ATOM     34  C   LIG d   1       7.478  -3.344  -5.058  0.00  0.00     0.015 C 
BRANCH  34  35
ATOM     35  C   LIG d   1       6.790  -4.661  -5.422  0.00  0.00    -0.055 C 
ATOM     36  H   LIG d   1       7.537  -5.381  -5.755  0.00  0.00     0.024 H 
ATOM     37  H   LIG d   1       6.271  -5.053  -4.548  0.00  0.00     0.024 H 
ATOM     38  H   LIG d   1       6.071  -4.486  -6.223  0.00  0.00     0.024 H 
ENDBRANCH  34  35
BRANCH  34  39
ATOM     39  C   LIG d   1       8.229  -2.807  -6.278  0.00  0.00    -0.055 C 
ATOM     40  H   LIG d   1       8.656  -1.831  -6.040  0.00  0.00     0.024 H 
ATOM     41  H   LIG d   1       9.029  -3.498  -6.545  0.00  0.00     0.024 H 
ATOM     42  H   LIG d   1       7.539  -2.707  -7.115  0.00  0.00     0.024 H 
ENDBRANCH  34  39
BRANCH  34  43
ATOM     43  C   LIG d   1       8.466  -3.583  -3.915  0.00  0.00     0.052 C 
ATOM     44  H   LIG d   1       7.932  -3.581  -2.965  0.00  0.00     0.056 H 
ATOM     45  H   LIG d   1       8.957  -4.548  -4.054  0.00  0.00     0.056 H 
BRANCH  43  46
ATOM     46  O   LIG d   1       9.450  -2.546  -3.911  0.00  0.00    -0.394 OA
ATOM     47  H   LIG d   1       9.093  -1.666  -3.726  0.00  0.00     0.209 HD
ENDBRANCH  43  46
ENDBRANCH  34  43
ENDBRANCH   1  34
TORSDOF 5
ENDMDL
MODEL 5
REMARK VINA RESULT:      -5.6      2.508      3.880
REMARK  5 active torsions:
REMARK  status: ('A' for Active; 'I' for Inactive)
REMARK    1  A    between atoms: C_1  and  C_2 
REMARK    2  A    between atoms: C_2  and  C_3 
REMARK    3  A    between atoms: C_2  and  C_4 
REMARK    4  A    between atoms: C_2  and  C_6 
REMARK    5  A    between atoms: C_4  and  O_5 
ROOT
ATOM      1  C   LIG d   1       3.880  -0.649  -6.689  0.00  0.00     0.070 C 
ATOM      2  H   LIG d   1       3.255  -1.498  -6.421  0.00  0.00     0.060 H 
ATOM      3  C   LIG d   1       5.355  -1.013  -6.532  0.00  0.00    -0.007 C 
ATOM      4  H   LIG d   1       5.978  -0.169  -6.847  0.00  0.00     0.033 H 
ATOM      5  C   LIG d   1       5.688  -2.243  -7.382  0.00  0.00    -0.044 C 
ATOM      6  C   LIG d   1       4.721  -3.373  -7.029  0.00  0.00    -0.034 C 
ATOM      7  C   LIG d   1       4.669  -3.555  -5.540  0.00  0.00    -0.088 C 
ATOM      8  C   LIG d   1       5.101  -2.675  -4.691  0.00  0.00    -0.084 C 
ATOM      9  C   LIG d   1       5.655  -1.341  -5.067  0.00  0.00    -0.013 C 
ATOM     10  H   LIG d   1       6.753  -1.408  -4.974  0.00  0.00     0.035 H 
ATOM     11  C   LIG d   1       5.192  -0.217  -4.158  0.00  0.00    -0.008 C 
ATOM     12  H   LIG d   1       5.854   0.654  -4.386  0.00  0.00     0.033 H 
ATOM     13  C   LIG d   1       5.407  -0.532  -2.687  0.00  0.00    -0.047 C 
ATOM     14  C   LIG d   1       4.293  -1.326  -2.030  0.00  0.00    -0.053 C 
ATOM     15  C   LIG d   1       2.908  -0.791  -2.382  0.00  0.00    -0.051 C 
ATOM     16  C   LIG d   1       2.755  -0.756  -3.906  0.00  0.00    -0.026 C 
ATOM     17  C   LIG d   1       3.774   0.245  -4.452  0.00  0.00     0.062 C 
ATOM     18  H   LIG d   1       3.611   1.207  -3.933  0.00  0.00     0.060 H 
ATOM     19  O   LIG d   1       3.569   0.457  -5.842  0.00  0.00    -0.372 OA
ATOM     20  H   LIG d   1       5.618  -2.010  -8.443  0.00  0.00     0.027 H 
ATOM     21  H   LIG d   1       6.711  -2.568  -7.163  0.00  0.00     0.027 H 
ATOM     22  H   LIG d   1       5.068  -4.299  -7.489  0.00  0.00     0.031 H 
ATOM     23  H   LIG d   1       3.726  -3.141  -7.404  0.00  0.00     0.031 H 
ATOM     24  H   LIG d   1       4.269  -4.480  -5.154  0.00  0.00     0.057 H 
ATOM     25  H   LIG d   1       5.071  -2.949  -3.649  0.00  0.00     0.057 H 
ATOM     26  H   LIG d   1       5.539   0.413  -2.140  0.00  0.00     0.027 H 
ATOM     27  H   LIG d   1       6.351  -1.089  -2.580  0.00  0.00     0.027 H 
ATOM     28  H   LIG d   1       4.416  -1.258  -0.935  0.00  0.00     0.026 H 
ATOM     29  H   LIG d   1       4.353  -2.382  -2.285  0.00  0.00     0.026 H 
ATOM     30  H   LIG d   1       2.791   0.218  -1.984  0.00  0.00     0.027 H 
ATOM     31  H   LIG d   1       2.142  -1.439  -1.957  0.00  0.00     0.027 H 
ATOM     32  H   LIG d   1       1.748  -0.428  -4.161  0.00  0.00     0.029 H 
ATOM     33  H   LIG d   1       2.940  -1.743  -4.316  0.00  0.00     0.029 H 
ENDROOT
BRANCH   1  34
ATOM     34  C   LIG d   1       3.597  -0.245  -8.139  0.00  0.00     0.015 C 
BRANCH  34  35
ATOM     35  C   LIG d   1       4.919  -0.039  -8.879  0.00  0.00    -0.055 C 
ATOM     36  H   LIG d   1       5.666   0.352  -8.188  0.00  0.00     0.024 H 
ATOM     37  H   LIG d   1       5.262  -0.991  -9.283  0.00  0.00     0.024 H 
ATOM     38  H   LIG d   1       4.773   0.670  -9.695  0.00  0.00     0.024 H 
ENDBRANCH  34  35
BRANCH  34  39
ATOM     39  C   LIG d   1       2.793  -1.349  -8.829  0.00  0.00    -0.055 C 
ATOM     40  H   LIG d   1       3.177  -2.323  -8.523  0.00  0.00     0.024 H 
ATOM     41  H   LIG d   1       1.744  -1.266  -8.545  0.00  0.00     0.024 H 
ATOM     42  H   LIG d   1       2.887  -1.245  -9.911  0.00  0.00     0.024 H 
ENDBRANCH  34  39
BRANCH  34  43
ATOM     43  C   LIG d   1       2.793   1.057  -8.157  0.00  0.00     0.052 C 
ATOM     44  H   LIG d   1       2.088   1.039  -8.988  0.00  0.00     0.056 H 
ATOM     45  H   LIG d   1       2.246   1.160  -7.219  0.00  0.00     0.056 H 
BRANCH  43  46
ATOM     46  O   LIG d   1       3.684   2.165  -8.312  0.00  0.00    -0.394 OA
ATOM     47  H   LIG d   1       4.260   2.315  -7.550  0.00  0.00     0.209 HD
ENDBRANCH  43  46
ENDBRANCH  34  43
ENDBRANCH   1  34
TORSDOF 5
ENDMDL
MODEL 6
REMARK VINA RESULT:      -5.6      1.427      1.763
REMARK  5 active torsions:
REMARK  status: ('A' for Active; 'I' for Inactive)
REMARK    1  A    between atoms: C_1  and  C_2 
REMARK    2  A    between atoms: C_2  and  C_3 
REMARK    3  A    between atoms: C_2  and  C_4 
REMARK    4  A    between atoms: C_2  and  C_6 
REMARK    5  A    between atoms: C_4  and  O_5 
ROOT
ATOM      1  C   LIG d   1       5.550  -3.443  -5.505  0.00  0.00     0.070 C 
ATOM      2  H   LIG d   1       5.718  -3.914  -4.538  0.00  0.00     0.060 H 
ATOM      3  C   LIG d   1       6.692  -2.482  -5.827  0.00  0.00    -0.007 C 
ATOM      4  H   LIG d   1       6.539  -2.048  -6.820  0.00  0.00     0.033 H 
ATOM      5  C   LIG d   1       8.033  -3.224  -5.790  0.00  0.00    -0.044 C 
ATOM      6  C   LIG d   1       8.172  -3.940  -4.447  0.00  0.00    -0.034 C 
ATOM      7  C   LIG d   1       7.880  -2.986  -3.326  0.00  0.00    -0.088 C 
ATOM      8  C   LIG d   1       7.274  -1.850  -3.486  0.00  0.00    -0.084 C 
ATOM      9  C   LIG d   1       6.733  -1.358  -4.787  0.00  0.00    -0.013 C 
ATOM     10  H   LIG d   1       7.439  -0.599  -5.166  0.00  0.00     0.035 H 
ATOM     11  C   LIG d   1       5.375  -0.692  -4.663  0.00  0.00    -0.008 C 
ATOM     12  H   LIG d   1       5.204  -0.163  -5.633  0.00  0.00     0.033 H 
ATOM     13  C   LIG d   1       5.352   0.385  -3.590  0.00  0.00    -0.047 C 
ATOM     14  C   LIG d   1       5.073  -0.115  -2.185  0.00  0.00    -0.053 C 
ATOM     15  C   LIG d   1       3.911  -1.103  -2.136  0.00  0.00    -0.051 C 
ATOM     16  C   LIG d   1       4.194  -2.259  -3.101  0.00  0.00    -0.026 C 
ATOM     17  C   LIG d   1       4.233  -1.683  -4.517  0.00  0.00     0.062 C 
ATOM     18  H   LIG d   1       3.284  -1.141  -4.684  0.00  0.00     0.060 H 
ATOM     19  O   LIG d   1       4.317  -2.726  -5.477  0.00  0.00    -0.372 OA
ATOM     20  H   LIG d   1       8.098  -3.943  -6.605  0.00  0.00     0.027 H 
ATOM     21  H   LIG d   1       8.849  -2.502  -5.897  0.00  0.00     0.027 H 
ATOM     22  H   LIG d   1       9.193  -4.310  -4.343  0.00  0.00     0.031 H 
ATOM     23  H   LIG d   1       7.483  -4.781  -4.400  0.00  0.00     0.031 H 
ATOM     24  H   LIG d   1       8.213  -3.249  -2.334  0.00  0.00     0.057 H 
ATOM     25  H   LIG d   1       7.182  -1.221  -2.615  0.00  0.00     0.057 H 
ATOM     26  H   LIG d   1       4.591   1.133  -3.859  0.00  0.00     0.027 H 
ATOM     27  H   LIG d   1       6.320   0.908  -3.596  0.00  0.00     0.027 H 
ATOM     28  H   LIG d   1       4.809   0.752  -1.554  0.00  0.00     0.026 H 
ATOM     29  H   LIG d   1       5.957  -0.566  -1.740  0.00  0.00     0.026 H 
ATOM     30  H   LIG d   1       2.988  -0.603  -2.432  0.00  0.00     0.027 H 
ATOM     31  H   LIG d   1       3.802  -1.496  -1.125  0.00  0.00     0.027 H 
ATOM     32  H   LIG d   1       3.395  -2.995  -3.028  0.00  0.00     0.029 H 
ATOM     33  H   LIG d   1       5.146  -2.717  -2.855  0.00  0.00     0.029 H 
ENDROOT
BRANCH   1  34
ATOM     34  C   LIG d   1       5.460  -4.524  -6.588  0.00  0.00     0.015 C 
BRANCH  34  35
ATOM     35  C   LIG d   1       6.442  -4.199  -7.714  0.00  0.00    -0.055 C 
ATOM     36  H   LIG d   1       5.897  -4.086  -8.651  0.00  0.00     0.024 H 
ATOM     37  H   LIG d   1       6.965  -3.271  -7.484  0.00  0.00     0.024 H 
ATOM     38  H   LIG d   1       7.166  -5.009  -7.810  0.00  0.00     0.024 H 
ENDBRANCH  34  35
BRANCH  34  39
ATOM     39  C   LIG d   1       5.809  -5.884  -5.982  0.00  0.00    -0.055 C 
ATOM     40  H   LIG d   1       5.031  -6.179  -5.278  0.00  0.00     0.024 H 
ATOM     41  H   LIG d   1       5.881  -6.628  -6.777  0.00  0.00     0.024 H 
ATOM     42  H   LIG d   1       6.764  -5.816  -5.461  0.00  0.00     0.024 H 
ENDBRANCH  34  39
BRANCH  34  43
ATOM     43  C   LIG d   1       4.036  -4.565  -7.148  0.00  0.00     0.052 C 
ATOM     44  H   LIG d   1       3.703  -3.553  -7.371  0.00  0.00     0.056 H 
ATOM     45  H   LIG d   1       4.023  -5.162  -8.062  0.00  0.00     0.056 H 
BRANCH  43  46
ATOM     46  O   LIG d   1       3.162  -5.155  -6.183  0.00  0.00    -0.394 OA
ATOM     47  H   LIG d   1       3.618  -5.534  -5.419  0.00  0.00     0.209 HD
ENDBRANCH  43  46
ENDBRANCH  34  43
ENDBRANCH   1  34
TORSDOF 5
ENDMDL
MODEL 7
REMARK VINA RESULT:      -5.4      2.528      4.035
REMARK  5 active torsions:
REMARK  status: ('A' for Active; 'I' for Inactive)
REMARK    1  A    between atoms: C_1  and  C_2 
REMARK    2  A    between atoms: C_2  and  C_3 
REMARK    3  A    between atoms: C_2  and  C_4 
REMARK    4  A    between atoms: C_2  and  C_6 
REMARK    5  A    between atoms: C_4  and  O_5 
ROOT
ATOM      1  C   LIG d   1       6.173  -0.143  -5.920  0.00  0.00     0.070 C 
ATOM      2  H   LIG d   1       5.550   0.748  -5.879  0.00  0.00     0.060 H 
ATOM      3  C   LIG d   1       5.299  -1.390  -6.033  0.00  0.00    -0.007 C 
ATOM      4  H   LIG d   1       5.933  -2.278  -6.120  0.00  0.00     0.033 H 
ATOM      5  C   LIG d   1       4.388  -1.286  -7.261  0.00  0.00    -0.044 C 
ATOM      6  C   LIG d   1       3.608   0.027  -7.196  0.00  0.00    -0.034 C 
ATOM      7  C   LIG d   1       2.967   0.174  -5.848  0.00  0.00    -0.088 C 
ATOM      8  C   LIG d   1       3.309  -0.521  -4.807  0.00  0.00    -0.084 C 
ATOM      9  C   LIG d   1       4.418  -1.521  -4.788  0.00  0.00    -0.013 C 
ATOM     10  H   LIG d   1       3.953  -2.521  -4.829  0.00  0.00     0.035 H 
ATOM     11  C   LIG d   1       5.258  -1.464  -3.525  0.00  0.00    -0.008 C 
ATOM     12  H   LIG d   1       5.874  -2.396  -3.526  0.00  0.00     0.033 H 
ATOM     13  C   LIG d   1       4.416  -1.520  -2.262  0.00  0.00    -0.047 C 
ATOM     14  C   LIG d   1       3.878  -0.181  -1.789  0.00  0.00    -0.053 C 
ATOM     15  C   LIG d   1       4.938   0.915  -1.813  0.00  0.00    -0.051 C 
ATOM     16  C   LIG d   1       5.531   1.011  -3.222  0.00  0.00    -0.026 C 
ATOM     17  C   LIG d   1       6.246  -0.309  -3.515  0.00  0.00     0.062 C 
ATOM     18  H   LIG d   1       6.972  -0.484  -2.701  0.00  0.00     0.060 H 
ATOM     19  O   LIG d   1       6.967  -0.224  -4.736  0.00  0.00    -0.372 OA
ATOM     20  H   LIG d   1       4.973  -1.328  -8.179  0.00  0.00     0.027 H 
ATOM     21  H   LIG d   1       3.682  -2.122  -7.260  0.00  0.00     0.027 H 
ATOM     22  H   LIG d   1       2.830   0.019  -7.962  0.00  0.00     0.031 H 
ATOM     23  H   LIG d   1       4.276   0.866  -7.378  0.00  0.00     0.031 H 
ATOM     24  H   LIG d   1       2.161   0.884  -5.742  0.00  0.00     0.057 H 
ATOM     25  H   LIG d   1       2.729  -0.373  -3.911  0.00  0.00     0.057 H 
ATOM     26  H   LIG d   1       5.018  -1.965  -1.456  0.00  0.00     0.027 H 
ATOM     27  H   LIG d   1       3.570  -2.202  -2.433  0.00  0.00     0.027 H 
ATOM     28  H   LIG d   1       3.529  -0.295  -0.747  0.00  0.00     0.026 H 
ATOM     29  H   LIG d   1       3.015   0.130  -2.373  0.00  0.00     0.026 H 
ATOM     30  H   LIG d   1       5.731   0.678  -1.102  0.00  0.00     0.027 H 
ATOM     31  H   LIG d   1       4.487   1.871  -1.546  0.00  0.00     0.027 H 
ATOM     32  H   LIG d   1       6.248   1.831  -3.259  0.00  0.00     0.029 H 
ATOM     33  H   LIG d   1       4.738   1.178  -3.943  0.00  0.00     0.029 H 
ENDROOT
BRANCH   1  34
ATOM     34  C   LIG d   1       7.110  -0.055  -7.129  0.00  0.00     0.015 C 
BRANCH  34  35
ATOM     35  C   LIG d   1       7.218  -1.429  -7.792  0.00  0.00    -0.055 C 
ATOM     36  H   LIG d   1       6.484  -2.104  -7.352  0.00  0.00     0.024 H 
ATOM     37  H   LIG d   1       7.029  -1.332  -8.861  0.00  0.00     0.024 H 
ATOM     38  H   LIG d   1       8.220  -1.830  -7.636  0.00  0.00     0.024 H 
ENDBRANCH  34  35
BRANCH  34  39
ATOM     39  C   LIG d   1       6.553   0.954  -8.134  0.00  0.00    -0.055 C 
ATOM     40  H   LIG d   1       7.337   1.660  -8.413  0.00  0.00     0.024 H 
ATOM     41  H   LIG d   1       6.205   0.428  -9.023  0.00  0.00     0.024 H 
ATOM     42  H   LIG d   1       5.721   1.496  -7.683  0.00  0.00     0.024 H 
ENDBRANCH  34  39
BRANCH  34  43
ATOM     43  C   LIG d   1       8.497   0.399  -6.666  0.00  0.00     0.052 C 
ATOM     44  H   LIG d   1       8.842  -0.249  -5.861  0.00  0.00     0.056 H 
ATOM     45  H   LIG d   1       9.195   0.343  -7.502  0.00  0.00     0.056 H 
BRANCH  43  46
ATOM     46  O   LIG d   1       8.425   1.747  -6.196  0.00  0.00    -0.394 OA
ATOM     47  H   LIG d   1       9.107   2.327  -6.559  0.00  0.00     0.209 HD
ENDBRANCH  43  46
ENDBRANCH  34  43
ENDBRANCH   1  34
TORSDOF 5
ENDMDL
MODEL 8
REMARK VINA RESULT:      -5.3      2.052      4.969
REMARK  5 active torsions:
REMARK  status: ('A' for Active; 'I' for Inactive)
REMARK    1  A    between atoms: C_1  and  C_2 
REMARK    2  A    between atoms: C_2  and  C_3 
REMARK    3  A    between atoms: C_2  and  C_4 
REMARK    4  A    between atoms: C_2  and  C_6 
REMARK    5  A    between atoms: C_4  and  O_5 
ROOT
ATOM      1  C   LIG d   1       4.391  -0.415  -4.654  0.00  0.00     0.070 C 
ATOM      2  H   LIG d   1       5.315   0.006  -4.263  0.00  0.00     0.060 H 
ATOM      3  C   LIG d   1       4.384  -1.931  -4.466  0.00  0.00    -0.007 C 
ATOM      4  H   LIG d   1       3.433  -2.341  -4.820  0.00  0.00     0.033 H 
ATOM      5  C   LIG d   1       4.576  -2.280  -2.986  0.00  0.00    -0.044 C 
ATOM      6  C   LIG d   1       5.837  -1.587  -2.468  0.00  0.00    -0.034 C 
ATOM      7  C   LIG d   1       6.985  -1.854  -3.395  0.00  0.00    -0.088 C 
ATOM      8  C   LIG d   1       6.846  -2.301  -4.606  0.00  0.00    -0.084 C 
ATOM      9  C   LIG d   1       5.530  -2.557  -5.264  0.00  0.00    -0.013 C 
ATOM     10  H   LIG d   1       5.368  -3.649  -5.250  0.00  0.00     0.035 H 
ATOM     11  C   LIG d   1       5.484  -2.111  -6.713  0.00  0.00    -0.008 C 
ATOM     12  H   LIG d   1       4.563  -2.572  -7.146  0.00  0.00     0.033 H 
ATOM     13  C   LIG d   1       6.647  -2.654  -7.527  0.00  0.00    -0.047 C 
ATOM     14  C   LIG d   1       7.917  -1.827  -7.465  0.00  0.00    -0.053 C 
ATOM     15  C   LIG d   1       7.651  -0.334  -7.634  0.00  0.00    -0.051 C 
ATOM     16  C   LIG d   1       6.631   0.116  -6.583  0.00  0.00    -0.026 C 
ATOM     17  C   LIG d   1       5.316  -0.609  -6.872  0.00  0.00     0.062 C 
ATOM     18  H   LIG d   1       5.044  -0.402  -7.923  0.00  0.00     0.060 H 
ATOM     19  O   LIG d   1       4.277  -0.107  -6.043  0.00  0.00    -0.372 OA
ATOM     20  H   LIG d   1       3.712  -1.969  -2.401  0.00  0.00     0.027 H 
ATOM     21  H   LIG d   1       4.696  -3.363  -2.883  0.00  0.00     0.027 H 
ATOM     22  H   LIG d   1       6.079  -1.978  -1.478  0.00  0.00     0.031 H 
ATOM     23  H   LIG d   1       5.668  -0.514  -2.394  0.00  0.00     0.031 H 
ATOM     24  H   LIG d   1       7.986  -1.687  -3.028  0.00  0.00     0.057 H 
ATOM     25  H   LIG d   1       7.750  -2.518  -5.152  0.00  0.00     0.057 H 
ATOM     26  H   LIG d   1       6.331  -2.742  -8.577  0.00  0.00     0.027 H 
ATOM     27  H   LIG d   1       6.871  -3.675  -7.183  0.00  0.00     0.027 H 
ATOM     28  H   LIG d   1       8.583  -2.148  -8.286  0.00  0.00     0.026 H 
ATOM     29  H   LIG d   1       8.460  -2.000  -6.539  0.00  0.00     0.026 H 
ATOM     30  H   LIG d   1       7.253  -0.141  -8.630  0.00  0.00     0.027 H 
ATOM     31  H   LIG d   1       8.577   0.225  -7.499  0.00  0.00     0.027 H 
ATOM     32  H   LIG d   1       6.480   1.192  -6.662  0.00  0.00     0.029 H 
ATOM     33  H   LIG d   1       6.990  -0.137  -5.591  0.00  0.00     0.029 H 
ENDROOT
BRANCH   1  34
ATOM     34  C   LIG d   1       3.198   0.205  -3.919  0.00  0.00     0.015 C 
BRANCH  34  35
ATOM     35  C   LIG d   1       2.480  -0.876  -3.110  0.00  0.00    -0.055 C 
ATOM     36  H   LIG d   1       1.505  -0.507  -2.793  0.00  0.00     0.024 H 
ATOM     37  H   LIG d   1       2.348  -1.765  -3.727  0.00  0.00     0.024 H 
ATOM     38  H   LIG d   1       3.076  -1.130  -2.232  0.00  0.00     0.024 H 
ENDBRANCH  34  35
BRANCH  34  39
ATOM     39  C   LIG d   1       3.693   1.303  -2.977  0.00  0.00    -0.055 C 
ATOM     40  H   LIG d   1       4.047   0.853  -2.048  0.00  0.00     0.024 H 
ATOM     41  H   LIG d   1       4.509   1.848  -3.451  0.00  0.00     0.024 H 
ATOM     42  H   LIG d   1       2.875   1.990  -2.758  0.00  0.00     0.024 H 
ENDBRANCH  34  39
BRANCH  34  43
ATOM     43  C   LIG d   1       2.228   0.807  -4.939  0.00  0.00     0.052 C 
ATOM     44  H   LIG d   1       2.388   0.342  -5.911  0.00  0.00     0.056 H 
ATOM     45  H   LIG d   1       1.202   0.627  -4.615  0.00  0.00     0.056 H 
BRANCH  43  46
ATOM     46  O   LIG d   1       2.456   2.215  -5.039  0.00  0.00    -0.394 OA
ATOM     47  H   LIG d   1       3.249   2.450  -5.540  0.00  0.00     0.209 HD
ENDBRANCH  43  46
ENDBRANCH  34  43
ENDBRANCH   1  34
TORSDOF 5
ENDMDL
MODEL 9
REMARK VINA RESULT:      -5.2      1.987      4.791
REMARK  5 active torsions:
REMARK  status: ('A' for Active; 'I' for Inactive)
REMARK    1  A    between atoms: C_1  and  C_2 
REMARK    2  A    between atoms: C_2  and  C_3 
REMARK    3  A    between atoms: C_2  and  C_4 
REMARK    4  A    between atoms: C_2  and  C_6 
REMARK    5  A    between atoms: C_4  and  O_5 
ROOT
ATOM      1  C   LIG d   1       4.626  -0.411  -4.313  0.00  0.00     0.070 C 
ATOM      2  H   LIG d   1       4.874   0.588  -4.665  0.00  0.00     0.060 H 
ATOM      3  C   LIG d   1       5.899  -1.232  -4.122  0.00  0.00    -0.007 C 
ATOM      4  H   LIG d   1       5.644  -2.220  -3.724  0.00  0.00     0.033 H 
ATOM      5  C   LIG d   1       6.847  -0.517  -3.153  0.00  0.00    -0.044 C 
ATOM      6  C   LIG d   1       7.086   0.910  -3.648  0.00  0.00    -0.034 C 
ATOM      7  C   LIG d   1       7.467   0.890  -5.099  0.00  0.00    -0.088 C 
ATOM      8  C   LIG d   1       7.281  -0.129  -5.879  0.00  0.00    -0.084 C 
ATOM      9  C   LIG d   1       6.616  -1.399  -5.464  0.00  0.00    -0.013 C 
ATOM     10  H   LIG d   1       7.412  -2.148  -5.310  0.00  0.00     0.035 H 
ATOM     11  C   LIG d   1       5.670  -1.955  -6.513  0.00  0.00    -0.008 C 
ATOM     12  H   LIG d   1       5.438  -3.000  -6.193  0.00  0.00     0.033 H 
ATOM     13  C   LIG d   1       6.322  -2.071  -7.881  0.00  0.00    -0.047 C 
ATOM     14  C   LIG d   1       6.279  -0.808  -8.722  0.00  0.00    -0.053 C 
ATOM     15  C   LIG d   1       4.904  -0.147  -8.714  0.00  0.00    -0.051 C 
ATOM     16  C   LIG d   1       4.486   0.124  -7.266  0.00  0.00    -0.026 C 
ATOM     17  C   LIG d   1       4.337  -1.226  -6.564  0.00  0.00     0.062 C 
ATOM     18  H   LIG d   1       3.634  -1.837  -7.159  0.00  0.00     0.060 H 
ATOM     19  O   LIG d   1       3.783  -1.056  -5.268  0.00  0.00    -0.372 OA
ATOM     20  H   LIG d   1       6.429  -0.498  -2.147  0.00  0.00     0.027 H 
ATOM     21  H   LIG d   1       7.803  -1.050  -3.123  0.00  0.00     0.027 H 
ATOM     22  H   LIG d   1       7.898   1.357  -3.072  0.00  0.00     0.031 H 
ATOM     23  H   LIG d   1       6.185   1.505  -3.514  0.00  0.00     0.031 H 
ATOM     24  H   LIG d   1       7.943   1.766  -5.512  0.00  0.00     0.057 H 
ATOM     25  H   LIG d   1       7.659  -0.047  -6.886  0.00  0.00     0.057 H 
ATOM     26  H   LIG d   1       5.832  -2.885  -8.437  0.00  0.00     0.027 H 
ATOM     27  H   LIG d   1       7.371  -2.373  -7.747  0.00  0.00     0.027 H 
ATOM     28  H   LIG d   1       6.521  -1.077  -9.766  0.00  0.00     0.026 H 
ATOM     29  H   LIG d   1       7.032  -0.092  -8.403  0.00  0.00     0.026 H 
ATOM     30  H   LIG d   1       4.174  -0.808  -9.183  0.00  0.00     0.027 H 
ATOM     31  H   LIG d   1       4.944   0.795  -9.261  0.00  0.00     0.027 H 
ATOM     32  H   LIG d   1       3.531   0.648  -7.256  0.00  0.00     0.029 H 
ATOM     33  H   LIG d   1       5.244   0.724  -6.771  0.00  0.00     0.029 H 
ENDROOT
BRANCH   1  34
ATOM     34  C   LIG d   1       3.868  -0.310  -2.985  0.00  0.00     0.015 C 
BRANCH  34  35
ATOM     35  C   LIG d   1       2.390  -0.628  -3.216  0.00  0.00    -0.055 C 
ATOM     36  H   LIG d   1       1.840  -0.498  -2.284  0.00  0.00     0.024 H 
ATOM     37  H   LIG d   1       1.988   0.046  -3.973  0.00  0.00     0.024 H 
ATOM     38  H   LIG d   1       2.289  -1.659  -3.558  0.00  0.00     0.024 H 
ENDBRANCH  34  35
BRANCH  34  39
ATOM     39  C   LIG d   1       4.454  -1.309  -1.985  0.00  0.00    -0.055 C 
ATOM     40  H   LIG d   1       5.356  -0.889  -1.538  0.00  0.00     0.024 H 
ATOM     41  H   LIG d   1       3.722  -1.513  -1.204  0.00  0.00     0.024 H 
ATOM     42  H   LIG d   1       4.703  -2.237  -2.502  0.00  0.00     0.024 H 
ENDBRANCH  34  39
BRANCH  34  43
ATOM     43  C   LIG d   1       4.004   1.108  -2.427  0.00  0.00     0.052 C 
ATOM     44  H   LIG d   1       3.311   1.242  -1.598  0.00  0.00     0.056 H 
ATOM     45  H   LIG d   1       5.026   1.264  -2.076  0.00  0.00     0.056 H 
BRANCH  43  46
ATOM     46  O   LIG d   1       3.706   2.055  -3.456  0.00  0.00    -0.394 OA
ATOM     47  H   LIG d   1       4.481   2.527  -3.792  0.00  0.00     0.209 HD
ENDBRANCH  43  46
ENDBRANCH  34  43
ENDBRANCH   1  34
TORSDOF 5
ENDMDL
