MODEL 1
REMARK VINA RESULT:      -5.8      0.000      0.000
REMARK  5 active torsions:
REMARK  status: ('A' for Active; 'I' for Inactive)
REMARK    1  A    between atoms: C_1  and  S_2 
REMARK    2  A    between atoms: S_2  and  N_5 
REMARK       I    between atoms: N_8  and  C_23 
REMARK    3  A    between atoms: C_10  and  C_12 
REMARK       I    between atoms: C_12  and  N_14 
REMARK    4  A    between atoms: N_14  and  C_15 
REMARK    5  A    between atoms: C_23  and  C_25 
ROOT
ATOM      1  N   LIG d   1      11.537   4.532  -2.627  0.00  0.00    -0.167 N 
ATOM      2  C   LIG d   1      12.358   5.343  -1.719  0.00  0.00     0.037 C 
ATOM      3  C   LIG d   1      11.960   6.816  -1.883  0.00  0.00     0.029 C 
ATOM      4  N   LIG d   1      10.496   6.918  -1.797  0.00  0.00    -0.293 N 
ATOM      5  C   LIG d   1       9.675   6.105  -2.705  0.00  0.00     0.041 C 
ATOM      6  C   LIG d   1      10.073   4.634  -2.542  0.00  0.00     0.123 C 
ATOM      7  H   LIG d   1       9.735   4.269  -1.572  0.00  0.00     0.059 H 
ATOM      8  C   LIG d   1       9.918   7.743  -0.902  0.00  0.00     0.267 C 
ATOM      9  O   LIG d   1       8.707   7.790  -0.812  0.00  0.00    -0.268 OA
ATOM     10  H   LIG d   1      13.412   5.220  -1.969  0.00  0.00     0.046 H 
ATOM     11  H   LIG d   1      12.185   5.030  -0.690  0.00  0.00     0.046 H 
ATOM     12  H   LIG d   1      12.296   7.180  -2.853  0.00  0.00     0.048 H 
ATOM     13  H   LIG d   1      12.416   7.408  -1.088  0.00  0.00     0.048 H 
ATOM     14  H   LIG d   1       8.622   6.230  -2.455  0.00  0.00     0.049 H 
ATOM     15  H   LIG d   1       9.846   6.422  -3.734  0.00  0.00     0.049 H 
ENDROOT
BRANCH   6  16
ATOM     16  C   LIG d   1       9.444   3.814  -3.639  0.00  0.00     0.234 C 
ATOM     17  O   LIG d   1       9.168   4.333  -4.700  0.00  0.00    -0.274 OA
ATOM     18  N   LIG d   1       9.188   2.507  -3.440  0.00  0.00    -0.303 N 
ATOM     19  H   LIG d   1       9.408   2.092  -2.592  0.00  0.00     0.149 HD
BRANCH  18  20
ATOM     20  C   LIG d   1       8.576   1.710  -4.507  0.00  0.00     0.099 C 
ATOM     21  H   LIG d   1       8.357   2.353  -5.360  0.00  0.00     0.059 H 
ATOM     22  C   LIG d   1       7.298   1.101  -4.003  0.00  0.00     0.233 C 
ATOM     23  N   LIG d   1       6.932  -0.156  -4.256  0.00  0.00    -0.314 N 
ATOM     24  O   LIG d   1       6.560   1.790  -3.332  0.00  0.00    -0.274 OA
ATOM     25  C   LIG d   1       7.741  -1.107  -5.008  0.00  0.00     0.012 C 
ATOM     26  H   LIG d   1       6.074  -0.456  -3.919  0.00  0.00     0.149 HD
ATOM     27  C   LIG d   1       8.790  -0.374  -5.845  0.00  0.00    -0.035 C 
ATOM     28  H   LIG d   1       7.096  -1.687  -5.668  0.00  0.00     0.046 H 
ATOM     29  H   LIG d   1       8.242  -1.782  -4.314  0.00  0.00     0.046 H 
ATOM     30  C   LIG d   1       9.544   0.606  -4.937  0.00  0.00    -0.025 C 
ATOM     31  H   LIG d   1       8.299   0.176  -6.648  0.00  0.00     0.028 H 
ATOM     32  H   LIG d   1       9.491  -1.093  -6.268  0.00  0.00     0.028 H 
ATOM     33  H   LIG d   1      10.380   1.044  -5.484  0.00  0.00     0.029 H 
ATOM     34  H   LIG d   1       9.915   0.081  -4.058  0.00  0.00     0.029 H 
ENDBRANCH  18  20
ENDBRANCH   6  16
BRANCH   1  35
ATOM     35  S   LIG d   1      12.248   3.518  -3.728  0.00  0.00     0.030 S 
ATOM     36  O   LIG d   1      11.966   2.209  -3.250  0.00  0.00    -0.158 OA
ATOM     37  O   LIG d   1      11.757   3.950  -4.990  0.00  0.00    -0.158 OA
BRANCH  35  38
ATOM     38  C   LIG d   1      14.025   3.861  -3.597  0.00  0.00     0.071 C 
ATOM     39  H   LIG d   1      14.362   3.650  -2.582  0.00  0.00     0.048 H 
ATOM     40  H   LIG d   1      14.568   3.230  -4.300  0.00  0.00     0.048 H 
ATOM     41  H   LIG d   1      14.211   4.909  -3.831  0.00  0.00     0.048 H 
ENDBRANCH  35  38
ENDBRANCH   1  35
BRANCH   8  42
ATOM     42  C   LIG d   1      10.758   8.593  -0.026  0.00  0.00     0.143 A 
ATOM     43  N   LIG d   1      10.940   9.878  -0.320  0.00  0.00    -0.247 NA
ATOM     44  C   LIG d   1      11.688  10.632   0.461  0.00  0.00     0.046 A 
ATOM     45  C   LIG d   1      12.284  10.087   1.589  0.00  0.00     0.046 A 
ATOM     46  H   LIG d   1      11.836  11.674   0.222  0.00  0.00     0.085 H 
ATOM     47  N   LIG d   1      12.107   8.812   1.887  0.00  0.00    -0.260 NA
ATOM     48  H   LIG d   1      12.896  10.708   2.227  0.00  0.00     0.085 H 
ATOM     49  C   LIG d   1      11.355   8.051   1.112  0.00  0.00     0.058 A 
ATOM     50  H   LIG d   1      11.206   7.010   1.356  0.00  0.00     0.085 H 
ENDBRANCH   8  42
TORSDOF 5
ENDMDL
MODEL 2
REMARK VINA RESULT:      -5.8      3.643      5.626
REMARK  5 active torsions:
REMARK  status: ('A' for Active; 'I' for Inactive)
REMARK    1  A    between atoms: C_1  and  S_2 
REMARK    2  A    between atoms: S_2  and  N_5 
REMARK       I    between atoms: N_8  and  C_23 
REMARK    3  A    between atoms: C_10  and  C_12 
REMARK       I    between atoms: C_12  and  N_14 
REMARK    4  A    between atoms: N_14  and  C_15 
REMARK    5  A    between atoms: C_23  and  C_25 
ROOT
ATOM      1  N   LIG d   1       8.698   1.227  -6.210  0.00  0.00    -0.167 N 
ATOM      2  C   LIG d   1       9.599   2.290  -6.675  0.00  0.00     0.037 C 
ATOM      3  C   LIG d   1       9.248   3.588  -5.936  0.00  0.00     0.029 C 
ATOM      4  N   LIG d   1       9.172   3.302  -4.496  0.00  0.00    -0.293 N 
ATOM      5  C   LIG d   1       8.271   2.239  -4.032  0.00  0.00     0.041 C 
ATOM      6  C   LIG d   1       8.622   0.942  -4.770  0.00  0.00     0.123 C 
ATOM      7  H   LIG d   1       9.584   0.569  -4.418  0.00  0.00     0.059 H 
ATOM      8  C   LIG d   1       9.916   4.005  -3.618  0.00  0.00     0.267 C 
ATOM      9  O   LIG d   1       9.876   3.733  -2.435  0.00  0.00    -0.268 OA
ATOM     10  H   LIG d   1       9.471   2.435  -7.748  0.00  0.00     0.046 H 
ATOM     11  H   LIG d   1      10.631   2.015  -6.460  0.00  0.00     0.046 H 
ATOM     12  H   LIG d   1       8.285   3.960  -6.286  0.00  0.00     0.048 H 
ATOM     13  H   LIG d   1      10.021   4.335  -6.121  0.00  0.00     0.048 H 
ATOM     14  H   LIG d   1       8.398   2.095  -2.959  0.00  0.00     0.049 H 
ATOM     15  H   LIG d   1       7.239   2.516  -4.243  0.00  0.00     0.049 H 
ENDROOT
BRANCH   6  16
ATOM     16  C   LIG d   1       7.554  -0.091  -4.514  0.00  0.00     0.234 C 
ATOM     17  O   LIG d   1       7.864  -1.248  -4.326  0.00  0.00    -0.274 OA
ATOM     18  N   LIG d   1       6.257   0.272  -4.495  0.00  0.00    -0.303 N 
ATOM     19  H   LIG d   1       6.010   1.198  -4.645  0.00  0.00     0.149 HD
BRANCH  18  20
ATOM     20  C   LIG d   1       5.219  -0.732  -4.246  0.00  0.00     0.099 C 
ATOM     21  H   LIG d   1       5.532  -1.688  -4.666  0.00  0.00     0.059 H 
ATOM     22  C   LIG d   1       3.938  -0.297  -4.898  0.00  0.00     0.233 C 
ATOM     23  N   LIG d   1       2.742  -0.406  -4.318  0.00  0.00    -0.314 N 
ATOM     24  O   LIG d   1       3.995   0.179  -6.012  0.00  0.00    -0.274 OA
ATOM     25  C   LIG d   1       2.532  -0.915  -2.968  0.00  0.00     0.012 C 
ATOM     26  H   LIG d   1       1.964  -0.130  -4.826  0.00  0.00     0.149 HD
ATOM     27  C   LIG d   1       3.746  -1.722  -2.505  0.00  0.00    -0.035 C 
ATOM     28  H   LIG d   1       1.650  -1.554  -2.958  0.00  0.00     0.046 H 
ATOM     29  H   LIG d   1       2.376  -0.078  -2.288  0.00  0.00     0.046 H 
ATOM     30  C   LIG d   1       5.010  -0.884  -2.738  0.00  0.00    -0.025 C 
ATOM     31  H   LIG d   1       3.811  -2.647  -3.078  0.00  0.00     0.028 H 
ATOM     32  H   LIG d   1       3.651  -1.954  -1.445  0.00  0.00     0.028 H 
ATOM     33  H   LIG d   1       5.871  -1.388  -2.296  0.00  0.00     0.029 H 
ATOM     34  H   LIG d   1       4.887   0.098  -2.283  0.00  0.00     0.029 H 
ENDBRANCH  18  20
ENDBRANCH   6  16
BRANCH   1  35
ATOM     35  S   LIG d   1       7.784   0.365  -7.289  0.00  0.00     0.030 S 
ATOM     36  O   LIG d   1       7.992  -0.995  -6.935  0.00  0.00    -0.158 OA
ATOM     37  O   LIG d   1       6.488   0.944  -7.212  0.00  0.00    -0.158 OA
BRANCH  35  38
ATOM     38  C   LIG d   1       8.527   0.709  -8.909  0.00  0.00     0.071 C 
ATOM     39  H   LIG d   1       8.441  -0.174  -9.542  0.00  0.00     0.048 H 
ATOM     40  H   LIG d   1       8.007   1.545  -9.375  0.00  0.00     0.048 H 
ATOM     41  H   LIG d   1       9.579   0.961  -8.779  0.00  0.00     0.048 H 
ENDBRANCH  35  38
ENDBRANCH   1  35
BRANCH   8  42
ATOM     42  C   LIG d   1      10.783   5.107  -4.096  0.00  0.00     0.143 A 
ATOM     43  N   LIG d   1      12.018   4.849  -4.516  0.00  0.00    -0.247 NA
ATOM     44  C   LIG d   1      12.787   5.832  -4.941  0.00  0.00     0.046 A 
ATOM     45  C   LIG d   1      12.310   7.134  -4.950  0.00  0.00     0.046 A 
ATOM     46  H   LIG d   1      13.790   5.623  -5.281  0.00  0.00     0.085 H 
ATOM     47  N   LIG d   1      11.084   7.397  -4.534  0.00  0.00    -0.260 NA
ATOM     48  H   LIG d   1      12.943   7.937  -5.299  0.00  0.00     0.085 H 
ATOM     49  C   LIG d   1      10.305   6.417  -4.112  0.00  0.00     0.058 A 
ATOM     50  H   LIG d   1       9.301   6.629  -3.776  0.00  0.00     0.085 H 
ENDBRANCH   8  42
TORSDOF 5
ENDMDL
MODEL 3
REMARK VINA RESULT:      -5.7      3.437      4.514
REMARK  5 active torsions:
REMARK  status: ('A' for Active; 'I' for Inactive)
REMARK    1  A    between atoms: C_1  and  S_2 
REMARK    2  A    between atoms: S_2  and  N_5 
REMARK       I    between atoms: N_8  and  C_23 
REMARK    3  A    between atoms: C_10  and  C_12 
REMARK       I    between atoms: C_12  and  N_14 
REMARK    4  A    between atoms: N_14  and  C_15 
REMARK    5  A    between atoms: C_23  and  C_25 
ROOT
ATOM      1  N   LIG d   1      10.209   1.303  -4.754  0.00  0.00    -0.167 N 
ATOM      2  C   LIG d   1      11.601   1.773  -4.763  0.00  0.00     0.037 C 
ATOM      3  C   LIG d   1      11.600   3.303  -4.875  0.00  0.00     0.029 C 
ATOM      4  N   LIG d   1      10.674   3.847  -3.872  0.00  0.00    -0.293 N 
ATOM      5  C   LIG d   1       9.282   3.375  -3.863  0.00  0.00     0.041 C 
ATOM      6  C   LIG d   1       9.284   1.846  -3.750  0.00  0.00     0.123 C 
ATOM      7  H   LIG d   1       9.610   1.553  -2.752  0.00  0.00     0.059 H 
ATOM      8  C   LIG d   1      11.095   4.762  -2.976  0.00  0.00     0.267 C 
ATOM      9  O   LIG d   1      10.332   5.175  -2.125  0.00  0.00    -0.268 OA
ATOM     10  H   LIG d   1      12.127   1.345  -5.617  0.00  0.00     0.046 H 
ATOM     11  H   LIG d   1      12.094   1.475  -3.838  0.00  0.00     0.046 H 
ATOM     12  H   LIG d   1      11.271   3.597  -5.872  0.00  0.00     0.048 H 
ATOM     13  H   LIG d   1      12.605   3.684  -4.691  0.00  0.00     0.048 H 
ATOM     14  H   LIG d   1       8.756   3.805  -3.010  0.00  0.00     0.049 H 
ATOM     15  H   LIG d   1       8.788   3.677  -4.786  0.00  0.00     0.049 H 
ENDROOT
BRANCH   6  16
ATOM     16  C   LIG d   1       7.894   1.319  -4.004  0.00  0.00     0.234 C 
ATOM     17  O   LIG d   1       7.197   1.834  -4.852  0.00  0.00    -0.274 OA
ATOM     18  N   LIG d   1       7.429   0.277  -3.290  0.00  0.00    -0.303 N 
ATOM     19  H   LIG d   1       7.987  -0.135  -2.611  0.00  0.00     0.149 HD
BRANCH  18  20
ATOM     20  C   LIG d   1       6.078  -0.236  -3.537  0.00  0.00     0.099 C 
ATOM     21  H   LIG d   1       5.714   0.147  -4.490  0.00  0.00     0.059 H 
ATOM     22  C   LIG d   1       5.164   0.219  -2.436  0.00  0.00     0.233 C 
ATOM     23  N   LIG d   1       4.250  -0.568  -1.865  0.00  0.00    -0.314 N 
ATOM     24  O   LIG d   1       5.260   1.363  -2.045  0.00  0.00    -0.274 OA
ATOM     25  C   LIG d   1       4.057  -1.973  -2.202  0.00  0.00     0.012 C 
ATOM     26  H   LIG d   1       3.679  -0.181  -1.184  0.00  0.00     0.149 HD
ATOM     27  C   LIG d   1       4.673  -2.287  -3.565  0.00  0.00    -0.035 C 
ATOM     28  H   LIG d   1       2.990  -2.193  -2.230  0.00  0.00     0.046 H 
ATOM     29  H   LIG d   1       4.530  -2.594  -1.442  0.00  0.00     0.046 H 
ATOM     30  C   LIG d   1       6.116  -1.765  -3.584  0.00  0.00    -0.025 C 
ATOM     31  H   LIG d   1       4.097  -1.794  -4.349  0.00  0.00     0.028 H 
ATOM     32  H   LIG d   1       4.671  -3.364  -3.731  0.00  0.00     0.028 H 
ATOM     33  H   LIG d   1       6.613  -2.092  -4.498  0.00  0.00     0.029 H 
ATOM     34  H   LIG d   1       6.654  -2.146  -2.717  0.00  0.00     0.029 H 
ENDBRANCH  18  20
ENDBRANCH   6  16
BRANCH   1  35
ATOM     35  S   LIG d   1       9.693   0.178  -5.855  0.00  0.00     0.030 S 
ATOM     36  O   LIG d   1       9.229  -0.912  -5.070  0.00  0.00    -0.158 OA
ATOM     37  O   LIG d   1       8.804   0.887  -6.708  0.00  0.00    -0.158 OA
BRANCH  35  38
ATOM     38  C   LIG d   1      11.186  -0.300  -6.768  0.00  0.00     0.071 C 
ATOM     39  H   LIG d   1      11.751   0.593  -7.033  0.00  0.00     0.048 H 
ATOM     40  H   LIG d   1      11.800  -0.948  -6.143  0.00  0.00     0.048 H 
ATOM     41  H   LIG d   1      10.902  -0.833  -7.675  0.00  0.00     0.048 H 
ENDBRANCH  35  38
ENDBRANCH   1  35
BRANCH   8  42
ATOM     42  C   LIG d   1      12.487   5.265  -3.028  0.00  0.00     0.143 A 
ATOM     43  N   LIG d   1      13.463   4.586  -2.432  0.00  0.00    -0.247 NA
ATOM     44  C   LIG d   1      14.702   5.036  -2.480  0.00  0.00     0.046 A 
ATOM     45  C   LIG d   1      14.988   6.215  -3.151  0.00  0.00     0.046 A 
ATOM     46  H   LIG d   1      15.494   4.485  -1.995  0.00  0.00     0.085 H 
ATOM     47  N   LIG d   1      14.022   6.894  -3.745  0.00  0.00    -0.260 NA
ATOM     48  H   LIG d   1      16.004   6.581  -3.189  0.00  0.00     0.085 H 
ATOM     49  C   LIG d   1      12.780   6.447  -3.706  0.00  0.00     0.058 A 
ATOM     50  H   LIG d   1      11.990   6.999  -4.195  0.00  0.00     0.085 H 
ENDBRANCH   8  42
TORSDOF 5
ENDMDL
MODEL 4
REMARK VINA RESULT:      -5.6      8.210     12.170
REMARK  5 active torsions:
REMARK  status: ('A' for Active; 'I' for Inactive)
REMARK    1  A    between atoms: C_1  and  S_2 
REMARK    2  A    between atoms: S_2  and  N_5 
REMARK       I    between atoms: N_8  and  C_23 
REMARK    3  A    between atoms: C_10  and  C_12 
REMARK       I    between atoms: C_12  and  N_14 
REMARK    4  A    between atoms: N_14  and  C_15 
REMARK    5  A    between atoms: C_23  and  C_25 
ROOT
ATOM      1  N   LIG d   1       5.372  -2.080  -7.735  0.00  0.00    -0.167 N 
ATOM      2  C   LIG d   1       5.547  -2.550  -9.115  0.00  0.00     0.037 C 
ATOM      3  C   LIG d   1       4.231  -2.341  -9.875  0.00  0.00     0.029 C 
ATOM      4  N   LIG d   1       3.772  -0.963  -9.648  0.00  0.00    -0.293 N 
ATOM      5  C   LIG d   1       3.598  -0.492  -8.267  0.00  0.00     0.041 C 
ATOM      6  C   LIG d   1       4.913  -0.702  -7.508  0.00  0.00     0.123 C 
ATOM      7  H   LIG d   1       5.663  -0.000  -7.874  0.00  0.00     0.059 H 
ATOM      8  C   LIG d   1       3.516  -0.146 -10.689  0.00  0.00     0.267 C 
ATOM      9  O   LIG d   1       3.177   1.004 -10.490  0.00  0.00    -0.268 OA
ATOM     10  H   LIG d   1       5.802  -3.611  -9.112  0.00  0.00     0.046 H 
ATOM     11  H   LIG d   1       6.342  -1.982  -9.598  0.00  0.00     0.046 H 
ATOM     12  H   LIG d   1       3.480  -3.040  -9.508  0.00  0.00     0.048 H 
ATOM     13  H   LIG d   1       4.394  -2.502 -10.941  0.00  0.00     0.048 H 
ATOM     14  H   LIG d   1       3.342   0.567  -8.271  0.00  0.00     0.049 H 
ATOM     15  H   LIG d   1       2.801  -1.059  -7.786  0.00  0.00     0.049 H 
ENDROOT
BRANCH   6  16
ATOM     16  C   LIG d   1       4.688  -0.479  -6.034  0.00  0.00     0.234 C 
ATOM     17  O   LIG d   1       5.542   0.066  -5.368  0.00  0.00    -0.274 OA
ATOM     18  N   LIG d   1       3.540  -0.887  -5.459  0.00  0.00    -0.303 N 
ATOM     19  H   LIG d   1       2.858  -1.323  -5.993  0.00  0.00     0.149 HD
BRANCH  18  20
ATOM     20  C   LIG d   1       3.322  -0.670  -4.027  0.00  0.00     0.099 C 
ATOM     21  H   LIG d   1       2.378  -1.128  -3.731  0.00  0.00     0.059 H 
ATOM     22  C   LIG d   1       3.268   0.805  -3.749  0.00  0.00     0.233 C 
ATOM     23  N   LIG d   1       3.861   1.379  -2.701  0.00  0.00    -0.314 N 
ATOM     24  O   LIG d   1       2.651   1.512  -4.518  0.00  0.00    -0.274 OA
ATOM     25  C   LIG d   1       4.670   0.661  -1.725  0.00  0.00     0.012 C 
ATOM     26  H   LIG d   1       3.746   2.335  -2.581  0.00  0.00     0.149 HD
ATOM     27  C   LIG d   1       4.368  -0.837  -1.778  0.00  0.00    -0.035 C 
ATOM     28  H   LIG d   1       4.450   1.037  -0.727  0.00  0.00     0.046 H 
ATOM     29  H   LIG d   1       5.726   0.823  -1.944  0.00  0.00     0.046 H 
ATOM     30  C   LIG d   1       4.466  -1.307  -3.235  0.00  0.00    -0.025 C 
ATOM     31  H   LIG d   1       3.361  -1.021  -1.402  0.00  0.00     0.028 H 
ATOM     32  H   LIG d   1       5.091  -1.381  -1.170  0.00  0.00     0.028 H 
ATOM     33  H   LIG d   1       4.381  -2.393  -3.277  0.00  0.00     0.029 H 
ATOM     34  H   LIG d   1       5.421  -0.997  -3.657  0.00  0.00     0.029 H 
ENDBRANCH  18  20
ENDBRANCH   6  16
BRANCH   1  35
ATOM     35  S   LIG d   1       5.686  -3.085  -6.456  0.00  0.00     0.030 S 
ATOM     36  O   LIG d   1       6.559  -2.340  -5.616  0.00  0.00    -0.158 OA
ATOM     37  O   LIG d   1       4.406  -3.493  -5.992  0.00  0.00    -0.158 OA
BRANCH  35  38
ATOM     38  C   LIG d   1       6.568  -4.496  -7.178  0.00  0.00     0.071 C 
ATOM     39  H   LIG d   1       7.193  -4.962  -6.417  0.00  0.00     0.048 H 
ATOM     40  H   LIG d   1       5.846  -5.222  -7.552  0.00  0.00     0.048 H 
ATOM     41  H   LIG d   1       7.195  -4.151  -8.000  0.00  0.00     0.048 H 
ENDBRANCH  35  38
ENDBRANCH   1  35
BRANCH   8  42
ATOM     42  C   LIG d   1       3.649  -0.648 -12.077  0.00  0.00     0.143 A 
ATOM     43  N   LIG d   1       4.770  -0.431 -12.759  0.00  0.00    -0.247 NA
ATOM     44  C   LIG d   1       4.885  -0.880 -13.994  0.00  0.00     0.046 A 
ATOM     45  C   LIG d   1       3.840  -1.578 -14.581  0.00  0.00     0.046 A 
ATOM     46  H   LIG d   1       5.795  -0.703 -14.548  0.00  0.00     0.085 H 
ATOM     47  N   LIG d   1       2.724  -1.796 -13.908  0.00  0.00    -0.260 NA
ATOM     48  H   LIG d   1       3.938  -1.944 -15.592  0.00  0.00     0.085 H 
ATOM     49  C   LIG d   1       2.603  -1.355 -12.668  0.00  0.00     0.058 A 
ATOM     50  H   LIG d   1       1.693  -1.536 -12.116  0.00  0.00     0.085 H 
ENDBRANCH   8  42
TORSDOF 5
ENDMDL
MODEL 5
REMARK VINA RESULT:      -5.5      4.784      7.886
REMARK  5 active torsions:
REMARK  status: ('A' for Active; 'I' for Inactive)
REMARK    1  A    between atoms: C_1  and  S_2 
REMARK    2  A    between atoms: S_2  and  N_5 
REMARK       I    between atoms: N_8  and  C_23 
REMARK    3  A    between atoms: C_10  and  C_12 
REMARK       I    between atoms: C_12  and  N_14 
REMARK    4  A    between atoms: N_14  and  C_15 
REMARK    5  A    between atoms: C_23  and  C_25 
ROOT
ATOM      1  N   LIG d   1       8.794   2.484  -5.621  0.00  0.00    -0.167 N 
ATOM      2  C   LIG d   1       9.428   3.595  -6.342  0.00  0.00     0.037 C 
ATOM      3  C   LIG d   1      10.203   3.025  -7.537  0.00  0.00     0.029 C 
ATOM      4  N   LIG d   1       9.320   2.113  -8.277  0.00  0.00    -0.293 N 
ATOM      5  C   LIG d   1       8.685   1.001  -7.555  0.00  0.00     0.041 C 
ATOM      6  C   LIG d   1       7.911   1.571  -6.361  0.00  0.00     0.123 C 
ATOM      7  H   LIG d   1       7.036   2.115  -6.718  0.00  0.00     0.059 H 
ATOM      8  C   LIG d   1       9.097   2.293  -9.594  0.00  0.00     0.267 C 
ATOM      9  O   LIG d   1       8.334   1.557 -10.187  0.00  0.00    -0.268 OA
ATOM     10  H   LIG d   1      10.116   4.119  -5.677  0.00  0.00     0.046 H 
ATOM     11  H   LIG d   1       8.663   4.285  -6.698  0.00  0.00     0.046 H 
ATOM     12  H   LIG d   1      11.077   2.480  -7.181  0.00  0.00     0.048 H 
ATOM     13  H   LIG d   1      10.519   3.840  -8.190  0.00  0.00     0.048 H 
ATOM     14  H   LIG d   1       7.999   0.478  -8.221  0.00  0.00     0.049 H 
ATOM     15  H   LIG d   1       9.450   0.310  -7.203  0.00  0.00     0.049 H 
ENDROOT
BRANCH   6  16
ATOM     16  C   LIG d   1       7.474   0.446  -5.458  0.00  0.00     0.234 C 
ATOM     17  O   LIG d   1       8.246  -0.451  -5.192  0.00  0.00    -0.274 OA
ATOM     18  N   LIG d   1       6.227   0.437  -4.948  0.00  0.00    -0.303 N 
ATOM     19  H   LIG d   1       5.610   1.155  -5.161  0.00  0.00     0.149 HD
BRANCH  18  20
ATOM     20  C   LIG d   1       5.803  -0.656  -4.069  0.00  0.00     0.099 C 
ATOM     21  H   LIG d   1       6.657  -1.298  -3.851  0.00  0.00     0.059 H 
ATOM     22  C   LIG d   1       4.737  -1.462  -4.757  0.00  0.00     0.233 C 
ATOM     23  N   LIG d   1       3.642  -1.911  -4.142  0.00  0.00    -0.314 N 
ATOM     24  O   LIG d   1       4.881  -1.718  -5.933  0.00  0.00    -0.274 OA
ATOM     25  C   LIG d   1       3.319  -1.638  -2.747  0.00  0.00     0.012 C 
ATOM     26  H   LIG d   1       3.023  -2.452  -4.655  0.00  0.00     0.149 HD
ATOM     27  C   LIG d   1       4.569  -1.204  -1.982  0.00  0.00    -0.035 C 
ATOM     28  H   LIG d   1       2.912  -2.540  -2.290  0.00  0.00     0.046 H 
ATOM     29  H   LIG d   1       2.573  -0.845  -2.698  0.00  0.00     0.046 H 
ATOM     30  C   LIG d   1       5.255  -0.077  -2.763  0.00  0.00    -0.025 C 
ATOM     31  H   LIG d   1       5.251  -2.049  -1.886  0.00  0.00     0.028 H 
ATOM     32  H   LIG d   1       4.289  -0.845  -0.992  0.00  0.00     0.028 H 
ATOM     33  H   LIG d   1       6.075   0.334  -2.172  0.00  0.00     0.029 H 
ATOM     34  H   LIG d   1       4.533   0.709  -2.984  0.00  0.00     0.029 H 
ENDBRANCH  18  20
ENDBRANCH   6  16
BRANCH   1  35
ATOM     35  S   LIG d   1       9.068   2.263  -4.002  0.00  0.00     0.030 S 
ATOM     36  O   LIG d   1       7.774   2.127  -3.431  0.00  0.00    -0.158 OA
ATOM     37  O   LIG d   1      10.006   1.197  -3.935  0.00  0.00    -0.158 OA
BRANCH  35  38
ATOM     38  C   LIG d   1       9.837   3.809  -3.445  0.00  0.00     0.071 C 
ATOM     39  H   LIG d   1      10.436   3.616  -2.556  0.00  0.00     0.048 H 
ATOM     40  H   LIG d   1      10.476   4.201  -4.236  0.00  0.00     0.048 H 
ATOM     41  H   LIG d   1       9.061   4.537  -3.210  0.00  0.00     0.048 H 
ENDBRANCH  35  38
ENDBRANCH   1  35
BRANCH   8  42
ATOM     42  C   LIG d   1       9.782   3.388 -10.320  0.00  0.00     0.143 A 
ATOM     43  N   LIG d   1       9.186   4.568 -10.462  0.00  0.00    -0.247 NA
ATOM     44  C   LIG d   1       9.798   5.541 -11.107  0.00  0.00     0.046 A 
ATOM     45  C   LIG d   1      11.063   5.335 -11.638  0.00  0.00     0.046 A 
ATOM     46  H   LIG d   1       9.314   6.499 -11.223  0.00  0.00     0.085 H 
ATOM     47  N   LIG d   1      11.661   4.165 -11.500  0.00  0.00    -0.260 NA
ATOM     48  H   LIG d   1      11.562   6.135 -12.166  0.00  0.00     0.085 H 
ATOM     49  C   LIG d   1      11.056   3.187 -10.849  0.00  0.00     0.058 A 
ATOM     50  H   LIG d   1      11.545   2.231 -10.732  0.00  0.00     0.085 H 
ENDBRANCH   8  42
TORSDOF 5
ENDMDL
MODEL 6
REMARK VINA RESULT:      -5.4      4.633      6.409
REMARK  5 active torsions:
REMARK  status: ('A' for Active; 'I' for Inactive)
REMARK    1  A    between atoms: C_1  and  S_2 
REMARK    2  A    between atoms: S_2  and  N_5 
REMARK       I    between atoms: N_8  and  C_23 
REMARK    3  A    between atoms: C_10  and  C_12 
REMARK       I    between atoms: C_12  and  N_14 
REMARK    4  A    between atoms: N_14  and  C_15 
REMARK    5  A    between atoms: C_23  and  C_25 
ROOT
ATOM      1  N   LIG d   1       9.388   3.335  -5.472  0.00  0.00    -0.167 N 
ATOM      2  C   LIG d   1       9.952   4.684  -5.617  0.00  0.00     0.037 C 
ATOM      3  C   LIG d   1      10.623   4.789  -6.992  0.00  0.00     0.029 C 
ATOM      4  N   LIG d   1       9.684   4.300  -8.011  0.00  0.00    -0.293 N 
ATOM      5  C   LIG d   1       9.119   2.951  -7.866  0.00  0.00     0.041 C 
ATOM      6  C   LIG d   1       8.448   2.846  -6.491  0.00  0.00     0.123 C 
ATOM      7  H   LIG d   1       7.543   3.454  -6.478  0.00  0.00     0.059 H 
ATOM      8  C   LIG d   1       9.347   5.076  -9.061  0.00  0.00     0.267 C 
ATOM      9  O   LIG d   1       8.539   4.677  -9.876  0.00  0.00    -0.268 OA
ATOM     10  H   LIG d   1      10.692   4.858  -4.835  0.00  0.00     0.046 H 
ATOM     11  H   LIG d   1       9.155   5.424  -5.541  0.00  0.00     0.046 H 
ATOM     12  H   LIG d   1      11.527   4.180  -7.006  0.00  0.00     0.048 H 
ATOM     13  H   LIG d   1      10.877   5.829  -7.197  0.00  0.00     0.048 H 
ATOM     14  H   LIG d   1       8.381   2.778  -8.648  0.00  0.00     0.049 H 
ATOM     15  H   LIG d   1       9.916   2.211  -7.944  0.00  0.00     0.049 H 
ENDROOT
BRANCH   6  16
ATOM     16  C   LIG d   1       8.097   1.408  -6.208  0.00  0.00     0.234 C 
ATOM     17  O   LIG d   1       8.690   0.517  -6.777  0.00  0.00    -0.274 OA
ATOM     18  N   LIG d   1       7.125   1.114  -5.322  0.00  0.00    -0.303 N 
ATOM     19  H   LIG d   1       6.651   1.827  -4.867  0.00  0.00     0.149 HD
BRANCH  18  20
ATOM     20  C   LIG d   1       6.784  -0.284  -5.047  0.00  0.00     0.099 C 
ATOM     21  H   LIG d   1       7.401  -0.936  -5.665  0.00  0.00     0.059 H 
ATOM     22  C   LIG d   1       5.335  -0.516  -5.369  0.00  0.00     0.233 C 
ATOM     23  N   LIG d   1       4.515  -1.234  -4.600  0.00  0.00    -0.314 N 
ATOM     24  O   LIG d   1       4.888  -0.024  -6.383  0.00  0.00    -0.274 OA
ATOM     25  C   LIG d   1       4.906  -1.841  -3.334  0.00  0.00     0.012 C 
ATOM     26  H   LIG d   1       3.603  -1.360  -4.903  0.00  0.00     0.149 HD
ATOM     27  C   LIG d   1       6.428  -1.955  -3.241  0.00  0.00    -0.035 C 
ATOM     28  H   LIG d   1       4.465  -2.834  -3.260  0.00  0.00     0.046 H 
ATOM     29  H   LIG d   1       4.541  -1.226  -2.512  0.00  0.00     0.046 H 
ATOM     30  C   LIG d   1       7.043  -0.589  -3.570  0.00  0.00    -0.025 C 
ATOM     31  H   LIG d   1       6.783  -2.697  -3.957  0.00  0.00     0.028 H 
ATOM     32  H   LIG d   1       6.714  -2.252  -2.233  0.00  0.00     0.028 H 
ATOM     33  H   LIG d   1       8.118  -0.617  -3.384  0.00  0.00     0.029 H 
ATOM     34  H   LIG d   1       6.583   0.179  -2.950  0.00  0.00     0.029 H 
ENDBRANCH  18  20
ENDBRANCH   6  16
BRANCH   1  35
ATOM     35  S   LIG d   1       9.802   2.382  -4.181  0.00  0.00     0.030 S 
ATOM     36  O   LIG d   1       8.652   2.384  -3.346  0.00  0.00    -0.158 OA
ATOM     37  O   LIG d   1      10.276   1.174  -4.760  0.00  0.00    -0.158 OA
BRANCH  35  38
ATOM     38  C   LIG d   1      11.165   3.264  -3.370  0.00  0.00     0.071 C 
ATOM     39  H   LIG d   1      11.811   2.546  -2.865  0.00  0.00     0.048 H 
ATOM     40  H   LIG d   1      11.740   3.808  -4.119  0.00  0.00     0.048 H 
ATOM     41  H   LIG d   1      10.761   3.965  -2.641  0.00  0.00     0.048 H 
ENDBRANCH  35  38
ENDBRANCH   1  35
BRANCH   8  42
ATOM     42  C   LIG d   1       9.961   6.414  -9.222  0.00  0.00     0.143 A 
ATOM     43  N   LIG d   1      11.179   6.530  -9.744  0.00  0.00    -0.247 NA
ATOM     44  C   LIG d   1      11.723   7.722  -9.886  0.00  0.00     0.046 A 
ATOM     45  C   LIG d   1      11.027   8.856  -9.492  0.00  0.00     0.046 A 
ATOM     46  H   LIG d   1      12.712   7.817 -10.308  0.00  0.00     0.085 H 
ATOM     47  N   LIG d   1       9.817   8.747  -8.973  0.00  0.00    -0.260 NA
ATOM     48  H   LIG d   1      11.476   9.831  -9.610  0.00  0.00     0.085 H 
ATOM     49  C   LIG d   1       9.263   7.556  -8.832  0.00  0.00     0.058 A 
ATOM     50  H   LIG d   1       8.272   7.466  -8.412  0.00  0.00     0.085 H 
ENDBRANCH   8  42
TORSDOF 5
ENDMDL
MODEL 7
REMARK VINA RESULT:      -5.3      2.329      8.336
REMARK  5 active torsions:
REMARK  status: ('A' for Active; 'I' for Inactive)
REMARK    1  A    between atoms: C_1  and  S_2 
REMARK    2  A    between atoms: S_2  and  N_5 
REMARK       I    between atoms: N_8  and  C_23 
REMARK    3  A    between atoms: C_10  and  C_12 
REMARK       I    between atoms: C_12  and  N_14 
REMARK    4  A    between atoms: N_14  and  C_15 
REMARK    5  A    between atoms: C_23  and  C_25 
ROOT
ATOM      1  N   LIG d   1      10.298   5.252  -5.129  0.00  0.00    -0.167 N 
ATOM      2  C   LIG d   1      10.012   4.339  -6.244  0.00  0.00     0.037 C 
ATOM      3  C   LIG d   1      10.061   2.897  -5.722  0.00  0.00     0.029 C 
ATOM      4  N   LIG d   1       9.241   2.810  -4.505  0.00  0.00    -0.293 N 
ATOM      5  C   LIG d   1       9.527   3.724  -3.391  0.00  0.00     0.041 C 
ATOM      6  C   LIG d   1       9.478   5.164  -3.913  0.00  0.00     0.123 C 
ATOM      7  H   LIG d   1       8.447   5.434  -4.144  0.00  0.00     0.059 H 
ATOM      8  C   LIG d   1       8.244   1.907  -4.414  0.00  0.00     0.267 C 
ATOM      9  O   LIG d   1       7.546   1.871  -3.420  0.00  0.00    -0.268 OA
ATOM     10  H   LIG d   1      10.760   4.470  -7.026  0.00  0.00     0.046 H 
ATOM     11  H   LIG d   1       9.020   4.548  -6.644  0.00  0.00     0.046 H 
ATOM     12  H   LIG d   1      11.091   2.628  -5.488  0.00  0.00     0.048 H 
ATOM     13  H   LIG d   1       9.666   2.220  -6.479  0.00  0.00     0.048 H 
ATOM     14  H   LIG d   1       8.780   3.592  -2.609  0.00  0.00     0.049 H 
ATOM     15  H   LIG d   1      10.518   3.511  -2.989  0.00  0.00     0.049 H 
ENDROOT
BRANCH   6  16
ATOM     16  C   LIG d   1      10.023   6.101  -2.866  0.00  0.00     0.234 C 
ATOM     17  O   LIG d   1      10.774   5.682  -2.010  0.00  0.00    -0.274 OA
ATOM     18  N   LIG d   1       9.677   7.403  -2.881  0.00  0.00    -0.303 N 
ATOM     19  H   LIG d   1       9.077   7.738  -3.565  0.00  0.00     0.149 HD
BRANCH  18  20
ATOM     20  C   LIG d   1      10.208   8.314  -1.863  0.00  0.00     0.099 C 
ATOM     21  H   LIG d   1      10.888   7.769  -1.208  0.00  0.00     0.059 H 
ATOM     22  C   LIG d   1       9.073   8.869  -1.051  0.00  0.00     0.233 C 
ATOM     23  N   LIG d   1       8.988  10.148  -0.682  0.00  0.00    -0.314 N 
ATOM     24  O   LIG d   1       8.186   8.115  -0.713  0.00  0.00    -0.274 OA
ATOM     25  C   LIG d   1       9.955  11.172  -1.057  0.00  0.00     0.012 C 
ATOM     26  H   LIG d   1       8.237  10.413  -0.130  0.00  0.00     0.149 HD
ATOM     27  C   LIG d   1      11.272  10.531  -1.497  0.00  0.00    -0.035 C 
ATOM     28  H   LIG d   1      10.140  11.823  -0.203  0.00  0.00     0.046 H 
ATOM     29  H   LIG d   1       9.552  11.766  -1.878  0.00  0.00     0.046 H 
ATOM     30  C   LIG d   1      10.966   9.454  -2.546  0.00  0.00    -0.025 C 
ATOM     31  H   LIG d   1      11.762  10.074  -0.638  0.00  0.00     0.028 H 
ATOM     32  H   LIG d   1      11.924  11.289  -1.931  0.00  0.00     0.028 H 
ATOM     33  H   LIG d   1      11.899   9.075  -2.966  0.00  0.00     0.029 H 
ATOM     34  H   LIG d   1      10.352   9.879  -3.340  0.00  0.00     0.029 H 
ENDBRANCH  18  20
ENDBRANCH   6  16
BRANCH   1  35
ATOM     35  S   LIG d   1      11.523   6.361  -5.241  0.00  0.00     0.030 S 
ATOM     36  O   LIG d   1      10.867   7.610  -5.407  0.00  0.00    -0.158 OA
ATOM     37  O   LIG d   1      12.340   6.116  -4.104  0.00  0.00    -0.158 OA
BRANCH  35  38
ATOM     38  C   LIG d   1      12.416   5.917  -6.758  0.00  0.00     0.071 C 
ATOM     39  H   LIG d   1      12.084   6.557  -7.575  0.00  0.00     0.048 H 
ATOM     40  H   LIG d   1      13.486   6.052  -6.601  0.00  0.00     0.048 H 
ATOM     41  H   LIG d   1      12.213   4.876  -7.007  0.00  0.00     0.048 H 
ENDBRANCH  35  38
ENDBRANCH   1  35
BRANCH   8  42
ATOM     42  C   LIG d   1       7.998   0.959  -5.526  0.00  0.00     0.143 A 
ATOM     43  N   LIG d   1       7.215   1.312  -6.541  0.00  0.00    -0.247 NA
ATOM     44  C   LIG d   1       6.998   0.467  -7.530  0.00  0.00     0.046 A 
ATOM     45  C   LIG d   1       7.586  -0.789  -7.512  0.00  0.00     0.046 A 
ATOM     46  H   LIG d   1       6.361   0.753  -8.353  0.00  0.00     0.085 H 
ATOM     47  N   LIG d   1       8.365  -1.145  -6.506  0.00  0.00    -0.260 NA
ATOM     48  H   LIG d   1       7.406  -1.480  -8.323  0.00  0.00     0.085 H 
ATOM     49  C   LIG d   1       8.592  -0.302  -5.515  0.00  0.00     0.058 A 
ATOM     50  H   LIG d   1       9.232  -0.591  -4.694  0.00  0.00     0.085 H 
ENDBRANCH   8  42
TORSDOF 5
ENDMDL
MODEL 8
REMARK VINA RESULT:      -5.2      2.733      8.507
REMARK  5 active torsions:
REMARK  status: ('A' for Active; 'I' for Inactive)
REMARK    1  A    between atoms: C_1  and  S_2 
REMARK    2  A    between atoms: S_2  and  N_5 
REMARK       I    between atoms: N_8  and  C_23 
REMARK    3  A    between atoms: C_10  and  C_12 
REMARK       I    between atoms: C_12  and  N_14 
REMARK    4  A    between atoms: N_14  and  C_15 
REMARK    5  A    between atoms: C_23  and  C_25 
ROOT
ATOM      1  N   LIG d   1       9.374   2.806  -5.953  0.00  0.00    -0.167 N 
ATOM      2  C   LIG d   1       8.654   1.684  -6.568  0.00  0.00     0.037 C 
ATOM      3  C   LIG d   1       8.433   0.601  -5.504  0.00  0.00     0.029 C 
ATOM      4  N   LIG d   1       7.868   1.233  -4.303  0.00  0.00    -0.293 N 
ATOM      5  C   LIG d   1       8.589   2.356  -3.688  0.00  0.00     0.041 C 
ATOM      6  C   LIG d   1       8.810   3.438  -4.752  0.00  0.00     0.123 C 
ATOM      7  H   LIG d   1       7.858   3.910  -4.997  0.00  0.00     0.059 H 
ATOM      8  C   LIG d   1       6.710   0.789  -3.775  0.00  0.00     0.267 C 
ATOM      9  O   LIG d   1       6.232   1.344  -2.805  0.00  0.00    -0.268 OA
ATOM     10  H   LIG d   1       9.245   1.274  -7.388  0.00  0.00     0.046 H 
ATOM     11  H   LIG d   1       7.691   2.029  -6.944  0.00  0.00     0.046 H 
ATOM     12  H   LIG d   1       9.384   0.131  -5.257  0.00  0.00     0.048 H 
ATOM     13  H   LIG d   1       7.738  -0.149  -5.884  0.00  0.00     0.048 H 
ATOM     14  H   LIG d   1       7.998   2.764  -2.868  0.00  0.00     0.049 H 
ATOM     15  H   LIG d   1       9.550   2.010  -3.309  0.00  0.00     0.049 H 
ENDROOT
BRANCH   6  16
ATOM     16  C   LIG d   1       9.769   4.475  -4.227  0.00  0.00     0.234 C 
ATOM     17  O   LIG d   1      10.727   4.134  -3.566  0.00  0.00    -0.274 OA
ATOM     18  N   LIG d   1       9.562   5.779  -4.492  0.00  0.00    -0.303 N 
ATOM     19  H   LIG d   1       8.795   6.052  -5.021  0.00  0.00     0.149 HD
BRANCH  18  20
ATOM     20  C   LIG d   1      10.495   6.788  -3.982  0.00  0.00     0.099 C 
ATOM     21  H   LIG d   1      11.393   6.295  -3.611  0.00  0.00     0.059 H 
ATOM     22  C   LIG d   1       9.843   7.547  -2.861  0.00  0.00     0.233 C 
ATOM     23  N   LIG d   1       9.937   8.869  -2.715  0.00  0.00    -0.314 N 
ATOM     24  O   LIG d   1       9.199   6.923  -2.045  0.00  0.00    -0.274 OA
ATOM     25  C   LIG d   1      10.639   9.746  -3.644  0.00  0.00     0.012 C 
ATOM     26  H   LIG d   1       9.512   9.272  -1.942  0.00  0.00     0.149 HD
ATOM     27  C   LIG d   1      11.617   8.944  -4.503  0.00  0.00    -0.035 C 
ATOM     28  H   LIG d   1      11.188  10.501  -3.082  0.00  0.00     0.046 H 
ATOM     29  H   LIG d   1       9.914  10.240  -4.291  0.00  0.00     0.046 H 
ATOM     30  C   LIG d   1      10.871   7.750  -5.111  0.00  0.00    -0.025 C 
ATOM     31  H   LIG d   1      12.438   8.584  -3.882  0.00  0.00     0.028 H 
ATOM     32  H   LIG d   1      12.010   9.574  -5.300  0.00  0.00     0.028 H 
ATOM     33  H   LIG d   1      11.517   7.240  -5.827  0.00  0.00     0.029 H 
ATOM     34  H   LIG d   1       9.970   8.098  -5.613  0.00  0.00     0.029 H 
ENDBRANCH  18  20
ENDBRANCH   6  16
BRANCH   1  35
ATOM     35  S   LIG d   1      10.797   3.352  -6.602  0.00  0.00     0.030 S 
ATOM     36  O   LIG d   1      10.564   4.725  -6.885  0.00  0.00    -0.158 OA
ATOM     37  O   LIG d   1      11.795   2.964  -5.667  0.00  0.00    -0.158 OA
BRANCH  35  38
ATOM     38  C   LIG d   1      10.992   2.420  -8.147  0.00  0.00     0.071 C 
ATOM     39  H   LIG d   1      12.030   2.105  -8.252  0.00  0.00     0.048 H 
ATOM     40  H   LIG d   1      10.346   1.543  -8.125  0.00  0.00     0.048 H 
ATOM     41  H   LIG d   1      10.718   3.053  -8.990  0.00  0.00     0.048 H 
ENDBRANCH  35  38
ENDBRANCH   1  35
BRANCH   8  42
ATOM     42  C   LIG d   1       6.020  -0.376  -4.376  0.00  0.00     0.143 A 
ATOM     43  N   LIG d   1       5.177  -0.200  -5.390  0.00  0.00    -0.247 NA
ATOM     44  C   LIG d   1       4.564  -1.239  -5.923  0.00  0.00     0.046 A 
ATOM     45  C   LIG d   1       4.797  -2.514  -5.428  0.00  0.00     0.046 A 
ATOM     46  H   LIG d   1       3.879  -1.096  -6.745  0.00  0.00     0.085 H 
ATOM     47  N   LIG d   1       5.634  -2.694  -4.422  0.00  0.00    -0.260 NA
ATOM     48  H   LIG d   1       4.293  -3.362  -5.868  0.00  0.00     0.085 H 
ATOM     49  C   LIG d   1       6.256  -1.660  -3.885  0.00  0.00     0.058 A 
ATOM     50  H   LIG d   1       6.943  -1.807  -3.065  0.00  0.00     0.085 H 
ENDBRANCH   8  42
TORSDOF 5
ENDMDL
MODEL 9
REMARK VINA RESULT:      -5.2      2.894      8.162
REMARK  5 active torsions:
REMARK  status: ('A' for Active; 'I' for Inactive)
REMARK    1  A    between atoms: C_1  and  S_2 
REMARK    2  A    between atoms: S_2  and  N_5 
REMARK       I    between atoms: N_8  and  C_23 
REMARK    3  A    between atoms: C_10  and  C_12 
REMARK       I    between atoms: C_12  and  N_14 
REMARK    4  A    between atoms: N_14  and  C_15 
REMARK    5  A    between atoms: C_23  and  C_25 
ROOT
ATOM      1  N   LIG d   1      10.925   5.676  -2.453  0.00  0.00    -0.167 N 
ATOM      2  C   LIG d   1      10.693   4.228  -2.364  0.00  0.00     0.037 C 
ATOM      3  C   LIG d   1       9.443   3.881  -3.182  0.00  0.00     0.029 C 
ATOM      4  N   LIG d   1       9.565   4.499  -4.510  0.00  0.00    -0.293 N 
ATOM      5  C   LIG d   1       9.797   5.947  -4.599  0.00  0.00     0.041 C 
ATOM      6  C   LIG d   1      11.047   6.294  -3.781  0.00  0.00     0.123 C 
ATOM      7  H   LIG d   1      11.933   5.909  -4.285  0.00  0.00     0.059 H 
ATOM      8  C   LIG d   1       9.464   3.751  -5.627  0.00  0.00     0.267 C 
ATOM      9  O   LIG d   1       9.607   4.265  -6.718  0.00  0.00    -0.268 OA
ATOM     10  H   LIG d   1      10.537   3.945  -1.322  0.00  0.00     0.046 H 
ATOM     11  H   LIG d   1      11.553   3.694  -2.766  0.00  0.00     0.046 H 
ATOM     12  H   LIG d   1       8.556   4.268  -2.679  0.00  0.00     0.048 H 
ATOM     13  H   LIG d   1       9.363   2.799  -3.288  0.00  0.00     0.048 H 
ATOM     14  H   LIG d   1       9.952   6.230  -5.640  0.00  0.00     0.049 H 
ATOM     15  H   LIG d   1       8.935   6.481  -4.199  0.00  0.00     0.049 H 
ENDROOT
BRANCH   6  16
ATOM     16  C   LIG d   1      11.157   7.790  -3.634  0.00  0.00     0.234 C 
ATOM     17  O   LIG d   1      12.235   8.333  -3.757  0.00  0.00    -0.274 OA
ATOM     18  N   LIG d   1      10.059   8.524  -3.368  0.00  0.00    -0.303 N 
ATOM     19  H   LIG d   1       9.197   8.090  -3.270  0.00  0.00     0.149 HD
BRANCH  18  20
ATOM     20  C   LIG d   1      10.166   9.978  -3.226  0.00  0.00     0.099 C 
ATOM     21  H   LIG d   1      11.186  10.241  -2.945  0.00  0.00     0.059 H 
ATOM     22  C   LIG d   1       9.219  10.446  -2.158  0.00  0.00     0.233 C 
ATOM     23  N   LIG d   1       8.465  11.540  -2.270  0.00  0.00    -0.314 N 
ATOM     24  O   LIG d   1       9.135   9.793  -1.140  0.00  0.00    -0.274 OA
ATOM     25  C   LIG d   1       8.429  12.390  -3.454  0.00  0.00     0.012 C 
ATOM     26  H   LIG d   1       7.906  11.786  -1.517  0.00  0.00     0.149 HD
ATOM     27  C   LIG d   1       9.667  12.154  -4.320  0.00  0.00    -0.035 C 
ATOM     28  H   LIG d   1       8.400  13.435  -3.146  0.00  0.00     0.046 H 
ATOM     29  H   LIG d   1       7.535  12.163  -4.034  0.00  0.00     0.046 H 
ATOM     30  C   LIG d   1       9.818  10.646  -4.558  0.00  0.00    -0.025 C 
ATOM     31  H   LIG d   1      10.551  12.533  -3.807  0.00  0.00     0.028 H 
ATOM     32  H   LIG d   1       9.550  12.665  -5.276  0.00  0.00     0.028 H 
ATOM     33  H   LIG d   1      10.618  10.467  -5.279  0.00  0.00     0.029 H 
ATOM     34  H   LIG d   1       8.883  10.240  -4.940  0.00  0.00     0.029 H 
ENDBRANCH  18  20
ENDBRANCH   6  16
BRANCH   1  35
ATOM     35  S   LIG d   1      11.048   6.596  -1.080  0.00  0.00     0.030 S 
ATOM     36  O   LIG d   1      12.091   7.521  -1.357  0.00  0.00    -0.158 OA
ATOM     37  O   LIG d   1       9.724   7.049  -0.828  0.00  0.00    -0.158 OA
BRANCH  35  38
ATOM     38  C   LIG d   1      11.569   5.435   0.213  0.00  0.00     0.071 C 
ATOM     39  H   LIG d   1      11.702   5.973   1.151  0.00  0.00     0.048 H 
ATOM     40  H   LIG d   1      10.806   4.667   0.339  0.00  0.00     0.048 H 
ATOM     41  H   LIG d   1      12.510   4.968  -0.075  0.00  0.00     0.048 H 
ENDBRANCH  35  38
ENDBRANCH   1  35
BRANCH   8  42
ATOM     42  C   LIG d   1       9.181   2.300  -5.524  0.00  0.00     0.143 A 
ATOM     43  N   LIG d   1       7.923   1.867  -5.498  0.00  0.00    -0.247 NA
ATOM     44  C   LIG d   1       7.674   0.576  -5.407  0.00  0.00     0.046 A 
ATOM     45  C   LIG d   1       8.721  -0.331  -5.338  0.00  0.00     0.046 A 
ATOM     46  H   LIG d   1       6.653   0.225  -5.385  0.00  0.00     0.085 H 
ATOM     47  N   LIG d   1       9.972   0.092  -5.364  0.00  0.00    -0.260 NA
ATOM     48  H   LIG d   1       8.513  -1.389  -5.264  0.00  0.00     0.085 H 
ATOM     49  C   LIG d   1      10.230   1.384  -5.460  0.00  0.00     0.058 A 
ATOM     50  H   LIG d   1      11.253   1.732  -5.485  0.00  0.00     0.085 H 
ENDBRANCH   8  42
TORSDOF 5
ENDMDL
MODEL 10
REMARK VINA RESULT:      -5.1      4.112      8.110
REMARK  5 active torsions:
REMARK  status: ('A' for Active; 'I' for Inactive)
REMARK    1  A    between atoms: C_1  and  S_2 
REMARK    2  A    between atoms: S_2  and  N_5 
REMARK       I    between atoms: N_8  and  C_23 
REMARK    3  A    between atoms: C_10  and  C_12 
REMARK       I    between atoms: C_12  and  N_14 
REMARK    4  A    between atoms: N_14  and  C_15 
REMARK    5  A    between atoms: C_23  and  C_25 
ROOT
ATOM      1  N   LIG d   1      10.969   5.443  -4.454  0.00  0.00    -0.167 N 
ATOM      2  C   LIG d   1      11.276   4.957  -5.806  0.00  0.00     0.037 C 
ATOM      3  C   LIG d   1      10.034   5.143  -6.687  0.00  0.00     0.029 C 
ATOM      4  N   LIG d   1       9.543   6.518  -6.523  0.00  0.00    -0.293 N 
ATOM      5  C   LIG d   1       9.236   7.004  -5.171  0.00  0.00     0.041 C 
ATOM      6  C   LIG d   1      10.478   6.819  -4.290  0.00  0.00     0.123 C 
ATOM      7  H   LIG d   1      11.251   7.524  -4.595  0.00  0.00     0.059 H 
ATOM      8  C   LIG d   1       9.377   7.319  -7.595  0.00  0.00     0.267 C 
ATOM      9  O   LIG d   1       9.009   8.467  -7.444  0.00  0.00    -0.268 OA
ATOM     10  H   LIG d   1      11.540   3.900  -5.764  0.00  0.00     0.046 H 
ATOM     11  H   LIG d   1      12.107   5.528  -6.221  0.00  0.00     0.046 H 
ATOM     12  H   LIG d   1       9.260   4.439  -6.382  0.00  0.00     0.048 H 
ATOM     13  H   LIG d   1      10.297   4.970  -7.731  0.00  0.00     0.048 H 
ATOM     14  H   LIG d   1       8.972   8.060  -5.213  0.00  0.00     0.049 H 
ATOM     15  H   LIG d   1       8.403   6.435  -4.758  0.00  0.00     0.049 H 
ENDROOT
BRANCH   6  16
ATOM     16  C   LIG d   1      10.114   7.058  -2.847  0.00  0.00     0.234 C 
ATOM     17  O   LIG d   1       9.051   6.665  -2.417  0.00  0.00    -0.274 OA
ATOM     18  N   LIG d   1      10.971   7.708  -2.036  0.00  0.00    -0.303 N 
ATOM     19  H   LIG d   1      11.822   8.022  -2.380  0.00  0.00     0.149 HD
BRANCH  18  20
ATOM     20  C   LIG d   1      10.618   7.940  -0.633  0.00  0.00     0.099 C 
ATOM     21  H   LIG d   1       9.626   7.534  -0.437  0.00  0.00     0.059 H 
ATOM     22  C   LIG d   1      10.615   9.417  -0.358  0.00  0.00     0.233 C 
ATOM     23  N   LIG d   1      11.127   9.962   0.747  0.00  0.00    -0.314 N 
ATOM     24  O   LIG d   1      10.119  10.153  -1.184  0.00  0.00    -0.274 OA
ATOM     25  C   LIG d   1      11.793   9.203   1.798  0.00  0.00     0.012 C 
ATOM     26  H   LIG d   1      11.052  10.922   0.857  0.00  0.00     0.149 HD
ATOM     27  C   LIG d   1      11.418   7.724   1.711  0.00  0.00    -0.035 C 
ATOM     28  H   LIG d   1      11.491   9.594   2.770  0.00  0.00     0.046 H 
ATOM     29  H   LIG d   1      12.872   9.308   1.690  0.00  0.00     0.046 H 
ATOM     30  C   LIG d   1      11.640   7.246   0.271  0.00  0.00    -0.025 C 
ATOM     31  H   LIG d   1      10.370   7.595   1.981  0.00  0.00     0.028 H 
ATOM     32  H   LIG d   1      12.045   7.144   2.389  0.00  0.00     0.028 H 
ATOM     33  H   LIG d   1      11.502   6.165   0.217  0.00  0.00     0.029 H 
ATOM     34  H   LIG d   1      12.649   7.503  -0.050  0.00  0.00     0.029 H 
ENDBRANCH  18  20
ENDBRANCH   6  16
BRANCH   1  35
ATOM     35  S   LIG d   1      11.173   4.459  -3.138  0.00  0.00     0.030 S 
ATOM     36  O   LIG d   1      12.091   5.153  -2.305  0.00  0.00    -0.158 OA
ATOM     37  O   LIG d   1       9.854   4.178  -2.687  0.00  0.00    -0.158 OA
BRANCH  35  38
ATOM     38  C   LIG d   1      11.942   2.953  -3.797  0.00  0.00     0.071 C 
ATOM     39  H   LIG d   1      13.013   2.976  -3.598  0.00  0.00     0.048 H 
ATOM     40  H   LIG d   1      11.501   2.081  -3.316  0.00  0.00     0.048 H 
ATOM     41  H   LIG d   1      11.774   2.900  -4.872  0.00  0.00     0.048 H 
ENDBRANCH  35  38
ENDBRANCH   1  35
BRANCH   8  42
ATOM     42  C   LIG d   1       9.643   6.800  -8.957  0.00  0.00     0.143 A 
ATOM     43  N   LIG d   1      10.861   6.900  -9.481  0.00  0.00    -0.247 NA
ATOM     44  C   LIG d   1      11.095   6.438 -10.694  0.00  0.00     0.046 A 
ATOM     45  C   LIG d   1      10.073   5.846 -11.421  0.00  0.00     0.046 A 
ATOM     46  H   LIG d   1      12.084   6.519 -11.120  0.00  0.00     0.085 H 
ATOM     47  N   LIG d   1       8.861   5.744 -10.905  0.00  0.00    -0.260 NA
ATOM     48  H   LIG d   1      10.268   5.468 -12.414  0.00  0.00     0.085 H 
ATOM     49  C   LIG d   1       8.620   6.200  -9.689  0.00  0.00     0.058 A 
ATOM     50  H   LIG d   1       7.630   6.113  -9.265  0.00  0.00     0.085 H 
ENDBRANCH   8  42
TORSDOF 5
ENDMDL
