MODEL 1
REMARK VINA RESULT:      -5.7      0.000      0.000
REMARK  5 active torsions:
REMARK  status: ('A' for Active; 'I' for Inactive)
REMARK    1  A    between atoms: C_1  and  C_2 
REMARK    2  A    between atoms: C_2  and  C_3 
REMARK    3  A    between atoms: C_2  and  C_4 
REMARK    4  A    between atoms: C_2  and  C_6 
REMARK    5  A    between atoms: C_4  and  O_5 
ROOT
ATOM      1  C   LIG d   1       4.127  -1.664  -5.798  0.00  0.00     0.070 C 
ATOM      2  H   LIG d   1       3.406  -2.485  -5.904  0.00  0.00     0.060 H 
ATOM      3  C   LIG d   1       3.904  -1.003  -4.445  0.00  0.00    -0.007 C 
ATOM      4  H   LIG d   1       2.824  -0.768  -4.378  0.00  0.00     0.033 H 
ATOM      5  C   LIG d   1       4.659   0.311  -4.304  0.00  0.00    -0.044 C 
ATOM      6  C   LIG d   1       4.236   1.006  -3.007  0.00  0.00    -0.034 C 
ATOM      7  C   LIG d   1       4.293   0.045  -1.857  0.00  0.00    -0.088 C 
ATOM      8  C   LIG d   1       4.293  -1.240  -1.989  0.00  0.00    -0.084 C 
ATOM      9  C   LIG d   1       4.225  -1.960  -3.305  0.00  0.00    -0.013 C 
ATOM     10  H   LIG d   1       3.398  -2.692  -3.239  0.00  0.00     0.035 H 
ATOM     11  C   LIG d   1       5.520  -2.740  -3.518  0.00  0.00    -0.008 C 
ATOM     12  H   LIG d   1       5.535  -3.585  -2.811  0.00  0.00     0.033 H 
ATOM     13  C   LIG d   1       6.739  -1.865  -3.234  0.00  0.00    -0.047 C 
ATOM     14  C   LIG d   1       8.010  -2.709  -3.400  0.00  0.00    -0.053 C 
ATOM     15  C   LIG d   1       8.093  -3.174  -4.856  0.00  0.00    -0.051 C 
ATOM     16  C   LIG d   1       6.887  -4.058  -5.173  0.00  0.00    -0.026 C 
ATOM     17  C   LIG d   1       5.584  -3.304  -4.935  0.00  0.00     0.062 C 
ATOM     18  H   LIG d   1       4.744  -3.993  -5.079  0.00  0.00     0.060 H 
ATOM     19  O   LIG d   1       5.444  -2.223  -5.865  0.00  0.00    -0.372 OA
ATOM     20  H   LIG d   1       5.732   0.158  -4.303  0.00  0.00     0.027 H 
ATOM     21  H   LIG d   1       4.411   0.989  -5.130  0.00  0.00     0.027 H 
ATOM     22  H   LIG d   1       3.218   1.378  -3.118  0.00  0.00     0.031 H 
ATOM     23  H   LIG d   1       4.907   1.842  -2.813  0.00  0.00     0.031 H 
ATOM     24  H   LIG d   1       4.341   0.453  -0.859  0.00  0.00     0.057 H 
ATOM     25  H   LIG d   1       4.343  -1.838  -1.088  0.00  0.00     0.057 H 
ATOM     26  H   LIG d   1       6.787  -1.045  -3.948  0.00  0.00     0.027 H 
ATOM     27  H   LIG d   1       6.694  -1.478  -2.220  0.00  0.00     0.027 H 
ATOM     28  H   LIG d   1       7.959  -3.574  -2.742  0.00  0.00     0.026 H 
ATOM     29  H   LIG d   1       8.880  -2.103  -3.157  0.00  0.00     0.026 H 
ATOM     30  H   LIG d   1       9.011  -3.741  -5.003  0.00  0.00     0.027 H 
ATOM     31  H   LIG d   1       8.092  -2.305  -5.515  0.00  0.00     0.027 H 
ATOM     32  H   LIG d   1       6.915  -4.945  -4.536  0.00  0.00     0.029 H 
ATOM     33  H   LIG d   1       6.938  -4.376  -6.217  0.00  0.00     0.029 H 
ENDROOT
BRANCH   1  34
ATOM     34  C   LIG d   1       3.918  -0.682  -6.944  0.00  0.00     0.015 C 
BRANCH  34  35
ATOM     35  C   LIG d   1       2.793   0.290  -6.583  0.00  0.00    -0.055 C 
ATOM     36  H   LIG d   1       1.906  -0.273  -6.290  0.00  0.00     0.024 H 
ATOM     37  H   LIG d   1       3.111   0.923  -5.755  0.00  0.00     0.024 H 
ATOM     38  H   LIG d   1       2.559   0.912  -7.448  0.00  0.00     0.024 H 
ENDBRANCH  34  35
BRANCH  34  39
ATOM     39  C   LIG d   1       5.210   0.101  -7.188  0.00  0.00    -0.055 C 
ATOM     40  H   LIG d   1       5.321   0.866  -6.420  0.00  0.00     0.024 H 
ATOM     41  H   LIG d   1       6.060  -0.579  -7.149  0.00  0.00     0.024 H 
ATOM     42  H   LIG d   1       5.168   0.574  -8.169  0.00  0.00     0.024 H 
ENDBRANCH  34  39
BRANCH  34  43
ATOM     43  C   LIG d   1       3.540  -1.451  -8.212  0.00  0.00     0.052 C 
ATOM     44  H   LIG d   1       2.546  -1.145  -8.539  0.00  0.00     0.056 H 
ATOM     45  H   LIG d   1       4.264  -1.233  -8.998  0.00  0.00     0.056 H 
BRANCH  43  46
ATOM     46  O   LIG d   1       3.543  -2.852  -7.937  0.00  0.00    -0.394 OA
ATOM     47  H   LIG d   1       4.304  -3.150  -7.419  0.00  0.00     0.209 HD
ENDBRANCH  43  46
ENDBRANCH  34  43
ENDBRANCH   1  34
TORSDOF 5
ENDMDL
MODEL 2
REMARK VINA RESULT:      -5.6      1.578      3.896
REMARK  5 active torsions:
REMARK  status: ('A' for Active; 'I' for Inactive)
REMARK    1  A    between atoms: C_1  and  C_2 
REMARK    2  A    between atoms: C_2  and  C_3 
REMARK    3  A    between atoms: C_2  and  C_4 
REMARK    4  A    between atoms: C_2  and  C_6 
REMARK    5  A    between atoms: C_4  and  O_5 
ROOT
ATOM      1  C   LIG d   1       5.608  -0.454  -6.251  0.00  0.00     0.070 C 
ATOM      2  H   LIG d   1       6.112   0.519  -6.181  0.00  0.00     0.060 H 
ATOM      3  C   LIG d   1       6.576  -1.529  -5.779  0.00  0.00    -0.007 C 
ATOM      4  H   LIG d   1       7.518  -1.381  -6.344  0.00  0.00     0.033 H 
ATOM      5  C   LIG d   1       6.084  -2.936  -6.087  0.00  0.00    -0.044 C 
ATOM      6  C   LIG d   1       7.189  -3.946  -5.762  0.00  0.00    -0.034 C 
ATOM      7  C   LIG d   1       7.745  -3.689  -4.394  0.00  0.00    -0.088 C 
ATOM      8  C   LIG d   1       7.619  -2.569  -3.761  0.00  0.00    -0.084 C 
ATOM      9  C   LIG d   1       6.909  -1.362  -4.303  0.00  0.00    -0.013 C 
ATOM     10  H   LIG d   1       7.601  -0.503  -4.210  0.00  0.00     0.035 H 
ATOM     11  C   LIG d   1       5.686  -1.068  -3.437  0.00  0.00    -0.008 C 
ATOM     12  H   LIG d   1       6.035  -0.693  -2.462  0.00  0.00     0.033 H 
ATOM     13  C   LIG d   1       4.872  -2.337  -3.194  0.00  0.00    -0.047 C 
ATOM     14  C   LIG d   1       3.692  -2.004  -2.270  0.00  0.00    -0.053 C 
ATOM     15  C   LIG d   1       2.789  -0.995  -2.986  0.00  0.00    -0.051 C 
ATOM     16  C   LIG d   1       3.575   0.291  -3.242  0.00  0.00    -0.026 C 
ATOM     17  C   LIG d   1       4.817   0.010  -4.078  0.00  0.00     0.062 C 
ATOM     18  H   LIG d   1       5.404   0.932  -4.163  0.00  0.00     0.060 H 
ATOM     19  O   LIG d   1       4.457  -0.415  -5.398  0.00  0.00    -0.372 OA
ATOM     20  H   LIG d   1       5.190  -3.179  -5.525  0.00  0.00     0.027 H 
ATOM     21  H   LIG d   1       5.855  -3.040  -7.155  0.00  0.00     0.027 H 
ATOM     22  H   LIG d   1       7.984  -3.853  -6.502  0.00  0.00     0.031 H 
ATOM     23  H   LIG d   1       6.776  -4.953  -5.802  0.00  0.00     0.031 H 
ATOM     24  H   LIG d   1       8.281  -4.490  -3.907  0.00  0.00     0.057 H 
ATOM     25  H   LIG d   1       8.056  -2.498  -2.774  0.00  0.00     0.057 H 
ATOM     26  H   LIG d   1       4.466  -2.709  -4.131  0.00  0.00     0.027 H 
ATOM     27  H   LIG d   1       5.492  -3.096  -2.724  0.00  0.00     0.027 H 
ATOM     28  H   LIG d   1       4.067  -1.568  -1.346  0.00  0.00     0.026 H 
ATOM     29  H   LIG d   1       3.132  -2.911  -2.057  0.00  0.00     0.026 H 
ATOM     30  H   LIG d   1       1.924  -0.777  -2.361  0.00  0.00     0.027 H 
ATOM     31  H   LIG d   1       2.458  -1.416  -3.935  0.00  0.00     0.027 H 
ATOM     32  H   LIG d   1       3.871   0.727  -2.285  0.00  0.00     0.029 H 
ATOM     33  H   LIG d   1       2.935   1.004  -3.768  0.00  0.00     0.029 H 
ENDROOT
BRANCH   1  34
ATOM     34  C   LIG d   1       5.180  -0.678  -7.696  0.00  0.00     0.015 C 
BRANCH  34  35
ATOM     35  C   LIG d   1       6.342  -1.286  -8.483  0.00  0.00    -0.055 C 
ATOM     36  H   LIG d   1       6.083  -1.328  -9.541  0.00  0.00     0.024 H 
ATOM     37  H   LIG d   1       7.232  -0.670  -8.351  0.00  0.00     0.024 H 
ATOM     38  H   LIG d   1       6.540  -2.294  -8.118  0.00  0.00     0.024 H 
ENDBRANCH  34  35
BRANCH  34  39
ATOM     39  C   LIG d   1       3.984  -1.632  -7.732  0.00  0.00    -0.055 C 
ATOM     40  H   LIG d   1       3.233  -1.245  -8.420  0.00  0.00     0.024 H 
ATOM     41  H   LIG d   1       4.314  -2.614  -8.069  0.00  0.00     0.024 H 
ATOM     42  H   LIG d   1       3.555  -1.715  -6.734  0.00  0.00     0.024 H 
ENDBRANCH  34  39
BRANCH  34  43
ATOM     43  C   LIG d   1       4.785   0.660  -8.324  0.00  0.00     0.052 C 
ATOM     44  H   LIG d   1       5.623   1.355  -8.256  0.00  0.00     0.056 H 
ATOM     45  H   LIG d   1       4.524   0.507  -9.371  0.00  0.00     0.056 H 
BRANCH  43  46
ATOM     46  O   LIG d   1       3.660   1.199  -7.627  0.00  0.00    -0.394 OA
ATOM     47  H   LIG d   1       3.807   2.086  -7.271  0.00  0.00     0.209 HD
ENDBRANCH  43  46
ENDBRANCH  34  43
ENDBRANCH   1  34
TORSDOF 5
ENDMDL
MODEL 3
REMARK VINA RESULT:      -5.6      1.700      4.500
REMARK  5 active torsions:
REMARK  status: ('A' for Active; 'I' for Inactive)
REMARK    1  A    between atoms: C_1  and  C_2 
REMARK    2  A    between atoms: C_2  and  C_3 
REMARK    3  A    between atoms: C_2  and  C_4 
REMARK    4  A    between atoms: C_2  and  C_6 
REMARK    5  A    between atoms: C_4  and  O_5 
ROOT
ATOM      1  C   LIG d   1       4.289  -0.734  -4.053  0.00  0.00     0.070 C 
ATOM      2  H   LIG d   1       3.260  -1.117  -4.028  0.00  0.00     0.060 H 
ATOM      3  C   LIG d   1       5.241  -1.921  -4.043  0.00  0.00    -0.007 C 
ATOM      4  H   LIG d   1       4.939  -2.565  -3.193  0.00  0.00     0.033 H 
ATOM      5  C   LIG d   1       6.686  -1.509  -3.801  0.00  0.00    -0.044 C 
ATOM      6  C   LIG d   1       7.549  -2.760  -3.611  0.00  0.00    -0.034 C 
ATOM      7  C   LIG d   1       7.282  -3.749  -4.705  0.00  0.00    -0.088 C 
ATOM      8  C   LIG d   1       6.221  -3.742  -5.443  0.00  0.00    -0.084 C 
ATOM      9  C   LIG d   1       5.099  -2.754  -5.309  0.00  0.00    -0.013 C 
ATOM     10  H   LIG d   1       4.158  -3.331  -5.226  0.00  0.00     0.035 H 
ATOM     11  C   LIG d   1       5.017  -1.911  -6.580  0.00  0.00    -0.008 C 
ATOM     12  H   LIG d   1       4.644  -2.551  -7.395  0.00  0.00     0.033 H 
ATOM     13  C   LIG d   1       6.396  -1.390  -6.980  0.00  0.00    -0.047 C 
ATOM     14  C   LIG d   1       6.271  -0.605  -8.293  0.00  0.00    -0.053 C 
ATOM     15  C   LIG d   1       5.364   0.604  -8.047  0.00  0.00    -0.051 C 
ATOM     16  C   LIG d   1       3.971   0.116  -7.647  0.00  0.00    -0.026 C 
ATOM     17  C   LIG d   1       4.039  -0.754  -6.398  0.00  0.00     0.062 C 
ATOM     18  H   LIG d   1       3.042  -1.162  -6.195  0.00  0.00     0.060 H 
ATOM     19  O   LIG d   1       4.449   0.018  -5.262  0.00  0.00    -0.372 OA
ATOM     20  H   LIG d   1       7.077  -0.918  -4.622  0.00  0.00     0.027 H 
ATOM     21  H   LIG d   1       6.771  -0.916  -2.883  0.00  0.00     0.027 H 
ATOM     22  H   LIG d   1       7.313  -3.212  -2.648  0.00  0.00     0.031 H 
ATOM     23  H   LIG d   1       8.601  -2.477  -3.629  0.00  0.00     0.031 H 
ATOM     24  H   LIG d   1       8.024  -4.512  -4.890  0.00  0.00     0.057 H 
ATOM     25  H   LIG d   1       6.136  -4.502  -6.209  0.00  0.00     0.057 H 
ATOM     26  H   LIG d   1       6.776  -0.712  -6.220  0.00  0.00     0.027 H 
ATOM     27  H   LIG d   1       7.083  -2.220  -7.121  0.00  0.00     0.027 H 
ATOM     28  H   LIG d   1       5.832  -1.244  -9.056  0.00  0.00     0.026 H 
ATOM     29  H   LIG d   1       7.256  -0.267  -8.607  0.00  0.00     0.026 H 
ATOM     30  H   LIG d   1       5.296   1.196  -8.958  0.00  0.00     0.027 H 
ATOM     31  H   LIG d   1       5.782   1.213  -7.245  0.00  0.00     0.027 H 
ATOM     32  H   LIG d   1       3.544  -0.462  -8.470  0.00  0.00     0.029 H 
ATOM     33  H   LIG d   1       3.330   0.980  -7.456  0.00  0.00     0.029 H 
ENDROOT
BRANCH   1  34
ATOM     34  C   LIG d   1       4.502   0.168  -2.845  0.00  0.00     0.015 C 
BRANCH  34  35
ATOM     35  C   LIG d   1       4.587  -0.686  -1.579  0.00  0.00    -0.055 C 
ATOM     36  H   LIG d   1       4.382  -0.066  -0.706  0.00  0.00     0.024 H 
ATOM     37  H   LIG d   1       3.853  -1.491  -1.633  0.00  0.00     0.024 H 
ATOM     38  H   LIG d   1       5.587  -1.112  -1.494  0.00  0.00     0.024 H 
ENDBRANCH  34  35
BRANCH  34  39
ATOM     39  C   LIG d   1       5.803   0.955  -3.017  0.00  0.00    -0.055 C 
ATOM     40  H   LIG d   1       6.231   1.167  -2.038  0.00  0.00     0.024 H 
ATOM     41  H   LIG d   1       6.508   0.367  -3.603  0.00  0.00     0.024 H 
ATOM     42  H   LIG d   1       5.595   1.892  -3.534  0.00  0.00     0.024 H 
ENDBRANCH  34  39
BRANCH  34  43
ATOM     43  C   LIG d   1       3.329   1.143  -2.723  0.00  0.00     0.052 C 
ATOM     44  H   LIG d   1       2.417   0.661  -3.079  0.00  0.00     0.056 H 
ATOM     45  H   LIG d   1       3.203   1.432  -1.679  0.00  0.00     0.056 H 
BRANCH  43  46
ATOM     46  O   LIG d   1       3.592   2.306  -3.510  0.00  0.00    -0.394 OA
ATOM     47  H   LIG d   1       3.597   3.130  -3.004  0.00  0.00     0.209 HD
ENDBRANCH  43  46
ENDBRANCH  34  43
ENDBRANCH   1  34
TORSDOF 5
ENDMDL
MODEL 4
REMARK VINA RESULT:      -5.4      1.893      4.018
REMARK  5 active torsions:
REMARK  status: ('A' for Active; 'I' for Inactive)
REMARK    1  A    between atoms: C_1  and  C_2 
REMARK    2  A    between atoms: C_2  and  C_3 
REMARK    3  A    between atoms: C_2  and  C_4 
REMARK    4  A    between atoms: C_2  and  C_6 
REMARK    5  A    between atoms: C_4  and  O_5 
ROOT
ATOM      1  C   LIG d   1       5.068  -2.520  -6.259  0.00  0.00     0.070 C 
ATOM      2  H   LIG d   1       4.460  -2.011  -7.019  0.00  0.00     0.060 H 
ATOM      3  C   LIG d   1       6.390  -1.778  -6.128  0.00  0.00    -0.007 C 
ATOM      4  H   LIG d   1       6.802  -1.677  -7.152  0.00  0.00     0.033 H 
ATOM      5  C   LIG d   1       7.413  -2.548  -5.306  0.00  0.00    -0.044 C 
ATOM      6  C   LIG d   1       8.768  -1.836  -5.381  0.00  0.00    -0.034 C 
ATOM      7  C   LIG d   1       8.605  -0.374  -5.096  0.00  0.00    -0.088 C 
ATOM      8  C   LIG d   1       7.482   0.259  -5.182  0.00  0.00    -0.084 C 
ATOM      9  C   LIG d   1       6.181  -0.370  -5.589  0.00  0.00    -0.013 C 
ATOM     10  H   LIG d   1       5.759   0.243  -6.408  0.00  0.00     0.035 H 
ATOM     11  C   LIG d   1       5.206  -0.312  -4.415  0.00  0.00    -0.008 C 
ATOM     12  H   LIG d   1       4.902   0.737  -4.271  0.00  0.00     0.033 H 
ATOM     13  C   LIG d   1       5.871  -0.794  -3.128  0.00  0.00    -0.047 C 
ATOM     14  C   LIG d   1       4.874  -0.656  -1.969  0.00  0.00    -0.053 C 
ATOM     15  C   LIG d   1       3.678  -1.570  -2.251  0.00  0.00    -0.051 C 
ATOM     16  C   LIG d   1       2.986  -1.111  -3.535  0.00  0.00    -0.026 C 
ATOM     17  C   LIG d   1       3.954  -1.133  -4.711  0.00  0.00     0.062 C 
ATOM     18  H   LIG d   1       3.454  -0.711  -5.590  0.00  0.00     0.060 H 
ATOM     19  O   LIG d   1       4.349  -2.475  -5.020  0.00  0.00    -0.372 OA
ATOM     20  H   LIG d   1       7.107  -2.641  -4.270  0.00  0.00     0.027 H 
ATOM     21  H   LIG d   1       7.556  -3.557  -5.712  0.00  0.00     0.027 H 
ATOM     22  H   LIG d   1       9.184  -1.968  -6.380  0.00  0.00     0.031 H 
ATOM     23  H   LIG d   1       9.444  -2.275  -4.648  0.00  0.00     0.031 H 
ATOM     24  H   LIG d   1       9.480   0.183  -4.796  0.00  0.00     0.057 H 
ATOM     25  H   LIG d   1       7.481   1.316  -4.946  0.00  0.00     0.057 H 
ATOM     26  H   LIG d   1       6.140  -1.844  -3.214  0.00  0.00     0.027 H 
ATOM     27  H   LIG d   1       6.753  -0.196  -2.915  0.00  0.00     0.027 H 
ATOM     28  H   LIG d   1       4.538   0.376  -1.900  0.00  0.00     0.026 H 
ATOM     29  H   LIG d   1       5.355  -0.957  -1.041  0.00  0.00     0.026 H 
ATOM     30  H   LIG d   1       2.978  -1.517  -1.419  0.00  0.00     0.027 H 
ATOM     31  H   LIG d   1       4.026  -2.596  -2.371  0.00  0.00     0.027 H 
ATOM     32  H   LIG d   1       2.606  -0.097  -3.395  0.00  0.00     0.029 H 
ATOM     33  H   LIG d   1       2.143  -1.774  -3.745  0.00  0.00     0.029 H 
ENDROOT
BRANCH   1  34
ATOM     34  C   LIG d   1       5.275  -3.967  -6.690  0.00  0.00     0.015 C 
BRANCH  34  35
ATOM     35  C   LIG d   1       6.391  -4.032  -7.734  0.00  0.00    -0.055 C 
ATOM     36  H   LIG d   1       6.283  -3.203  -8.436  0.00  0.00     0.024 H 
ATOM     37  H   LIG d   1       7.359  -3.963  -7.237  0.00  0.00     0.024 H 
ATOM     38  H   LIG d   1       6.327  -4.976  -8.276  0.00  0.00     0.024 H 
ENDBRANCH  34  35
BRANCH  34  39
ATOM     39  C   LIG d   1       5.663  -4.811  -5.475  0.00  0.00    -0.055 C 
ATOM     40  H   LIG d   1       4.765  -5.229  -5.021  0.00  0.00     0.024 H 
ATOM     41  H   LIG d   1       6.321  -5.621  -5.790  0.00  0.00     0.024 H 
ATOM     42  H   LIG d   1       6.181  -4.185  -4.748  0.00  0.00     0.024 H 
ENDBRANCH  34  39
BRANCH  34  43
ATOM     43  C   LIG d   1       3.979  -4.510  -7.296  0.00  0.00     0.052 C 
ATOM     44  H   LIG d   1       3.440  -3.699  -7.788  0.00  0.00     0.056 H 
ATOM     45  H   LIG d   1       4.215  -5.284  -8.026  0.00  0.00     0.056 H 
BRANCH  43  46
ATOM     46  O   LIG d   1       3.165  -5.063  -6.260  0.00  0.00    -0.394 OA
ATOM     47  H   LIG d   1       2.619  -4.412  -5.800  0.00  0.00     0.209 HD
ENDBRANCH  43  46
ENDBRANCH  34  43
ENDBRANCH   1  34
TORSDOF 5
ENDMDL
MODEL 5
REMARK VINA RESULT:      -5.3      2.581      5.092
REMARK  5 active torsions:
REMARK  status: ('A' for Active; 'I' for Inactive)
REMARK    1  A    between atoms: C_1  and  C_2 
REMARK    2  A    between atoms: C_2  and  C_3 
REMARK    3  A    between atoms: C_2  and  C_4 
REMARK    4  A    between atoms: C_2  and  C_6 
REMARK    5  A    between atoms: C_4  and  O_5 
ROOT
ATOM      1  C   LIG d   1       7.388  -0.212  -3.856  0.00  0.00     0.070 C 
ATOM      2  H   LIG d   1       7.918  -0.480  -2.932  0.00  0.00     0.060 H 
ATOM      3  C   LIG d   1       6.914  -1.495  -4.524  0.00  0.00    -0.007 C 
ATOM      4  H   LIG d   1       7.796  -2.162  -4.598  0.00  0.00     0.033 H 
ATOM      5  C   LIG d   1       6.408  -1.263  -5.941  0.00  0.00    -0.044 C 
ATOM      6  C   LIG d   1       6.134  -2.613  -6.612  0.00  0.00    -0.034 C 
ATOM      7  C   LIG d   1       5.310  -3.485  -5.713  0.00  0.00    -0.088 C 
ATOM      8  C   LIG d   1       5.197  -3.307  -4.439  0.00  0.00    -0.084 C 
ATOM      9  C   LIG d   1       5.880  -2.213  -3.669  0.00  0.00    -0.013 C 
ATOM     10  H   LIG d   1       6.415  -2.688  -2.824  0.00  0.00     0.035 H 
ATOM     11  C   LIG d   1       4.825  -1.277  -3.084  0.00  0.00    -0.008 C 
ATOM     12  H   LIG d   1       4.298  -1.811  -2.277  0.00  0.00     0.033 H 
ATOM     13  C   LIG d   1       3.796  -0.884  -4.142  0.00  0.00    -0.047 C 
ATOM     14  C   LIG d   1       2.725   0.003  -3.492  0.00  0.00    -0.053 C 
ATOM     15  C   LIG d   1       3.399   1.284  -2.992  0.00  0.00    -0.051 C 
ATOM     16  C   LIG d   1       4.435   0.925  -1.926  0.00  0.00    -0.026 C 
ATOM     17  C   LIG d   1       5.478  -0.035  -2.485  0.00  0.00     0.062 C 
ATOM     18  H   LIG d   1       6.146  -0.344  -1.673  0.00  0.00     0.060 H 
ATOM     19  O   LIG d   1       6.266   0.603  -3.497  0.00  0.00    -0.372 OA
ATOM     20  H   LIG d   1       5.507  -0.661  -5.951  0.00  0.00     0.027 H 
ATOM     21  H   LIG d   1       7.167  -0.751  -6.544  0.00  0.00     0.027 H 
ATOM     22  H   LIG d   1       7.084  -3.104  -6.823  0.00  0.00     0.031 H 
ATOM     23  H   LIG d   1       5.598  -2.446  -7.545  0.00  0.00     0.031 H 
ATOM     24  H   LIG d   1       4.775  -4.309  -6.160  0.00  0.00     0.057 H 
ATOM     25  H   LIG d   1       4.569  -3.996  -3.888  0.00  0.00     0.057 H 
ATOM     26  H   LIG d   1       4.272  -0.308  -4.933  0.00  0.00     0.027 H 
ATOM     27  H   LIG d   1       3.325  -1.772  -4.555  0.00  0.00     0.027 H 
ATOM     28  H   LIG d   1       2.276  -0.526  -2.654  0.00  0.00     0.026 H 
ATOM     29  H   LIG d   1       1.966   0.252  -4.230  0.00  0.00     0.026 H 
ATOM     30  H   LIG d   1       2.647   1.945  -2.563  0.00  0.00     0.027 H 
ATOM     31  H   LIG d   1       3.892   1.784  -3.826  0.00  0.00     0.027 H 
ATOM     32  H   LIG d   1       3.929   0.459  -1.077  0.00  0.00     0.029 H 
ATOM     33  H   LIG d   1       4.927   1.838  -1.582  0.00  0.00     0.029 H 
ENDROOT
BRANCH   1  34
ATOM     34  C   LIG d   1       8.338   0.571  -4.753  0.00  0.00     0.015 C 
BRANCH  34  35
ATOM     35  C   LIG d   1       9.416  -0.367  -5.296  0.00  0.00    -0.055 C 
ATOM     36  H   LIG d   1       9.291  -0.481  -6.374  0.00  0.00     0.024 H 
ATOM     37  H   LIG d   1      10.401   0.051  -5.088  0.00  0.00     0.024 H 
ATOM     38  H   LIG d   1       9.326  -1.342  -4.815  0.00  0.00     0.024 H 
ENDBRANCH  34  35
BRANCH  34  39
ATOM     39  C   LIG d   1       7.555   1.178  -5.919  0.00  0.00    -0.055 C 
ATOM     40  H   LIG d   1       6.598   0.668  -6.018  0.00  0.00     0.024 H 
ATOM     41  H   LIG d   1       7.385   2.238  -5.730  0.00  0.00     0.024 H 
ATOM     42  H   LIG d   1       8.126   1.061  -6.840  0.00  0.00     0.024 H 
ENDBRANCH  34  39
BRANCH  34  43
ATOM     43  C   LIG d   1       8.997   1.690  -3.943  0.00  0.00     0.052 C 
ATOM     44  H   LIG d   1       8.817   2.648  -4.434  0.00  0.00     0.056 H 
ATOM     45  H   LIG d   1       8.572   1.711  -2.940  0.00  0.00     0.056 H 
BRANCH  43  46
ATOM     46  O   LIG d   1      10.403   1.454  -3.861  0.00  0.00    -0.394 OA
ATOM     47  H   LIG d   1      10.768   0.985  -4.624  0.00  0.00     0.209 HD
ENDBRANCH  43  46
ENDBRANCH  34  43
ENDBRANCH   1  34
TORSDOF 5
ENDMDL
MODEL 6
REMARK VINA RESULT:      -5.1      1.626      4.584
REMARK  5 active torsions:
REMARK  status: ('A' for Active; 'I' for Inactive)
REMARK    1  A    between atoms: C_1  and  C_2 
REMARK    2  A    between atoms: C_2  and  C_3 
REMARK    3  A    between atoms: C_2  and  C_4 
REMARK    4  A    between atoms: C_2  and  C_6 
REMARK    5  A    between atoms: C_4  and  O_5 
ROOT
ATOM      1  C   LIG d   1       6.257  -2.283  -4.833  0.00  0.00     0.070 C 
ATOM      2  H   LIG d   1       5.864  -3.306  -4.754  0.00  0.00     0.060 H 
ATOM      3  C   LIG d   1       5.552  -1.589  -5.989  0.00  0.00    -0.007 C 
ATOM      4  H   LIG d   1       5.643  -2.259  -6.867  0.00  0.00     0.033 H 
ATOM      5  C   LIG d   1       6.206  -0.267  -6.363  0.00  0.00    -0.044 C 
ATOM      6  C   LIG d   1       5.567   0.273  -7.646  0.00  0.00    -0.034 C 
ATOM      7  C   LIG d   1       4.072   0.243  -7.538  0.00  0.00    -0.088 C 
ATOM      8  C   LIG d   1       3.423  -0.488  -6.693  0.00  0.00    -0.084 C 
ATOM      9  C   LIG d   1       4.066  -1.420  -5.707  0.00  0.00    -0.013 C 
ATOM     10  H   LIG d   1       3.587  -2.411  -5.829  0.00  0.00     0.035 H 
ATOM     11  C   LIG d   1       3.771  -0.933  -4.290  0.00  0.00    -0.008 C 
ATOM     12  H   LIG d   1       2.703  -1.102  -4.081  0.00  0.00     0.033 H 
ATOM     13  C   LIG d   1       4.049   0.563  -4.158  0.00  0.00    -0.047 C 
ATOM     14  C   LIG d   1       3.680   1.017  -2.739  0.00  0.00    -0.053 C 
ATOM     15  C   LIG d   1       4.584   0.280  -1.747  0.00  0.00    -0.051 C 
ATOM     16  C   LIG d   1       4.328  -1.223  -1.851  0.00  0.00    -0.026 C 
ATOM     17  C   LIG d   1       4.586  -1.721  -3.268  0.00  0.00     0.062 C 
ATOM     18  H   LIG d   1       4.302  -2.778  -3.330  0.00  0.00     0.060 H 
ATOM     19  O   LIG d   1       5.975  -1.607  -3.602  0.00  0.00    -0.372 OA
ATOM     20  H   LIG d   1       6.109   0.466  -5.571  0.00  0.00     0.027 H 
ATOM     21  H   LIG d   1       7.274  -0.408  -6.569  0.00  0.00     0.027 H 
ATOM     22  H   LIG d   1       5.882  -0.344  -8.488  0.00  0.00     0.031 H 
ATOM     23  H   LIG d   1       5.898   1.299  -7.807  0.00  0.00     0.031 H 
ATOM     24  H   LIG d   1       3.504   0.875  -8.204  0.00  0.00     0.057 H 
ATOM     25  H   LIG d   1       2.343  -0.425  -6.699  0.00  0.00     0.057 H 
ATOM     26  H   LIG d   1       5.108   0.763  -4.308  0.00  0.00     0.027 H 
ATOM     27  H   LIG d   1       3.456   1.120  -4.879  0.00  0.00     0.027 H 
ATOM     28  H   LIG d   1       2.639   0.769  -2.539  0.00  0.00     0.026 H 
ATOM     29  H   LIG d   1       3.834   2.089  -2.651  0.00  0.00     0.026 H 
ATOM     30  H   LIG d   1       4.364   0.620  -0.736  0.00  0.00     0.027 H 
ATOM     31  H   LIG d   1       5.628   0.490  -1.984  0.00  0.00     0.027 H 
ATOM     32  H   LIG d   1       3.291  -1.430  -1.576  0.00  0.00     0.029 H 
ATOM     33  H   LIG d   1       4.986  -1.749  -1.155  0.00  0.00     0.029 H 
ENDROOT
BRANCH   1  34
ATOM     34  C   LIG d   1       7.762  -2.357  -5.055  0.00  0.00     0.015 C 
BRANCH  34  35
ATOM     35  C   LIG d   1       8.045  -2.757  -6.505  0.00  0.00    -0.055 C 
ATOM     36  H   LIG d   1       7.786  -1.930  -7.168  0.00  0.00     0.024 H 
ATOM     37  H   LIG d   1       9.103  -2.994  -6.617  0.00  0.00     0.024 H 
ATOM     38  H   LIG d   1       7.446  -3.631  -6.764  0.00  0.00     0.024 H 
ENDBRANCH  34  35
BRANCH  34  39
ATOM     39  C   LIG d   1       8.387  -0.989  -4.773  0.00  0.00    -0.055 C 
ATOM     40  H   LIG d   1       8.344  -0.784  -3.704  0.00  0.00     0.024 H 
ATOM     41  H   LIG d   1       9.426  -0.990  -5.100  0.00  0.00     0.024 H 
ATOM     42  H   LIG d   1       7.837  -0.220  -5.314  0.00  0.00     0.024 H 
ENDBRANCH  34  39
BRANCH  34  43
ATOM     43  C   LIG d   1       8.367  -3.399  -4.112  0.00  0.00     0.052 C 
ATOM     44  H   LIG d   1       7.730  -4.283  -4.091  0.00  0.00     0.056 H 
ATOM     45  H   LIG d   1       9.361  -3.675  -4.466  0.00  0.00     0.056 H 
BRANCH  43  46
ATOM     46  O   LIG d   1       8.466  -2.850  -2.797  0.00  0.00    -0.394 OA
ATOM     47  H   LIG d   1       7.611  -2.648  -2.391  0.00  0.00     0.209 HD
ENDBRANCH  43  46
ENDBRANCH  34  43
ENDBRANCH   1  34
TORSDOF 5
ENDMDL
MODEL 7
REMARK VINA RESULT:      -5.0      2.004      2.563
REMARK  5 active torsions:
REMARK  status: ('A' for Active; 'I' for Inactive)
REMARK    1  A    between atoms: C_1  and  C_2 
REMARK    2  A    between atoms: C_2  and  C_3 
REMARK    3  A    between atoms: C_2  and  C_4 
REMARK    4  A    between atoms: C_2  and  C_6 
REMARK    5  A    between atoms: C_4  and  O_5 
ROOT
ATOM      1  C   LIG d   1       4.973  -0.786  -6.487  0.00  0.00     0.070 C 
ATOM      2  H   LIG d   1       5.415  -1.688  -6.931  0.00  0.00     0.060 H 
ATOM      3  C   LIG d   1       4.453  -1.141  -5.101  0.00  0.00    -0.007 C 
ATOM      4  H   LIG d   1       3.813  -2.038  -5.220  0.00  0.00     0.033 H 
ATOM      5  C   LIG d   1       3.581  -0.044  -4.506  0.00  0.00    -0.044 C 
ATOM      6  C   LIG d   1       2.942  -0.548  -3.208  0.00  0.00    -0.034 C 
ATOM      7  C   LIG d   1       3.980  -1.170  -2.323  0.00  0.00    -0.088 C 
ATOM      8  C   LIG d   1       5.130  -1.587  -2.739  0.00  0.00    -0.084 C 
ATOM      9  C   LIG d   1       5.591  -1.523  -4.166  0.00  0.00    -0.013 C 
ATOM     10  H   LIG d   1       5.931  -2.538  -4.449  0.00  0.00     0.035 H 
ATOM     11  C   LIG d   1       6.793  -0.586  -4.264  0.00  0.00    -0.008 C 
ATOM     12  H   LIG d   1       7.654  -1.077  -3.781  0.00  0.00     0.033 H 
ATOM     13  C   LIG d   1       6.524   0.726  -3.531  0.00  0.00    -0.047 C 
ATOM     14  C   LIG d   1       7.780   1.606  -3.603  0.00  0.00    -0.053 C 
ATOM     15  C   LIG d   1       8.054   1.935  -5.073  0.00  0.00    -0.051 C 
ATOM     16  C   LIG d   1       8.332   0.640  -5.836  0.00  0.00    -0.026 C 
ATOM     17  C   LIG d   1       7.154  -0.321  -5.722  0.00  0.00     0.062 C 
ATOM     18  H   LIG d   1       7.424  -1.270  -6.198  0.00  0.00     0.060 H 
ATOM     19  O   LIG d   1       6.001   0.206  -6.391  0.00  0.00    -0.372 OA
ATOM     20  H   LIG d   1       4.151   0.856  -4.306  0.00  0.00     0.027 H 
ATOM     21  H   LIG d   1       2.763   0.214  -5.189  0.00  0.00     0.027 H 
ATOM     22  H   LIG d   1       2.181  -1.290  -3.451  0.00  0.00     0.031 H 
ATOM     23  H   LIG d   1       2.477   0.289  -2.689  0.00  0.00     0.031 H 
ATOM     24  H   LIG d   1       3.753  -1.270  -1.271  0.00  0.00     0.057 H 
ATOM     25  H   LIG d   1       5.805  -2.014  -2.008  0.00  0.00     0.057 H 
ATOM     26  H   LIG d   1       5.711   1.265  -4.012  0.00  0.00     0.027 H 
ATOM     27  H   LIG d   1       6.281   0.531  -2.489  0.00  0.00     0.027 H 
ATOM     28  H   LIG d   1       8.626   1.064  -3.185  0.00  0.00     0.026 H 
ATOM     29  H   LIG d   1       7.610   2.524  -3.046  0.00  0.00     0.026 H 
ATOM     30  H   LIG d   1       8.919   2.593  -5.141  0.00  0.00     0.027 H 
ATOM     31  H   LIG d   1       7.183   2.432  -5.501  0.00  0.00     0.027 H 
ATOM     32  H   LIG d   1       9.227   0.167  -5.426  0.00  0.00     0.029 H 
ATOM     33  H   LIG d   1       8.510   0.874  -6.888  0.00  0.00     0.029 H 
ENDROOT
BRANCH   1  34
ATOM     34  C   LIG d   1       3.855  -0.294  -7.398  0.00  0.00     0.015 C 
BRANCH  34  35
ATOM     35  C   LIG d   1       2.727   0.293  -6.549  0.00  0.00    -0.055 C 
ATOM     36  H   LIG d   1       2.218   1.078  -7.110  0.00  0.00     0.024 H 
ATOM     37  H   LIG d   1       2.014  -0.493  -6.297  0.00  0.00     0.024 H 
ATOM     38  H   LIG d   1       3.142   0.714  -5.633  0.00  0.00     0.024 H 
ENDBRANCH  34  35
BRANCH  34  39
ATOM     39  C   LIG d   1       4.400   0.784  -8.338  0.00  0.00    -0.055 C 
ATOM     40  H   LIG d   1       4.063   1.763  -8.000  0.00  0.00     0.024 H 
ATOM     41  H   LIG d   1       5.489   0.753  -8.333  0.00  0.00     0.024 H 
ATOM     42  H   LIG d   1       4.036   0.602  -9.348  0.00  0.00     0.024 H 
ENDBRANCH  34  39
BRANCH  34  43
ATOM     43  C   LIG d   1       3.316  -1.465  -8.223  0.00  0.00     0.052 C 
ATOM     44  H   LIG d   1       4.090  -1.813  -8.908  0.00  0.00     0.056 H 
ATOM     45  H   LIG d   1       3.029  -2.277  -7.555  0.00  0.00     0.056 H 
BRANCH  43  46
ATOM     46  O   LIG d   1       2.176  -1.036  -8.969  0.00  0.00    -0.394 OA
ATOM     47  H   LIG d   1       2.190  -1.309  -9.897  0.00  0.00     0.209 HD
ENDBRANCH  43  46
ENDBRANCH  34  43
ENDBRANCH   1  34
TORSDOF 5
ENDMDL
MODEL 8
REMARK VINA RESULT:      -4.9      1.373      4.034
REMARK  5 active torsions:
REMARK  status: ('A' for Active; 'I' for Inactive)
REMARK    1  A    between atoms: C_1  and  C_2 
REMARK    2  A    between atoms: C_2  and  C_3 
REMARK    3  A    between atoms: C_2  and  C_4 
REMARK    4  A    between atoms: C_2  and  C_6 
REMARK    5  A    between atoms: C_4  and  O_5 
ROOT
ATOM      1  C   LIG d   1       5.860  -2.487  -5.644  0.00  0.00     0.070 C 
ATOM      2  H   LIG d   1       6.867  -2.140  -5.912  0.00  0.00     0.060 H 
ATOM      3  C   LIG d   1       5.557  -2.026  -4.226  0.00  0.00    -0.007 C 
ATOM      4  H   LIG d   1       6.410  -2.348  -3.596  0.00  0.00     0.033 H 
ATOM      5  C   LIG d   1       4.306  -2.678  -3.654  0.00  0.00    -0.044 C 
ATOM      6  C   LIG d   1       4.176  -2.318  -2.170  0.00  0.00    -0.034 C 
ATOM      7  C   LIG d   1       4.342  -0.841  -1.975  0.00  0.00    -0.088 C 
ATOM      8  C   LIG d   1       4.906  -0.057  -2.833  0.00  0.00    -0.084 C 
ATOM      9  C   LIG d   1       5.487  -0.508  -4.142  0.00  0.00    -0.013 C 
ATOM     10  H   LIG d   1       6.523  -0.121  -4.194  0.00  0.00     0.035 H 
ATOM     11  C   LIG d   1       4.697   0.124  -5.286  0.00  0.00    -0.008 C 
ATOM     12  H   LIG d   1       4.924   1.202  -5.309  0.00  0.00     0.033 H 
ATOM     13  C   LIG d   1       3.194  -0.038  -5.067  0.00  0.00    -0.047 C 
ATOM     14  C   LIG d   1       2.444   0.666  -6.207  0.00  0.00    -0.053 C 
ATOM     15  C   LIG d   1       2.806  -0.028  -7.523  0.00  0.00    -0.051 C 
ATOM     16  C   LIG d   1       4.307   0.120  -7.774  0.00  0.00    -0.026 C 
ATOM     17  C   LIG d   1       5.111  -0.478  -6.626  0.00  0.00     0.062 C 
ATOM     18  H   LIG d   1       6.175  -0.271  -6.792  0.00  0.00     0.060 H 
ATOM     19  O   LIG d   1       4.933  -1.898  -6.565  0.00  0.00    -0.372 OA
ATOM     20  H   LIG d   1       3.414  -2.366  -4.184  0.00  0.00     0.027 H 
ATOM     21  H   LIG d   1       4.377  -3.770  -3.716  0.00  0.00     0.027 H 
ATOM     22  H   LIG d   1       4.945  -2.847  -1.607  0.00  0.00     0.031 H 
ATOM     23  H   LIG d   1       3.194  -2.623  -1.812  0.00  0.00     0.031 H 
ATOM     24  H   LIG d   1       3.962  -0.406  -1.062  0.00  0.00     0.057 H 
ATOM     25  H   LIG d   1       4.965   0.996  -2.589  0.00  0.00     0.057 H 
ATOM     26  H   LIG d   1       2.923  -1.091  -5.090  0.00  0.00     0.027 H 
ATOM     27  H   LIG d   1       2.903   0.405  -4.118  0.00  0.00     0.027 H 
ATOM     28  H   LIG d   1       2.747   1.710  -6.248  0.00  0.00     0.026 H 
ATOM     29  H   LIG d   1       1.373   0.592  -6.035  0.00  0.00     0.026 H 
ATOM     30  H   LIG d   1       2.252   0.432  -8.339  0.00  0.00     0.027 H 
ATOM     31  H   LIG d   1       2.549  -1.086  -7.457  0.00  0.00     0.027 H 
ATOM     32  H   LIG d   1       4.551   1.179  -7.876  0.00  0.00     0.029 H 
ATOM     33  H   LIG d   1       4.567  -0.391  -8.705  0.00  0.00     0.029 H 
ENDROOT
BRANCH   1  34
ATOM     34  C   LIG d   1       5.821  -4.005  -5.762  0.00  0.00     0.015 C 
BRANCH  34  35
ATOM     35  C   LIG d   1       6.049  -4.409  -7.220  0.00  0.00    -0.055 C 
ATOM     36  H   LIG d   1       5.548  -5.357  -7.418  0.00  0.00     0.024 H 
ATOM     37  H   LIG d   1       5.644  -3.640  -7.878  0.00  0.00     0.024 H 
ATOM     38  H   LIG d   1       7.118  -4.519  -7.403  0.00  0.00     0.024 H 
ENDBRANCH  34  35
BRANCH  34  39
ATOM     39  C   LIG d   1       6.918  -4.614  -4.886  0.00  0.00    -0.055 C 
ATOM     40  H   LIG d   1       6.470  -5.049  -3.994  0.00  0.00     0.024 H 
ATOM     41  H   LIG d   1       7.441  -5.388  -5.446  0.00  0.00     0.024 H 
ATOM     42  H   LIG d   1       7.624  -3.836  -4.596  0.00  0.00     0.024 H 
ENDBRANCH  34  39
BRANCH  34  43
ATOM     43  C   LIG d   1       4.455  -4.518  -5.299  0.00  0.00     0.052 C 
ATOM     44  H   LIG d   1       4.565  -5.521  -4.886  0.00  0.00     0.056 H 
ATOM     45  H   LIG d   1       4.058  -3.851  -4.534  0.00  0.00     0.056 H 
BRANCH  43  46
ATOM     46  O   LIG d   1       3.559  -4.556  -6.411  0.00  0.00    -0.394 OA
ATOM     47  H   LIG d   1       4.000  -4.549  -7.272  0.00  0.00     0.209 HD
ENDBRANCH  43  46
ENDBRANCH  34  43
ENDBRANCH   1  34
TORSDOF 5
ENDMDL
MODEL 9
REMARK VINA RESULT:      -4.9      3.923      7.052
REMARK  5 active torsions:
REMARK  status: ('A' for Active; 'I' for Inactive)
REMARK    1  A    between atoms: C_1  and  C_2 
REMARK    2  A    between atoms: C_2  and  C_3 
REMARK    3  A    between atoms: C_2  and  C_4 
REMARK    4  A    between atoms: C_2  and  C_6 
REMARK    5  A    between atoms: C_4  and  O_5 
ROOT
ATOM      1  C   LIG d   1       3.031  -2.621  -8.745  0.00  0.00     0.070 C 
ATOM      2  H   LIG d   1       2.223  -2.742  -8.011  0.00  0.00     0.060 H 
ATOM      3  C   LIG d   1       2.418  -2.626 -10.137  0.00  0.00    -0.007 C 
ATOM      4  H   LIG d   1       1.779  -3.530 -10.202  0.00  0.00     0.033 H 
ATOM      5  C   LIG d   1       3.465  -2.738 -11.237  0.00  0.00    -0.044 C 
ATOM      6  C   LIG d   1       2.768  -2.933 -12.587  0.00  0.00    -0.034 C 
ATOM      7  C   LIG d   1       1.681  -1.916 -12.764  0.00  0.00    -0.088 C 
ATOM      8  C   LIG d   1       1.141  -1.259 -11.792  0.00  0.00    -0.084 C 
ATOM      9  C   LIG d   1       1.512  -1.421 -10.346  0.00  0.00    -0.013 C 
ATOM     10  H   LIG d   1       0.576  -1.604  -9.783  0.00  0.00     0.035 H 
ATOM     11  C   LIG d   1       2.116  -0.116  -9.833  0.00  0.00    -0.008 C 
ATOM     12  H   LIG d   1       1.311   0.634  -9.765  0.00  0.00     0.033 H 
ATOM     13  C   LIG d   1       3.176   0.412 -10.797  0.00  0.00    -0.047 C 
ATOM     14  C   LIG d   1       3.706   1.753 -10.272  0.00  0.00    -0.053 C 
ATOM     15  C   LIG d   1       4.380   1.508  -8.919  0.00  0.00    -0.051 C 
ATOM     16  C   LIG d   1       3.343   0.981  -7.927  0.00  0.00    -0.026 C 
ATOM     17  C   LIG d   1       2.707  -0.306  -8.439  0.00  0.00     0.062 C 
ATOM     18  H   LIG d   1       1.906  -0.603  -7.753  0.00  0.00     0.060 H 
ATOM     19  O   LIG d   1       3.671  -1.364  -8.490  0.00  0.00    -0.372 OA
ATOM     20  H   LIG d   1       4.099  -1.860 -11.276  0.00  0.00     0.027 H 
ATOM     21  H   LIG d   1       4.104  -3.615 -11.074  0.00  0.00     0.027 H 
ATOM     22  H   LIG d   1       2.340  -3.934 -12.625  0.00  0.00     0.031 H 
ATOM     23  H   LIG d   1       3.500  -2.823 -13.387  0.00  0.00     0.031 H 
ATOM     24  H   LIG d   1       1.330  -1.720 -13.766  0.00  0.00     0.057 H 
ATOM     25  H   LIG d   1       0.366  -0.544 -12.037  0.00  0.00     0.057 H 
ATOM     26  H   LIG d   1       4.013  -0.280 -10.851  0.00  0.00     0.027 H 
ATOM     27  H   LIG d   1       2.745   0.558 -11.784  0.00  0.00     0.027 H 
ATOM     28  H   LIG d   1       2.876   2.446 -10.147  0.00  0.00     0.026 H 
ATOM     29  H   LIG d   1       4.430   2.157 -10.975  0.00  0.00     0.026 H 
ATOM     30  H   LIG d   1       4.799   2.442  -8.549  0.00  0.00     0.027 H 
ATOM     31  H   LIG d   1       5.177   0.773  -9.039  0.00  0.00     0.027 H 
ATOM     32  H   LIG d   1       2.568   1.737  -7.782  0.00  0.00     0.029 H 
ATOM     33  H   LIG d   1       3.829   0.790  -6.967  0.00  0.00     0.029 H 
ENDROOT
BRANCH   1  34
ATOM     34  C   LIG d   1       4.027  -3.760  -8.564  0.00  0.00     0.015 C 
BRANCH  34  35
ATOM     35  C   LIG d   1       3.509  -5.008  -9.281  0.00  0.00    -0.055 C 
ATOM     36  H   LIG d   1       3.659  -5.882  -8.645  0.00  0.00     0.024 H 
ATOM     37  H   LIG d   1       2.445  -4.891  -9.491  0.00  0.00     0.024 H 
ATOM     38  H   LIG d   1       4.052  -5.142 -10.216  0.00  0.00     0.024 H 
ENDBRANCH  34  35
BRANCH  34  39
ATOM     39  C   LIG d   1       5.379  -3.356  -9.157  0.00  0.00    -0.055 C 
ATOM     40  H   LIG d   1       5.963  -2.831  -8.402  0.00  0.00     0.024 H 
ATOM     41  H   LIG d   1       5.916  -4.247  -9.478  0.00  0.00     0.024 H 
ATOM     42  H   LIG d   1       5.218  -2.701 -10.013  0.00  0.00     0.024 H 
ENDBRANCH  34  39
BRANCH  34  43
ATOM     43  C   LIG d   1       4.193  -4.061  -7.073  0.00  0.00     0.052 C 
ATOM     44  H   LIG d   1       5.175  -4.502  -6.899  0.00  0.00     0.056 H 
ATOM     45  H   LIG d   1       4.106  -3.135  -6.504  0.00  0.00     0.056 H 
BRANCH  43  46
ATOM     46  O   LIG d   1       3.178  -4.974  -6.656  0.00  0.00    -0.394 OA
ATOM     47  H   LIG d   1       2.289  -4.738  -6.955  0.00  0.00     0.209 HD
ENDBRANCH  43  46
ENDBRANCH  34  43
ENDBRANCH   1  34
TORSDOF 5
ENDMDL
