MODEL 1
REMARK VINA RESULT:      -5.3      0.000      0.000
REMARK  8 active torsions:
REMARK  status: ('A' for Active; 'I' for Inactive)
REMARK    1  A    between atoms: C_2  and  S_15 
REMARK    2  A    between atoms: C_6  and  S_9 
REMARK    3  A    between atoms: S_9  and  C_10 
REMARK    4  A    between atoms: C_10  and  C_11 
REMARK    5  A    between atoms: C_11  and  C_12 
REMARK    6  A    between atoms: S_15  and  C_16 
REMARK    7  A    between atoms: C_16  and  C_17 
REMARK    8  A    between atoms: C_17  and  C_18 
ROOT
ATOM      1  C   LIG d   1       5.989  -0.350  -5.361  0.00  0.00     0.003 A 
ATOM      2  C   LIG d   1       5.549  -1.425  -4.654  0.00  0.00     0.058 A 
ATOM      3  C   LIG d   1       4.754  -2.486  -5.331  0.00  0.00     0.194 A 
ATOM      4  O   LIG d   1       4.360  -3.447  -4.699  0.00  0.00    -0.287 OA
ATOM      5  C   LIG d   1       4.456  -2.375  -6.707  0.00  0.00     0.003 A 
ATOM      6  C   LIG d   1       4.897  -1.299  -7.413  0.00  0.00     0.058 A 
ATOM      7  C   LIG d   1       5.693  -0.240  -6.737  0.00  0.00     0.194 A 
ATOM      8  O   LIG d   1       6.086   0.722  -7.369  0.00  0.00    -0.287 OA
ATOM      9  H   LIG d   1       6.563   0.422  -4.869  0.00  0.00     0.067 H 
ATOM     10  H   LIG d   1       3.880  -3.144  -7.198  0.00  0.00     0.067 H 
ENDROOT
BRANCH   2  11
ATOM     11  S   LIG d   1       5.920  -1.564  -2.937  0.00  0.00    -0.121 SA
BRANCH  11  12
ATOM     12  C   LIG d   1       4.301  -1.431  -2.128  0.00  0.00     0.004 C 
ATOM     13  H   LIG d   1       3.721  -2.332  -2.326  0.00  0.00     0.038 H 
ATOM     14  H   LIG d   1       4.440  -1.316  -1.054  0.00  0.00     0.038 H 
BRANCH  12  15
ATOM     15  C   LIG d   1       3.555  -0.214  -2.679  0.00  0.00    -0.004 C 
ATOM     16  H   LIG d   1       3.485  -0.291  -3.765  0.00  0.00     0.033 H 
ATOM     17  H   LIG d   1       2.552  -0.179  -2.253  0.00  0.00     0.033 H 
BRANCH  15  18
ATOM     18  C   LIG d   1       4.301   1.043  -2.312  0.00  0.00     0.043 C 
ATOM     19  O   LIG d   1       4.754   1.177  -1.188  0.00  0.00    -0.550 OA
ATOM     20  O   LIG d   1       4.452   1.926  -3.138  0.00  0.00    -0.550 OA
ENDBRANCH  15  18
ENDBRANCH  12  15
ENDBRANCH  11  12
ENDBRANCH   2  11
BRANCH   6  21
ATOM     21  S   LIG d   1       4.526  -1.161  -9.130  0.00  0.00    -0.121 SA
BRANCH  21  22
ATOM     22  C   LIG d   1       2.922  -0.313  -9.166  0.00  0.00     0.004 C 
ATOM     23  H   LIG d   1       2.193  -0.938  -9.680  0.00  0.00     0.038 H 
ATOM     24  H   LIG d   1       2.586  -0.128  -8.146  0.00  0.00     0.038 H 
BRANCH  22  25
ATOM     25  C   LIG d   1       3.066   1.018  -9.907  0.00  0.00    -0.004 C 
ATOM     26  H   LIG d   1       3.860   0.936 -10.649  0.00  0.00     0.033 H 
ATOM     27  H   LIG d   1       2.127   1.260 -10.404  0.00  0.00     0.033 H 
BRANCH  25  28
ATOM     28  C   LIG d   1       3.409   2.105  -8.922  0.00  0.00     0.043 C 
ATOM     29  O   LIG d   1       2.901   2.107  -7.814  0.00  0.00    -0.550 OA
ATOM     30  O   LIG d   1       4.194   2.985  -9.234  0.00  0.00    -0.550 OA
ENDBRANCH  25  28
ENDBRANCH  22  25
ENDBRANCH  21  22
ENDBRANCH   6  21
TORSDOF 8
ENDMDL
MODEL 2
REMARK VINA RESULT:      -5.2      1.034      5.920
REMARK  8 active torsions:
REMARK  status: ('A' for Active; 'I' for Inactive)
REMARK    1  A    between atoms: C_2  and  S_15 
REMARK    2  A    between atoms: C_6  and  S_9 
REMARK    3  A    between atoms: S_9  and  C_10 
REMARK    4  A    between atoms: C_10  and  C_11 
REMARK    5  A    between atoms: C_11  and  C_12 
REMARK    6  A    between atoms: S_15  and  C_16 
REMARK    7  A    between atoms: C_16  and  C_17 
REMARK    8  A    between atoms: C_17  and  C_18 
ROOT
ATOM      1  C   LIG d   1       4.759  -2.717  -7.486  0.00  0.00     0.003 A 
ATOM      2  C   LIG d   1       5.186  -1.486  -7.873  0.00  0.00     0.058 A 
ATOM      3  C   LIG d   1       5.434  -0.430  -6.854  0.00  0.00     0.194 A 
ATOM      4  O   LIG d   1       5.815   0.672  -7.199  0.00  0.00    -0.287 OA
ATOM      5  C   LIG d   1       5.226  -0.708  -5.485  0.00  0.00     0.003 A 
ATOM      6  C   LIG d   1       4.800  -1.941  -5.099  0.00  0.00     0.058 A 
ATOM      7  C   LIG d   1       4.553  -2.996  -6.117  0.00  0.00     0.194 A 
ATOM      8  O   LIG d   1       4.171  -4.098  -5.771  0.00  0.00    -0.287 OA
ATOM      9  H   LIG d   1       4.575  -3.483  -8.226  0.00  0.00     0.067 H 
ATOM     10  H   LIG d   1       5.406   0.057  -4.746  0.00  0.00     0.067 H 
ENDROOT
BRANCH   2  11
ATOM     11  S   LIG d   1       5.445  -1.138  -9.581  0.00  0.00    -0.121 SA
BRANCH  11  12
ATOM     12  C   LIG d   1       3.906  -0.330 -10.101  0.00  0.00     0.004 C 
ATOM     13  H   LIG d   1       3.414  -0.938 -10.860  0.00  0.00     0.038 H 
ATOM     14  H   LIG d   1       3.245  -0.218  -9.241  0.00  0.00     0.038 H 
BRANCH  12  15
ATOM     15  C   LIG d   1       4.225   1.049 -10.682  0.00  0.00    -0.004 C 
ATOM     16  H   LIG d   1       5.278   1.090 -10.963  0.00  0.00     0.033 H 
ATOM     17  H   LIG d   1       3.607   1.224 -11.563  0.00  0.00     0.033 H 
BRANCH  15  18
ATOM     18  C   LIG d   1       3.939   2.109  -9.649  0.00  0.00     0.043 C 
ATOM     19  O   LIG d   1       2.853   2.145  -9.098  0.00  0.00    -0.550 OA
ATOM     20  O   LIG d   1       4.795   2.929  -9.365  0.00  0.00    -0.550 OA
ENDBRANCH  15  18
ENDBRANCH  12  15
ENDBRANCH  11  12
ENDBRANCH   2  11
BRANCH   6  21
ATOM     21  S   LIG d   1       4.541  -2.288  -3.390  0.00  0.00    -0.121 SA
BRANCH  21  22
ATOM     22  C   LIG d   1       3.485  -0.927  -2.821  0.00  0.00     0.004 C 
ATOM     23  H   LIG d   1       3.153  -0.341  -3.678  0.00  0.00     0.038 H 
ATOM     24  H   LIG d   1       2.617  -1.334  -2.302  0.00  0.00     0.038 H 
BRANCH  22  25
ATOM     25  C   LIG d   1       4.277  -0.031  -1.867  0.00  0.00    -0.004 C 
ATOM     26  H   LIG d   1       3.650   0.237  -1.017  0.00  0.00     0.033 H 
ATOM     27  H   LIG d   1       5.159  -0.566  -1.514  0.00  0.00     0.033 H 
BRANCH  25  28
ATOM     28  C   LIG d   1       4.704   1.219  -2.591  0.00  0.00     0.043 C 
ATOM     29  O   LIG d   1       5.884   1.518  -2.649  0.00  0.00    -0.550 OA
ATOM     30  O   LIG d   1       3.867   1.933  -3.118  0.00  0.00    -0.550 OA
ENDBRANCH  25  28
ENDBRANCH  22  25
ENDBRANCH  21  22
ENDBRANCH   6  21
TORSDOF 8
ENDMDL
MODEL 3
REMARK VINA RESULT:      -5.1      1.745      5.983
REMARK  8 active torsions:
REMARK  status: ('A' for Active; 'I' for Inactive)
REMARK    1  A    between atoms: C_2  and  S_15 
REMARK    2  A    between atoms: C_6  and  S_9 
REMARK    3  A    between atoms: S_9  and  C_10 
REMARK    4  A    between atoms: C_10  and  C_11 
REMARK    5  A    between atoms: C_11  and  C_12 
REMARK    6  A    between atoms: S_15  and  C_16 
REMARK    7  A    between atoms: C_16  and  C_17 
REMARK    8  A    between atoms: C_17  and  C_18 
ROOT
ATOM      1  C   LIG d   1       4.020  -0.516  -7.395  0.00  0.00     0.003 A 
ATOM      2  C   LIG d   1       3.720  -1.583  -8.181  0.00  0.00     0.058 A 
ATOM      3  C   LIG d   1       4.024  -2.963  -7.712  0.00  0.00     0.194 A 
ATOM      4  O   LIG d   1       3.756  -3.918  -8.415  0.00  0.00    -0.287 OA
ATOM      5  C   LIG d   1       4.622  -3.162  -6.448  0.00  0.00     0.003 A 
ATOM      6  C   LIG d   1       4.922  -2.093  -5.661  0.00  0.00     0.058 A 
ATOM      7  C   LIG d   1       4.618  -0.715  -6.131  0.00  0.00     0.194 A 
ATOM      8  O   LIG d   1       4.886   0.240  -5.427  0.00  0.00    -0.287 OA
ATOM      9  H   LIG d   1       3.804   0.486  -7.738  0.00  0.00     0.067 H 
ATOM     10  H   LIG d   1       4.842  -4.162  -6.107  0.00  0.00     0.067 H 
ENDROOT
BRANCH   2  11
ATOM     11  S   LIG d   1       2.974  -1.335  -9.758  0.00  0.00    -0.121 SA
BRANCH  11  12
ATOM     12  C   LIG d   1       4.328  -0.711 -10.790  0.00  0.00     0.004 C 
ATOM     13  H   LIG d   1       5.241  -0.654 -10.197  0.00  0.00     0.038 H 
ATOM     14  H   LIG d   1       4.484  -1.385 -11.633  0.00  0.00     0.038 H 
BRANCH  12  15
ATOM     15  C   LIG d   1       3.972   0.682 -11.312  0.00  0.00    -0.004 C 
ATOM     16  H   LIG d   1       4.592   0.916 -12.178  0.00  0.00     0.033 H 
ATOM     17  H   LIG d   1       2.921   0.705 -11.601  0.00  0.00     0.033 H 
BRANCH  15  18
ATOM     18  C   LIG d   1       4.217   1.702 -10.229  0.00  0.00     0.043 C 
ATOM     19  O   LIG d   1       5.343   1.870  -9.794  0.00  0.00    -0.550 OA
ATOM     20  O   LIG d   1       3.289   2.359  -9.788  0.00  0.00    -0.550 OA
ENDBRANCH  15  18
ENDBRANCH  12  15
ENDBRANCH  11  12
ENDBRANCH   2  11
BRANCH   6  21
ATOM     21  S   LIG d   1       5.669  -2.342  -4.085  0.00  0.00    -0.121 SA
BRANCH  21  22
ATOM     22  C   LIG d   1       4.266  -2.377  -2.935  0.00  0.00     0.004 C 
ATOM     23  H   LIG d   1       3.334  -2.384  -3.499  0.00  0.00     0.038 H 
ATOM     24  H   LIG d   1       4.324  -3.275  -2.319  0.00  0.00     0.038 H 
BRANCH  22  25
ATOM     25  C   LIG d   1       4.311  -1.138  -2.038  0.00  0.00    -0.004 C 
ATOM     26  H   LIG d   1       4.080  -1.425  -1.012  0.00  0.00     0.033 H 
ATOM     27  H   LIG d   1       5.307  -0.698  -2.077  0.00  0.00     0.033 H 
BRANCH  25  28
ATOM     28  C   LIG d   1       3.297  -0.134  -2.520  0.00  0.00     0.043 C 
ATOM     29  O   LIG d   1       2.423  -0.474  -3.299  0.00  0.00    -0.550 OA
ATOM     30  O   LIG d   1       3.350   1.021  -2.130  0.00  0.00    -0.550 OA
ENDBRANCH  25  28
ENDBRANCH  22  25
ENDBRANCH  21  22
ENDBRANCH   6  21
TORSDOF 8
ENDMDL
MODEL 4
REMARK VINA RESULT:      -5.1      1.986      5.744
REMARK  8 active torsions:
REMARK  status: ('A' for Active; 'I' for Inactive)
REMARK    1  A    between atoms: C_2  and  S_15 
REMARK    2  A    between atoms: C_6  and  S_9 
REMARK    3  A    between atoms: S_9  and  C_10 
REMARK    4  A    between atoms: C_10  and  C_11 
REMARK    5  A    between atoms: C_11  and  C_12 
REMARK    6  A    between atoms: S_15  and  C_16 
REMARK    7  A    between atoms: C_16  and  C_17 
REMARK    8  A    between atoms: C_17  and  C_18 
ROOT
ATOM      1  C   LIG d   1       3.058   0.116  -6.889  0.00  0.00     0.003 A 
ATOM      2  C   LIG d   1       3.725  -0.908  -7.484  0.00  0.00     0.058 A 
ATOM      3  C   LIG d   1       4.511  -1.864  -6.658  0.00  0.00     0.194 A 
ATOM      4  O   LIG d   1       5.108  -2.781  -7.190  0.00  0.00    -0.287 OA
ATOM      5  C   LIG d   1       4.566  -1.706  -5.256  0.00  0.00     0.003 A 
ATOM      6  C   LIG d   1       3.899  -0.681  -4.661  0.00  0.00     0.058 A 
ATOM      7  C   LIG d   1       3.112   0.274  -5.486  0.00  0.00     0.194 A 
ATOM      8  O   LIG d   1       2.515   1.190  -4.953  0.00  0.00    -0.287 OA
ATOM      9  H   LIG d   1       2.491   0.813  -7.489  0.00  0.00     0.067 H 
ATOM     10  H   LIG d   1       5.136  -2.400  -4.657  0.00  0.00     0.067 H 
ENDROOT
BRANCH   2  11
ATOM     11  S   LIG d   1       3.657  -1.106  -9.234  0.00  0.00    -0.121 SA
BRANCH  11  12
ATOM     12  C   LIG d   1       2.919   0.444  -9.821  0.00  0.00     0.004 C 
ATOM     13  H   LIG d   1       2.141   0.222 -10.552  0.00  0.00     0.038 H 
ATOM     14  H   LIG d   1       2.484   0.981  -8.978  0.00  0.00     0.038 H 
BRANCH  12  15
ATOM     15  C   LIG d   1       3.999   1.308 -10.474  0.00  0.00    -0.004 C 
ATOM     16  H   LIG d   1       4.806   0.670 -10.835  0.00  0.00     0.033 H 
ATOM     17  H   LIG d   1       3.569   1.857 -11.311  0.00  0.00     0.033 H 
BRANCH  15  18
ATOM     18  C   LIG d   1       4.544   2.283  -9.461  0.00  0.00     0.043 C 
ATOM     19  O   LIG d   1       3.782   2.899  -8.737  0.00  0.00    -0.550 OA
ATOM     20  O   LIG d   1       5.747   2.455  -9.367  0.00  0.00    -0.550 OA
ENDBRANCH  15  18
ENDBRANCH  12  15
ENDBRANCH  11  12
ENDBRANCH   2  11
BRANCH   6  21
ATOM     21  S   LIG d   1       3.966  -0.484  -2.911  0.00  0.00    -0.121 SA
BRANCH  21  22
ATOM     22  C   LIG d   1       5.222   0.802  -2.662  0.00  0.00     0.004 C 
ATOM     23  H   LIG d   1       4.978   1.670  -3.273  0.00  0.00     0.038 H 
ATOM     24  H   LIG d   1       5.241   1.092  -1.611  0.00  0.00     0.038 H 
BRANCH  22  25
ATOM     25  C   LIG d   1       6.594   0.260  -3.067  0.00  0.00    -0.004 C 
ATOM     26  H   LIG d   1       7.195   0.090  -2.174  0.00  0.00     0.033 H 
ATOM     27  H   LIG d   1       6.469  -0.678  -3.607  0.00  0.00     0.033 H 
BRANCH  25  28
ATOM     28  C   LIG d   1       7.286   1.262  -3.955  0.00  0.00     0.043 C 
ATOM     29  O   LIG d   1       8.050   2.080  -3.472  0.00  0.00    -0.550 OA
ATOM     30  O   LIG d   1       7.080   1.255  -5.157  0.00  0.00    -0.550 OA
ENDBRANCH  25  28
ENDBRANCH  22  25
ENDBRANCH  21  22
ENDBRANCH   6  21
TORSDOF 8
ENDMDL
MODEL 5
REMARK VINA RESULT:      -5.0      1.817      2.403
REMARK  8 active torsions:
REMARK  status: ('A' for Active; 'I' for Inactive)
REMARK    1  A    between atoms: C_2  and  S_15 
REMARK    2  A    between atoms: C_6  and  S_9 
REMARK    3  A    between atoms: S_9  and  C_10 
REMARK    4  A    between atoms: C_10  and  C_11 
REMARK    5  A    between atoms: C_11  and  C_12 
REMARK    6  A    between atoms: S_15  and  C_16 
REMARK    7  A    between atoms: C_16  and  C_17 
REMARK    8  A    between atoms: C_17  and  C_18 
ROOT
ATOM      1  C   LIG d   1       4.503  -2.181  -6.926  0.00  0.00     0.003 A 
ATOM      2  C   LIG d   1       4.375  -1.226  -5.966  0.00  0.00     0.058 A 
ATOM      3  C   LIG d   1       3.489  -0.053  -6.197  0.00  0.00     0.194 A 
ATOM      4  O   LIG d   1       3.374   0.801  -5.339  0.00  0.00    -0.287 OA
ATOM      5  C   LIG d   1       2.782   0.069  -7.414  0.00  0.00     0.003 A 
ATOM      6  C   LIG d   1       2.911  -0.887  -8.374  0.00  0.00     0.058 A 
ATOM      7  C   LIG d   1       3.796  -2.060  -8.142  0.00  0.00     0.194 A 
ATOM      8  O   LIG d   1       3.910  -2.914  -9.001  0.00  0.00    -0.287 OA
ATOM      9  H   LIG d   1       5.150  -3.031  -6.760  0.00  0.00     0.067 H 
ATOM     10  H   LIG d   1       2.140   0.920  -7.581  0.00  0.00     0.067 H 
ENDROOT
BRANCH   2  11
ATOM     11  S   LIG d   1       5.257  -1.377  -4.448  0.00  0.00    -0.121 SA
BRANCH  11  12
ATOM     12  C   LIG d   1       3.958  -1.654  -3.213  0.00  0.00     0.004 C 
ATOM     13  H   LIG d   1       3.034  -1.179  -3.544  0.00  0.00     0.038 H 
ATOM     14  H   LIG d   1       3.793  -2.725  -3.092  0.00  0.00     0.038 H 
BRANCH  12  15
ATOM     15  C   LIG d   1       4.390  -1.051  -1.875  0.00  0.00    -0.004 C 
ATOM     16  H   LIG d   1       3.754  -1.440  -1.079  0.00  0.00     0.033 H 
ATOM     17  H   LIG d   1       5.427  -1.319  -1.673  0.00  0.00     0.033 H 
BRANCH  15  18
ATOM     18  C   LIG d   1       4.260   0.449  -1.934  0.00  0.00     0.043 C 
ATOM     19  O   LIG d   1       5.252   1.151  -1.839  0.00  0.00    -0.550 OA
ATOM     20  O   LIG d   1       3.163   0.961  -2.076  0.00  0.00    -0.550 OA
ENDBRANCH  15  18
ENDBRANCH  12  15
ENDBRANCH  11  12
ENDBRANCH   2  11
BRANCH   6  21
ATOM     21  S   LIG d   1       2.028  -0.735  -9.891  0.00  0.00    -0.121 SA
BRANCH  21  22
ATOM     22  C   LIG d   1       3.179   0.146 -10.982  0.00  0.00     0.004 C 
ATOM     23  H   LIG d   1       3.437  -0.490 -11.829  0.00  0.00     0.038 H 
ATOM     24  H   LIG d   1       2.708   1.060 -11.345  0.00  0.00     0.038 H 
BRANCH  22  25
ATOM     25  C   LIG d   1       4.449   0.500 -10.205  0.00  0.00    -0.004 C 
ATOM     26  H   LIG d   1       4.540  -0.158  -9.340  0.00  0.00     0.033 H 
ATOM     27  H   LIG d   1       5.317   0.374 -10.851  0.00  0.00     0.033 H 
BRANCH  25  28
ATOM     28  C   LIG d   1       4.370   1.931  -9.741  0.00  0.00     0.043 C 
ATOM     29  O   LIG d   1       3.453   2.643 -10.111  0.00  0.00    -0.550 OA
ATOM     30  O   LIG d   1       5.226   2.378  -8.995  0.00  0.00    -0.550 OA
ENDBRANCH  25  28
ENDBRANCH  22  25
ENDBRANCH  21  22
ENDBRANCH   6  21
TORSDOF 8
ENDMDL
MODEL 6
REMARK VINA RESULT:      -4.9      2.504      2.887
REMARK  8 active torsions:
REMARK  status: ('A' for Active; 'I' for Inactive)
REMARK    1  A    between atoms: C_2  and  S_15 
REMARK    2  A    between atoms: C_6  and  S_9 
REMARK    3  A    between atoms: S_9  and  C_10 
REMARK    4  A    between atoms: C_10  and  C_11 
REMARK    5  A    between atoms: C_11  and  C_12 
REMARK    6  A    between atoms: S_15  and  C_16 
REMARK    7  A    between atoms: C_16  and  C_17 
REMARK    8  A    between atoms: C_17  and  C_18 
ROOT
ATOM      1  C   LIG d   1       3.809  -0.289  -5.533  0.00  0.00     0.003 A 
ATOM      2  C   LIG d   1       4.370  -1.528  -5.526  0.00  0.00     0.058 A 
ATOM      3  C   LIG d   1       4.441  -2.319  -6.784  0.00  0.00     0.194 A 
ATOM      4  O   LIG d   1       4.942  -3.428  -6.779  0.00  0.00    -0.287 OA
ATOM      5  C   LIG d   1       3.927  -1.783  -7.985  0.00  0.00     0.003 A 
ATOM      6  C   LIG d   1       3.366  -0.544  -7.992  0.00  0.00     0.058 A 
ATOM      7  C   LIG d   1       3.296   0.248  -6.735  0.00  0.00     0.194 A 
ATOM      8  O   LIG d   1       2.795   1.356  -6.741  0.00  0.00    -0.287 OA
ATOM      9  H   LIG d   1       3.754   0.284  -4.619  0.00  0.00     0.067 H 
ATOM     10  H   LIG d   1       3.978  -2.357  -8.898  0.00  0.00     0.067 H 
ENDROOT
BRANCH   2  11
ATOM     11  S   LIG d   1       5.011  -2.197  -4.028  0.00  0.00    -0.121 SA
BRANCH  11  12
ATOM     12  C   LIG d   1       3.801  -1.698  -2.773  0.00  0.00     0.004 C 
ATOM     13  H   LIG d   1       3.031  -1.079  -3.235  0.00  0.00     0.038 H 
ATOM     14  H   LIG d   1       3.341  -2.585  -2.338  0.00  0.00     0.038 H 
BRANCH  12  15
ATOM     15  C   LIG d   1       4.505  -0.899  -1.674  0.00  0.00    -0.004 C 
ATOM     16  H   LIG d   1       4.012  -1.082  -0.719  0.00  0.00     0.033 H 
ATOM     17  H   LIG d   1       5.548  -1.211  -1.609  0.00  0.00     0.033 H 
BRANCH  15  18
ATOM     18  C   LIG d   1       4.439   0.571  -2.000  0.00  0.00     0.043 C 
ATOM     19  O   LIG d   1       3.360   1.137  -2.047  0.00  0.00    -0.550 OA
ATOM     20  O   LIG d   1       5.464   1.194  -2.218  0.00  0.00    -0.550 OA
ENDBRANCH  15  18
ENDBRANCH  12  15
ENDBRANCH  11  12
ENDBRANCH   2  11
BRANCH   6  21
ATOM     21  S   LIG d   1       2.725   0.125  -9.491  0.00  0.00    -0.121 SA
BRANCH  21  22
ATOM     22  C   LIG d   1       1.476  -1.084 -10.012  0.00  0.00     0.004 C 
ATOM     23  H   LIG d   1       1.757  -2.074  -9.653  0.00  0.00     0.038 H 
ATOM     24  H   LIG d   1       0.508  -0.809  -9.595  0.00  0.00     0.038 H 
BRANCH  22  25
ATOM     25  C   LIG d   1       1.389  -1.101 -11.540  0.00  0.00    -0.004 C 
ATOM     26  H   LIG d   1       0.567  -1.745 -11.849  0.00  0.00     0.033 H 
ATOM     27  H   LIG d   1       1.216  -0.089 -11.905  0.00  0.00     0.033 H 
BRANCH  25  28
ATOM     28  C   LIG d   1       2.681  -1.627 -12.109  0.00  0.00     0.043 C 
ATOM     29  O   LIG d   1       3.305  -0.965 -12.921  0.00  0.00    -0.550 OA
ATOM     30  O   LIG d   1       3.103  -2.717 -11.759  0.00  0.00    -0.550 OA
ENDBRANCH  25  28
ENDBRANCH  22  25
ENDBRANCH  21  22
ENDBRANCH   6  21
TORSDOF 8
ENDMDL
MODEL 7
REMARK VINA RESULT:      -4.9      3.622      5.330
REMARK  8 active torsions:
REMARK  status: ('A' for Active; 'I' for Inactive)
REMARK    1  A    between atoms: C_2  and  S_15 
REMARK    2  A    between atoms: C_6  and  S_9 
REMARK    3  A    between atoms: S_9  and  C_10 
REMARK    4  A    between atoms: C_10  and  C_11 
REMARK    5  A    between atoms: C_11  and  C_12 
REMARK    6  A    between atoms: S_15  and  C_16 
REMARK    7  A    between atoms: C_16  and  C_17 
REMARK    8  A    between atoms: C_17  and  C_18 
ROOT
ATOM      1  C   LIG d   1       7.317   1.269  -3.881  0.00  0.00     0.003 A 
ATOM      2  C   LIG d   1       8.105   0.393  -4.560  0.00  0.00     0.058 A 
ATOM      3  C   LIG d   1       7.835  -1.068  -4.479  0.00  0.00     0.194 A 
ATOM      4  O   LIG d   1       8.540  -1.852  -5.086  0.00  0.00    -0.287 OA
ATOM      5  C   LIG d   1       6.759  -1.545  -3.698  0.00  0.00     0.003 A 
ATOM      6  C   LIG d   1       5.970  -0.668  -3.020  0.00  0.00     0.058 A 
ATOM      7  C   LIG d   1       6.240   0.792  -3.101  0.00  0.00     0.194 A 
ATOM      8  O   LIG d   1       5.535   1.576  -2.494  0.00  0.00    -0.287 OA
ATOM      9  H   LIG d   1       7.516   2.329  -3.936  0.00  0.00     0.067 H 
ATOM     10  H   LIG d   1       6.562  -2.605  -3.640  0.00  0.00     0.067 H 
ENDROOT
BRANCH   2  11
ATOM     11  S   LIG d   1       9.448   0.987  -5.534  0.00  0.00    -0.121 SA
BRANCH  11  12
ATOM     12  C   LIG d   1      10.615   1.648  -4.313  0.00  0.00     0.004 C 
ATOM     13  H   LIG d   1      10.181   1.572  -3.316  0.00  0.00     0.038 H 
ATOM     14  H   LIG d   1      11.543   1.077  -4.349  0.00  0.00     0.038 H 
BRANCH  12  15
ATOM     15  C   LIG d   1      10.908   3.116  -4.630  0.00  0.00    -0.004 C 
ATOM     16  H   LIG d   1      11.875   3.393  -4.208  0.00  0.00     0.033 H 
ATOM     17  H   LIG d   1      10.931   3.257  -5.711  0.00  0.00     0.033 H 
BRANCH  15  18
ATOM     18  C   LIG d   1       9.832   3.984  -4.032  0.00  0.00     0.043 C 
ATOM     19  O   LIG d   1       9.664   4.003  -2.825  0.00  0.00    -0.550 OA
ATOM     20  O   LIG d   1       9.128   4.668  -4.755  0.00  0.00    -0.550 OA
ENDBRANCH  15  18
ENDBRANCH  12  15
ENDBRANCH  11  12
ENDBRANCH   2  11
BRANCH   6  21
ATOM     21  S   LIG d   1       4.628  -1.263  -2.046  0.00  0.00    -0.121 SA
BRANCH  21  22
ATOM     22  C   LIG d   1       3.338  -1.645  -3.263  0.00  0.00     0.004 C 
ATOM     23  H   LIG d   1       3.802  -1.917  -4.211  0.00  0.00     0.038 H 
ATOM     24  H   LIG d   1       2.734  -2.479  -2.903  0.00  0.00     0.038 H 
BRANCH  22  25
ATOM     25  C   LIG d   1       2.447  -0.418  -3.464  0.00  0.00    -0.004 C 
ATOM     26  H   LIG d   1       1.414  -0.738  -3.604  0.00  0.00     0.033 H 
ATOM     27  H   LIG d   1       2.512   0.226  -2.587  0.00  0.00     0.033 H 
BRANCH  25  28
ATOM     28  C   LIG d   1       2.906   0.341  -4.682  0.00  0.00     0.043 C 
ATOM     29  O   LIG d   1       2.706   1.541  -4.764  0.00  0.00    -0.550 OA
ATOM     30  O   LIG d   1       3.478  -0.245  -5.585  0.00  0.00    -0.550 OA
ENDBRANCH  25  28
ENDBRANCH  22  25
ENDBRANCH  21  22
ENDBRANCH   6  21
TORSDOF 8
ENDMDL
MODEL 8
REMARK VINA RESULT:      -4.8      4.133      6.982
REMARK  8 active torsions:
REMARK  status: ('A' for Active; 'I' for Inactive)
REMARK    1  A    between atoms: C_2  and  S_15 
REMARK    2  A    between atoms: C_6  and  S_9 
REMARK    3  A    between atoms: S_9  and  C_10 
REMARK    4  A    between atoms: C_10  and  C_11 
REMARK    5  A    between atoms: C_11  and  C_12 
REMARK    6  A    between atoms: S_15  and  C_16 
REMARK    7  A    between atoms: C_16  and  C_17 
REMARK    8  A    between atoms: C_17  and  C_18 
ROOT
ATOM      1  C   LIG d   1       7.192  -4.910  -5.357  0.00  0.00     0.003 A 
ATOM      2  C   LIG d   1       6.055  -5.515  -5.795  0.00  0.00     0.058 A 
ATOM      3  C   LIG d   1       4.732  -4.881  -5.547  0.00  0.00     0.194 A 
ATOM      4  O   LIG d   1       3.715  -5.422  -5.939  0.00  0.00    -0.287 OA
ATOM      5  C   LIG d   1       4.657  -3.651  -4.858  0.00  0.00     0.003 A 
ATOM      6  C   LIG d   1       5.794  -3.046  -4.420  0.00  0.00     0.058 A 
ATOM      7  C   LIG d   1       7.116  -3.679  -4.668  0.00  0.00     0.194 A 
ATOM      8  O   LIG d   1       8.133  -3.138  -4.277  0.00  0.00    -0.287 OA
ATOM      9  H   LIG d   1       8.152  -5.372  -5.532  0.00  0.00     0.067 H 
ATOM     10  H   LIG d   1       3.697  -3.190  -4.679  0.00  0.00     0.067 H 
ENDROOT
BRANCH   2  11
ATOM     11  S   LIG d   1       6.149  -7.050  -6.655  0.00  0.00    -0.121 SA
BRANCH  11  12
ATOM     12  C   LIG d   1       6.123  -8.293  -5.334  0.00  0.00     0.004 C 
ATOM     13  H   LIG d   1       6.617  -9.202  -5.679  0.00  0.00     0.038 H 
ATOM     14  H   LIG d   1       6.644  -7.906  -4.459  0.00  0.00     0.038 H 
BRANCH  12  15
ATOM     15  C   LIG d   1       4.673  -8.613  -4.963  0.00  0.00    -0.004 C 
ATOM     16  H   LIG d   1       4.319  -7.892  -4.226  0.00  0.00     0.033 H 
ATOM     17  H   LIG d   1       4.049  -8.557  -5.855  0.00  0.00     0.033 H 
BRANCH  15  18
ATOM     18  C   LIG d   1       4.597 -10.002  -4.383  0.00  0.00     0.043 C 
ATOM     19  O   LIG d   1       5.585 -10.506  -3.877  0.00  0.00    -0.550 OA
ATOM     20  O   LIG d   1       3.548 -10.622  -4.420  0.00  0.00    -0.550 OA
ENDBRANCH  15  18
ENDBRANCH  12  15
ENDBRANCH  11  12
ENDBRANCH   2  11
BRANCH   6  21
ATOM     21  S   LIG d   1       5.700  -1.511  -3.560  0.00  0.00    -0.121 SA
BRANCH  21  22
ATOM     22  C   LIG d   1       4.011  -0.930  -3.882  0.00  0.00     0.004 C 
ATOM     23  H   LIG d   1       4.029  -0.182  -4.674  0.00  0.00     0.038 H 
ATOM     24  H   LIG d   1       3.391  -1.771  -4.192  0.00  0.00     0.038 H 
BRANCH  22  25
ATOM     25  C   LIG d   1       3.434  -0.311  -2.607  0.00  0.00    -0.004 C 
ATOM     26  H   LIG d   1       2.358  -0.176  -2.725  0.00  0.00     0.033 H 
ATOM     27  H   LIG d   1       3.628  -0.971  -1.763  0.00  0.00     0.033 H 
BRANCH  25  28
ATOM     28  C   LIG d   1       4.083   1.026  -2.361  0.00  0.00     0.043 C 
ATOM     29  O   LIG d   1       4.760   1.200  -1.362  0.00  0.00    -0.550 OA
ATOM     30  O   LIG d   1       3.931   1.935  -3.160  0.00  0.00    -0.550 OA
ENDBRANCH  25  28
ENDBRANCH  22  25
ENDBRANCH  21  22
ENDBRANCH   6  21
TORSDOF 8
ENDMDL
MODEL 9
REMARK VINA RESULT:      -4.8      1.900      5.638
REMARK  8 active torsions:
REMARK  status: ('A' for Active; 'I' for Inactive)
REMARK    1  A    between atoms: C_2  and  S_15 
REMARK    2  A    between atoms: C_6  and  S_9 
REMARK    3  A    between atoms: S_9  and  C_10 
REMARK    4  A    between atoms: C_10  and  C_11 
REMARK    5  A    between atoms: C_11  and  C_12 
REMARK    6  A    between atoms: S_15  and  C_16 
REMARK    7  A    between atoms: C_16  and  C_17 
REMARK    8  A    between atoms: C_17  and  C_18 
ROOT
ATOM      1  C   LIG d   1       6.059  -0.536  -6.666  0.00  0.00     0.003 A 
ATOM      2  C   LIG d   1       7.094   0.328  -6.492  0.00  0.00     0.058 A 
ATOM      3  C   LIG d   1       7.615   0.599  -5.124  0.00  0.00     0.194 A 
ATOM      4  O   LIG d   1       8.541   1.372  -4.968  0.00  0.00    -0.287 OA
ATOM      5  C   LIG d   1       7.033  -0.041  -4.008  0.00  0.00     0.003 A 
ATOM      6  C   LIG d   1       5.997  -0.906  -4.183  0.00  0.00     0.058 A 
ATOM      7  C   LIG d   1       5.478  -1.177  -5.550  0.00  0.00     0.194 A 
ATOM      8  O   LIG d   1       4.552  -1.951  -5.706  0.00  0.00    -0.287 OA
ATOM      9  H   LIG d   1       5.678  -0.730  -7.658  0.00  0.00     0.067 H 
ATOM     10  H   LIG d   1       7.411   0.155  -3.016  0.00  0.00     0.067 H 
ENDROOT
BRANCH   2  11
ATOM     11  S   LIG d   1       7.820   1.127  -7.884  0.00  0.00    -0.121 SA
BRANCH  11  12
ATOM     12  C   LIG d   1       6.525   1.058  -9.152  0.00  0.00     0.004 C 
ATOM     13  H   LIG d   1       6.980   0.896 -10.130  0.00  0.00     0.038 H 
ATOM     14  H   LIG d   1       5.841   0.240  -8.930  0.00  0.00     0.038 H 
BRANCH  12  15
ATOM     15  C   LIG d   1       5.752   2.379  -9.164  0.00  0.00    -0.004 C 
ATOM     16  H   LIG d   1       6.011   2.959  -8.278  0.00  0.00     0.033 H 
ATOM     17  H   LIG d   1       6.013   2.945 -10.058  0.00  0.00     0.033 H 
BRANCH  15  18
ATOM     18  C   LIG d   1       4.272   2.096  -9.163  0.00  0.00     0.043 C 
ATOM     19  O   LIG d   1       3.723   1.722  -8.141  0.00  0.00    -0.550 OA
ATOM     20  O   LIG d   1       3.623   2.239 -10.185  0.00  0.00    -0.550 OA
ENDBRANCH  15  18
ENDBRANCH  12  15
ENDBRANCH  11  12
ENDBRANCH   2  11
BRANCH   6  21
ATOM     21  S   LIG d   1       5.272  -1.704  -2.790  0.00  0.00    -0.121 SA
BRANCH  21  22
ATOM     22  C   LIG d   1       4.321  -0.391  -1.976  0.00  0.00     0.004 C 
ATOM     23  H   LIG d   1       4.055  -0.707  -0.968  0.00  0.00     0.038 H 
ATOM     24  H   LIG d   1       4.925   0.515  -1.925  0.00  0.00     0.038 H 
BRANCH  22  25
ATOM     25  C   LIG d   1       3.048  -0.113  -2.777  0.00  0.00    -0.004 C 
ATOM     26  H   LIG d   1       2.823  -0.971  -3.411  0.00  0.00     0.033 H 
ATOM     27  H   LIG d   1       2.219   0.062  -2.092  0.00  0.00     0.033 H 
BRANCH  25  28
ATOM     28  C   LIG d   1       3.254   1.107  -3.638  0.00  0.00     0.043 C 
ATOM     29  O   LIG d   1       2.756   1.160  -4.750  0.00  0.00    -0.550 OA
ATOM     30  O   LIG d   1       3.920   2.040  -3.223  0.00  0.00    -0.550 OA
ENDBRANCH  25  28
ENDBRANCH  22  25
ENDBRANCH  21  22
ENDBRANCH   6  21
TORSDOF 8
ENDMDL
MODEL 10
REMARK VINA RESULT:      -4.7      2.138      2.778
REMARK  8 active torsions:
REMARK  status: ('A' for Active; 'I' for Inactive)
REMARK    1  A    between atoms: C_2  and  S_15 
REMARK    2  A    between atoms: C_6  and  S_9 
REMARK    3  A    between atoms: S_9  and  C_10 
REMARK    4  A    between atoms: C_10  and  C_11 
REMARK    5  A    between atoms: C_11  and  C_12 
REMARK    6  A    between atoms: S_15  and  C_16 
REMARK    7  A    between atoms: C_16  and  C_17 
REMARK    8  A    between atoms: C_17  and  C_18 
ROOT
ATOM      1  C   LIG d   1       2.781   0.342  -6.191  0.00  0.00     0.003 A 
ATOM      2  C   LIG d   1       3.409  -0.446  -5.279  0.00  0.00     0.058 A 
ATOM      3  C   LIG d   1       4.426  -1.436  -5.725  0.00  0.00     0.194 A 
ATOM      4  O   LIG d   1       4.989  -2.142  -4.909  0.00  0.00    -0.287 OA
ATOM      5  C   LIG d   1       4.739  -1.557  -7.097  0.00  0.00     0.003 A 
ATOM      6  C   LIG d   1       4.111  -0.768  -8.010  0.00  0.00     0.058 A 
ATOM      7  C   LIG d   1       3.094   0.222  -7.563  0.00  0.00     0.194 A 
ATOM      8  O   LIG d   1       2.533   0.927  -8.380  0.00  0.00    -0.287 OA
ATOM      9  H   LIG d   1       2.039   1.057  -5.868  0.00  0.00     0.067 H 
ATOM     10  H   LIG d   1       5.478  -2.275  -7.421  0.00  0.00     0.067 H 
ENDROOT
BRANCH   2  11
ATOM     11  S   LIG d   1       3.019  -0.297  -3.567  0.00  0.00    -0.121 SA
BRANCH  11  12
ATOM     12  C   LIG d   1       3.766   1.284  -3.085  0.00  0.00     0.004 C 
ATOM     13  H   LIG d   1       4.046   1.842  -3.979  0.00  0.00     0.038 H 
ATOM     14  H   LIG d   1       3.048   1.864  -2.505  0.00  0.00     0.038 H 
BRANCH  12  15
ATOM     15  C   LIG d   1       5.012   1.022  -2.237  0.00  0.00    -0.004 C 
ATOM     16  H   LIG d   1       5.214   1.890  -1.608  0.00  0.00     0.033 H 
ATOM     17  H   LIG d   1       4.846   0.148  -1.607  0.00  0.00     0.033 H 
BRANCH  15  18
ATOM     18  C   LIG d   1       6.192   0.772  -3.141  0.00  0.00     0.043 C 
ATOM     19  O   LIG d   1       6.513   1.608  -3.968  0.00  0.00    -0.550 OA
ATOM     20  O   LIG d   1       6.825  -0.265  -3.046  0.00  0.00    -0.550 OA
ENDBRANCH  15  18
ENDBRANCH  12  15
ENDBRANCH  11  12
ENDBRANCH   2  11
BRANCH   6  21
ATOM     21  S   LIG d   1       4.501  -0.918  -9.721  0.00  0.00    -0.121 SA
BRANCH  21  22
ATOM     22  C   LIG d   1       5.311   0.654 -10.127  0.00  0.00     0.004 C 
ATOM     23  H   LIG d   1       5.279   0.811 -11.204  0.00  0.00     0.038 H 
ATOM     24  H   LIG d   1       4.790   1.470  -9.626  0.00  0.00     0.038 H 
BRANCH  22  25
ATOM     25  C   LIG d   1       6.767   0.613  -9.659  0.00  0.00    -0.004 C 
ATOM     26  H   LIG d   1       6.961  -0.337  -9.160  0.00  0.00     0.033 H 
ATOM     27  H   LIG d   1       7.428   0.714 -10.519  0.00  0.00     0.033 H 
BRANCH  25  28
ATOM     28  C   LIG d   1       7.017   1.745  -8.697  0.00  0.00     0.043 C 
ATOM     29  O   LIG d   1       6.853   1.577  -7.501  0.00  0.00    -0.550 OA
ATOM     30  O   LIG d   1       7.382   2.832  -9.116  0.00  0.00    -0.550 OA
ENDBRANCH  25  28
ENDBRANCH  22  25
ENDBRANCH  21  22
ENDBRANCH   6  21
TORSDOF 8
ENDMDL
