MODEL 1
REMARK VINA RESULT:      -7.3      0.000      0.000
REMARK  5 active torsions:
REMARK  status: ('A' for Active; 'I' for Inactive)
REMARK    1  A    between atoms: C_1  and  C_2 
REMARK    2  A    between atoms: C_3  and  C_23 
REMARK    3  A    between atoms: C_10  and  C_13 
REMARK    4  A    between atoms: C_13  and  N_14 
REMARK    5  A    between atoms: C_19  and  C_21 
ROOT
ATOM      1  C   LIG d   1       3.672  -3.926  -8.325  0.00  0.00     0.116 A 
ATOM      2  C   LIG d   1       2.847  -4.138  -9.386  0.00  0.00     0.092 A 
ATOM      3  C   LIG d   1       2.177  -2.979 -10.004  0.00  0.00     0.202 A 
ATOM      4  O   LIG d   1       1.427  -3.107 -10.957  0.00  0.00    -0.286 OA
ATOM      5  C   LIG d   1       2.459  -1.658  -9.414  0.00  0.00     0.065 A 
ATOM      6  C   LIG d   1       1.875  -0.497  -9.924  0.00  0.00    -0.048 A 
ATOM      7  C   LIG d   1       2.157   0.710  -9.353  0.00  0.00    -0.068 A 
ATOM      8  C   LIG d   1       3.023   0.789  -8.265  0.00  0.00    -0.097 A 
ATOM      9  C   LIG d   1       3.611  -0.353  -7.748  0.00  0.00     0.032 A 
ATOM     10  C   LIG d   1       3.335  -1.589  -8.317  0.00  0.00     0.146 A 
ATOM     11  O   LIG d   1       3.898  -2.711  -7.824  0.00  0.00    -0.459 OA
ATOM     12  O   LIG d   1       3.294   1.997  -7.707  0.00  0.00    -0.873 OA
ATOM     13  H   LIG d   1       1.202  -0.555 -10.768  0.00  0.00     0.063 H 
ATOM     14  H   LIG d   1       1.709   1.610  -9.749  0.00  0.00     0.061 H 
ENDROOT
BRANCH   9  15
ATOM     15  C   LIG d   1       4.547  -0.255  -6.571  0.00  0.00    -0.003 C 
ATOM     16  H   LIG d   1       5.553  -0.580  -6.873  0.00  0.00     0.087 H 
ATOM     17  H   LIG d   1       4.588   0.788  -6.222  0.00  0.00     0.087 H 
BRANCH  15  18
ATOM     18  N   LIG d   1       4.059  -1.115  -5.485  0.00  0.00     0.240 N 
ATOM     19  C   LIG d   1       3.602  -0.314  -4.343  0.00  0.00    -0.023 C 
ATOM     20  C   LIG d   1       2.969  -1.232  -3.294  0.00  0.00    -0.010 C 
ATOM     21  H   LIG d   1       4.485   0.196  -3.928  0.00  0.00     0.085 H 
ATOM     22  C   LIG d   1       4.004  -2.264  -2.836  0.00  0.00    -0.043 C 
ATOM     23  H   LIG d   1       2.104  -1.750  -3.732  0.00  0.00     0.032 H 
ATOM     24  H   LIG d   1       2.641  -0.634  -2.431  0.00  0.00     0.032 H 
ATOM     25  C   LIG d   1       4.500  -3.052  -4.051  0.00  0.00    -0.012 C 
ATOM     26  H   LIG d   1       3.542  -2.955  -2.114  0.00  0.00     0.027 H 
ATOM     27  H   LIG d   1       4.853  -1.751  -2.361  0.00  0.00     0.027 H 
ATOM     28  C   LIG d   1       5.087  -2.082  -5.078  0.00  0.00    -0.031 C 
ATOM     29  H   LIG d   1       3.659  -3.600  -4.504  0.00  0.00     0.032 H 
ATOM     30  H   LIG d   1       5.275  -3.767  -3.736  0.00  0.00     0.032 H 
ATOM     31  H   LIG d   1       5.432  -2.644  -5.959  0.00  0.00     0.081 H 
ATOM     32  H   LIG d   1       5.938  -1.546  -4.630  0.00  0.00     0.081 H 
ATOM     33  H   LIG d   1       3.197  -1.683  -5.863  0.00  0.00     0.204 HD
BRANCH  19  34
ATOM     34  C   LIG d   1       2.566   0.707  -4.818  0.00  0.00    -0.022 C 
ATOM     35  H   LIG d   1       1.726   0.733  -4.110  0.00  0.00     0.028 H 
ATOM     36  H   LIG d   1       2.198   0.419  -5.813  0.00  0.00     0.028 H 
ATOM     37  H   LIG d   1       3.031   1.702  -4.873  0.00  0.00     0.028 H 
ENDBRANCH  19  34
ENDBRANCH  15  18
ENDBRANCH   9  15
BRANCH   1  38
ATOM     38  C   LIG d   1       4.359  -5.110  -7.692  0.00  0.00    -0.005 C 
ATOM     39  H   LIG d   1       5.445  -5.024  -7.840  0.00  0.00     0.031 H 
ATOM     40  H   LIG d   1       3.996  -6.037  -8.161  0.00  0.00     0.031 H 
ATOM     41  H   LIG d   1       4.135  -5.131  -6.616  0.00  0.00     0.031 H 
ENDBRANCH   1  38
BRANCH   2  42
ATOM     42  C   LIG d   1       2.627  -5.501  -9.910  0.00  0.00     0.116 A 
ATOM     43  S   LIG d   1       3.748  -6.542 -10.835  0.00  0.00    -0.067 SA
ATOM     44  C   LIG d   1       2.659  -7.934 -11.019  0.00  0.00     0.040 A 
ATOM     45  C   LIG d   1       1.492  -7.494 -10.348  0.00  0.00     0.079 A 
ATOM     46  C   LIG d   1       2.749  -9.168 -11.611  0.00  0.00    -0.046 A 
ATOM     47  N   LIG d   1       1.557  -6.260  -9.811  0.00  0.00    -0.239 NA
ATOM     48  C   LIG d   1       0.410  -8.406 -10.318  0.00  0.00    -0.035 A 
ATOM     49  C   LIG d   1       0.511  -9.627 -10.909  0.00  0.00    -0.060 A 
ATOM     50  H   LIG d   1      -0.508  -8.128  -9.821  0.00  0.00     0.064 H 
ATOM     51  C   LIG d   1       1.668 -10.029 -11.560  0.00  0.00    -0.061 A 
ATOM     52  H   LIG d   1      -0.333 -10.301 -10.869  0.00  0.00     0.062 H 
ATOM     53  H   LIG d   1       1.724 -11.004 -12.020  0.00  0.00     0.062 H 
ATOM     54  H   LIG d   1       3.658  -9.465 -12.114  0.00  0.00     0.063 H 
ENDBRANCH   2  42
TORSDOF 5
ENDMDL
MODEL 2
REMARK VINA RESULT:      -7.0      4.010      5.554
REMARK  5 active torsions:
REMARK  status: ('A' for Active; 'I' for Inactive)
REMARK    1  A    between atoms: C_1  and  C_2 
REMARK    2  A    between atoms: C_3  and  C_23 
REMARK    3  A    between atoms: C_10  and  C_13 
REMARK    4  A    between atoms: C_13  and  N_14 
REMARK    5  A    between atoms: C_19  and  C_21 
ROOT
ATOM      1  C   LIG d   1       5.293  -4.841  -5.890  0.00  0.00     0.116 A 
ATOM      2  C   LIG d   1       6.123  -5.906  -5.718  0.00  0.00     0.092 A 
ATOM      3  C   LIG d   1       7.534  -5.655  -5.373  0.00  0.00     0.202 A 
ATOM      4  O   LIG d   1       8.324  -6.569  -5.206  0.00  0.00    -0.286 OA
ATOM      5  C   LIG d   1       7.943  -4.245  -5.238  0.00  0.00     0.065 A 
ATOM      6  C   LIG d   1       9.257  -3.900  -4.914  0.00  0.00    -0.048 A 
ATOM      7  C   LIG d   1       9.602  -2.585  -4.798  0.00  0.00    -0.068 A 
ATOM      8  C   LIG d   1       8.651  -1.586  -5.001  0.00  0.00    -0.097 A 
ATOM      9  C   LIG d   1       7.344  -1.913  -5.322  0.00  0.00     0.032 A 
ATOM     10  C   LIG d   1       6.976  -3.246  -5.444  0.00  0.00     0.146 A 
ATOM     11  O   LIG d   1       5.708  -3.580  -5.758  0.00  0.00    -0.459 OA
ATOM     12  O   LIG d   1       9.009  -0.282  -4.882  0.00  0.00    -0.873 OA
ATOM     13  H   LIG d   1       9.996  -4.672  -4.757  0.00  0.00     0.063 H 
ATOM     14  H   LIG d   1      10.617  -2.316  -4.544  0.00  0.00     0.061 H 
ENDROOT
BRANCH   9  15
ATOM     15  C   LIG d   1       6.326  -0.824  -5.538  0.00  0.00    -0.003 C 
ATOM     16  H   LIG d   1       6.803   0.157  -5.405  0.00  0.00     0.087 H 
ATOM     17  H   LIG d   1       5.921  -0.898  -6.558  0.00  0.00     0.087 H 
BRANCH  15  18
ATOM     18  N   LIG d   1       5.234  -0.974  -4.566  0.00  0.00     0.240 N 
ATOM     19  C   LIG d   1       4.079  -0.149  -4.940  0.00  0.00    -0.023 C 
ATOM     20  C   LIG d   1       2.914  -0.440  -3.990  0.00  0.00    -0.010 C 
ATOM     21  H   LIG d   1       4.391   0.904  -4.857  0.00  0.00     0.085 H 
ATOM     22  C   LIG d   1       3.344  -0.130  -2.553  0.00  0.00    -0.043 C 
ATOM     23  H   LIG d   1       2.631  -1.500  -4.068  0.00  0.00     0.032 H 
ATOM     24  H   LIG d   1       2.053   0.190  -4.260  0.00  0.00     0.032 H 
ATOM     25  C   LIG d   1       4.577  -0.968  -2.206  0.00  0.00    -0.012 C 
ATOM     26  H   LIG d   1       2.525  -0.380  -1.862  0.00  0.00     0.027 H 
ATOM     27  H   LIG d   1       3.588   0.938  -2.463  0.00  0.00     0.027 H 
ATOM     28  C   LIG d   1       5.694  -0.662  -3.207  0.00  0.00    -0.031 C 
ATOM     29  H   LIG d   1       4.323  -2.038  -2.257  0.00  0.00     0.032 H 
ATOM     30  H   LIG d   1       4.917  -0.720  -1.190  0.00  0.00     0.032 H 
ATOM     31  H   LIG d   1       6.577  -1.273  -2.969  0.00  0.00     0.081 H 
ATOM     32  H   LIG d   1       5.959   0.404  -3.145  0.00  0.00     0.081 H 
ATOM     33  H   LIG d   1       4.913  -2.027  -4.578  0.00  0.00     0.204 HD
BRANCH  19  34
ATOM     34  C   LIG d   1       3.662  -0.475  -6.375  0.00  0.00    -0.022 C 
ATOM     35  H   LIG d   1       4.554  -0.706  -6.973  0.00  0.00     0.028 H 
ATOM     36  H   LIG d   1       3.142   0.391  -6.810  0.00  0.00     0.028 H 
ATOM     37  H   LIG d   1       2.987  -1.344  -6.372  0.00  0.00     0.028 H 
ENDBRANCH  19  34
ENDBRANCH  15  18
ENDBRANCH   9  15
BRANCH   1  38
ATOM     38  C   LIG d   1       3.850  -5.095  -6.243  0.00  0.00    -0.005 C 
ATOM     39  H   LIG d   1       3.324  -5.496  -5.365  0.00  0.00     0.031 H 
ATOM     40  H   LIG d   1       3.797  -5.822  -7.067  0.00  0.00     0.031 H 
ATOM     41  H   LIG d   1       3.378  -4.153  -6.555  0.00  0.00     0.031 H 
ENDBRANCH   1  38
BRANCH   2  42
ATOM     42  C   LIG d   1       5.620  -7.286  -5.873  0.00  0.00     0.116 A 
ATOM     43  S   LIG d   1       5.516  -8.283  -7.353  0.00  0.00    -0.067 SA
ATOM     44  C   LIG d   1       4.815  -9.730  -6.598  0.00  0.00     0.040 A 
ATOM     45  C   LIG d   1       4.707  -9.340  -5.241  0.00  0.00     0.079 A 
ATOM     46  C   LIG d   1       4.422 -10.967  -7.044  0.00  0.00    -0.046 A 
ATOM     47  N   LIG d   1       5.139  -8.096  -4.954  0.00  0.00    -0.239 NA
ATOM     48  C   LIG d   1       4.168 -10.304  -4.357  0.00  0.00    -0.035 A 
ATOM     49  C   LIG d   1       3.782 -11.527  -4.810  0.00  0.00    -0.060 A 
ATOM     50  H   LIG d   1       4.061 -10.066  -3.309  0.00  0.00     0.064 H 
ATOM     51  C   LIG d   1       3.899 -11.880  -6.147  0.00  0.00    -0.061 A 
ATOM     52  H   LIG d   1       3.374 -12.242  -4.110  0.00  0.00     0.062 H 
ATOM     53  H   LIG d   1       3.587 -12.857  -6.482  0.00  0.00     0.062 H 
ATOM     54  H   LIG d   1       4.521 -11.225  -8.089  0.00  0.00     0.063 H 
ENDBRANCH   2  42
TORSDOF 5
ENDMDL
MODEL 3
REMARK VINA RESULT:      -7.0      7.883     11.175
REMARK  5 active torsions:
REMARK  status: ('A' for Active; 'I' for Inactive)
REMARK    1  A    between atoms: C_1  and  C_2 
REMARK    2  A    between atoms: C_3  and  C_23 
REMARK    3  A    between atoms: C_10  and  C_13 
REMARK    4  A    between atoms: C_13  and  N_14 
REMARK    5  A    between atoms: C_19  and  C_21 
ROOT
ATOM      1  C   LIG d   1       9.160   2.350  -6.070  0.00  0.00     0.116 A 
ATOM      2  C   LIG d   1       9.118   2.077  -4.737  0.00  0.00     0.092 A 
ATOM      3  C   LIG d   1      10.207   2.578  -3.877  0.00  0.00     0.202 A 
ATOM      4  O   LIG d   1      10.222   2.366  -2.677  0.00  0.00    -0.286 OA
ATOM      5  C   LIG d   1      11.275   3.348  -4.541  0.00  0.00     0.065 A 
ATOM      6  C   LIG d   1      12.350   3.865  -3.817  0.00  0.00    -0.048 A 
ATOM      7  C   LIG d   1      13.323   4.573  -4.463  0.00  0.00    -0.068 A 
ATOM      8  C   LIG d   1      13.246   4.781  -5.838  0.00  0.00    -0.097 A 
ATOM      9  C   LIG d   1      12.185   4.275  -6.569  0.00  0.00     0.032 A 
ATOM     10  C   LIG d   1      11.188   3.552  -5.928  0.00  0.00     0.146 A 
ATOM     11  O   LIG d   1      10.148   3.052  -6.627  0.00  0.00    -0.459 OA
ATOM     12  O   LIG d   1      14.221   5.486  -6.467  0.00  0.00    -0.873 OA
ATOM     13  H   LIG d   1      12.413   3.705  -2.750  0.00  0.00     0.063 H 
ATOM     14  H   LIG d   1      14.154   4.977  -3.904  0.00  0.00     0.061 H 
ENDROOT
BRANCH   9  15
ATOM     15  C   LIG d   1      12.114   4.507  -8.056  0.00  0.00    -0.003 C 
ATOM     16  H   LIG d   1      12.941   5.162  -8.366  0.00  0.00     0.087 H 
ATOM     17  H   LIG d   1      12.193   3.544  -8.582  0.00  0.00     0.087 H 
BRANCH  15  18
ATOM     18  N   LIG d   1      10.833   5.144  -8.392  0.00  0.00     0.240 N 
ATOM     19  C   LIG d   1      10.470   4.892  -9.792  0.00  0.00    -0.023 C 
ATOM     20  C   LIG d   1       9.068   5.444 -10.065  0.00  0.00    -0.010 C 
ATOM     21  H   LIG d   1      11.215   5.404 -10.419  0.00  0.00     0.085 H 
ATOM     22  C   LIG d   1       9.053   6.948  -9.776  0.00  0.00    -0.043 C 
ATOM     23  H   LIG d   1       8.340   4.938  -9.414  0.00  0.00     0.032 H 
ATOM     24  H   LIG d   1       8.802   5.269 -11.118  0.00  0.00     0.032 H 
ATOM     25  C   LIG d   1       9.481   7.186  -8.326  0.00  0.00    -0.012 C 
ATOM     26  H   LIG d   1       8.037   7.342  -9.929  0.00  0.00     0.027 H 
ATOM     27  H   LIG d   1       9.751   7.460 -10.454  0.00  0.00     0.027 H 
ATOM     28  C   LIG d   1      10.870   6.583  -8.104  0.00  0.00    -0.031 C 
ATOM     29  H   LIG d   1       8.761   6.708  -7.645  0.00  0.00     0.032 H 
ATOM     30  H   LIG d   1       9.514   8.267  -8.124  0.00  0.00     0.032 H 
ATOM     31  H   LIG d   1      11.175   6.741  -7.059  0.00  0.00     0.081 H 
ATOM     32  H   LIG d   1      11.593   7.073  -8.774  0.00  0.00     0.081 H 
ATOM     33  H   LIG d   1      10.055   4.696  -7.757  0.00  0.00     0.204 HD
BRANCH  19  34
ATOM     34  C   LIG d   1      10.486   3.386 -10.059  0.00  0.00    -0.022 C 
ATOM     35  H   LIG d   1      11.229   2.905  -9.407  0.00  0.00     0.028 H 
ATOM     36  H   LIG d   1      10.749   3.203 -11.111  0.00  0.00     0.028 H 
ATOM     37  H   LIG d   1       9.490   2.966  -9.852  0.00  0.00     0.028 H 
ENDBRANCH  19  34
ENDBRANCH  15  18
ENDBRANCH   9  15
BRANCH   1  38
ATOM     38  C   LIG d   1       8.049   1.839  -6.950  0.00  0.00    -0.005 C 
ATOM     39  H   LIG d   1       8.001   0.742  -6.881  0.00  0.00     0.031 H 
ATOM     40  H   LIG d   1       8.243   2.133  -7.993  0.00  0.00     0.031 H 
ATOM     41  H   LIG d   1       7.093   2.270  -6.620  0.00  0.00     0.031 H 
ENDBRANCH   1  38
BRANCH   2  42
ATOM     42  C   LIG d   1       8.004   1.298  -4.162  0.00  0.00     0.116 A 
ATOM     43  S   LIG d   1       7.763  -0.473  -4.148  0.00  0.00    -0.067 SA
ATOM     44  C   LIG d   1       6.215  -0.481  -3.276  0.00  0.00     0.040 A 
ATOM     45  C   LIG d   1       5.987   0.898  -3.054  0.00  0.00     0.079 A 
ATOM     46  C   LIG d   1       5.343  -1.451  -2.851  0.00  0.00    -0.046 A 
ATOM     47  N   LIG d   1       6.937   1.731  -3.524  0.00  0.00    -0.239 NA
ATOM     48  C   LIG d   1       4.799   1.230  -2.360  0.00  0.00    -0.035 A 
ATOM     49  C   LIG d   1       3.942   0.260  -1.943  0.00  0.00    -0.060 A 
ATOM     50  H   LIG d   1       4.569   2.266  -2.160  0.00  0.00     0.064 H 
ATOM     51  C   LIG d   1       4.192  -1.085  -2.177  0.00  0.00    -0.061 A 
ATOM     52  H   LIG d   1       3.042   0.544  -1.417  0.00  0.00     0.062 H 
ATOM     53  H   LIG d   1       3.497  -1.836  -1.835  0.00  0.00     0.062 H 
ATOM     54  H   LIG d   1       5.554  -2.494  -3.041  0.00  0.00     0.063 H 
ENDBRANCH   2  42
TORSDOF 5
ENDMDL
MODEL 4
REMARK VINA RESULT:      -6.9      2.697      7.914
REMARK  5 active torsions:
REMARK  status: ('A' for Active; 'I' for Inactive)
REMARK    1  A    between atoms: C_1  and  C_2 
REMARK    2  A    between atoms: C_3  and  C_23 
REMARK    3  A    between atoms: C_10  and  C_13 
REMARK    4  A    between atoms: C_13  and  N_14 
REMARK    5  A    between atoms: C_19  and  C_21 
ROOT
ATOM      1  C   LIG d   1       4.246  -2.359  -8.282  0.00  0.00     0.116 A 
ATOM      2  C   LIG d   1       4.423  -1.048  -7.962  0.00  0.00     0.092 A 
ATOM      3  C   LIG d   1       4.443  -0.050  -9.047  0.00  0.00     0.202 A 
ATOM      4  O   LIG d   1       4.598   1.138  -8.821  0.00  0.00    -0.286 OA
ATOM      5  C   LIG d   1       4.267  -0.560 -10.419  0.00  0.00     0.065 A 
ATOM      6  C   LIG d   1       4.271   0.302 -11.517  0.00  0.00    -0.048 A 
ATOM      7  C   LIG d   1       4.105  -0.203 -12.775  0.00  0.00    -0.068 A 
ATOM      8  C   LIG d   1       3.933  -1.572 -12.967  0.00  0.00    -0.097 A 
ATOM      9  C   LIG d   1       3.926  -2.439 -11.887  0.00  0.00     0.032 A 
ATOM     10  C   LIG d   1       4.094  -1.942 -10.601  0.00  0.00     0.146 A 
ATOM     11  O   LIG d   1       4.090  -2.774  -9.540  0.00  0.00    -0.459 OA
ATOM     12  O   LIG d   1       3.771  -2.060 -14.223  0.00  0.00    -0.873 OA
ATOM     13  H   LIG d   1       4.405   1.364 -11.372  0.00  0.00     0.063 H 
ATOM     14  H   LIG d   1       4.105   0.463 -13.625  0.00  0.00     0.061 H 
ENDROOT
BRANCH   9  15
ATOM     15  C   LIG d   1       3.739  -3.918 -12.108  0.00  0.00    -0.003 C 
ATOM     16  H   LIG d   1       3.527  -4.106 -13.170  0.00  0.00     0.087 H 
ATOM     17  H   LIG d   1       4.656  -4.451 -11.817  0.00  0.00     0.087 H 
BRANCH  15  18
ATOM     18  N   LIG d   1       2.614  -4.396 -11.292  0.00  0.00     0.240 N 
ATOM     19  C   LIG d   1       2.711  -5.842 -11.057  0.00  0.00    -0.023 C 
ATOM     20  C   LIG d   1       1.610  -6.278 -10.088  0.00  0.00    -0.010 C 
ATOM     21  H   LIG d   1       2.588  -6.339 -12.031  0.00  0.00     0.085 H 
ATOM     22  C   LIG d   1       0.244  -5.929 -10.687  0.00  0.00    -0.043 C 
ATOM     23  H   LIG d   1       1.734  -5.755  -9.129  0.00  0.00     0.032 H 
ATOM     24  H   LIG d   1       1.672  -7.364  -9.924  0.00  0.00     0.032 H 
ATOM     25  C   LIG d   1       0.187  -4.426 -10.966  0.00  0.00    -0.012 C 
ATOM     26  H   LIG d   1      -0.551  -6.201  -9.975  0.00  0.00     0.027 H 
ATOM     27  H   LIG d   1       0.100  -6.483 -11.625  0.00  0.00     0.027 H 
ATOM     28  C   LIG d   1       1.330  -4.043 -11.909  0.00  0.00    -0.031 C 
ATOM     29  H   LIG d   1       0.290  -3.870 -10.021  0.00  0.00     0.032 H 
ATOM     30  H   LIG d   1      -0.776  -4.174 -11.435  0.00  0.00     0.032 H 
ATOM     31  H   LIG d   1       1.299  -2.960 -12.101  0.00  0.00     0.081 H 
ATOM     32  H   LIG d   1       1.217  -4.586 -12.860  0.00  0.00     0.081 H 
ATOM     33  H   LIG d   1       2.666  -3.893 -10.315  0.00  0.00     0.204 HD
BRANCH  19  34
ATOM     34  C   LIG d   1       4.079  -6.170 -10.456  0.00  0.00    -0.022 C 
ATOM     35  H   LIG d   1       4.480  -5.281  -9.948  0.00  0.00     0.028 H 
ATOM     36  H   LIG d   1       4.768  -6.476 -11.256  0.00  0.00     0.028 H 
ATOM     37  H   LIG d   1       3.973  -6.990  -9.730  0.00  0.00     0.028 H 
ENDBRANCH  19  34
ENDBRANCH  15  18
ENDBRANCH   9  15
BRANCH   1  38
ATOM     38  C   LIG d   1       4.225  -3.380  -7.174  0.00  0.00    -0.005 C 
ATOM     39  H   LIG d   1       4.555  -4.353  -7.568  0.00  0.00     0.031 H 
ATOM     40  H   LIG d   1       3.202  -3.472  -6.780  0.00  0.00     0.031 H 
ATOM     41  H   LIG d   1       4.902  -3.062  -6.369  0.00  0.00     0.031 H 
ENDBRANCH   1  38
BRANCH   2  42
ATOM     42  C   LIG d   1       4.590  -0.632  -6.555  0.00  0.00     0.116 A 
ATOM     43  S   LIG d   1       6.064  -0.660  -5.544  0.00  0.00    -0.067 SA
ATOM     44  C   LIG d   1       5.331  -0.004  -4.064  0.00  0.00     0.040 A 
ATOM     45  C   LIG d   1       3.985   0.193  -4.455  0.00  0.00     0.079 A 
ATOM     46  C   LIG d   1       5.785   0.295  -2.804  0.00  0.00    -0.046 A 
ATOM     47  N   LIG d   1       3.692  -0.142  -5.728  0.00  0.00    -0.239 NA
ATOM     48  C   LIG d   1       3.120   0.722  -3.468  0.00  0.00    -0.035 A 
ATOM     49  C   LIG d   1       3.581   1.015  -2.223  0.00  0.00    -0.060 A 
ATOM     50  H   LIG d   1       2.081   0.895  -3.707  0.00  0.00     0.064 H 
ATOM     51  C   LIG d   1       4.907   0.810  -1.868  0.00  0.00    -0.061 A 
ATOM     52  H   LIG d   1       2.896   1.417  -1.490  0.00  0.00     0.062 H 
ATOM     53  H   LIG d   1       5.248   1.051  -0.873  0.00  0.00     0.062 H 
ATOM     54  H   LIG d   1       6.821   0.129  -2.545  0.00  0.00     0.063 H 
ENDBRANCH   2  42
TORSDOF 5
ENDMDL
MODEL 5
REMARK VINA RESULT:      -6.9      5.073      9.051
REMARK  5 active torsions:
REMARK  status: ('A' for Active; 'I' for Inactive)
REMARK    1  A    between atoms: C_1  and  C_2 
REMARK    2  A    between atoms: C_3  and  C_23 
REMARK    3  A    between atoms: C_10  and  C_13 
REMARK    4  A    between atoms: C_13  and  N_14 
REMARK    5  A    between atoms: C_19  and  C_21 
ROOT
ATOM      1  C   LIG d   1       6.873  -5.057  -5.122  0.00  0.00     0.116 A 
ATOM      2  C   LIG d   1       5.556  -4.795  -5.339  0.00  0.00     0.092 A 
ATOM      3  C   LIG d   1       4.701  -5.867  -5.880  0.00  0.00     0.202 A 
ATOM      4  O   LIG d   1       3.513  -5.691  -6.095  0.00  0.00    -0.286 OA
ATOM      5  C   LIG d   1       5.351  -7.162  -6.150  0.00  0.00     0.065 A 
ATOM      6  C   LIG d   1       4.631  -8.241  -6.663  0.00  0.00    -0.048 A 
ATOM      7  C   LIG d   1       5.264  -9.427  -6.901  0.00  0.00    -0.068 A 
ATOM      8  C   LIG d   1       6.625  -9.563  -6.635  0.00  0.00    -0.097 A 
ATOM      9  C   LIG d   1       7.353  -8.502  -6.124  0.00  0.00     0.032 A 
ATOM     10  C   LIG d   1       6.724  -7.289  -5.876  0.00  0.00     0.146 A 
ATOM     11  O   LIG d   1       7.419  -6.246  -5.381  0.00  0.00    -0.459 OA
ATOM     12  O   LIG d   1       7.243 -10.748  -6.877  0.00  0.00    -0.873 OA
ATOM     13  H   LIG d   1       3.575  -8.138  -6.872  0.00  0.00     0.063 H 
ATOM     14  H   LIG d   1       4.707 -10.264  -7.296  0.00  0.00     0.061 H 
ENDROOT
BRANCH   9  15
ATOM     15  C   LIG d   1       8.824  -8.663  -5.840  0.00  0.00    -0.003 C 
ATOM     16  H   LIG d   1       9.117  -9.710  -6.001  0.00  0.00     0.087 H 
ATOM     17  H   LIG d   1       9.401  -8.013  -6.514  0.00  0.00     0.087 H 
BRANCH  15  18
ATOM     18  N   LIG d   1       9.097  -8.287  -4.445  0.00  0.00     0.240 N 
ATOM     19  C   LIG d   1      10.505  -7.915  -4.267  0.00  0.00    -0.023 C 
ATOM     20  C   LIG d   1      10.721  -7.392  -2.844  0.00  0.00    -0.010 C 
ATOM     21  H   LIG d   1      11.107  -8.820  -4.441  0.00  0.00     0.085 H 
ATOM     22  C   LIG d   1      10.330  -8.483  -1.842  0.00  0.00    -0.043 C 
ATOM     23  H   LIG d   1      10.096  -6.503  -2.680  0.00  0.00     0.032 H 
ATOM     24  H   LIG d   1      11.779  -7.128  -2.705  0.00  0.00     0.032 H 
ATOM     25  C   LIG d   1       8.873  -8.886  -2.081  0.00  0.00    -0.012 C 
ATOM     26  H   LIG d   1      10.440  -8.097  -0.817  0.00  0.00     0.027 H 
ATOM     27  H   LIG d   1      10.980  -9.358  -1.977  0.00  0.00     0.027 H 
ATOM     28  C   LIG d   1       8.712  -9.365  -3.526  0.00  0.00    -0.031 C 
ATOM     29  H   LIG d   1       8.216  -8.020  -1.907  0.00  0.00     0.032 H 
ATOM     30  H   LIG d   1       8.598  -9.699  -1.393  0.00  0.00     0.032 H 
ATOM     31  H   LIG d   1       7.662  -9.643  -3.705  0.00  0.00     0.081 H 
ATOM     32  H   LIG d   1       9.356 -10.240  -3.695  0.00  0.00     0.081 H 
ATOM     33  H   LIG d   1       8.484  -7.406  -4.206  0.00  0.00     0.204 HD
BRANCH  19  34
ATOM     34  C   LIG d   1      10.876  -6.823  -5.272  0.00  0.00    -0.022 C 
ATOM     35  H   LIG d   1      10.042  -6.670  -5.972  0.00  0.00     0.028 H 
ATOM     36  H   LIG d   1      11.773  -7.128  -5.831  0.00  0.00     0.028 H 
ATOM     37  H   LIG d   1      11.080  -5.884  -4.735  0.00  0.00     0.028 H 
ENDBRANCH  19  34
ENDBRANCH  15  18
ENDBRANCH   9  15
BRANCH   1  38
ATOM     38  C   LIG d   1       7.750  -3.962  -4.568  0.00  0.00    -0.005 C 
ATOM     39  H   LIG d   1       7.622  -3.051  -5.171  0.00  0.00     0.031 H 
ATOM     40  H   LIG d   1       8.802  -4.282  -4.605  0.00  0.00     0.031 H 
ATOM     41  H   LIG d   1       7.465  -3.757  -3.527  0.00  0.00     0.031 H 
ENDBRANCH   1  38
BRANCH   2  42
ATOM     42  C   LIG d   1       4.992  -3.464  -5.036  0.00  0.00     0.116 A 
ATOM     43  S   LIG d   1       4.805  -2.052  -6.117  0.00  0.00    -0.067 SA
ATOM     44  C   LIG d   1       4.067  -0.958  -4.928  0.00  0.00     0.040 A 
ATOM     45  C   LIG d   1       4.016  -1.764  -3.766  0.00  0.00     0.079 A 
ATOM     46  C   LIG d   1       3.612   0.337  -4.949  0.00  0.00    -0.046 A 
ATOM     47  N   LIG d   1       4.495  -3.017  -3.903  0.00  0.00    -0.239 NA
ATOM     48  C   LIG d   1       3.462  -1.161  -2.612  0.00  0.00    -0.035 A 
ATOM     49  C   LIG d   1       3.014   0.123  -2.644  0.00  0.00    -0.060 A 
ATOM     50  H   LIG d   1       3.395  -1.726  -1.694  0.00  0.00     0.064 H 
ATOM     51  C   LIG d   1       3.078   0.890  -3.799  0.00  0.00    -0.061 A 
ATOM     52  H   LIG d   1       2.596   0.557  -1.747  0.00  0.00     0.062 H 
ATOM     53  H   LIG d   1       2.715   1.906  -3.799  0.00  0.00     0.062 H 
ATOM     54  H   LIG d   1       3.669   0.920  -5.857  0.00  0.00     0.063 H 
ENDBRANCH   2  42
TORSDOF 5
ENDMDL
MODEL 6
REMARK VINA RESULT:      -6.8      1.782      2.295
REMARK  5 active torsions:
REMARK  status: ('A' for Active; 'I' for Inactive)
REMARK    1  A    between atoms: C_1  and  C_2 
REMARK    2  A    between atoms: C_3  and  C_23 
REMARK    3  A    between atoms: C_10  and  C_13 
REMARK    4  A    between atoms: C_13  and  N_14 
REMARK    5  A    between atoms: C_19  and  C_21 
ROOT
ATOM      1  C   LIG d   1       4.166  -4.154  -7.413  0.00  0.00     0.116 A 
ATOM      2  C   LIG d   1       3.783  -4.207  -8.717  0.00  0.00     0.092 A 
ATOM      3  C   LIG d   1       4.039  -3.038  -9.578  0.00  0.00     0.202 A 
ATOM      4  O   LIG d   1       3.718  -3.028 -10.755  0.00  0.00    -0.286 OA
ATOM      5  C   LIG d   1       4.701  -1.882  -8.947  0.00  0.00     0.065 A 
ATOM      6  C   LIG d   1       4.987  -0.726  -9.675  0.00  0.00    -0.048 A 
ATOM      7  C   LIG d   1       5.602   0.326  -9.060  0.00  0.00    -0.068 A 
ATOM      8  C   LIG d   1       5.943   0.252  -7.711  0.00  0.00    -0.097 A 
ATOM      9  C   LIG d   1       5.666  -0.889  -6.976  0.00  0.00     0.032 A 
ATOM     10  C   LIG d   1       5.041  -1.968  -7.587  0.00  0.00     0.146 A 
ATOM     11  O   LIG d   1       4.764  -3.085  -6.884  0.00  0.00    -0.459 OA
ATOM     12  O   LIG d   1       6.552   1.307  -7.112  0.00  0.00    -0.873 OA
ATOM     13  H   LIG d   1       4.724  -0.665 -10.721  0.00  0.00     0.063 H 
ATOM     14  H   LIG d   1       5.827   1.221  -9.622  0.00  0.00     0.061 H 
ENDROOT
BRANCH   9  15
ATOM     15  C   LIG d   1       6.040  -0.957  -5.518  0.00  0.00    -0.003 C 
ATOM     16  H   LIG d   1       5.890  -1.982  -5.148  0.00  0.00     0.087 H 
ATOM     17  H   LIG d   1       7.096  -0.675  -5.397  0.00  0.00     0.087 H 
BRANCH  15  18
ATOM     18  N   LIG d   1       5.195  -0.031  -4.752  0.00  0.00     0.240 N 
ATOM     19  C   LIG d   1       5.819   0.311  -3.468  0.00  0.00    -0.023 C 
ATOM     20  C   LIG d   1       4.985   1.384  -2.763  0.00  0.00    -0.010 C 
ATOM     21  H   LIG d   1       5.850  -0.610  -2.865  0.00  0.00     0.085 H 
ATOM     22  C   LIG d   1       3.565   0.855  -2.539  0.00  0.00    -0.043 C 
ATOM     23  H   LIG d   1       4.944   2.288  -3.389  0.00  0.00     0.032 H 
ATOM     24  H   LIG d   1       5.443   1.629  -1.794  0.00  0.00     0.032 H 
ATOM     25  C   LIG d   1       2.957   0.461  -3.887  0.00  0.00    -0.012 C 
ATOM     26  H   LIG d   1       2.949   1.638  -2.073  0.00  0.00     0.027 H 
ATOM     27  H   LIG d   1       3.600  -0.025  -1.881  0.00  0.00     0.027 H 
ATOM     28  C   LIG d   1       3.849  -0.585  -4.559  0.00  0.00    -0.031 C 
ATOM     29  H   LIG d   1       2.884   1.350  -4.533  0.00  0.00     0.032 H 
ATOM     30  H   LIG d   1       1.953   0.040  -3.729  0.00  0.00     0.032 H 
ATOM     31  H   LIG d   1       3.421  -0.860  -5.534  0.00  0.00     0.081 H 
ATOM     32  H   LIG d   1       3.908  -1.479  -3.920  0.00  0.00     0.081 H 
ATOM     33  H   LIG d   1       5.095   0.897  -5.334  0.00  0.00     0.204 HD
BRANCH  19  34
ATOM     34  C   LIG d   1       7.232   0.842  -3.712  0.00  0.00    -0.022 C 
ATOM     35  H   LIG d   1       7.750   0.962  -2.750  0.00  0.00     0.028 H 
ATOM     36  H   LIG d   1       7.175   1.815  -4.222  0.00  0.00     0.028 H 
ATOM     37  H   LIG d   1       7.788   0.130  -4.341  0.00  0.00     0.028 H 
ENDBRANCH  19  34
ENDBRANCH  15  18
ENDBRANCH   9  15
BRANCH   1  38
ATOM     38  C   LIG d   1       3.906  -5.348  -6.530  0.00  0.00    -0.005 C 
ATOM     39  H   LIG d   1       2.926  -5.236  -6.042  0.00  0.00     0.031 H 
ATOM     40  H   LIG d   1       4.692  -5.415  -5.764  0.00  0.00     0.031 H 
ATOM     41  H   LIG d   1       3.910  -6.263  -7.141  0.00  0.00     0.031 H 
ENDBRANCH   1  38
BRANCH   2  42
ATOM     42  C   LIG d   1       3.125  -5.412  -9.261  0.00  0.00     0.116 A 
ATOM     43  S   LIG d   1       3.859  -6.965  -9.756  0.00  0.00    -0.067 SA
ATOM     44  C   LIG d   1       2.358  -7.771 -10.259  0.00  0.00     0.040 A 
ATOM     45  C   LIG d   1       1.383  -6.777 -10.009  0.00  0.00     0.079 A 
ATOM     46  C   LIG d   1       2.040  -9.005 -10.770  0.00  0.00    -0.046 A 
ATOM     47  N   LIG d   1       1.847  -5.618  -9.500  0.00  0.00    -0.239 NA
ATOM     48  C   LIG d   1       0.045  -7.124 -10.315  0.00  0.00    -0.035 A 
ATOM     49  C   LIG d   1      -0.258  -8.349 -10.820  0.00  0.00    -0.060 A 
ATOM     50  H   LIG d   1      -0.744  -6.406 -10.145  0.00  0.00     0.064 H 
ATOM     51  C   LIG d   1       0.721  -9.304 -11.056  0.00  0.00    -0.061 A 
ATOM     52  H   LIG d   1      -1.288  -8.585 -11.044  0.00  0.00     0.062 H 
ATOM     53  H   LIG d   1       0.455 -10.270 -11.457  0.00  0.00     0.062 H 
ATOM     54  H   LIG d   1       2.815  -9.737 -10.947  0.00  0.00     0.063 H 
ENDBRANCH   2  42
TORSDOF 5
ENDMDL
MODEL 7
REMARK VINA RESULT:      -6.7      7.568     10.825
REMARK  5 active torsions:
REMARK  status: ('A' for Active; 'I' for Inactive)
REMARK    1  A    between atoms: C_1  and  C_2 
REMARK    2  A    between atoms: C_3  and  C_23 
REMARK    3  A    between atoms: C_10  and  C_13 
REMARK    4  A    between atoms: C_13  and  N_14 
REMARK    5  A    between atoms: C_19  and  C_21 
ROOT
ATOM      1  C   LIG d   1       9.240   3.037  -4.941  0.00  0.00     0.116 A 
ATOM      2  C   LIG d   1       8.375   2.172  -5.538  0.00  0.00     0.092 A 
ATOM      3  C   LIG d   1       8.283   2.165  -7.009  0.00  0.00     0.202 A 
ATOM      4  O   LIG d   1       7.526   1.413  -7.599  0.00  0.00    -0.286 OA
ATOM      5  C   LIG d   1       9.152   3.112  -7.733  0.00  0.00     0.065 A 
ATOM      6  C   LIG d   1       9.140   3.184  -9.126  0.00  0.00    -0.048 A 
ATOM      7  C   LIG d   1       9.957   4.072  -9.765  0.00  0.00    -0.068 A 
ATOM      8  C   LIG d   1      10.800   4.905  -9.032  0.00  0.00    -0.097 A 
ATOM      9  C   LIG d   1      10.823   4.844  -7.649  0.00  0.00     0.032 A 
ATOM     10  C   LIG d   1       9.998   3.947  -6.984  0.00  0.00     0.146 A 
ATOM     11  O   LIG d   1      10.008   3.876  -5.638  0.00  0.00    -0.459 OA
ATOM     12  O   LIG d   1      11.607   5.784  -9.680  0.00  0.00    -0.873 OA
ATOM     13  H   LIG d   1       8.487   2.540  -9.697  0.00  0.00     0.063 H 
ATOM     14  H   LIG d   1       9.952   4.127 -10.844  0.00  0.00     0.061 H 
ENDROOT
BRANCH   9  15
ATOM     15  C   LIG d   1      11.740   5.750  -6.869  0.00  0.00    -0.003 C 
ATOM     16  H   LIG d   1      11.734   5.455  -5.809  0.00  0.00     0.087 H 
ATOM     17  H   LIG d   1      12.762   5.667  -7.265  0.00  0.00     0.087 H 
BRANCH  15  18
ATOM     18  N   LIG d   1      11.277   7.139  -6.992  0.00  0.00     0.240 N 
ATOM     19  C   LIG d   1      12.347   8.083  -6.648  0.00  0.00    -0.023 C 
ATOM     20  C   LIG d   1      11.878   9.513  -6.927  0.00  0.00    -0.010 C 
ATOM     21  H   LIG d   1      12.566   7.951  -5.577  0.00  0.00     0.085 H 
ATOM     22  C   LIG d   1      10.625   9.805  -6.095  0.00  0.00    -0.043 C 
ATOM     23  H   LIG d   1      11.641   9.621  -7.995  0.00  0.00     0.032 H 
ATOM     24  H   LIG d   1      12.673  10.222  -6.654  0.00  0.00     0.032 H 
ATOM     25  C   LIG d   1       9.543   8.778  -6.438  0.00  0.00    -0.012 C 
ATOM     26  H   LIG d   1      10.258  10.816  -6.324  0.00  0.00     0.027 H 
ATOM     27  H   LIG d   1      10.869   9.737  -5.025  0.00  0.00     0.027 H 
ATOM     28  C   LIG d   1      10.081   7.370  -6.174  0.00  0.00    -0.031 C 
ATOM     29  H   LIG d   1       9.269   8.872  -7.500  0.00  0.00     0.032 H 
ATOM     30  H   LIG d   1       8.656   8.955  -5.813  0.00  0.00     0.032 H 
ATOM     31  H   LIG d   1       9.310   6.629  -6.433  0.00  0.00     0.081 H 
ATOM     32  H   LIG d   1      10.340   7.271  -5.109  0.00  0.00     0.081 H 
ATOM     33  H   LIG d   1      11.003   7.312  -8.044  0.00  0.00     0.204 HD
BRANCH  19  34
ATOM     34  C   LIG d   1      13.587   7.780  -7.491  0.00  0.00    -0.022 C 
ATOM     35  H   LIG d   1      13.550   6.737  -7.836  0.00  0.00     0.028 H 
ATOM     36  H   LIG d   1      14.490   7.933  -6.883  0.00  0.00     0.028 H 
ATOM     37  H   LIG d   1      13.612   8.453  -8.361  0.00  0.00     0.028 H 
ENDBRANCH  19  34
ENDBRANCH  15  18
ENDBRANCH   9  15
BRANCH   1  38
ATOM     38  C   LIG d   1       9.337   3.046  -3.437  0.00  0.00    -0.005 C 
ATOM     39  H   LIG d   1       9.960   2.202  -3.105  0.00  0.00     0.031 H 
ATOM     40  H   LIG d   1       8.329   2.950  -3.005  0.00  0.00     0.031 H 
ATOM     41  H   LIG d   1       9.790   3.990  -3.105  0.00  0.00     0.031 H 
ENDBRANCH   1  38
BRANCH   2  42
ATOM     42  C   LIG d   1       7.544   1.259  -4.728  0.00  0.00     0.116 A 
ATOM     43  S   LIG d   1       7.564  -0.528  -4.677  0.00  0.00    -0.067 SA
ATOM     44  C   LIG d   1       6.277  -0.731  -3.469  0.00  0.00     0.040 A 
ATOM     45  C   LIG d   1       5.916   0.608  -3.186  0.00  0.00     0.079 A 
ATOM     46  C   LIG d   1       5.672  -1.803  -2.863  0.00  0.00    -0.046 A 
ATOM     47  N   LIG d   1       6.604   1.554  -3.855  0.00  0.00    -0.239 NA
ATOM     48  C   LIG d   1       4.886   0.787  -2.232  0.00  0.00    -0.035 A 
ATOM     49  C   LIG d   1       4.293  -0.283  -1.637  0.00  0.00    -0.060 A 
ATOM     50  H   LIG d   1       4.566   1.786  -1.973  0.00  0.00     0.064 H 
ATOM     51  C   LIG d   1       4.669  -1.585  -1.937  0.00  0.00    -0.061 A 
ATOM     52  H   LIG d   1       3.509  -0.115  -0.913  0.00  0.00     0.062 H 
ATOM     53  H   LIG d   1       4.183  -2.418  -1.451  0.00  0.00     0.062 H 
ATOM     54  H   LIG d   1       5.977  -2.810  -3.109  0.00  0.00     0.063 H 
ENDBRANCH   2  42
TORSDOF 5
ENDMDL
MODEL 8
REMARK VINA RESULT:      -6.7      7.640     10.744
REMARK  5 active torsions:
REMARK  status: ('A' for Active; 'I' for Inactive)
REMARK    1  A    between atoms: C_1  and  C_2 
REMARK    2  A    between atoms: C_3  and  C_23 
REMARK    3  A    between atoms: C_10  and  C_13 
REMARK    4  A    between atoms: C_13  and  N_14 
REMARK    5  A    between atoms: C_19  and  C_21 
ROOT
ATOM      1  C   LIG d   1       9.662   2.907  -4.601  0.00  0.00     0.116 A 
ATOM      2  C   LIG d   1       8.660   2.262  -5.258  0.00  0.00     0.092 A 
ATOM      3  C   LIG d   1       8.513   2.478  -6.710  0.00  0.00     0.202 A 
ATOM      4  O   LIG d   1       7.634   1.928  -7.352  0.00  0.00    -0.286 OA
ATOM      5  C   LIG d   1       9.479   3.391  -7.346  0.00  0.00     0.065 A 
ATOM      6  C   LIG d   1       9.426   3.663  -8.714  0.00  0.00    -0.048 A 
ATOM      7  C   LIG d   1      10.337   4.513  -9.271  0.00  0.00    -0.068 A 
ATOM      8  C   LIG d   1      11.317   5.111  -8.482  0.00  0.00    -0.097 A 
ATOM      9  C   LIG d   1      11.383   4.850  -7.123  0.00  0.00     0.032 A 
ATOM     10  C   LIG d   1      10.464   3.987  -6.540  0.00  0.00     0.146 A 
ATOM     11  O   LIG d   1      10.515   3.725  -5.219  0.00  0.00    -0.459 OA
ATOM     12  O   LIG d   1      12.216   5.955  -9.049  0.00  0.00    -0.873 OA
ATOM     13  H   LIG d   1       8.667   3.202  -9.329  0.00  0.00     0.063 H 
ATOM     14  H   LIG d   1      10.299   4.722 -10.330  0.00  0.00     0.061 H 
ENDROOT
BRANCH   9  15
ATOM     15  C   LIG d   1      12.449   5.502  -6.280  0.00  0.00    -0.003 C 
ATOM     16  H   LIG d   1      13.141   6.057  -6.929  0.00  0.00     0.087 H 
ATOM     17  H   LIG d   1      11.979   6.196  -5.568  0.00  0.00     0.087 H 
BRANCH  15  18
ATOM     18  N   LIG d   1      13.189   4.470  -5.542  0.00  0.00     0.240 N 
ATOM     19  C   LIG d   1      13.802   5.026  -4.331  0.00  0.00    -0.023 C 
ATOM     20  C   LIG d   1      14.440   3.899  -3.515  0.00  0.00    -0.010 C 
ATOM     21  H   LIG d   1      14.567   5.749  -4.654  0.00  0.00     0.085 H 
ATOM     22  C   LIG d   1      15.499   3.194  -4.369  0.00  0.00    -0.043 C 
ATOM     23  H   LIG d   1      13.666   3.175  -3.220  0.00  0.00     0.032 H 
ATOM     24  H   LIG d   1      14.913   4.317  -2.614  0.00  0.00     0.032 H 
ATOM     25  C   LIG d   1      14.843   2.666  -5.647  0.00  0.00    -0.012 C 
ATOM     26  H   LIG d   1      15.929   2.355  -3.803  0.00  0.00     0.027 H 
ATOM     27  H   LIG d   1      16.294   3.906  -4.631  0.00  0.00     0.027 H 
ATOM     28  C   LIG d   1      14.194   3.829  -6.400  0.00  0.00    -0.031 C 
ATOM     29  H   LIG d   1      14.074   1.923  -5.387  0.00  0.00     0.032 H 
ATOM     30  H   LIG d   1      15.606   2.196  -6.285  0.00  0.00     0.032 H 
ATOM     31  H   LIG d   1      13.710   3.450  -7.313  0.00  0.00     0.081 H 
ATOM     32  H   LIG d   1      14.966   4.564  -6.673  0.00  0.00     0.081 H 
ATOM     33  H   LIG d   1      12.472   3.696  -5.231  0.00  0.00     0.204 HD
BRANCH  19  34
ATOM     34  C   LIG d   1      12.730   5.721  -3.489  0.00  0.00    -0.022 C 
ATOM     35  H   LIG d   1      11.882   5.999  -4.131  0.00  0.00     0.028 H 
ATOM     36  H   LIG d   1      13.154   6.626  -3.029  0.00  0.00     0.028 H 
ATOM     37  H   LIG d   1      12.383   5.037  -2.700  0.00  0.00     0.028 H 
ENDBRANCH  19  34
ENDBRANCH  15  18
ENDBRANCH   9  15
BRANCH   1  38
ATOM     38  C   LIG d   1       9.815   2.688  -3.117  0.00  0.00    -0.005 C 
ATOM     39  H   LIG d   1       8.893   3.000  -2.604  0.00  0.00     0.031 H 
ATOM     40  H   LIG d   1      10.661   3.283  -2.744  0.00  0.00     0.031 H 
ATOM     41  H   LIG d   1      10.001   1.623  -2.921  0.00  0.00     0.031 H 
ENDBRANCH   1  38
BRANCH   2  42
ATOM     42  C   LIG d   1       7.739   1.364  -4.534  0.00  0.00     0.116 A 
ATOM     43  S   LIG d   1       7.670  -0.422  -4.549  0.00  0.00    -0.067 SA
ATOM     44  C   LIG d   1       6.303  -0.602  -3.429  0.00  0.00     0.040 A 
ATOM     45  C   LIG d   1       5.989   0.743  -3.118  0.00  0.00     0.079 A 
ATOM     46  C   LIG d   1       5.611  -1.663  -2.901  0.00  0.00    -0.046 A 
ATOM     47  N   LIG d   1       6.761   1.675  -3.709  0.00  0.00    -0.239 NA
ATOM     48  C   LIG d   1       4.911   0.940  -2.221  0.00  0.00    -0.035 A 
ATOM     49  C   LIG d   1       4.233  -0.119  -1.704  0.00  0.00    -0.060 A 
ATOM     50  H   LIG d   1       4.624   1.944  -1.945  0.00  0.00     0.064 H 
ATOM     51  C   LIG d   1       4.564  -1.427  -2.029  0.00  0.00    -0.061 A 
ATOM     52  H   LIG d   1       3.415   0.063  -1.022  0.00  0.00     0.062 H 
ATOM     53  H   LIG d   1       4.011  -2.251  -1.604  0.00  0.00     0.062 H 
ATOM     54  H   LIG d   1       5.882  -2.675  -3.164  0.00  0.00     0.063 H 
ENDBRANCH   2  42
TORSDOF 5
ENDMDL
MODEL 9
REMARK VINA RESULT:      -6.7      3.526      5.443
REMARK  5 active torsions:
REMARK  status: ('A' for Active; 'I' for Inactive)
REMARK    1  A    between atoms: C_1  and  C_2 
REMARK    2  A    between atoms: C_3  and  C_23 
REMARK    3  A    between atoms: C_10  and  C_13 
REMARK    4  A    between atoms: C_13  and  N_14 
REMARK    5  A    between atoms: C_19  and  C_21 
ROOT
ATOM      1  C   LIG d   1       4.978  -1.496  -6.779  0.00  0.00     0.116 A 
ATOM      2  C   LIG d   1       4.978  -2.453  -7.746  0.00  0.00     0.092 A 
ATOM      3  C   LIG d   1       5.846  -3.633  -7.574  0.00  0.00     0.202 A 
ATOM      4  O   LIG d   1       5.889  -4.522  -8.407  0.00  0.00    -0.286 OA
ATOM      5  C   LIG d   1       6.661  -3.683  -6.346  0.00  0.00     0.065 A 
ATOM      6  C   LIG d   1       7.516  -4.756  -6.088  0.00  0.00    -0.048 A 
ATOM      7  C   LIG d   1       8.256  -4.771  -4.941  0.00  0.00    -0.068 A 
ATOM      8  C   LIG d   1       8.162  -3.722  -4.029  0.00  0.00    -0.097 A 
ATOM      9  C   LIG d   1       7.318  -2.652  -4.271  0.00  0.00     0.032 A 
ATOM     10  C   LIG d   1       6.558  -2.620  -5.432  0.00  0.00     0.146 A 
ATOM     11  O   LIG d   1       5.732  -1.584  -5.682  0.00  0.00    -0.459 OA
ATOM     12  O   LIG d   1       8.905  -3.750  -2.893  0.00  0.00    -0.873 OA
ATOM     13  H   LIG d   1       7.591  -5.571  -6.794  0.00  0.00     0.063 H 
ATOM     14  H   LIG d   1       8.915  -5.602  -4.739  0.00  0.00     0.061 H 
ENDROOT
BRANCH   9  15
ATOM     15  C   LIG d   1       7.225  -1.524  -3.276  0.00  0.00    -0.003 C 
ATOM     16  H   LIG d   1       7.432  -1.907  -2.266  0.00  0.00     0.087 H 
ATOM     17  H   LIG d   1       7.962  -0.748  -3.531  0.00  0.00     0.087 H 
BRANCH  15  18
ATOM     18  N   LIG d   1       5.874  -0.947  -3.313  0.00  0.00     0.240 N 
ATOM     19  C   LIG d   1       5.891   0.462  -2.902  0.00  0.00    -0.023 C 
ATOM     20  C   LIG d   1       4.498   1.068  -3.092  0.00  0.00    -0.010 C 
ATOM     21  H   LIG d   1       6.182   0.488  -1.841  0.00  0.00     0.085 H 
ATOM     22  C   LIG d   1       3.487   0.283  -2.251  0.00  0.00    -0.043 C 
ATOM     23  H   LIG d   1       4.214   1.012  -4.153  0.00  0.00     0.032 H 
ATOM     24  H   LIG d   1       4.507   2.119  -2.769  0.00  0.00     0.032 H 
ATOM     25  C   LIG d   1       3.524  -1.190  -2.667  0.00  0.00    -0.012 C 
ATOM     26  H   LIG d   1       2.477   0.686  -2.418  0.00  0.00     0.027 H 
ATOM     27  H   LIG d   1       3.746   0.370  -1.186  0.00  0.00     0.027 H 
ATOM     28  C   LIG d   1       4.945  -1.730  -2.489  0.00  0.00    -0.031 C 
ATOM     29  H   LIG d   1       3.226  -1.284  -3.722  0.00  0.00     0.032 H 
ATOM     30  H   LIG d   1       2.831  -1.768  -2.037  0.00  0.00     0.032 H 
ATOM     31  H   LIG d   1       4.978  -2.785  -2.800  0.00  0.00     0.081 H 
ATOM     32  H   LIG d   1       5.237  -1.651  -1.431  0.00  0.00     0.081 H 
ATOM     33  H   LIG d   1       5.517  -0.989  -4.353  0.00  0.00     0.204 HD
BRANCH  19  34
ATOM     34  C   LIG d   1       6.902   1.230  -3.756  0.00  0.00    -0.022 C 
ATOM     35  H   LIG d   1       6.371   1.787  -4.541  0.00  0.00     0.028 H 
ATOM     36  H   LIG d   1       7.604   0.522  -4.220  0.00  0.00     0.028 H 
ATOM     37  H   LIG d   1       7.459   1.934  -3.119  0.00  0.00     0.028 H 
ENDBRANCH  19  34
ENDBRANCH  15  18
ENDBRANCH   9  15
BRANCH   1  38
ATOM     38  C   LIG d   1       4.091  -0.289  -6.952  0.00  0.00    -0.005 C 
ATOM     39  H   LIG d   1       3.650  -0.017  -5.982  0.00  0.00     0.031 H 
ATOM     40  H   LIG d   1       3.288  -0.525  -7.667  0.00  0.00     0.031 H 
ATOM     41  H   LIG d   1       4.687   0.552  -7.333  0.00  0.00     0.031 H 
ENDBRANCH   1  38
BRANCH   2  42
ATOM     42  C   LIG d   1       4.126  -2.315  -8.944  0.00  0.00     0.116 A 
ATOM     43  S   LIG d   1       4.417  -1.358 -10.425  0.00  0.00    -0.067 SA
ATOM     44  C   LIG d   1       2.913  -1.788 -11.267  0.00  0.00     0.040 A 
ATOM     45  C   LIG d   1       2.282  -2.650 -10.338  0.00  0.00     0.079 A 
ATOM     46  C   LIG d   1       2.352  -1.472 -12.479  0.00  0.00    -0.046 A 
ATOM     47  N   LIG d   1       2.959  -2.871  -9.194  0.00  0.00    -0.239 NA
ATOM     48  C   LIG d   1       1.028  -3.176 -10.728  0.00  0.00    -0.035 A 
ATOM     49  C   LIG d   1       0.482  -2.856 -11.932  0.00  0.00    -0.060 A 
ATOM     50  H   LIG d   1       0.497  -3.840 -10.061  0.00  0.00     0.064 H 
ATOM     51  C   LIG d   1       1.124  -2.007 -12.822  0.00  0.00    -0.061 A 
ATOM     52  H   LIG d   1      -0.478  -3.273 -12.202  0.00  0.00     0.062 H 
ATOM     53  H   LIG d   1       0.670  -1.769 -13.772  0.00  0.00     0.062 H 
ATOM     54  H   LIG d   1       2.867  -0.809 -13.160  0.00  0.00     0.063 H 
ENDBRANCH   2  42
TORSDOF 5
ENDMDL
MODEL 10
REMARK VINA RESULT:      -6.6      5.857     10.745
REMARK  5 active torsions:
REMARK  status: ('A' for Active; 'I' for Inactive)
REMARK    1  A    between atoms: C_1  and  C_2 
REMARK    2  A    between atoms: C_3  and  C_23 
REMARK    3  A    between atoms: C_10  and  C_13 
REMARK    4  A    between atoms: C_13  and  N_14 
REMARK    5  A    between atoms: C_19  and  C_21 
ROOT
ATOM      1  C   LIG d   1       7.211   0.684  -3.948  0.00  0.00     0.116 A 
ATOM      2  C   LIG d   1       8.491   0.950  -4.325  0.00  0.00     0.092 A 
ATOM      3  C   LIG d   1       9.282  -0.124  -4.954  0.00  0.00     0.202 A 
ATOM      4  O   LIG d   1      10.433   0.055  -5.312  0.00  0.00    -0.286 OA
ATOM      5  C   LIG d   1       8.611  -1.425  -5.128  0.00  0.00     0.065 A 
ATOM      6  C   LIG d   1       9.272  -2.507  -5.713  0.00  0.00    -0.048 A 
ATOM      7  C   LIG d   1       8.622  -3.698  -5.859  0.00  0.00    -0.068 A 
ATOM      8  C   LIG d   1       7.304  -3.839  -5.428  0.00  0.00    -0.097 A 
ATOM      9  C   LIG d   1       6.635  -2.774  -4.848  0.00  0.00     0.032 A 
ATOM     10  C   LIG d   1       7.282  -1.556  -4.691  0.00  0.00     0.146 A 
ATOM     11  O   LIG d   1       6.645  -0.510  -4.127  0.00  0.00    -0.459 OA
ATOM     12  O   LIG d   1       6.670  -5.030  -5.580  0.00  0.00    -0.873 OA
ATOM     13  H   LIG d   1      10.294  -2.402  -6.047  0.00  0.00     0.063 H 
ATOM     14  H   LIG d   1       9.130  -4.536  -6.314  0.00  0.00     0.061 H 
ENDROOT
BRANCH   9  15
ATOM     15  C   LIG d   1       5.210  -2.939  -4.387  0.00  0.00    -0.003 C 
ATOM     16  H   LIG d   1       4.696  -3.663  -5.035  0.00  0.00     0.087 H 
ATOM     17  H   LIG d   1       5.201  -3.305  -3.349  0.00  0.00     0.087 H 
BRANCH  15  18
ATOM     18  N   LIG d   1       4.520  -1.643  -4.456  0.00  0.00     0.240 N 
ATOM     19  C   LIG d   1       3.503  -1.532  -3.404  0.00  0.00    -0.023 C 
ATOM     20  C   LIG d   1       2.908  -0.122  -3.414  0.00  0.00    -0.010 C 
ATOM     21  H   LIG d   1       2.725  -2.281  -3.622  0.00  0.00     0.085 H 
ATOM     22  C   LIG d   1       2.284   0.153  -4.786  0.00  0.00    -0.043 C 
ATOM     23  H   LIG d   1       3.701   0.614  -3.218  0.00  0.00     0.032 H 
ATOM     24  H   LIG d   1       2.134  -0.042  -2.636  0.00  0.00     0.032 H 
ATOM     25  C   LIG d   1       3.354  -0.016  -5.868  0.00  0.00    -0.012 C 
ATOM     26  H   LIG d   1       1.894   1.182  -4.814  0.00  0.00     0.027 H 
ATOM     27  H   LIG d   1       1.464  -0.556  -4.967  0.00  0.00     0.027 H 
ATOM     28  C   LIG d   1       3.936  -1.429  -5.785  0.00  0.00    -0.031 C 
ATOM     29  H   LIG d   1       4.157   0.720  -5.711  0.00  0.00     0.032 H 
ATOM     30  H   LIG d   1       2.904   0.138  -6.859  0.00  0.00     0.032 H 
ATOM     31  H   LIG d   1       4.715  -1.550  -6.553  0.00  0.00     0.081 H 
ATOM     32  H   LIG d   1       3.136  -2.165  -5.958  0.00  0.00     0.081 H 
ATOM     33  H   LIG d   1       5.266  -0.853  -4.286  0.00  0.00     0.204 HD
BRANCH  19  34
ATOM     34  C   LIG d   1       4.144  -1.805  -2.042  0.00  0.00    -0.022 C 
ATOM     35  H   LIG d   1       3.398  -2.248  -1.367  0.00  0.00     0.028 H 
ATOM     36  H   LIG d   1       4.511  -0.861  -1.614  0.00  0.00     0.028 H 
ATOM     37  H   LIG d   1       4.986  -2.502  -2.167  0.00  0.00     0.028 H 
ENDBRANCH  19  34
ENDBRANCH  15  18
ENDBRANCH   9  15
BRANCH   1  38
ATOM     38  C   LIG d   1       6.401   1.781  -3.305  0.00  0.00    -0.005 C 
ATOM     39  H   LIG d   1       7.061   2.625  -3.055  0.00  0.00     0.031 H 
ATOM     40  H   LIG d   1       5.930   1.398  -2.387  0.00  0.00     0.031 H 
ATOM     41  H   LIG d   1       5.622   2.119  -4.003  0.00  0.00     0.031 H 
ENDBRANCH   1  38
BRANCH   2  42
ATOM     42  C   LIG d   1       9.078   2.288  -4.110  0.00  0.00     0.116 A 
ATOM     43  S   LIG d   1       9.239   3.642  -5.265  0.00  0.00    -0.067 SA
ATOM     44  C   LIG d   1      10.031   4.786  -4.160  0.00  0.00     0.040 A 
ATOM     45  C   LIG d   1      10.119   4.036  -2.963  0.00  0.00     0.079 A 
ATOM     46  C   LIG d   1      10.498   6.072  -4.262  0.00  0.00    -0.046 A 
ATOM     47  N   LIG d   1       9.611   2.788  -3.015  0.00  0.00    -0.239 NA
ATOM     48  C   LIG d   1      10.720   4.690  -1.861  0.00  0.00    -0.035 A 
ATOM     49  C   LIG d   1      11.179   5.965  -1.973  0.00  0.00    -0.060 A 
ATOM     50  H   LIG d   1      10.816   4.169  -0.919  0.00  0.00     0.064 H 
ATOM     51  C   LIG d   1      11.079   6.675  -3.162  0.00  0.00    -0.061 A 
ATOM     52  H   LIG d   1      11.634   6.438  -1.114  0.00  0.00     0.062 H 
ATOM     53  H   LIG d   1      11.450   7.686  -3.225  0.00  0.00     0.062 H 
ATOM     54  H   LIG d   1      10.412   6.610  -5.195  0.00  0.00     0.063 H 
ENDBRANCH   2  42
TORSDOF 5
ENDMDL
