MODEL 1
REMARK VINA RESULT:      -6.3      0.000      0.000
REMARK  7 active torsions:
REMARK  status: ('A' for Active; 'I' for Inactive)
REMARK    1  A    between atoms: CD1_1  and  CG_2 
REMARK    2  A    between atoms: CG_2  and  CD2_3 
REMARK    3  A    between atoms: CG_2  and  CB_4 
REMARK    4  A    between atoms: CB_4  and  CA_5 
REMARK    5  A    between atoms: CA_5  and  C_7 
REMARK    6  A    between atoms: CA_5  and  N_9 
REMARK       I    between atoms: N_9  and  C_10 
REMARK    7  A    between atoms: C_10  and  CA_12 
ROOT
ATOM      1  N   LIG d   1       5.212  -0.378  -5.317  0.00  0.00    -0.302 N 
ATOM      2  C   LIG d   1       3.955  -0.062  -5.688  0.00  0.00     0.261 C 
ATOM      3  O   LIG d   1       3.252   0.602  -4.949  0.00  0.00    -0.269 OA
ATOM      4  H   LIG d   1       5.773  -0.907  -5.906  0.00  0.00     0.150 HD
ENDROOT
BRANCH   1   5
ATOM      5  CA  LIG d   1       5.731   0.078  -4.025  0.00  0.00     0.063 C 
ATOM      6  HA  LIG d   1       5.026   0.779  -3.578  0.00  0.00     0.056 H 
BRANCH   5   7
ATOM      7  CB  LIG d   1       5.914  -1.124  -3.097  0.00  0.00    -0.027 C 
ATOM      8  HB1 LIG d   1       6.904  -1.084  -2.642  0.00  0.00     0.029 H 
ATOM      9  HB2 LIG d   1       5.816  -2.046  -3.671  0.00  0.00     0.029 H 
BRANCH   7  10
ATOM     10  CG  LIG d   1       4.848  -1.090  -2.000  0.00  0.00    -0.045 C 
ATOM     11  HG  LIG d   1       5.260  -1.506  -1.080  0.00  0.00     0.030 H 
BRANCH  10  12
ATOM     12  CD1 LIG d   1       4.412   0.356  -1.758  0.00  0.00    -0.063 C 
ATOM     13 1HD1 LIG d   1       3.324   0.408  -1.722  0.00  0.00     0.023 H 
ATOM     14 2HD1 LIG d   1       4.824   0.705  -0.810  0.00  0.00     0.023 H 
ATOM     15 3HD1 LIG d   1       4.780   0.987  -2.567  0.00  0.00     0.023 H 
ENDBRANCH  10  12
BRANCH  10  16
ATOM     16  CD2 LIG d   1       3.639  -1.920  -2.439  0.00  0.00    -0.063 C 
ATOM     17 1HD2 LIG d   1       3.058  -2.206  -1.563  0.00  0.00     0.023 H 
ATOM     18 2HD2 LIG d   1       3.017  -1.329  -3.111  0.00  0.00     0.023 H 
ATOM     19 3HD2 LIG d   1       3.983  -2.816  -2.956  0.00  0.00     0.023 H 
ENDBRANCH  10  16
ENDBRANCH   7  10
ENDBRANCH   5   7
BRANCH   5  20
ATOM     20  C   LIG d   1       7.058   0.762  -4.231  0.00  0.00     0.062 C 
ATOM     21  O   LIG d   1       7.790   0.405  -5.122  0.00  0.00    -0.548 OA
ATOM     22  OXT LIG d   1       7.425   1.768  -3.423  0.00  0.00    -0.548 OA
ENDBRANCH   5  20
ENDBRANCH   1   5
BRANCH   2  23
ATOM     23  CA  LIG d   1       3.434  -0.520  -6.985  0.00  0.00     0.103 A 
ATOM     24  N   LIG d   1       3.703  -1.742  -7.570  0.00  0.00    -0.351 N 
ATOM     25  C   LIG d   1       3.041  -1.813  -8.772  0.00  0.00     0.047 A 
ATOM     26  H   LIG d   1       4.266  -2.437  -7.193  0.00  0.00     0.166 HD
ATOM     27  C   LIG d   1       2.348  -0.599  -8.944  0.00  0.00     0.000 A 
ATOM     28  C   LIG d   1       2.956  -2.794  -9.757  0.00  0.00    -0.038 A 
ATOM     29  C   LIG d   1       2.616   0.194  -7.801  0.00  0.00    -0.024 A 
ATOM     30  C   LIG d   1       1.584  -0.393 -10.099  0.00  0.00    -0.053 A 
ATOM     31  H   LIG d   1       2.237   1.188  -7.613  0.00  0.00     0.065 H 
ATOM     32  C   LIG d   1       1.516  -1.369 -11.050  0.00  0.00    -0.061 A 
ATOM     33  H   LIG d   1       1.050   0.535 -10.238  0.00  0.00     0.062 H 
ATOM     34  C   LIG d   1       2.198  -2.568 -10.884  0.00  0.00    -0.060 A 
ATOM     35  H   LIG d   1       0.926  -1.209 -11.940  0.00  0.00     0.062 H 
ATOM     36  H   LIG d   1       2.134  -3.330 -11.646  0.00  0.00     0.062 H 
ATOM     37  H   LIG d   1       3.484  -3.728  -9.638  0.00  0.00     0.064 H 
ENDBRANCH   2  23
TORSDOF 7
ENDMDL
MODEL 2
REMARK VINA RESULT:      -6.3      1.985      2.742
REMARK  7 active torsions:
REMARK  status: ('A' for Active; 'I' for Inactive)
REMARK    1  A    between atoms: CD1_1  and  CG_2 
REMARK    2  A    between atoms: CG_2  and  CD2_3 
REMARK    3  A    between atoms: CG_2  and  CB_4 
REMARK    4  A    between atoms: CB_4  and  CA_5 
REMARK    5  A    between atoms: CA_5  and  C_7 
REMARK    6  A    between atoms: CA_5  and  N_9 
REMARK       I    between atoms: N_9  and  C_10 
REMARK    7  A    between atoms: C_10  and  CA_12 
ROOT
ATOM      1  N   LIG d   1       3.566  -1.043  -5.290  0.00  0.00    -0.302 N 
ATOM      2  C   LIG d   1       4.227  -0.448  -6.303  0.00  0.00     0.261 C 
ATOM      3  O   LIG d   1       5.240   0.189  -6.078  0.00  0.00    -0.269 OA
ATOM      4  H   LIG d   1       2.758  -1.550  -5.470  0.00  0.00     0.150 HD
ENDROOT
BRANCH   1   5
ATOM      5  CA  LIG d   1       4.066  -0.922  -3.918  0.00  0.00     0.063 C 
ATOM      6  HA  LIG d   1       4.884  -0.202  -3.892  0.00  0.00     0.056 H 
BRANCH   5   7
ATOM      7  CB  LIG d   1       2.935  -0.446  -3.004  0.00  0.00    -0.027 C 
ATOM      8  HB1 LIG d   1       2.745  -1.198  -2.239  0.00  0.00     0.029 H 
ATOM      9  HB2 LIG d   1       2.031  -0.291  -3.593  0.00  0.00     0.029 H 
BRANCH   7  10
ATOM     10  CG  LIG d   1       3.340   0.871  -2.336  0.00  0.00    -0.045 C 
ATOM     11  HG  LIG d   1       2.591   1.145  -1.592  0.00  0.00     0.030 H 
BRANCH  10  12
ATOM     12  CD1 LIG d   1       4.699   0.699  -1.654  0.00  0.00    -0.063 C 
ATOM     13 1HD1 LIG d   1       4.600   0.012  -0.814  0.00  0.00     0.023 H 
ATOM     14 2HD1 LIG d   1       5.415   0.297  -2.371  0.00  0.00     0.023 H 
ATOM     15 3HD1 LIG d   1       5.049   1.667  -1.294  0.00  0.00     0.023 H 
ENDBRANCH  10  12
BRANCH  10  16
ATOM     16  CD2 LIG d   1       3.435   1.971  -3.395  0.00  0.00    -0.063 C 
ATOM     17 1HD2 LIG d   1       3.774   2.896  -2.928  0.00  0.00     0.023 H 
ATOM     18 2HD2 LIG d   1       4.144   1.672  -4.167  0.00  0.00     0.023 H 
ATOM     19 3HD2 LIG d   1       2.454   2.129  -3.843  0.00  0.00     0.023 H 
ENDBRANCH  10  16
ENDBRANCH   7  10
ENDBRANCH   5   7
BRANCH   5  20
ATOM     20  C   LIG d   1       4.562  -2.264  -3.446  0.00  0.00     0.062 C 
ATOM     21  O   LIG d   1       3.880  -2.937  -2.711  0.00  0.00    -0.548 OA
ATOM     22  OXT LIG d   1       5.764  -2.712  -3.843  0.00  0.00    -0.548 OA
ENDBRANCH   5  20
ENDBRANCH   1   5
BRANCH   2  23
ATOM     23  CA  LIG d   1       3.726  -0.568  -7.680  0.00  0.00     0.103 A 
ATOM     24  N   LIG d   1       2.394  -0.631  -8.045  0.00  0.00    -0.351 N 
ATOM     25  C   LIG d   1       2.315  -0.738  -9.413  0.00  0.00     0.047 A 
ATOM     26  H   LIG d   1       1.639  -0.604  -7.436  0.00  0.00     0.166 HD
ATOM     27  C   LIG d   1       3.632  -0.750  -9.912  0.00  0.00     0.000 A 
ATOM     28  C   LIG d   1       1.246  -0.832 -10.300  0.00  0.00    -0.038 A 
ATOM     29  C   LIG d   1       4.496  -0.641  -8.796  0.00  0.00    -0.024 A 
ATOM     30  C   LIG d   1       3.850  -0.855 -11.291  0.00  0.00    -0.053 A 
ATOM     31  H   LIG d   1       5.576  -0.621  -8.827  0.00  0.00     0.065 H 
ATOM     32  C   LIG d   1       2.787  -0.946 -12.141  0.00  0.00    -0.061 A 
ATOM     33  H   LIG d   1       4.857  -0.865 -11.682  0.00  0.00     0.062 H 
ATOM     34  C   LIG d   1       1.487  -0.935 -11.652  0.00  0.00    -0.060 A 
ATOM     35  H   LIG d   1       2.957  -1.027 -13.205  0.00  0.00     0.062 H 
ATOM     36  H   LIG d   1       0.656  -1.008 -12.339  0.00  0.00     0.062 H 
ATOM     37  H   LIG d   1       0.232  -0.825  -9.930  0.00  0.00     0.064 H 
ENDBRANCH   2  23
TORSDOF 7
ENDMDL
MODEL 3
REMARK VINA RESULT:      -6.2      1.921      2.556
REMARK  7 active torsions:
REMARK  status: ('A' for Active; 'I' for Inactive)
REMARK    1  A    between atoms: CD1_1  and  CG_2 
REMARK    2  A    between atoms: CG_2  and  CD2_3 
REMARK    3  A    between atoms: CG_2  and  CB_4 
REMARK    4  A    between atoms: CB_4  and  CA_5 
REMARK    5  A    between atoms: CA_5  and  C_7 
REMARK    6  A    between atoms: CA_5  and  N_9 
REMARK       I    between atoms: N_9  and  C_10 
REMARK    7  A    between atoms: C_10  and  CA_12 
ROOT
ATOM      1  N   LIG d   1       4.201   0.132  -4.628  0.00  0.00    -0.302 N 
ATOM      2  C   LIG d   1       3.100   0.148  -5.404  0.00  0.00     0.261 C 
ATOM      3  O   LIG d   1       1.996   0.100  -4.894  0.00  0.00    -0.269 OA
ATOM      4  H   LIG d   1       5.082   0.170  -5.035  0.00  0.00     0.150 HD
ENDROOT
BRANCH   1   5
ATOM      5  CA  LIG d   1       4.071   0.058  -3.171  0.00  0.00     0.063 C 
ATOM      6  HA  LIG d   1       3.034   0.242  -2.889  0.00  0.00     0.056 H 
BRANCH   5   7
ATOM      7  CB  LIG d   1       4.490  -1.333  -2.692  0.00  0.00    -0.027 C 
ATOM      8  HB1 LIG d   1       3.603  -1.950  -2.546  0.00  0.00     0.029 H 
ATOM      9  HB2 LIG d   1       5.030  -1.246  -1.748  0.00  0.00     0.029 H 
BRANCH   7  10
ATOM     10  CG  LIG d   1       5.397  -1.983  -3.740  0.00  0.00    -0.045 C 
ATOM     11  HG  LIG d   1       5.439  -1.348  -4.625  0.00  0.00     0.030 H 
BRANCH  10  12
ATOM     12  CD1 LIG d   1       6.804  -2.150  -3.163  0.00  0.00    -0.063 C 
ATOM     13 1HD1 LIG d   1       6.959  -3.190  -2.877  0.00  0.00     0.023 H 
ATOM     14 2HD1 LIG d   1       7.540  -1.866  -3.915  0.00  0.00     0.023 H 
ATOM     15 3HD1 LIG d   1       6.915  -1.511  -2.287  0.00  0.00     0.023 H 
ENDBRANCH  10  12
BRANCH  10  16
ATOM     16  CD2 LIG d   1       4.835  -3.354  -4.120  0.00  0.00    -0.063 C 
ATOM     17 1HD2 LIG d   1       5.642  -3.988  -4.488  0.00  0.00     0.023 H 
ATOM     18 2HD2 LIG d   1       4.380  -3.816  -3.244  0.00  0.00     0.023 H 
ATOM     19 3HD2 LIG d   1       4.082  -3.234  -4.900  0.00  0.00     0.023 H 
ENDBRANCH  10  16
ENDBRANCH   7  10
ENDBRANCH   5   7
BRANCH   5  20
ATOM     20  C   LIG d   1       4.956   1.097  -2.534  0.00  0.00     0.062 C 
ATOM     21  O   LIG d   1       5.751   1.709  -3.207  0.00  0.00    -0.548 OA
ATOM     22  OXT LIG d   1       4.861   1.343  -1.218  0.00  0.00    -0.548 OA
ENDBRANCH   5  20
ENDBRANCH   1   5
BRANCH   2  23
ATOM     23  CA  LIG d   1       3.231   0.222  -6.867  0.00  0.00     0.103 A 
ATOM     24  N   LIG d   1       3.584   1.350  -7.583  0.00  0.00    -0.351 N 
ATOM     25  C   LIG d   1       3.605   1.037  -8.921  0.00  0.00     0.047 A 
ATOM     26  H   LIG d   1       3.785   2.220  -7.204  0.00  0.00     0.166 HD
ATOM     27  C   LIG d   1       3.247  -0.320  -9.041  0.00  0.00     0.000 A 
ATOM     28  C   LIG d   1       3.890   1.773 -10.067  0.00  0.00    -0.038 A 
ATOM     29  C   LIG d   1       3.018  -0.804  -7.730  0.00  0.00    -0.024 A 
ATOM     30  C   LIG d   1       3.183  -0.912 -10.309  0.00  0.00    -0.053 A 
ATOM     31  H   LIG d   1       2.726  -1.810  -7.465  0.00  0.00     0.065 H 
ATOM     32  C   LIG d   1       3.467  -0.169 -11.418  0.00  0.00    -0.061 A 
ATOM     33  H   LIG d   1       2.909  -1.951 -10.410  0.00  0.00     0.062 H 
ATOM     34  C   LIG d   1       3.820   1.169 -11.303  0.00  0.00    -0.060 A 
ATOM     35  H   LIG d   1       3.417  -0.627 -12.396  0.00  0.00     0.062 H 
ATOM     36  H   LIG d   1       4.042   1.742 -12.191  0.00  0.00     0.062 H 
ATOM     37  H   LIG d   1       4.165   2.814  -9.989  0.00  0.00     0.064 H 
ENDBRANCH   2  23
TORSDOF 7
ENDMDL
MODEL 4
REMARK VINA RESULT:      -6.1      4.797      6.643
REMARK  7 active torsions:
REMARK  status: ('A' for Active; 'I' for Inactive)
REMARK    1  A    between atoms: CD1_1  and  CG_2 
REMARK    2  A    between atoms: CG_2  and  CD2_3 
REMARK    3  A    between atoms: CG_2  and  CB_4 
REMARK    4  A    between atoms: CB_4  and  CA_5 
REMARK    5  A    between atoms: CA_5  and  C_7 
REMARK    6  A    between atoms: CA_5  and  N_9 
REMARK       I    between atoms: N_9  and  C_10 
REMARK    7  A    between atoms: C_10  and  CA_12 
ROOT
ATOM      1  N   LIG d   1       9.214   1.734  -3.452  0.00  0.00    -0.302 N 
ATOM      2  C   LIG d   1       8.061   1.809  -4.145  0.00  0.00     0.261 C 
ATOM      3  O   LIG d   1       7.973   2.558  -5.101  0.00  0.00    -0.269 OA
ATOM      4  H   LIG d   1       9.283   1.137  -2.690  0.00  0.00     0.150 HD
ENDROOT
BRANCH   1   5
ATOM      5  CA  LIG d   1      10.361   2.554  -3.848  0.00  0.00     0.063 C 
ATOM      6  HA  LIG d   1      10.073   3.211  -4.668  0.00  0.00     0.056 H 
BRANCH   5   7
ATOM      7  CB  LIG d   1      10.821   3.397  -2.656  0.00  0.00    -0.027 C 
ATOM      8  HB1 LIG d   1      11.864   3.683  -2.794  0.00  0.00     0.029 H 
ATOM      9  HB2 LIG d   1      10.722   2.815  -1.740  0.00  0.00     0.029 H 
BRANCH   7  10
ATOM     10  CG  LIG d   1       9.956   4.655  -2.557  0.00  0.00    -0.045 C 
ATOM     11  HG  LIG d   1       8.947   4.379  -2.250  0.00  0.00     0.030 H 
BRANCH  10  12
ATOM     12  CD1 LIG d   1      10.561   5.609  -1.526  0.00  0.00    -0.063 C 
ATOM     13 1HD1 LIG d   1       9.823   6.363  -1.250  0.00  0.00     0.023 H 
ATOM     14 2HD1 LIG d   1      10.855   5.046  -0.640  0.00  0.00     0.023 H 
ATOM     15 3HD1 LIG d   1      11.437   6.097  -1.953  0.00  0.00     0.023 H 
ENDBRANCH  10  12
BRANCH  10  16
ATOM     16  CD2 LIG d   1       9.903   5.346  -3.922  0.00  0.00    -0.063 C 
ATOM     17 1HD2 LIG d   1       8.903   5.748  -4.087  0.00  0.00     0.023 H 
ATOM     18 2HD2 LIG d   1      10.630   6.158  -3.947  0.00  0.00     0.023 H 
ATOM     19 3HD2 LIG d   1      10.137   4.623  -4.704  0.00  0.00     0.023 H 
ENDBRANCH  10  16
ENDBRANCH   7  10
ENDBRANCH   5   7
BRANCH   5  20
ATOM     20  C   LIG d   1      11.488   1.658  -4.294  0.00  0.00     0.062 C 
ATOM     21  O   LIG d   1      12.294   1.255  -3.491  0.00  0.00    -0.548 OA
ATOM     22  OXT LIG d   1      11.594   1.308  -5.585  0.00  0.00    -0.548 OA
ENDBRANCH   5  20
ENDBRANCH   1   5
BRANCH   2  23
ATOM     23  CA  LIG d   1       6.908   0.986  -3.748  0.00  0.00     0.103 A 
ATOM     24  N   LIG d   1       5.624   1.453  -3.545  0.00  0.00    -0.351 N 
ATOM     25  C   LIG d   1       4.820   0.397  -3.186  0.00  0.00     0.047 A 
ATOM     26  H   LIG d   1       5.335   2.374  -3.641  0.00  0.00     0.166 HD
ATOM     27  C   LIG d   1       5.629  -0.756  -3.157  0.00  0.00     0.000 A 
ATOM     28  C   LIG d   1       3.468   0.292  -2.872  0.00  0.00    -0.038 A 
ATOM     29  C   LIG d   1       6.937  -0.351  -3.516  0.00  0.00    -0.024 A 
ATOM     30  C   LIG d   1       5.064  -1.991  -2.814  0.00  0.00    -0.053 A 
ATOM     31  H   LIG d   1       7.804  -0.992  -3.591  0.00  0.00     0.065 H 
ATOM     32  C   LIG d   1       3.736  -2.069  -2.510  0.00  0.00    -0.061 A 
ATOM     33  H   LIG d   1       5.677  -2.880  -2.789  0.00  0.00     0.062 H 
ATOM     34  C   LIG d   1       2.936  -0.934  -2.538  0.00  0.00    -0.060 A 
ATOM     35  H   LIG d   1       3.303  -3.022  -2.246  0.00  0.00     0.062 H 
ATOM     36  H   LIG d   1       1.887  -1.013  -2.294  0.00  0.00     0.062 H 
ATOM     37  H   LIG d   1       2.838   1.169  -2.890  0.00  0.00     0.064 H 
ENDBRANCH   2  23
TORSDOF 7
ENDMDL
MODEL 5
REMARK VINA RESULT:      -5.7      4.828      7.278
REMARK  7 active torsions:
REMARK  status: ('A' for Active; 'I' for Inactive)
REMARK    1  A    between atoms: CD1_1  and  CG_2 
REMARK    2  A    between atoms: CG_2  and  CD2_3 
REMARK    3  A    between atoms: CG_2  and  CB_4 
REMARK    4  A    between atoms: CB_4  and  CA_5 
REMARK    5  A    between atoms: CA_5  and  C_7 
REMARK    6  A    between atoms: CA_5  and  N_9 
REMARK       I    between atoms: N_9  and  C_10 
REMARK    7  A    between atoms: C_10  and  CA_12 
ROOT
ATOM      1  N   LIG d   1       4.678  -5.171  -5.375  0.00  0.00    -0.302 N 
ATOM      2  C   LIG d   1       5.571  -4.183  -5.172  0.00  0.00     0.261 C 
ATOM      3  O   LIG d   1       6.710  -4.299  -5.585  0.00  0.00    -0.269 OA
ATOM      4  H   LIG d   1       3.769  -5.078  -5.045  0.00  0.00     0.150 HD
ENDROOT
BRANCH   1   5
ATOM      5  CA  LIG d   1       5.076  -6.384  -6.092  0.00  0.00     0.063 C 
ATOM      6  HA  LIG d   1       6.136  -6.326  -6.342  0.00  0.00     0.056 H 
BRANCH   5   7
ATOM      7  CB  LIG d   1       4.827  -7.606  -5.205  0.00  0.00    -0.027 C 
ATOM      8  HB1 LIG d   1       3.966  -8.158  -5.583  0.00  0.00     0.029 H 
ATOM      9  HB2 LIG d   1       4.629  -7.280  -4.184  0.00  0.00     0.029 H 
BRANCH   7  10
ATOM     10  CG  LIG d   1       6.061  -8.510  -5.222  0.00  0.00    -0.045 C 
ATOM     11  HG  LIG d   1       6.146  -8.990  -6.197  0.00  0.00     0.030 H 
BRANCH  10  12
ATOM     12  CD1 LIG d   1       7.312  -7.670  -4.956  0.00  0.00    -0.063 C 
ATOM     13 1HD1 LIG d   1       7.409  -7.491  -3.886  0.00  0.00     0.023 H 
ATOM     14 2HD1 LIG d   1       8.191  -8.204  -5.317  0.00  0.00     0.023 H 
ATOM     15 3HD1 LIG d   1       7.227  -6.717  -5.479  0.00  0.00     0.023 H 
ENDBRANCH  10  12
BRANCH  10  16
ATOM     16  CD2 LIG d   1       5.924  -9.580  -4.136  0.00  0.00    -0.063 C 
ATOM     17 1HD2 LIG d   1       5.337  -9.183  -3.308  0.00  0.00     0.023 H 
ATOM     18 2HD2 LIG d   1       5.424 -10.455  -4.550  0.00  0.00     0.023 H 
ATOM     19 3HD2 LIG d   1       6.914  -9.862  -3.778  0.00  0.00     0.023 H 
ENDBRANCH  10  16
ENDBRANCH   7  10
ENDBRANCH   5   7
BRANCH   5  20
ATOM     20  C   LIG d   1       4.268  -6.507  -7.357  0.00  0.00     0.062 C 
ATOM     21  O   LIG d   1       4.477  -7.418  -8.122  0.00  0.00    -0.548 OA
ATOM     22  OXT LIG d   1       3.316  -5.603  -7.635  0.00  0.00    -0.548 OA
ENDBRANCH   5  20
ENDBRANCH   1   5
BRANCH   2  23
ATOM     23  CA  LIG d   1       5.171  -2.965  -4.452  0.00  0.00     0.103 A 
ATOM     24  N   LIG d   1       3.871  -2.535  -4.266  0.00  0.00    -0.351 N 
ATOM     25  C   LIG d   1       3.890  -1.363  -3.547  0.00  0.00     0.047 A 
ATOM     26  H   LIG d   1       3.075  -2.986  -4.589  0.00  0.00     0.166 HD
ATOM     27  C   LIG d   1       5.239  -1.052  -3.286  0.00  0.00     0.000 A 
ATOM     28  C   LIG d   1       2.890  -0.513  -3.084  0.00  0.00    -0.038 A 
ATOM     29  C   LIG d   1       6.020  -2.080  -3.868  0.00  0.00    -0.024 A 
ATOM     30  C   LIG d   1       5.557   0.106  -2.564  0.00  0.00    -0.053 A 
ATOM     31  H   LIG d   1       7.098  -2.147  -3.851  0.00  0.00     0.065 H 
ATOM     32  C   LIG d   1       4.558   0.924  -2.121  0.00  0.00    -0.061 A 
ATOM     33  H   LIG d   1       6.588   0.352  -2.359  0.00  0.00     0.062 H 
ATOM     34  C   LIG d   1       3.227   0.619  -2.377  0.00  0.00    -0.060 A 
ATOM     35  H   LIG d   1       4.805   1.816  -1.564  0.00  0.00     0.062 H 
ATOM     36  H   LIG d   1       2.450   1.277  -2.019  0.00  0.00     0.062 H 
ATOM     37  H   LIG d   1       1.852  -0.740  -3.279  0.00  0.00     0.064 H 
ENDBRANCH   2  23
TORSDOF 7
ENDMDL
MODEL 6
REMARK VINA RESULT:      -5.6      2.776      7.248
REMARK  7 active torsions:
REMARK  status: ('A' for Active; 'I' for Inactive)
REMARK    1  A    between atoms: CD1_1  and  CG_2 
REMARK    2  A    between atoms: CG_2  and  CD2_3 
REMARK    3  A    between atoms: CG_2  and  CB_4 
REMARK    4  A    between atoms: CB_4  and  CA_5 
REMARK    5  A    between atoms: CA_5  and  C_7 
REMARK    6  A    between atoms: CA_5  and  N_9 
REMARK       I    between atoms: N_9  and  C_10 
REMARK    7  A    between atoms: C_10  and  CA_12 
ROOT
ATOM      1  N   LIG d   1       3.449  -1.615  -8.102  0.00  0.00    -0.302 N 
ATOM      2  C   LIG d   1       3.064  -0.502  -7.447  0.00  0.00     0.261 C 
ATOM      3  O   LIG d   1       2.432   0.360  -8.030  0.00  0.00    -0.269 OA
ATOM      4  H   LIG d   1       3.953  -2.302  -7.636  0.00  0.00     0.150 HD
ENDROOT
BRANCH   1   5
ATOM      5  CA  LIG d   1       3.106  -1.789  -9.515  0.00  0.00     0.063 C 
ATOM      6  HA  LIG d   1       2.170  -1.273  -9.728  0.00  0.00     0.056 H 
BRANCH   5   7
ATOM      7  CB  LIG d   1       4.221  -1.204 -10.385  0.00  0.00    -0.027 C 
ATOM      8  HB1 LIG d   1       4.716  -2.007 -10.930  0.00  0.00     0.029 H 
ATOM      9  HB2 LIG d   1       4.947  -0.693  -9.752  0.00  0.00     0.029 H 
BRANCH   7  10
ATOM     10  CG  LIG d   1       3.622  -0.206 -11.380  0.00  0.00    -0.045 C 
ATOM     11  HG  LIG d   1       2.537  -0.313 -11.392  0.00  0.00     0.030 H 
BRANCH  10  12
ATOM     12  CD1 LIG d   1       3.990   1.217 -10.958  0.00  0.00    -0.063 C 
ATOM     13 1HD1 LIG d   1       3.587   1.927 -11.680  0.00  0.00     0.023 H 
ATOM     14 2HD1 LIG d   1       3.570   1.423  -9.973  0.00  0.00     0.023 H 
ATOM     15 3HD1 LIG d   1       5.075   1.315 -10.918  0.00  0.00     0.023 H 
ENDBRANCH  10  12
BRANCH  10  16
ATOM     16  CD2 LIG d   1       4.178  -0.484 -12.778  0.00  0.00    -0.063 C 
ATOM     17 1HD2 LIG d   1       3.355  -0.563 -13.488  0.00  0.00     0.023 H 
ATOM     18 2HD2 LIG d   1       4.837   0.331 -13.076  0.00  0.00     0.023 H 
ATOM     19 3HD2 LIG d   1       4.739  -1.419 -12.766  0.00  0.00     0.023 H 
ENDBRANCH  10  16
ENDBRANCH   7  10
ENDBRANCH   5   7
BRANCH   5  20
ATOM     20  C   LIG d   1       2.951  -3.257  -9.817  0.00  0.00     0.062 C 
ATOM     21  O   LIG d   1       3.053  -4.070  -8.930  0.00  0.00    -0.548 OA
ATOM     22  OXT LIG d   1       2.699  -3.660 -11.072  0.00  0.00    -0.548 OA
ENDBRANCH   5  20
ENDBRANCH   1   5
BRANCH   2  23
ATOM     23  CA  LIG d   1       3.408  -0.327  -6.028  0.00  0.00     0.103 A 
ATOM     24  N   LIG d   1       3.215   0.828  -5.293  0.00  0.00    -0.351 N 
ATOM     25  C   LIG d   1       3.654   0.614  -4.009  0.00  0.00     0.047 A 
ATOM     26  H   LIG d   1       2.830   1.653  -5.628  0.00  0.00     0.166 HD
ATOM     27  C   LIG d   1       4.142  -0.706  -3.944  0.00  0.00     0.000 A 
ATOM     28  C   LIG d   1       3.696   1.415  -2.870  0.00  0.00    -0.038 A 
ATOM     29  C   LIG d   1       3.973  -1.271  -5.232  0.00  0.00    -0.024 A 
ATOM     30  C   LIG d   1       4.661  -1.196  -2.739  0.00  0.00    -0.053 A 
ATOM     31  H   LIG d   1       4.245  -2.274  -5.527  0.00  0.00     0.065 H 
ATOM     32  C   LIG d   1       4.692  -0.392  -1.637  0.00  0.00    -0.061 A 
ATOM     33  H   LIG d   1       5.037  -2.207  -2.682  0.00  0.00     0.062 H 
ATOM     34  C   LIG d   1       4.211   0.910  -1.697  0.00  0.00    -0.060 A 
ATOM     35  H   LIG d   1       5.092  -0.772  -0.709  0.00  0.00     0.062 H 
ATOM     36  H   LIG d   1       4.243   1.533  -0.816  0.00  0.00     0.062 H 
ATOM     37  H   LIG d   1       3.326   2.428  -2.907  0.00  0.00     0.064 H 
ENDBRANCH   2  23
TORSDOF 7
ENDMDL
MODEL 7
REMARK VINA RESULT:      -5.6      1.656      2.122
REMARK  7 active torsions:
REMARK  status: ('A' for Active; 'I' for Inactive)
REMARK    1  A    between atoms: CD1_1  and  CG_2 
REMARK    2  A    between atoms: CG_2  and  CD2_3 
REMARK    3  A    between atoms: CG_2  and  CB_4 
REMARK    4  A    between atoms: CB_4  and  CA_5 
REMARK    5  A    between atoms: CA_5  and  C_7 
REMARK    6  A    between atoms: CA_5  and  N_9 
REMARK       I    between atoms: N_9  and  C_10 
REMARK    7  A    between atoms: C_10  and  CA_12 
ROOT
ATOM      1  N   LIG d   1       4.993  -1.743  -5.232  0.00  0.00    -0.302 N 
ATOM      2  C   LIG d   1       4.908  -0.823  -6.213  0.00  0.00     0.261 C 
ATOM      3  O   LIG d   1       5.575   0.193  -6.155  0.00  0.00    -0.269 OA
ATOM      4  H   LIG d   1       4.461  -2.553  -5.279  0.00  0.00     0.150 HD
ENDROOT
BRANCH   1   5
ATOM      5  CA  LIG d   1       5.888  -1.519  -4.094  0.00  0.00     0.063 C 
ATOM      6  HA  LIG d   1       6.435  -0.587  -4.239  0.00  0.00     0.056 H 
BRANCH   5   7
ATOM      7  CB  LIG d   1       5.065  -1.433  -2.807  0.00  0.00    -0.027 C 
ATOM      8  HB1 LIG d   1       5.736  -1.365  -1.951  0.00  0.00     0.029 H 
ATOM      9  HB2 LIG d   1       4.445  -2.325  -2.712  0.00  0.00     0.029 H 
BRANCH   7  10
ATOM     10  CG  LIG d   1       4.171  -0.192  -2.855  0.00  0.00    -0.045 C 
ATOM     11  HG  LIG d   1       4.354   0.351  -3.782  0.00  0.00     0.030 H 
BRANCH  10  12
ATOM     12  CD1 LIG d   1       2.703  -0.619  -2.794  0.00  0.00    -0.063 C 
ATOM     13 1HD1 LIG d   1       2.644  -1.693  -2.614  0.00  0.00     0.023 H 
ATOM     14 2HD1 LIG d   1       2.204  -0.086  -1.985  0.00  0.00     0.023 H 
ATOM     15 3HD1 LIG d   1       2.216  -0.382  -3.740  0.00  0.00     0.023 H 
ENDBRANCH  10  12
BRANCH  10  16
ATOM     16  CD2 LIG d   1       4.490   0.712  -1.662  0.00  0.00    -0.063 C 
ATOM     17 1HD2 LIG d   1       5.313   0.282  -1.091  0.00  0.00     0.023 H 
ATOM     18 2HD2 LIG d   1       4.774   1.701  -2.021  0.00  0.00     0.023 H 
ATOM     19 3HD2 LIG d   1       3.609   0.795  -1.025  0.00  0.00     0.023 H 
ENDBRANCH  10  16
ENDBRANCH   7  10
ENDBRANCH   5   7
BRANCH   5  20
ATOM     20  C   LIG d   1       6.864  -2.663  -3.991  0.00  0.00     0.062 C 
ATOM     21  O   LIG d   1       7.811  -2.585  -3.246  0.00  0.00    -0.548 OA
ATOM     22  OXT LIG d   1       6.680  -3.769  -4.729  0.00  0.00    -0.548 OA
ENDBRANCH   5  20
ENDBRANCH   1   5
BRANCH   2  23
ATOM     23  CA  LIG d   1       4.009  -1.048  -7.356  0.00  0.00     0.103 A 
ATOM     24  N   LIG d   1       3.752  -2.271  -7.944  0.00  0.00    -0.351 N 
ATOM     25  C   LIG d   1       2.865  -2.087  -8.978  0.00  0.00     0.047 A 
ATOM     26  H   LIG d   1       4.134  -3.120  -7.673  0.00  0.00     0.166 HD
ATOM     27  C   LIG d   1       2.568  -0.712  -9.039  0.00  0.00     0.000 A 
ATOM     28  C   LIG d   1       2.272  -2.956  -9.890  0.00  0.00    -0.038 A 
ATOM     29  C   LIG d   1       3.305  -0.085  -8.004  0.00  0.00    -0.024 A 
ATOM     30  C   LIG d   1       1.682  -0.235 -10.013  0.00  0.00    -0.053 A 
ATOM     31  H   LIG d   1       3.305   0.970  -7.773  0.00  0.00     0.065 H 
ATOM     32  C   LIG d   1       1.114  -1.106 -10.897  0.00  0.00    -0.061 A 
ATOM     33  H   LIG d   1       1.450   0.818 -10.067  0.00  0.00     0.062 H 
ATOM     34  C   LIG d   1       1.404  -2.463 -10.839  0.00  0.00    -0.060 A 
ATOM     35  H   LIG d   1       0.430  -0.737 -11.647  0.00  0.00     0.062 H 
ATOM     36  H   LIG d   1       0.945  -3.139 -11.546  0.00  0.00     0.062 H 
ATOM     37  H   LIG d   1       2.492  -4.012  -9.854  0.00  0.00     0.064 H 
ENDBRANCH   2  23
TORSDOF 7
ENDMDL
MODEL 8
REMARK VINA RESULT:      -5.6      4.818      6.852
REMARK  7 active torsions:
REMARK  status: ('A' for Active; 'I' for Inactive)
REMARK    1  A    between atoms: CD1_1  and  CG_2 
REMARK    2  A    between atoms: CG_2  and  CD2_3 
REMARK    3  A    between atoms: CG_2  and  CB_4 
REMARK    4  A    between atoms: CB_4  and  CA_5 
REMARK    5  A    between atoms: CA_5  and  C_7 
REMARK    6  A    between atoms: CA_5  and  N_9 
REMARK       I    between atoms: N_9  and  C_10 
REMARK    7  A    between atoms: C_10  and  CA_12 
ROOT
ATOM      1  N   LIG d   1       8.329   2.859  -3.767  0.00  0.00    -0.302 N 
ATOM      2  C   LIG d   1       8.242   1.535  -4.003  0.00  0.00     0.261 C 
ATOM      3  O   LIG d   1       9.183   0.943  -4.498  0.00  0.00    -0.269 OA
ATOM      4  H   LIG d   1       7.578   3.331  -3.372  0.00  0.00     0.150 HD
ENDROOT
BRANCH   1   5
ATOM      5  CA  LIG d   1       9.555   3.585  -4.105  0.00  0.00     0.063 C 
ATOM      6  HA  LIG d   1      10.137   3.002  -4.819  0.00  0.00     0.056 H 
BRANCH   5   7
ATOM      7  CB  LIG d   1       9.193   4.936  -4.724  0.00  0.00    -0.027 C 
ATOM      8  HB1 LIG d   1       9.528   5.739  -4.067  0.00  0.00     0.029 H 
ATOM      9  HB2 LIG d   1       8.112   5.000  -4.853  0.00  0.00     0.029 H 
BRANCH   7  10
ATOM     10  CG  LIG d   1       9.877   5.074  -6.086  0.00  0.00    -0.045 C 
ATOM     11  HG  LIG d   1       9.216   5.602  -6.773  0.00  0.00     0.030 H 
BRANCH  10  12
ATOM     12  CD1 LIG d   1      11.180   5.860  -5.925  0.00  0.00    -0.063 C 
ATOM     13 1HD1 LIG d   1      11.785   5.750  -6.825  0.00  0.00     0.023 H 
ATOM     14 2HD1 LIG d   1      10.950   6.914  -5.767  0.00  0.00     0.023 H 
ATOM     15 3HD1 LIG d   1      11.731   5.476  -5.066  0.00  0.00     0.023 H 
ENDBRANCH  10  12
BRANCH  10  16
ATOM     16  CD2 LIG d   1      10.186   3.683  -6.644  0.00  0.00    -0.063 C 
ATOM     17 1HD2 LIG d   1      10.400   3.758  -7.710  0.00  0.00     0.023 H 
ATOM     18 2HD2 LIG d   1      11.053   3.269  -6.128  0.00  0.00     0.023 H 
ATOM     19 3HD2 LIG d   1       9.326   3.031  -6.490  0.00  0.00     0.023 H 
ENDBRANCH  10  16
ENDBRANCH   7  10
ENDBRANCH   5   7
BRANCH   5  20
ATOM     20  C   LIG d   1      10.368   3.806  -2.856  0.00  0.00     0.062 C 
ATOM     21  O   LIG d   1      11.084   2.929  -2.437  0.00  0.00    -0.548 OA
ATOM     22  OXT LIG d   1      10.296   4.979  -2.208  0.00  0.00    -0.548 OA
ENDBRANCH   5  20
ENDBRANCH   1   5
BRANCH   2  23
ATOM     23  CA  LIG d   1       7.011   0.806  -3.664  0.00  0.00     0.103 A 
ATOM     24  N   LIG d   1       5.766   1.377  -3.481  0.00  0.00    -0.351 N 
ATOM     25  C   LIG d   1       4.864   0.386  -3.179  0.00  0.00     0.047 A 
ATOM     26  H   LIG d   1       5.562   2.323  -3.556  0.00  0.00     0.166 HD
ATOM     27  C   LIG d   1       5.568  -0.834  -3.164  0.00  0.00     0.000 A 
ATOM     28  C   LIG d   1       3.499   0.391  -2.905  0.00  0.00    -0.038 A 
ATOM     29  C   LIG d   1       6.917  -0.536  -3.474  0.00  0.00    -0.024 A 
ATOM     30  C   LIG d   1       4.888  -2.025  -2.876  0.00  0.00    -0.053 A 
ATOM     31  H   LIG d   1       7.726  -1.248  -3.545  0.00  0.00     0.065 H 
ATOM     32  C   LIG d   1       3.550  -1.994  -2.611  0.00  0.00    -0.061 A 
ATOM     33  H   LIG d   1       5.421  -2.964  -2.863  0.00  0.00     0.062 H 
ATOM     34  C   LIG d   1       2.853  -0.793  -2.625  0.00  0.00    -0.060 A 
ATOM     35  H   LIG d   1       3.027  -2.913  -2.389  0.00  0.00     0.062 H 
ATOM     36  H   LIG d   1       1.794  -0.786  -2.413  0.00  0.00     0.062 H 
ATOM     37  H   LIG d   1       2.948   1.320  -2.912  0.00  0.00     0.064 H 
ENDBRANCH   2  23
TORSDOF 7
ENDMDL
MODEL 9
REMARK VINA RESULT:      -5.5      3.136      6.775
REMARK  7 active torsions:
REMARK  status: ('A' for Active; 'I' for Inactive)
REMARK    1  A    between atoms: CD1_1  and  CG_2 
REMARK    2  A    between atoms: CG_2  and  CD2_3 
REMARK    3  A    between atoms: CG_2  and  CB_4 
REMARK    4  A    between atoms: CB_4  and  CA_5 
REMARK    5  A    between atoms: CA_5  and  C_7 
REMARK    6  A    between atoms: CA_5  and  N_9 
REMARK       I    between atoms: N_9  and  C_10 
REMARK    7  A    between atoms: C_10  and  CA_12 
ROOT
ATOM      1  N   LIG d   1       5.705   0.376  -4.894  0.00  0.00    -0.302 N 
ATOM      2  C   LIG d   1       6.931   0.448  -4.340  0.00  0.00     0.261 C 
ATOM      3  O   LIG d   1       7.289  -0.398  -3.543  0.00  0.00    -0.269 OA
ATOM      4  H   LIG d   1       5.419   1.051  -5.530  0.00  0.00     0.150 HD
ENDROOT
BRANCH   1   5
ATOM      5  CA  LIG d   1       4.803  -0.722  -4.537  0.00  0.00     0.063 C 
ATOM      6  HA  LIG d   1       5.298  -1.381  -3.823  0.00  0.00     0.056 H 
BRANCH   5   7
ATOM      7  CB  LIG d   1       3.530  -0.152  -3.908  0.00  0.00    -0.027 C 
ATOM      8  HB1 LIG d   1       2.662  -0.682  -4.300  0.00  0.00     0.029 H 
ATOM      9  HB2 LIG d   1       3.448   0.908  -4.150  0.00  0.00     0.029 H 
BRANCH   7  10
ATOM     10  CG  LIG d   1       3.590  -0.324  -2.388  0.00  0.00    -0.045 C 
ATOM     11  HG  LIG d   1       2.577  -0.351  -1.986  0.00  0.00     0.030 H 
BRANCH  10  12
ATOM     12  CD1 LIG d   1       4.309  -1.632  -2.052  0.00  0.00    -0.063 C 
ATOM     13 1HD1 LIG d   1       3.582  -2.371  -1.716  0.00  0.00     0.023 H 
ATOM     14 2HD1 LIG d   1       4.820  -2.003  -2.940  0.00  0.00     0.023 H 
ATOM     15 3HD1 LIG d   1       5.038  -1.453  -1.262  0.00  0.00     0.023 H 
ENDBRANCH  10  12
BRANCH  10  16
ATOM     16  CD2 LIG d   1       4.353   0.851  -1.772  0.00  0.00    -0.063 C 
ATOM     17 1HD2 LIG d   1       5.378   0.852  -2.143  0.00  0.00     0.023 H 
ATOM     18 2HD2 LIG d   1       3.865   1.786  -2.049  0.00  0.00     0.023 H 
ATOM     19 3HD2 LIG d   1       4.359   0.750  -0.687  0.00  0.00     0.023 H 
ENDBRANCH  10  16
ENDBRANCH   7  10
ENDBRANCH   5   7
BRANCH   5  20
ATOM     20  C   LIG d   1       4.446  -1.501  -5.776  0.00  0.00     0.062 C 
ATOM     21  O   LIG d   1       4.609  -2.697  -5.806  0.00  0.00    -0.548 OA
ATOM     22  OXT LIG d   1       3.946  -0.865  -6.847  0.00  0.00    -0.548 OA
ENDBRANCH   5  20
ENDBRANCH   1   5
BRANCH   2  23
ATOM     23  CA  LIG d   1       7.836   1.551  -4.699  0.00  0.00     0.103 A 
ATOM     24  N   LIG d   1       8.166   1.930  -5.986  0.00  0.00    -0.351 N 
ATOM     25  C   LIG d   1       9.032   2.995  -5.926  0.00  0.00     0.047 A 
ATOM     26  H   LIG d   1       7.839   1.513  -6.799  0.00  0.00     0.166 HD
ATOM     27  C   LIG d   1       9.254   3.281  -4.564  0.00  0.00     0.000 A 
ATOM     28  C   LIG d   1       9.669   3.761  -6.898  0.00  0.00    -0.038 A 
ATOM     29  C   LIG d   1       8.486   2.354  -3.818  0.00  0.00    -0.024 A 
ATOM     30  C   LIG d   1      10.110   4.330  -4.206  0.00  0.00    -0.053 A 
ATOM     31  H   LIG d   1       8.429   2.297  -2.741  0.00  0.00     0.065 H 
ATOM     32  C   LIG d   1      10.723   5.067  -5.177  0.00  0.00    -0.061 A 
ATOM     33  H   LIG d   1      10.285   4.556  -3.165  0.00  0.00     0.062 H 
ATOM     34  C   LIG d   1      10.506   4.787  -6.521  0.00  0.00    -0.060 A 
ATOM     35  H   LIG d   1      11.382   5.876  -4.899  0.00  0.00     0.062 H 
ATOM     36  H   LIG d   1      11.000   5.380  -7.277  0.00  0.00     0.062 H 
ATOM     37  H   LIG d   1       9.508   3.551  -7.945  0.00  0.00     0.064 H 
ENDBRANCH   2  23
TORSDOF 7
ENDMDL
MODEL 10
REMARK VINA RESULT:      -5.3      3.797      4.624
REMARK  7 active torsions:
REMARK  status: ('A' for Active; 'I' for Inactive)
REMARK    1  A    between atoms: CD1_1  and  CG_2 
REMARK    2  A    between atoms: CG_2  and  CD2_3 
REMARK    3  A    between atoms: CG_2  and  CB_4 
REMARK    4  A    between atoms: CB_4  and  CA_5 
REMARK    5  A    between atoms: CA_5  and  C_7 
REMARK    6  A    between atoms: CA_5  and  N_9 
REMARK       I    between atoms: N_9  and  C_10 
REMARK    7  A    between atoms: C_10  and  CA_12 
ROOT
ATOM      1  N   LIG d   1       5.047  -2.908  -4.250  0.00  0.00    -0.302 N 
ATOM      2  C   LIG d   1       4.788  -3.077  -5.562  0.00  0.00     0.261 C 
ATOM      3  O   LIG d   1       4.663  -2.107  -6.287  0.00  0.00    -0.269 OA
ATOM      4  H   LIG d   1       5.146  -3.681  -3.672  0.00  0.00     0.150 HD
ENDROOT
BRANCH   1   5
ATOM      5  CA  LIG d   1       5.177  -1.558  -3.697  0.00  0.00     0.063 C 
ATOM      6  HA  LIG d   1       4.736  -0.839  -4.387  0.00  0.00     0.056 H 
BRANCH   5   7
ATOM      7  CB  LIG d   1       4.452  -1.486  -2.352  0.00  0.00    -0.027 C 
ATOM      8  HB1 LIG d   1       5.185  -1.437  -1.546  0.00  0.00     0.029 H 
ATOM      9  HB2 LIG d   1       3.832  -2.374  -2.225  0.00  0.00     0.029 H 
BRANCH   7  10
ATOM     10  CG  LIG d   1       3.569  -0.237  -2.314  0.00  0.00    -0.045 C 
ATOM     11  HG  LIG d   1       2.708  -0.421  -1.670  0.00  0.00     0.030 H 
BRANCH  10  12
ATOM     12  CD1 LIG d   1       4.375   0.941  -1.765  0.00  0.00    -0.063 C 
ATOM     13 1HD1 LIG d   1       3.797   1.451  -0.994  0.00  0.00     0.023 H 
ATOM     14 2HD1 LIG d   1       5.308   0.574  -1.337  0.00  0.00     0.023 H 
ATOM     15 3HD1 LIG d   1       4.597   1.638  -2.574  0.00  0.00     0.023 H 
ENDBRANCH  10  12
BRANCH  10  16
ATOM     16  CD2 LIG d   1       3.087   0.089  -3.729  0.00  0.00    -0.063 C 
ATOM     17 1HD2 LIG d   1       2.675   1.098  -3.749  0.00  0.00     0.023 H 
ATOM     18 2HD2 LIG d   1       3.926   0.026  -4.422  0.00  0.00     0.023 H 
ATOM     19 3HD2 LIG d   1       2.317  -0.624  -4.024  0.00  0.00     0.023 H 
ENDBRANCH  10  16
ENDBRANCH   7  10
ENDBRANCH   5   7
BRANCH   5  20
ATOM     20  C   LIG d   1       6.636  -1.236  -3.500  0.00  0.00     0.062 C 
ATOM     21  O   LIG d   1       7.397  -2.089  -3.111  0.00  0.00    -0.548 OA
ATOM     22  OXT LIG d   1       7.090   0.001  -3.757  0.00  0.00    -0.548 OA
ENDBRANCH   5  20
ENDBRANCH   1   5
BRANCH   2  23
ATOM     23  CA  LIG d   1       4.656  -4.432  -6.118  0.00  0.00     0.103 A 
ATOM     24  N   LIG d   1       4.190  -4.737  -7.382  0.00  0.00    -0.351 N 
ATOM     25  C   LIG d   1       4.212  -6.102  -7.544  0.00  0.00     0.047 A 
ATOM     26  H   LIG d   1       3.897  -4.094  -8.047  0.00  0.00     0.166 HD
ATOM     27  C   LIG d   1       4.697  -6.661  -6.346  0.00  0.00     0.000 A 
ATOM     28  C   LIG d   1       3.862  -6.942  -8.598  0.00  0.00    -0.038 A 
ATOM     29  C   LIG d   1       4.967  -5.584  -5.468  0.00  0.00    -0.024 A 
ATOM     30  C   LIG d   1       4.821  -8.052  -6.229  0.00  0.00    -0.053 A 
ATOM     31  H   LIG d   1       5.352  -5.664  -4.462  0.00  0.00     0.065 H 
ATOM     32  C   LIG d   1       4.471  -8.854  -7.276  0.00  0.00    -0.061 A 
ATOM     33  H   LIG d   1       5.192  -8.488  -5.313  0.00  0.00     0.062 H 
ATOM     34  C   LIG d   1       3.992  -8.306  -8.459  0.00  0.00    -0.060 A 
ATOM     35  H   LIG d   1       4.567  -9.926  -7.184  0.00  0.00     0.062 H 
ATOM     36  H   LIG d   1       3.720  -8.955  -9.278  0.00  0.00     0.062 H 
ATOM     37  H   LIG d   1       3.488  -6.526  -9.522  0.00  0.00     0.064 H 
ENDBRANCH   2  23
TORSDOF 7
ENDMDL
