MODEL 1
REMARK VINA RESULT:      -5.8      0.000      0.000
REMARK  2 active torsions:
REMARK  status: ('A' for Active; 'I' for Inactive)
REMARK    1  A    between atoms: C_4  and  N_7 
REMARK    2  A    between atoms: C_11  and  N_14 
ROOT
ATOM      1  N   LIG d   1       4.090  -0.782  -5.726  0.00  0.00    -0.196 N 
ATOM      2  C   LIG d   1       3.431  -0.085  -6.674  0.00  0.00     0.292 A 
ATOM      3  O   LIG d   1       2.985   1.024  -6.422  0.00  0.00    -0.264 OA
ATOM      4  C   LIG d   1       3.261  -0.642  -7.949  0.00  0.00     0.129 A 
ATOM      5  C   LIG d   1       3.777  -1.900  -8.207  0.00  0.00     0.069 A 
ATOM      6  C   LIG d   1       4.459  -2.592  -7.184  0.00  0.00     0.071 A 
ATOM      7  N   LIG d   1       4.609  -2.049  -6.008  0.00  0.00    -0.170 NA
ATOM      8 CL   LIG d   1       2.415   0.234  -9.187  0.00  0.00    -0.076 Cl
ATOM      9  H   LIG d   1       4.865  -3.573  -7.379  0.00  0.00     0.087 H 
ENDROOT
BRANCH   1  10
ATOM     10  C   LIG d   1       4.261  -0.229  -4.453  0.00  0.00     0.069 A 
ATOM     11  C   LIG d   1       3.179  -0.126  -3.587  0.00  0.00    -0.036 A 
ATOM     12  C   LIG d   1       3.352   0.420  -2.331  0.00  0.00    -0.060 A 
ATOM     13  H   LIG d   1       2.204  -0.475  -3.896  0.00  0.00     0.064 H 
ATOM     14  C   LIG d   1       4.599   0.865  -1.934  0.00  0.00    -0.062 A 
ATOM     15  H   LIG d   1       2.511   0.500  -1.657  0.00  0.00     0.062 H 
ATOM     16  C   LIG d   1       5.678   0.764  -2.792  0.00  0.00    -0.060 A 
ATOM     17  H   LIG d   1       4.731   1.296  -0.952  0.00  0.00     0.062 H 
ATOM     18  C   LIG d   1       5.513   0.220  -4.051  0.00  0.00    -0.036 A 
ATOM     19  H   LIG d   1       6.652   1.114  -2.479  0.00  0.00     0.062 H 
ATOM     20  H   LIG d   1       6.356   0.141  -4.721  0.00  0.00     0.064 H 
ENDBRANCH   1  10
BRANCH   5  21
ATOM     21  N   LIG d   1       3.623  -2.475  -9.458  0.00  0.00    -0.355 N 
ATOM     22  H   LIG d   1       4.210  -3.196  -9.735  0.00  0.00     0.142 HD
ATOM     23  H   LIG d   1       2.929  -2.156 -10.056  0.00  0.00     0.142 HD
ENDBRANCH   5  21
TORSDOF 2
ENDMDL
MODEL 2
REMARK VINA RESULT:      -5.6      2.176      2.626
REMARK  2 active torsions:
REMARK  status: ('A' for Active; 'I' for Inactive)
REMARK    1  A    between atoms: C_4  and  N_7 
REMARK    2  A    between atoms: C_11  and  N_14 
ROOT
ATOM      1  N   LIG d   1       4.206  -0.217  -5.678  0.00  0.00    -0.196 N 
ATOM      2  C   LIG d   1       5.261  -0.489  -6.473  0.00  0.00     0.292 A 
ATOM      3  O   LIG d   1       6.268  -0.997  -6.005  0.00  0.00    -0.264 OA
ATOM      4  C   LIG d   1       5.193  -0.186  -7.841  0.00  0.00     0.129 A 
ATOM      5  C   LIG d   1       4.039   0.387  -8.345  0.00  0.00     0.069 A 
ATOM      6  C   LIG d   1       2.961   0.655  -7.474  0.00  0.00     0.071 A 
ATOM      7  N   LIG d   1       3.046   0.357  -6.208  0.00  0.00    -0.170 NA
ATOM      8 CL   LIG d   1       6.537  -0.526  -8.886  0.00  0.00    -0.076 Cl
ATOM      9  H   LIG d   1       2.057   1.102  -7.861  0.00  0.00     0.087 H 
ENDROOT
BRANCH   1  10
ATOM     10  C   LIG d   1       4.271  -0.519  -4.314  0.00  0.00     0.069 A 
ATOM     11  C   LIG d   1       4.654   0.457  -3.403  0.00  0.00    -0.036 A 
ATOM     12  C   LIG d   1       4.717   0.155  -2.057  0.00  0.00    -0.060 A 
ATOM     13  H   LIG d   1       4.901   1.451  -3.746  0.00  0.00     0.064 H 
ATOM     14  C   LIG d   1       4.400  -1.116  -1.615  0.00  0.00    -0.062 A 
ATOM     15  H   LIG d   1       5.014   0.914  -1.347  0.00  0.00     0.062 H 
ATOM     16  C   LIG d   1       4.018  -2.090  -2.519  0.00  0.00    -0.060 A 
ATOM     17  H   LIG d   1       4.453  -1.350  -0.562  0.00  0.00     0.062 H 
ATOM     18  C   LIG d   1       3.954  -1.796  -3.867  0.00  0.00    -0.036 A 
ATOM     19  H   LIG d   1       3.771  -3.082  -2.171  0.00  0.00     0.062 H 
ATOM     20  H   LIG d   1       3.655  -2.557  -4.573  0.00  0.00     0.064 H 
ENDBRANCH   1  10
BRANCH   5  21
ATOM     21  N   LIG d   1       3.944   0.699  -9.692  0.00  0.00    -0.355 N 
ATOM     22  H   LIG d   1       3.593   1.560  -9.966  0.00  0.00     0.142 HD
ATOM     23  H   LIG d   1       4.229   0.055 -10.359  0.00  0.00     0.142 HD
ENDBRANCH   5  21
TORSDOF 2
ENDMDL
MODEL 3
REMARK VINA RESULT:      -5.6      1.872      2.102
REMARK  2 active torsions:
REMARK  status: ('A' for Active; 'I' for Inactive)
REMARK    1  A    between atoms: C_4  and  N_7 
REMARK    2  A    between atoms: C_11  and  N_14 
ROOT
ATOM      1  N   LIG d   1       4.710  -0.203  -5.833  0.00  0.00    -0.196 N 
ATOM      2  C   LIG d   1       3.634   0.083  -6.592  0.00  0.00     0.292 A 
ATOM      3  O   LIG d   1       2.510   0.002  -6.120  0.00  0.00    -0.264 OA
ATOM      4  C   LIG d   1       3.813   0.476  -7.926  0.00  0.00     0.129 A 
ATOM      5  C   LIG d   1       5.096   0.561  -8.435  0.00  0.00     0.069 A 
ATOM      6  C   LIG d   1       6.193   0.250  -7.602  0.00  0.00     0.071 A 
ATOM      7  N   LIG d   1       6.001  -0.106  -6.363  0.00  0.00    -0.170 NA
ATOM      8 CL   LIG d   1       2.442   0.850  -8.925  0.00  0.00    -0.076 Cl
ATOM      9  H   LIG d   1       7.198   0.315  -7.993  0.00  0.00     0.087 H 
ENDROOT
BRANCH   1  10
ATOM     10  C   LIG d   1       4.535  -0.595  -4.501  0.00  0.00     0.069 A 
ATOM     11  C   LIG d   1       4.315  -1.931  -4.192  0.00  0.00    -0.036 A 
ATOM     12  C   LIG d   1       4.143  -2.314  -2.876  0.00  0.00    -0.060 A 
ATOM     13  H   LIG d   1       4.280  -2.670  -4.979  0.00  0.00     0.064 H 
ATOM     14  C   LIG d   1       4.188  -1.370  -1.867  0.00  0.00    -0.062 A 
ATOM     15  H   LIG d   1       3.972  -3.353  -2.635  0.00  0.00     0.062 H 
ATOM     16  C   LIG d   1       4.407  -0.039  -2.172  0.00  0.00    -0.060 A 
ATOM     17  H   LIG d   1       4.049  -1.671  -0.840  0.00  0.00     0.062 H 
ATOM     18  C   LIG d   1       4.579   0.352  -3.485  0.00  0.00    -0.036 A 
ATOM     19  H   LIG d   1       4.442   0.697  -1.381  0.00  0.00     0.062 H 
ATOM     20  H   LIG d   1       4.751   1.391  -3.722  0.00  0.00     0.064 H 
ENDBRANCH   1  10
BRANCH   5  21
ATOM     21  N   LIG d   1       5.303   0.945  -9.750  0.00  0.00    -0.355 N 
ATOM     22  H   LIG d   1       6.147   0.749 -10.185  0.00  0.00     0.142 HD
ATOM     23  H   LIG d   1       4.603   1.410 -10.234  0.00  0.00     0.142 HD
ENDBRANCH   5  21
TORSDOF 2
ENDMDL
MODEL 4
REMARK VINA RESULT:      -5.4      2.512      4.914
REMARK  2 active torsions:
REMARK  status: ('A' for Active; 'I' for Inactive)
REMARK    1  A    between atoms: C_4  and  N_7 
REMARK    2  A    between atoms: C_11  and  N_14 
ROOT
ATOM      1  N   LIG d   1       3.951  -0.550  -6.588  0.00  0.00    -0.196 N 
ATOM      2  C   LIG d   1       3.457  -0.033  -5.445  0.00  0.00     0.292 A 
ATOM      3  O   LIG d   1       2.932   1.070  -5.446  0.00  0.00    -0.264 OA
ATOM      4  C   LIG d   1       3.551  -0.770  -4.255  0.00  0.00     0.129 A 
ATOM      5  C   LIG d   1       4.150  -2.016  -4.283  0.00  0.00     0.069 A 
ATOM      6  C   LIG d   1       4.653  -2.516  -5.503  0.00  0.00     0.071 A 
ATOM      7  N   LIG d   1       4.547  -1.815  -6.596  0.00  0.00    -0.170 NA
ATOM      8 CL   LIG d   1       2.924  -0.126  -2.769  0.00  0.00    -0.076 Cl
ATOM      9  H   LIG d   1       5.121  -3.489  -5.531  0.00  0.00     0.087 H 
ENDROOT
BRANCH   1  10
ATOM     10  C   LIG d   1       3.858   0.183  -7.776  0.00  0.00     0.069 A 
ATOM     11  C   LIG d   1       4.936   0.944  -8.210  0.00  0.00    -0.036 A 
ATOM     12  C   LIG d   1       4.841   1.666  -9.383  0.00  0.00    -0.060 A 
ATOM     13  H   LIG d   1       5.847   0.971  -7.631  0.00  0.00     0.064 H 
ATOM     14  C   LIG d   1       3.676   1.631 -10.127  0.00  0.00    -0.062 A 
ATOM     15  H   LIG d   1       5.679   2.258  -9.722  0.00  0.00     0.062 H 
ATOM     16  C   LIG d   1       2.601   0.873  -9.698  0.00  0.00    -0.060 A 
ATOM     17  H   LIG d   1       3.603   2.199 -11.042  0.00  0.00     0.062 H 
ATOM     18  C   LIG d   1       2.688   0.150  -8.525  0.00  0.00    -0.036 A 
ATOM     19  H   LIG d   1       1.692   0.849 -10.281  0.00  0.00     0.062 H 
ATOM     20  H   LIG d   1       1.849  -0.442  -8.191  0.00  0.00     0.064 H 
ENDBRANCH   1  10
BRANCH   5  21
ATOM     21  N   LIG d   1       4.258  -2.766  -3.122  0.00  0.00    -0.355 N 
ATOM     22  H   LIG d   1       4.756  -2.420  -2.366  0.00  0.00     0.142 HD
ATOM     23  H   LIG d   1       3.834  -3.637  -3.067  0.00  0.00     0.142 HD
ENDBRANCH   5  21
TORSDOF 2
ENDMDL
MODEL 5
REMARK VINA RESULT:      -5.4      4.091      5.084
REMARK  2 active torsions:
REMARK  status: ('A' for Active; 'I' for Inactive)
REMARK    1  A    between atoms: C_4  and  N_7 
REMARK    2  A    between atoms: C_11  and  N_14 
ROOT
ATOM      1  N   LIG d   1       7.284   1.145  -4.066  0.00  0.00    -0.196 N 
ATOM      2  C   LIG d   1       7.283   1.082  -5.413  0.00  0.00     0.292 A 
ATOM      3  O   LIG d   1       6.406   0.464  -5.997  0.00  0.00    -0.264 OA
ATOM      4  C   LIG d   1       8.293   1.730  -6.137  0.00  0.00     0.129 A 
ATOM      5  C   LIG d   1       9.273   2.424  -5.449  0.00  0.00     0.069 A 
ATOM      6  C   LIG d   1       9.234   2.462  -4.039  0.00  0.00     0.071 A 
ATOM      7  N   LIG d   1       8.280   1.857  -3.389  0.00  0.00    -0.170 NA
ATOM      8 CL   LIG d   1       8.314   1.663  -7.872  0.00  0.00    -0.076 Cl
ATOM      9  H   LIG d   1       9.995   3.002  -3.496  0.00  0.00     0.087 H 
ENDROOT
BRANCH   1  10
ATOM     10  C   LIG d   1       6.277   0.500  -3.341  0.00  0.00     0.069 A 
ATOM     11  C   LIG d   1       6.255  -0.887  -3.263  0.00  0.00    -0.036 A 
ATOM     12  C   LIG d   1       5.260  -1.521  -2.546  0.00  0.00    -0.060 A 
ATOM     13  H   LIG d   1       7.016  -1.469  -3.762  0.00  0.00     0.064 H 
ATOM     14  C   LIG d   1       4.285  -0.778  -1.906  0.00  0.00    -0.062 A 
ATOM     15  H   LIG d   1       5.242  -2.599  -2.485  0.00  0.00     0.062 H 
ATOM     16  C   LIG d   1       4.304   0.604  -1.981  0.00  0.00    -0.060 A 
ATOM     17  H   LIG d   1       3.505  -1.276  -1.349  0.00  0.00     0.062 H 
ATOM     18  C   LIG d   1       5.296   1.244  -2.697  0.00  0.00    -0.036 A 
ATOM     19  H   LIG d   1       3.541   1.182  -1.480  0.00  0.00     0.062 H 
ATOM     20  H   LIG d   1       5.311   2.322  -2.754  0.00  0.00     0.064 H 
ENDBRANCH   1  10
BRANCH   5  21
ATOM     21  N   LIG d   1      10.284   3.073  -6.139  0.00  0.00    -0.355 N 
ATOM     22  H   LIG d   1      11.186   2.717  -6.125  0.00  0.00     0.142 HD
ATOM     23  H   LIG d   1      10.089   3.883  -6.636  0.00  0.00     0.142 HD
ENDBRANCH   5  21
TORSDOF 2
ENDMDL
MODEL 6
REMARK VINA RESULT:      -5.2      1.580      2.202
REMARK  2 active torsions:
REMARK  status: ('A' for Active; 'I' for Inactive)
REMARK    1  A    between atoms: C_4  and  N_7 
REMARK    2  A    between atoms: C_11  and  N_14 
ROOT
ATOM      1  N   LIG d   1       4.506  -1.921  -5.026  0.00  0.00    -0.196 N 
ATOM      2  C   LIG d   1       4.471  -1.553  -6.322  0.00  0.00     0.292 A 
ATOM      3  O   LIG d   1       4.397  -0.371  -6.623  0.00  0.00    -0.264 OA
ATOM      4  C   LIG d   1       4.521  -2.534  -7.322  0.00  0.00     0.129 A 
ATOM      5  C   LIG d   1       4.605  -3.865  -6.953  0.00  0.00     0.069 A 
ATOM      6  C   LIG d   1       4.638  -4.203  -5.583  0.00  0.00     0.071 A 
ATOM      7  N   LIG d   1       4.597  -3.271  -4.673  0.00  0.00    -0.170 NA
ATOM      8 CL   LIG d   1       4.476  -2.086  -8.999  0.00  0.00    -0.076 Cl
ATOM      9  H   LIG d   1       4.704  -5.240  -5.288  0.00  0.00     0.087 H 
ENDROOT
BRANCH   1  10
ATOM     10  C   LIG d   1       4.457  -0.943  -4.026  0.00  0.00     0.069 A 
ATOM     11  C   LIG d   1       5.625  -0.319  -3.606  0.00  0.00    -0.036 A 
ATOM     12  C   LIG d   1       5.573   0.645  -2.619  0.00  0.00    -0.060 A 
ATOM     13  H   LIG d   1       6.572  -0.587  -4.050  0.00  0.00     0.064 H 
ATOM     14  C   LIG d   1       4.361   0.990  -2.049  0.00  0.00    -0.062 A 
ATOM     15  H   LIG d   1       6.481   1.132  -2.292  0.00  0.00     0.062 H 
ATOM     16  C   LIG d   1       3.197   0.372  -2.466  0.00  0.00    -0.060 A 
ATOM     17  H   LIG d   1       4.324   1.742  -1.275  0.00  0.00     0.062 H 
ATOM     18  C   LIG d   1       3.241  -0.595  -3.452  0.00  0.00    -0.036 A 
ATOM     19  H   LIG d   1       2.252   0.643  -2.019  0.00  0.00     0.062 H 
ATOM     20  H   LIG d   1       2.332  -1.077  -3.777  0.00  0.00     0.064 H 
ENDBRANCH   1  10
BRANCH   5  21
ATOM     21  N   LIG d   1       4.654  -4.857  -7.919  0.00  0.00    -0.355 N 
ATOM     22  H   LIG d   1       5.411  -5.462  -7.955  0.00  0.00     0.142 HD
ATOM     23  H   LIG d   1       3.930  -4.946  -8.559  0.00  0.00     0.142 HD
ENDBRANCH   5  21
TORSDOF 2
ENDMDL
MODEL 7
REMARK VINA RESULT:      -5.2      2.683      5.314
REMARK  2 active torsions:
REMARK  status: ('A' for Active; 'I' for Inactive)
REMARK    1  A    between atoms: C_4  and  N_7 
REMARK    2  A    between atoms: C_11  and  N_14 
ROOT
ATOM      1  N   LIG d   1       3.503  -0.076  -6.457  0.00  0.00    -0.196 N 
ATOM      2  C   LIG d   1       4.236  -1.115  -6.008  0.00  0.00     0.292 A 
ATOM      3  O   LIG d   1       4.827  -1.836  -6.796  0.00  0.00    -0.264 OA
ATOM      4  C   LIG d   1       4.315  -1.360  -4.630  0.00  0.00     0.129 A 
ATOM      5  C   LIG d   1       3.636  -0.527  -3.759  0.00  0.00     0.069 A 
ATOM      6  C   LIG d   1       2.881   0.548  -4.275  0.00  0.00     0.071 A 
ATOM      7  N   LIG d   1       2.829   0.759  -5.561  0.00  0.00    -0.170 NA
ATOM      8 CL   LIG d   1       5.252  -2.691  -4.025  0.00  0.00    -0.076 Cl
ATOM      9  H   LIG d   1       2.349   1.202  -3.601  0.00  0.00     0.087 H 
ENDROOT
BRANCH   1  10
ATOM     10  C   LIG d   1       3.423   0.172  -7.832  0.00  0.00     0.069 A 
ATOM     11  C   LIG d   1       2.395  -0.387  -8.581  0.00  0.00    -0.036 A 
ATOM     12  C   LIG d   1       2.319  -0.141  -9.937  0.00  0.00    -0.060 A 
ATOM     13  H   LIG d   1       1.656  -1.014  -8.103  0.00  0.00     0.064 H 
ATOM     14  C   LIG d   1       3.263   0.661 -10.551  0.00  0.00    -0.062 A 
ATOM     15  H   LIG d   1       1.519  -0.575 -10.520  0.00  0.00     0.062 H 
ATOM     16  C   LIG d   1       4.287   1.220  -9.808  0.00  0.00    -0.060 A 
ATOM     17  H   LIG d   1       3.204   0.850 -11.612  0.00  0.00     0.062 H 
ATOM     18  C   LIG d   1       4.371   0.977  -8.451  0.00  0.00    -0.036 A 
ATOM     19  H   LIG d   1       5.024   1.846 -10.290  0.00  0.00     0.062 H 
ATOM     20  H   LIG d   1       5.170   1.414  -7.871  0.00  0.00     0.064 H 
ENDBRANCH   1  10
BRANCH   5  21
ATOM     21  N   LIG d   1       3.695  -0.746  -2.392  0.00  0.00    -0.355 N 
ATOM     22  H   LIG d   1       3.607  -1.646  -2.041  0.00  0.00     0.142 HD
ATOM     23  H   LIG d   1       3.826   0.001  -1.786  0.00  0.00     0.142 HD
ENDBRANCH   5  21
TORSDOF 2
ENDMDL
MODEL 8
REMARK VINA RESULT:      -4.9      3.290      5.201
REMARK  2 active torsions:
REMARK  status: ('A' for Active; 'I' for Inactive)
REMARK    1  A    between atoms: C_4  and  N_7 
REMARK    2  A    between atoms: C_11  and  N_14 
ROOT
ATOM      1  N   LIG d   1       4.701  -2.576  -5.356  0.00  0.00    -0.196 N 
ATOM      2  C   LIG d   1       4.165  -2.168  -4.188  0.00  0.00     0.292 A 
ATOM      3  O   LIG d   1       4.227  -2.884  -3.200  0.00  0.00    -0.264 OA
ATOM      4  C   LIG d   1       3.538  -0.916  -4.115  0.00  0.00     0.129 A 
ATOM      5  C   LIG d   1       3.482  -0.125  -5.248  0.00  0.00     0.069 A 
ATOM      6  C   LIG d   1       4.056  -0.595  -6.449  0.00  0.00     0.071 A 
ATOM      7  N   LIG d   1       4.640  -1.759  -6.490  0.00  0.00    -0.170 NA
ATOM      8 CL   LIG d   1       2.840  -0.368  -2.622  0.00  0.00    -0.076 Cl
ATOM      9  H   LIG d   1       4.017   0.018  -7.338  0.00  0.00     0.087 H 
ENDROOT
BRANCH   1  10
ATOM     10  C   LIG d   1       5.328  -3.824  -5.432  0.00  0.00     0.069 A 
ATOM     11  C   LIG d   1       6.699  -3.928  -5.233  0.00  0.00    -0.036 A 
ATOM     12  C   LIG d   1       7.315  -5.161  -5.309  0.00  0.00    -0.060 A 
ATOM     13  H   LIG d   1       7.283  -3.044  -5.020  0.00  0.00     0.064 H 
ATOM     14  C   LIG d   1       6.569  -6.293  -5.582  0.00  0.00    -0.062 A 
ATOM     15  H   LIG d   1       8.381  -5.242  -5.155  0.00  0.00     0.062 H 
ATOM     16  C   LIG d   1       5.204  -6.194  -5.779  0.00  0.00    -0.060 A 
ATOM     17  H   LIG d   1       7.054  -7.256  -5.644  0.00  0.00     0.062 H 
ATOM     18  C   LIG d   1       4.582  -4.963  -5.706  0.00  0.00    -0.036 A 
ATOM     19  H   LIG d   1       4.624  -7.080  -5.992  0.00  0.00     0.062 H 
ATOM     20  H   LIG d   1       3.515  -4.887  -5.859  0.00  0.00     0.064 H 
ENDBRANCH   1  10
BRANCH   5  21
ATOM     21  N   LIG d   1       2.868   1.116  -5.206  0.00  0.00    -0.355 N 
ATOM     22  H   LIG d   1       3.179   1.790  -4.582  0.00  0.00     0.142 HD
ATOM     23  H   LIG d   1       2.126   1.310  -5.800  0.00  0.00     0.142 HD
ENDBRANCH   5  21
TORSDOF 2
ENDMDL
MODEL 9
REMARK VINA RESULT:      -4.7      3.428      4.510
REMARK  2 active torsions:
REMARK  status: ('A' for Active; 'I' for Inactive)
REMARK    1  A    between atoms: C_4  and  N_7 
REMARK    2  A    between atoms: C_11  and  N_14 
ROOT
ATOM      1  N   LIG d   1       4.065  -1.322  -7.979  0.00  0.00    -0.196 N 
ATOM      2  C   LIG d   1       4.527  -1.630  -6.750  0.00  0.00     0.292 A 
ATOM      3  O   LIG d   1       4.912  -0.747  -5.999  0.00  0.00    -0.264 OA
ATOM      4  C   LIG d   1       4.561  -2.971  -6.340  0.00  0.00     0.129 A 
ATOM      5  C   LIG d   1       4.118  -3.951  -7.211  0.00  0.00     0.069 A 
ATOM      6  C   LIG d   1       3.644  -3.580  -8.488  0.00  0.00     0.071 A 
ATOM      7  N   LIG d   1       3.616  -2.326  -8.842  0.00  0.00    -0.170 NA
ATOM      8 CL   LIG d   1       5.151  -3.395  -4.763  0.00  0.00    -0.076 Cl
ATOM      9  H   LIG d   1       3.296  -4.339  -9.172  0.00  0.00     0.087 H 
ENDROOT
BRANCH   1  10
ATOM     10  C   LIG d   1       4.030   0.015  -8.390  0.00  0.00     0.069 A 
ATOM     11  C   LIG d   1       2.864   0.757  -8.246  0.00  0.00    -0.036 A 
ATOM     12  C   LIG d   1       2.833   2.076  -8.653  0.00  0.00    -0.060 A 
ATOM     13  H   LIG d   1       1.984   0.303  -7.816  0.00  0.00     0.064 H 
ATOM     14  C   LIG d   1       3.959   2.659  -9.203  0.00  0.00    -0.062 A 
ATOM     15  H   LIG d   1       1.927   2.654  -8.541  0.00  0.00     0.062 H 
ATOM     16  C   LIG d   1       5.122   1.924  -9.347  0.00  0.00    -0.060 A 
ATOM     17  H   LIG d   1       3.931   3.690  -9.524  0.00  0.00     0.062 H 
ATOM     18  C   LIG d   1       5.160   0.604  -8.943  0.00  0.00    -0.036 A 
ATOM     19  H   LIG d   1       6.000   2.382  -9.777  0.00  0.00     0.062 H 
ATOM     20  H   LIG d   1       6.068   0.030  -9.055  0.00  0.00     0.064 H 
ENDBRANCH   1  10
BRANCH   5  21
ATOM     21  N   LIG d   1       4.141  -5.283  -6.834  0.00  0.00    -0.355 N 
ATOM     22  H   LIG d   1       3.976  -5.529  -5.910  0.00  0.00     0.142 HD
ATOM     23  H   LIG d   1       4.321  -5.971  -7.494  0.00  0.00     0.142 HD
ENDBRANCH   5  21
TORSDOF 2
ENDMDL
MODEL 10
REMARK VINA RESULT:      -4.6      2.927      3.306
REMARK  2 active torsions:
REMARK  status: ('A' for Active; 'I' for Inactive)
REMARK    1  A    between atoms: C_4  and  N_7 
REMARK    2  A    between atoms: C_11  and  N_14 
ROOT
ATOM      1  N   LIG d   1       5.476  -1.011  -5.933  0.00  0.00    -0.196 N 
ATOM      2  C   LIG d   1       6.459  -0.089  -5.959  0.00  0.00     0.292 A 
ATOM      3  O   LIG d   1       6.628   0.656  -5.005  0.00  0.00    -0.264 OA
ATOM      4  C   LIG d   1       7.287   0.010  -7.086  0.00  0.00     0.129 A 
ATOM      5  C   LIG d   1       7.074  -0.846  -8.152  0.00  0.00     0.069 A 
ATOM      6  C   LIG d   1       6.032  -1.796  -8.081  0.00  0.00     0.071 A 
ATOM      7  N   LIG d   1       5.281  -1.872  -7.018  0.00  0.00    -0.170 NA
ATOM      8 CL   LIG d   1       8.559   1.190  -7.144  0.00  0.00    -0.076 Cl
ATOM      9  H   LIG d   1       5.861  -2.467  -8.909  0.00  0.00     0.087 H 
ENDROOT
BRANCH   1  10
ATOM     10  C   LIG d   1       4.649  -1.112  -4.809  0.00  0.00     0.069 A 
ATOM     11  C   LIG d   1       4.955  -2.016  -3.800  0.00  0.00    -0.036 A 
ATOM     12  C   LIG d   1       4.136  -2.113  -2.692  0.00  0.00    -0.060 A 
ATOM     13  H   LIG d   1       5.831  -2.642  -3.881  0.00  0.00     0.064 H 
ATOM     14  C   LIG d   1       3.015  -1.312  -2.585  0.00  0.00    -0.062 A 
ATOM     15  H   LIG d   1       4.373  -2.816  -1.906  0.00  0.00     0.062 H 
ATOM     16  C   LIG d   1       2.708  -0.410  -3.588  0.00  0.00    -0.060 A 
ATOM     17  H   LIG d   1       2.374  -1.392  -1.720  0.00  0.00     0.062 H 
ATOM     18  C   LIG d   1       3.521  -0.309  -4.700  0.00  0.00    -0.036 A 
ATOM     19  H   LIG d   1       1.831   0.215  -3.503  0.00  0.00     0.062 H 
ATOM     20  H   LIG d   1       3.282   0.396  -5.482  0.00  0.00     0.064 H 
ENDBRANCH   1  10
BRANCH   5  21
ATOM     21  N   LIG d   1       7.875  -0.771  -9.280  0.00  0.00    -0.355 N 
ATOM     22  H   LIG d   1       7.472  -0.649 -10.154  0.00  0.00     0.142 HD
ATOM     23  H   LIG d   1       8.839  -0.840  -9.195  0.00  0.00     0.142 HD
ENDBRANCH   5  21
TORSDOF 2
ENDMDL
