MODEL 1
REMARK VINA RESULT:      -6.4      0.000      0.000
REMARK  14 active torsions:
REMARK  status: ('A' for Active; 'I' for Inactive)
REMARK    1  A    between atoms: C_1  and  C_2 
REMARK    2  A    between atoms: C_5  and  S_8 
REMARK    3  A    between atoms: S_8  and  O_11 
REMARK    4  A    between atoms: O_11  and  C_12 
REMARK    5  A    between atoms: C_16  and  C_44 
REMARK    6  A    between atoms: C_21  and  C_43 
REMARK    7  A    between atoms: C_32  and  C_34 
REMARK    8  A    between atoms: C_34  and  C_36 
REMARK    9  A    between atoms: C_34  and  C_37 
REMARK   10  A    between atoms: C_37  and  C_38 
REMARK   11  A    between atoms: C_38  and  C_39 
REMARK   12  A    between atoms: C_39  and  C_40 
REMARK   13  A    between atoms: C_40  and  C_41 
REMARK   14  A    between atoms: C_40  and  C_42 
ROOT
ATOM      1  C   LIG d   1       9.847  -7.827  -2.473  0.00  0.00     0.091 C 
ATOM      2  H   LIG d   1       8.797  -7.868  -2.180  0.00  0.00     0.062 H 
ATOM      3  C   LIG d   1      10.527  -6.655  -1.766  0.00  0.00    -0.023 C 
ATOM      4  C   LIG d   1       9.816  -5.346  -2.102  0.00  0.00    -0.041 C 
ATOM      5  C   LIG d   1       9.838  -5.083  -3.610  0.00  0.00    -0.008 C 
ATOM      6  C   LIG d   1       9.102  -3.802  -3.937  0.00  0.00    -0.029 C 
ATOM      7  H   LIG d   1       9.853  -2.995  -3.927  0.00  0.00     0.031 H 
ATOM      8  C   LIG d   1       8.057  -3.436  -2.893  0.00  0.00    -0.049 C 
ATOM      9  C   LIG d   1       7.481  -2.035  -3.181  0.00  0.00    -0.047 C 
ATOM     10  C   LIG d   1       6.844  -2.043  -4.549  0.00  0.00    -0.026 C 
ATOM     11  C   LIG d   1       7.868  -2.487  -5.608  0.00  0.00    -0.032 C 
ATOM     12  H   LIG d   1       8.699  -1.737  -5.620  0.00  0.00     0.031 H 
ATOM     13  C   LIG d   1       8.502  -3.820  -5.349  0.00  0.00    -0.031 C 
ATOM     14  H   LIG d   1       9.340  -3.952  -6.068  0.00  0.00     0.031 H 
ATOM     15  C   LIG d   1       7.576  -5.019  -5.492  0.00  0.00    -0.031 C 
ATOM     16  C   LIG d   1       8.376  -6.270  -5.219  0.00  0.00    -0.084 C 
ATOM     17  C   LIG d   1       9.329  -6.293  -4.335  0.00  0.00    -0.065 C 
ATOM     18  C   LIG d   1       9.945  -7.639  -3.990  0.00  0.00    -0.003 C 
ATOM     19  C   LIG d   1       7.089  -2.281  -6.913  0.00  0.00    -0.049 C 
ATOM     20  C   LIG d   1       6.366  -0.928  -6.658  0.00  0.00    -0.049 C 
ATOM     21  C   LIG d   1       6.394  -0.690  -5.124  0.00  0.00    -0.033 C 
ATOM     22  H   LIG d   1       5.390  -0.461  -4.763  0.00  0.00     0.031 H 
ATOM     23  H   LIG d   1      11.575  -6.609  -2.054  0.00  0.00     0.029 H 
ATOM     24  H   LIG d   1      10.476  -6.818  -0.684  0.00  0.00     0.029 H 
ATOM     25  H   LIG d   1      10.312  -4.522  -1.585  0.00  0.00     0.027 H 
ATOM     26  H   LIG d   1       8.779  -5.407  -1.761  0.00  0.00     0.027 H 
ATOM     27  H   LIG d   1       8.530  -3.411  -1.908  0.00  0.00     0.027 H 
ATOM     28  H   LIG d   1       7.265  -4.175  -2.883  0.00  0.00     0.027 H 
ATOM     29  H   LIG d   1       8.297  -1.312  -3.128  0.00  0.00     0.027 H 
ATOM     30  H   LIG d   1       6.733  -1.791  -2.422  0.00  0.00     0.027 H 
ATOM     31  H   LIG d   1       7.165  -5.069  -6.497  0.00  0.00     0.031 H 
ATOM     32  H   LIG d   1       6.777  -5.005  -4.755  0.00  0.00     0.031 H 
ATOM     33  H   LIG d   1       8.110  -7.173  -5.739  0.00  0.00     0.057 H 
ATOM     34  H   LIG d   1      10.986  -7.670  -4.302  0.00  0.00     0.034 H 
ATOM     35  H   LIG d   1       9.388  -8.433  -4.491  0.00  0.00     0.034 H 
ATOM     36  H   LIG d   1       7.778  -2.188  -7.755  0.00  0.00     0.027 H 
ATOM     37  H   LIG d   1       6.379  -3.082  -7.092  0.00  0.00     0.027 H 
ATOM     38  H   LIG d   1       6.895  -0.123  -7.167  0.00  0.00     0.027 H 
ATOM     39  H   LIG d   1       5.337  -0.982  -7.008  0.00  0.00     0.027 H 
ENDROOT
BRANCH  21  40
ATOM     40  C   LIG d   1       7.363   0.431  -4.769  0.00  0.00    -0.041 C 
ATOM     41  H   LIG d   1       8.192   0.024  -4.190  0.00  0.00     0.030 H 
BRANCH  40  42
ATOM     42  C   LIG d   1       7.901   1.064  -6.054  0.00  0.00    -0.062 C 
ATOM     43  H   LIG d   1       8.352   0.294  -6.678  0.00  0.00     0.023 H 
ATOM     44  H   LIG d   1       7.082   1.539  -6.595  0.00  0.00     0.023 H 
ATOM     45  H   LIG d   1       8.651   1.814  -5.802  0.00  0.00     0.023 H 
ENDBRANCH  40  42
BRANCH  40  46
ATOM     46  C   LIG d   1       6.634   1.491  -3.942  0.00  0.00    -0.050 C 
ATOM     47  H   LIG d   1       7.357   2.202  -3.543  0.00  0.00     0.027 H 
ATOM     48  H   LIG d   1       5.918   2.017  -4.574  0.00  0.00     0.027 H 
BRANCH  46  49
ATOM     49  C   LIG d   1       5.892   0.815  -2.787  0.00  0.00    -0.053 C 
ATOM     50  H   LIG d   1       5.855  -0.261  -2.959  0.00  0.00     0.026 H 
ATOM     51  H   LIG d   1       6.416   1.016  -1.852  0.00  0.00     0.026 H 
BRANCH  49  52
ATOM     52  C   LIG d   1       4.467   1.368  -2.702  0.00  0.00    -0.051 C 
ATOM     53  H   LIG d   1       4.398   2.067  -1.870  0.00  0.00     0.027 H 
ATOM     54  H   LIG d   1       4.222   1.882  -3.632  0.00  0.00     0.027 H 
BRANCH  52  55
ATOM     55  C   LIG d   1       3.485   0.215  -2.483  0.00  0.00    -0.047 C 
ATOM     56  H   LIG d   1       2.685   0.541  -1.819  0.00  0.00     0.029 H 
BRANCH  55  57
ATOM     57  C   LIG d   1       2.890  -0.209  -3.828  0.00  0.00    -0.063 C 
ATOM     58  H   LIG d   1       1.913   0.254  -3.956  0.00  0.00     0.023 H 
ATOM     59  H   LIG d   1       3.551   0.109  -4.634  0.00  0.00     0.023 H 
ATOM     60  H   LIG d   1       2.784  -1.294  -3.851  0.00  0.00     0.023 H 
ENDBRANCH  55  57
BRANCH  55  61
ATOM     61  C   LIG d   1       4.221  -0.970  -1.854  0.00  0.00    -0.063 C 
ATOM     62  H   LIG d   1       3.526  -1.800  -1.723  0.00  0.00     0.023 H 
ATOM     63  H   LIG d   1       5.037  -1.278  -2.506  0.00  0.00     0.023 H 
ATOM     64  H   LIG d   1       4.621  -0.675  -0.884  0.00  0.00     0.023 H 
ENDBRANCH  55  61
ENDBRANCH  52  55
ENDBRANCH  49  52
ENDBRANCH  46  49
ENDBRANCH  40  46
ENDBRANCH  21  40
BRANCH  10  65
ATOM     65  C   LIG d   1       5.585  -2.918  -4.526  0.00  0.00    -0.059 C 
ATOM     66  H   LIG d   1       4.707  -2.297  -4.704  0.00  0.00     0.024 H 
ATOM     67  H   LIG d   1       5.657  -3.678  -5.304  0.00  0.00     0.024 H 
ATOM     68  H   LIG d   1       5.497  -3.402  -3.553  0.00  0.00     0.024 H 
ENDBRANCH  10  65
BRANCH   5  69
ATOM     69  C   LIG d   1      11.303  -4.872  -4.027  0.00  0.00    -0.056 C 
ATOM     70  H   LIG d   1      11.654  -5.745  -4.577  0.00  0.00     0.024 H 
ATOM     71  H   LIG d   1      11.376  -3.990  -4.662  0.00  0.00     0.024 H 
ATOM     72  H   LIG d   1      11.918  -4.731  -3.138  0.00  0.00     0.024 H 
ENDBRANCH   5  69
BRANCH   1  73
ATOM     73  O   LIG d   1      10.492  -9.047  -2.101  0.00  0.00    -0.231 OA
BRANCH  73  74
ATOM     74  S   LIG d   1       9.568 -10.059  -1.438  0.00  0.00     0.112 S 
ATOM     75  O   LIG d   1       8.313  -9.415  -1.270  0.00  0.00    -0.142 OA
ATOM     76  O   LIG d   1       9.710 -11.274  -2.162  0.00  0.00    -0.142 OA
BRANCH  74  77
ATOM     77  C   LIG d   1      10.200 -10.360   0.179  0.00  0.00     0.117 A 
ATOM     78  C   LIG d   1      10.283 -11.652   0.659  0.00  0.00    -0.034 A 
ATOM     79  C   LIG d   1      10.779 -11.888   1.928  0.00  0.00    -0.057 A 
ATOM     80  H   LIG d   1       9.962 -12.479   0.043  0.00  0.00     0.064 H 
ATOM     81  C   LIG d   1      11.191 -10.830   2.716  0.00  0.00    -0.050 A 
ATOM     82  H   LIG d   1      10.844 -12.899   2.303  0.00  0.00     0.062 H 
ATOM     83  C   LIG d   1      11.110  -9.537   2.236  0.00  0.00    -0.057 A 
ATOM     84  C   LIG d   1      10.617  -9.302   0.965  0.00  0.00    -0.034 A 
ATOM     85  H   LIG d   1      11.431  -8.710   2.852  0.00  0.00     0.062 H 
ATOM     86  H   LIG d   1      10.556  -8.291   0.589  0.00  0.00     0.064 H 
BRANCH  81  87
ATOM     87  C   LIG d   1      11.731 -11.088   4.099  0.00  0.00    -0.040 C 
ATOM     88  H   LIG d   1      12.755 -11.458   4.028  0.00  0.00     0.028 H 
ATOM     89  H   LIG d   1      11.719 -10.160   4.673  0.00  0.00     0.028 H 
ATOM     90  H   LIG d   1      11.111 -11.832   4.599  0.00  0.00     0.028 H 
ENDBRANCH  81  87
ENDBRANCH  74  77
ENDBRANCH  73  74
ENDBRANCH   1  73
TORSDOF 14
ENDMDL
MODEL 2
REMARK VINA RESULT:      -6.4      2.523      3.361
REMARK  14 active torsions:
REMARK  status: ('A' for Active; 'I' for Inactive)
REMARK    1  A    between atoms: C_1  and  C_2 
REMARK    2  A    between atoms: C_5  and  S_8 
REMARK    3  A    between atoms: S_8  and  O_11 
REMARK    4  A    between atoms: O_11  and  C_12 
REMARK    5  A    between atoms: C_16  and  C_44 
REMARK    6  A    between atoms: C_21  and  C_43 
REMARK    7  A    between atoms: C_32  and  C_34 
REMARK    8  A    between atoms: C_34  and  C_36 
REMARK    9  A    between atoms: C_34  and  C_37 
REMARK   10  A    between atoms: C_37  and  C_38 
REMARK   11  A    between atoms: C_38  and  C_39 
REMARK   12  A    between atoms: C_39  and  C_40 
REMARK   13  A    between atoms: C_40  and  C_41 
REMARK   14  A    between atoms: C_40  and  C_42 
ROOT
ATOM      1  C   LIG d   1       9.456  -8.386  -3.463  0.00  0.00     0.091 C 
ATOM      2  H   LIG d   1       8.564  -8.305  -2.841  0.00  0.00     0.062 H 
ATOM      3  C   LIG d   1      10.451  -7.294  -3.071  0.00  0.00    -0.023 C 
ATOM      4  C   LIG d   1       9.812  -5.915  -3.212  0.00  0.00    -0.041 C 
ATOM      5  C   LIG d   1       9.362  -5.666  -4.654  0.00  0.00    -0.008 C 
ATOM      6  C   LIG d   1       8.699  -4.311  -4.777  0.00  0.00    -0.029 C 
ATOM      7  H   LIG d   1       9.492  -3.596  -5.049  0.00  0.00     0.031 H 
ATOM      8  C   LIG d   1       8.103  -3.821  -3.465  0.00  0.00    -0.049 C 
ATOM      9  C   LIG d   1       7.616  -2.366  -3.610  0.00  0.00    -0.047 C 
ATOM     10  C   LIG d   1       6.566  -2.310  -4.690  0.00  0.00    -0.026 C 
ATOM     11  C   LIG d   1       7.128  -2.875  -6.006  0.00  0.00    -0.032 C 
ATOM     12  H   LIG d   1       7.983  -2.225  -6.324  0.00  0.00     0.031 H 
ATOM     13  C   LIG d   1       7.668  -4.270  -5.911  0.00  0.00    -0.031 C 
ATOM     14  H   LIG d   1       8.201  -4.501  -6.860  0.00  0.00     0.031 H 
ATOM     15  C   LIG d   1       6.625  -5.356  -5.689  0.00  0.00    -0.031 C 
ATOM     16  C   LIG d   1       7.333  -6.688  -5.640  0.00  0.00    -0.084 C 
ATOM     17  C   LIG d   1       8.516  -6.814  -5.118  0.00  0.00    -0.065 C 
ATOM     18  C   LIG d   1       9.066  -8.220  -4.935  0.00  0.00    -0.003 C 
ATOM     19  C   LIG d   1       5.988  -2.589  -6.991  0.00  0.00    -0.049 C 
ATOM     20  C   LIG d   1       5.538  -1.161  -6.573  0.00  0.00    -0.049 C 
ATOM     21  C   LIG d   1       6.096  -0.917  -5.145  0.00  0.00    -0.033 C 
ATOM     22  H   LIG d   1       5.299  -0.573  -4.486  0.00  0.00     0.031 H 
ATOM     23  H   LIG d   1      11.344  -7.371  -3.688  0.00  0.00     0.029 H 
ATOM     24  H   LIG d   1      10.745  -7.444  -2.026  0.00  0.00     0.029 H 
ATOM     25  H   LIG d   1      10.536  -5.150  -2.923  0.00  0.00     0.027 H 
ATOM     26  H   LIG d   1       8.947  -5.854  -2.547  0.00  0.00     0.027 H 
ATOM     27  H   LIG d   1       8.876  -3.844  -2.692  0.00  0.00     0.027 H 
ATOM     28  H   LIG d   1       7.286  -4.464  -3.163  0.00  0.00     0.027 H 
ATOM     29  H   LIG d   1       8.476  -1.740  -3.858  0.00  0.00     0.027 H 
ATOM     30  H   LIG d   1       7.192  -2.033  -2.658  0.00  0.00     0.027 H 
ATOM     31  H   LIG d   1       5.902  -5.365  -6.501  0.00  0.00     0.031 H 
ATOM     32  H   LIG d   1       6.121  -5.245  -4.733  0.00  0.00     0.031 H 
ATOM     33  H   LIG d   1       6.816  -7.559  -6.003  0.00  0.00     0.057 H 
ATOM     34  H   LIG d   1       9.935  -8.372  -5.569  0.00  0.00     0.034 H 
ATOM     35  H   LIG d   1       8.294  -8.948  -5.190  0.00  0.00     0.034 H 
ATOM     36  H   LIG d   1       6.365  -2.581  -8.016  0.00  0.00     0.027 H 
ATOM     37  H   LIG d   1       5.178  -3.305  -6.892  0.00  0.00     0.027 H 
ATOM     38  H   LIG d   1       5.950  -0.425  -7.263  0.00  0.00     0.027 H 
ATOM     39  H   LIG d   1       4.450  -1.099  -6.564  0.00  0.00     0.027 H 
ENDROOT
BRANCH  21  40
ATOM     40  C   LIG d   1       7.241   0.087  -5.178  0.00  0.00    -0.041 C 
ATOM     41  H   LIG d   1       8.168  -0.410  -4.893  0.00  0.00     0.030 H 
BRANCH  40  42
ATOM     42  C   LIG d   1       7.380   0.656  -6.592  0.00  0.00    -0.062 C 
ATOM     43  H   LIG d   1       8.435   0.762  -6.838  0.00  0.00     0.023 H 
ATOM     44  H   LIG d   1       6.906  -0.021  -7.303  0.00  0.00     0.023 H 
ATOM     45  H   LIG d   1       6.895   1.631  -6.640  0.00  0.00     0.023 H 
ENDBRANCH  40  42
BRANCH  40  46
ATOM     46  C   LIG d   1       6.949   1.224  -4.196  0.00  0.00    -0.050 C 
ATOM     47  H   LIG d   1       7.887   1.679  -3.878  0.00  0.00     0.027 H 
ATOM     48  H   LIG d   1       6.327   1.974  -4.683  0.00  0.00     0.027 H 
BRANCH  46  49
ATOM     49  C   LIG d   1       6.213   0.666  -2.976  0.00  0.00    -0.053 C 
ATOM     50  H   LIG d   1       5.960  -0.380  -3.150  0.00  0.00     0.026 H 
ATOM     51  H   LIG d   1       6.855   0.743  -2.097  0.00  0.00     0.026 H 
BRANCH  49  52
ATOM     52  C   LIG d   1       4.931   1.468  -2.742  0.00  0.00    -0.051 C 
ATOM     53  H   LIG d   1       5.094   2.187  -1.941  0.00  0.00     0.027 H 
ATOM     54  H   LIG d   1       4.663   1.997  -3.657  0.00  0.00     0.027 H 
BRANCH  52  55
ATOM     55  C   LIG d   1       3.798   0.517  -2.352  0.00  0.00    -0.047 C 
ATOM     56  H   LIG d   1       3.150   1.003  -1.623  0.00  0.00     0.029 H 
BRANCH  55  57
ATOM     57  C   LIG d   1       2.984   0.157  -3.597  0.00  0.00    -0.063 C 
ATOM     58  H   LIG d   1       3.655   0.023  -4.444  0.00  0.00     0.023 H 
ATOM     59  H   LIG d   1       2.436  -0.768  -3.418  0.00  0.00     0.023 H 
ATOM     60  H   LIG d   1       2.279   0.960  -3.815  0.00  0.00     0.023 H 
ENDBRANCH  55  57
BRANCH  55  61
ATOM     61  C   LIG d   1       4.387  -0.756  -1.742  0.00  0.00    -0.063 C 
ATOM     62  H   LIG d   1       3.656  -1.210  -1.073  0.00  0.00     0.023 H 
ATOM     63  H   LIG d   1       4.637  -1.458  -2.537  0.00  0.00     0.023 H 
ATOM     64  H   LIG d   1       5.287  -0.507  -1.180  0.00  0.00     0.023 H 
ENDBRANCH  55  61
ENDBRANCH  52  55
ENDBRANCH  49  52
ENDBRANCH  46  49
ENDBRANCH  40  46
ENDBRANCH  21  40
BRANCH  10  65
ATOM     65  C   LIG d   1       5.300  -3.034  -4.218  0.00  0.00    -0.059 C 
ATOM     66  H   LIG d   1       5.230  -4.005  -4.710  0.00  0.00     0.024 H 
ATOM     67  H   LIG d   1       5.345  -3.178  -3.138  0.00  0.00     0.024 H 
ATOM     68  H   LIG d   1       4.424  -2.436  -4.467  0.00  0.00     0.024 H 
ENDBRANCH  10  65
BRANCH   5  69
ATOM     69  C   LIG d   1      10.620  -5.627  -5.537  0.00  0.00    -0.056 C 
ATOM     70  H   LIG d   1      10.328  -5.496  -6.579  0.00  0.00     0.024 H 
ATOM     71  H   LIG d   1      11.253  -4.795  -5.230  0.00  0.00     0.024 H 
ATOM     72  H   LIG d   1      11.170  -6.562  -5.428  0.00  0.00     0.024 H 
ENDBRANCH   5  69
BRANCH   1  73
ATOM     73  O   LIG d   1      10.054  -9.669  -3.270  0.00  0.00    -0.231 OA
BRANCH  73  74
ATOM     74  S   LIG d   1       9.403 -10.498  -2.172  0.00  0.00     0.112 S 
ATOM     75  O   LIG d   1       9.975 -11.797  -2.249  0.00  0.00    -0.142 OA
ATOM     76  O   LIG d   1       9.453  -9.713  -0.988  0.00  0.00    -0.142 OA
BRANCH  74  77
ATOM     77  C   LIG d   1       7.700 -10.672  -2.590  0.00  0.00     0.117 A 
ATOM     78  C   LIG d   1       6.728 -10.167  -1.749  0.00  0.00    -0.034 A 
ATOM     79  C   LIG d   1       5.391 -10.303  -2.077  0.00  0.00    -0.057 A 
ATOM     80  H   LIG d   1       7.010  -9.665  -0.836  0.00  0.00     0.064 H 
ATOM     81  C   LIG d   1       5.029 -10.944  -3.247  0.00  0.00    -0.050 A 
ATOM     82  H   LIG d   1       4.631  -9.908  -1.419  0.00  0.00     0.062 H 
ATOM     83  C   LIG d   1       6.002 -11.448  -4.089  0.00  0.00    -0.057 A 
ATOM     84  C   LIG d   1       7.339 -11.308  -3.762  0.00  0.00    -0.034 A 
ATOM     85  H   LIG d   1       5.720 -11.949  -5.003  0.00  0.00     0.062 H 
ATOM     86  H   LIG d   1       8.099 -11.700  -4.423  0.00  0.00     0.064 H 
BRANCH  81  87
ATOM     87  C   LIG d   1       3.573 -11.093  -3.604  0.00  0.00    -0.040 C 
ATOM     88  H   LIG d   1       3.084 -10.119  -3.553  0.00  0.00     0.028 H 
ATOM     89  H   LIG d   1       3.485 -11.491  -4.615  0.00  0.00     0.028 H 
ATOM     90  H   LIG d   1       3.095 -11.776  -2.902  0.00  0.00     0.028 H 
ENDBRANCH  81  87
ENDBRANCH  74  77
ENDBRANCH  73  74
ENDBRANCH   1  73
TORSDOF 14
ENDMDL
MODEL 3
REMARK VINA RESULT:      -6.2      6.906     10.611
REMARK  14 active torsions:
REMARK  status: ('A' for Active; 'I' for Inactive)
REMARK    1  A    between atoms: C_1  and  C_2 
REMARK    2  A    between atoms: C_5  and  S_8 
REMARK    3  A    between atoms: S_8  and  O_11 
REMARK    4  A    between atoms: O_11  and  C_12 
REMARK    5  A    between atoms: C_16  and  C_44 
REMARK    6  A    between atoms: C_21  and  C_43 
REMARK    7  A    between atoms: C_32  and  C_34 
REMARK    8  A    between atoms: C_34  and  C_36 
REMARK    9  A    between atoms: C_34  and  C_37 
REMARK   10  A    between atoms: C_37  and  C_38 
REMARK   11  A    between atoms: C_38  and  C_39 
REMARK   12  A    between atoms: C_39  and  C_40 
REMARK   13  A    between atoms: C_40  and  C_41 
REMARK   14  A    between atoms: C_40  and  C_42 
ROOT
ATOM      1  C   LIG d   1       8.388   1.239  -6.329  0.00  0.00     0.091 C 
ATOM      2  H   LIG d   1       7.561   1.914  -6.547  0.00  0.00     0.062 H 
ATOM      3  C   LIG d   1       8.652   1.224  -4.823  0.00  0.00    -0.023 C 
ATOM      4  C   LIG d   1       8.954   2.634  -4.322  0.00  0.00    -0.041 C 
ATOM      5  C   LIG d   1      10.185   3.212  -5.023  0.00  0.00    -0.008 C 
ATOM      6  C   LIG d   1      10.457   4.622  -4.546  0.00  0.00    -0.029 C 
ATOM      7  H   LIG d   1      11.154   4.538  -3.696  0.00  0.00     0.031 H 
ATOM      8  C   LIG d   1       9.211   5.320  -4.019  0.00  0.00    -0.049 C 
ATOM      9  C   LIG d   1       9.585   6.669  -3.376  0.00  0.00    -0.047 C 
ATOM     10  C   LIG d   1      10.244   7.538  -4.418  0.00  0.00    -0.026 C 
ATOM     11  C   LIG d   1      11.462   6.815  -5.018  0.00  0.00    -0.032 C 
ATOM     12  H   LIG d   1      12.202   6.643  -4.195  0.00  0.00     0.031 H 
ATOM     13  C   LIG d   1      11.166   5.470  -5.609  0.00  0.00    -0.031 C 
ATOM     14  H   LIG d   1      12.133   4.973  -5.844  0.00  0.00     0.031 H 
ATOM     15  C   LIG d   1      10.333   5.489  -6.883  0.00  0.00    -0.031 C 
ATOM     16  C   LIG d   1      10.149   4.065  -7.349  0.00  0.00    -0.084 C 
ATOM     17  C   LIG d   1      10.020   3.082  -6.509  0.00  0.00    -0.065 C 
ATOM     18  C   LIG d   1       9.644   1.718  -7.064  0.00  0.00    -0.003 C 
ATOM     19  C   LIG d   1      12.068   7.899  -5.917  0.00  0.00    -0.049 C 
ATOM     20  C   LIG d   1      11.937   9.173  -5.034  0.00  0.00    -0.049 C 
ATOM     21  C   LIG d   1      10.889   8.850  -3.937  0.00  0.00    -0.033 C 
ATOM     22  H   LIG d   1      10.130   9.632  -3.902  0.00  0.00     0.031 H 
ATOM     23  H   LIG d   1       9.476   0.550  -4.600  0.00  0.00     0.029 H 
ATOM     24  H   LIG d   1       7.757   0.850  -4.313  0.00  0.00     0.029 H 
ATOM     25  H   LIG d   1       9.134   2.604  -3.245  0.00  0.00     0.027 H 
ATOM     26  H   LIG d   1       8.090   3.275  -4.520  0.00  0.00     0.027 H 
ATOM     27  H   LIG d   1       8.751   4.694  -3.249  0.00  0.00     0.027 H 
ATOM     28  H   LIG d   1       8.498   5.469  -4.821  0.00  0.00     0.027 H 
ATOM     29  H   LIG d   1      10.258   6.475  -2.538  0.00  0.00     0.027 H 
ATOM     30  H   LIG d   1       8.678   7.154  -3.004  0.00  0.00     0.027 H 
ATOM     31  H   LIG d   1      10.835   6.059  -7.660  0.00  0.00     0.031 H 
ATOM     32  H   LIG d   1       9.334   5.882  -6.708  0.00  0.00     0.031 H 
ATOM     33  H   LIG d   1      10.074   3.876  -8.405  0.00  0.00     0.057 H 
ATOM     34  H   LIG d   1      10.456   1.011  -6.913  0.00  0.00     0.034 H 
ATOM     35  H   LIG d   1       9.429   1.806  -8.130  0.00  0.00     0.034 H 
ATOM     36  H   LIG d   1      13.121   7.684  -6.114  0.00  0.00     0.027 H 
ATOM     37  H   LIG d   1      11.523   8.005  -6.849  0.00  0.00     0.027 H 
ATOM     38  H   LIG d   1      12.897   9.406  -4.573  0.00  0.00     0.027 H 
ATOM     39  H   LIG d   1      11.598  10.013  -5.639  0.00  0.00     0.027 H 
ENDROOT
BRANCH  21  40
ATOM     40  C   LIG d   1      11.560   8.690  -2.579  0.00  0.00    -0.041 C 
ATOM     41  H   LIG d   1      11.558   7.638  -2.295  0.00  0.00     0.030 H 
BRANCH  40  42
ATOM     42  C   LIG d   1      13.003   9.193  -2.662  0.00  0.00    -0.062 C 
ATOM     43  H   LIG d   1      13.648   8.544  -2.071  0.00  0.00     0.023 H 
ATOM     44  H   LIG d   1      13.331   9.184  -3.701  0.00  0.00     0.023 H 
ATOM     45  H   LIG d   1      13.055  10.210  -2.274  0.00  0.00     0.023 H 
ENDBRANCH  40  42
BRANCH  40  46
ATOM     46  C   LIG d   1      10.795   9.503  -1.534  0.00  0.00    -0.050 C 
ATOM     47  H   LIG d   1      11.477  10.194  -1.039  0.00  0.00     0.027 H 
ATOM     48  H   LIG d   1       9.998  10.065  -2.021  0.00  0.00     0.027 H 
BRANCH  46  49
ATOM     49  C   LIG d   1      10.188   8.555  -0.496  0.00  0.00    -0.053 C 
ATOM     50  H   LIG d   1       9.664   9.136   0.264  0.00  0.00     0.026 H 
ATOM     51  H   LIG d   1       9.485   7.881  -0.987  0.00  0.00     0.026 H 
BRANCH  49  52
ATOM     52  C   LIG d   1      11.302   7.740   0.163  0.00  0.00    -0.051 C 
ATOM     53  H   LIG d   1      12.225   7.861  -0.404  0.00  0.00     0.027 H 
ATOM     54  H   LIG d   1      11.454   8.091   1.184  0.00  0.00     0.027 H 
BRANCH  52  55
ATOM     55  C   LIG d   1      10.908   6.261   0.185  0.00  0.00    -0.047 C 
ATOM     56  H   LIG d   1       9.889   6.151  -0.185  0.00  0.00     0.029 H 
BRANCH  55  57
ATOM     57  C   LIG d   1      11.864   5.466  -0.708  0.00  0.00    -0.063 C 
ATOM     58  H   LIG d   1      12.846   5.938  -0.700  0.00  0.00     0.023 H 
ATOM     59  H   LIG d   1      11.947   4.446  -0.332  0.00  0.00     0.023 H 
ATOM     60  H   LIG d   1      11.477   5.448  -1.727  0.00  0.00     0.023 H 
ENDBRANCH  55  57
BRANCH  55  61
ATOM     61  C   LIG d   1      10.990   5.733   1.618  0.00  0.00    -0.063 C 
ATOM     62  H   LIG d   1      10.810   4.657   1.619  0.00  0.00     0.023 H 
ATOM     63  H   LIG d   1      11.981   5.935   2.024  0.00  0.00     0.023 H 
ATOM     64  H   LIG d   1      10.237   6.227   2.232  0.00  0.00     0.023 H 
ENDBRANCH  55  61
ENDBRANCH  52  55
ENDBRANCH  49  52
ENDBRANCH  46  49
ENDBRANCH  40  46
ENDBRANCH  21  40
BRANCH  10  65
ATOM     65  C   LIG d   1       9.212   7.952  -5.472  0.00  0.00    -0.059 C 
ATOM     66  H   LIG d   1       8.278   7.414  -5.300  0.00  0.00     0.024 H 
ATOM     67  H   LIG d   1       9.031   9.024  -5.403  0.00  0.00     0.024 H 
ATOM     68  H   LIG d   1       9.591   7.711  -6.466  0.00  0.00     0.024 H 
ENDBRANCH  10  65
BRANCH   5  69
ATOM     69  C   LIG d   1      11.399   2.363  -4.614  0.00  0.00    -0.056 C 
ATOM     70  H   LIG d   1      11.416   2.252  -3.530  0.00  0.00     0.024 H 
ATOM     71  H   LIG d   1      11.328   1.379  -5.078  0.00  0.00     0.024 H 
ATOM     72  H   LIG d   1      12.315   2.854  -4.943  0.00  0.00     0.024 H 
ENDBRANCH   5  69
BRANCH   1  73
ATOM     73  O   LIG d   1       8.054  -0.080  -6.767  0.00  0.00    -0.231 OA
BRANCH  73  74
ATOM     74  S   LIG d   1       6.587  -0.255  -7.137  0.00  0.00     0.112 S 
ATOM     75  O   LIG d   1       6.079   1.043  -7.413  0.00  0.00    -0.142 OA
ATOM     76  O   LIG d   1       6.532  -1.312  -8.086  0.00  0.00    -0.142 OA
BRANCH  74  77
ATOM     77  C   LIG d   1       5.751  -0.827  -5.695  0.00  0.00     0.117 A 
ATOM     78  C   LIG d   1       6.395  -1.673  -4.813  0.00  0.00    -0.034 A 
ATOM     79  C   LIG d   1       5.739  -2.122  -3.682  0.00  0.00    -0.057 A 
ATOM     80  H   LIG d   1       7.411  -1.983  -5.006  0.00  0.00     0.064 H 
ATOM     81  C   LIG d   1       4.438  -1.723  -3.434  0.00  0.00    -0.050 A 
ATOM     82  H   LIG d   1       6.242  -2.783  -2.992  0.00  0.00     0.062 H 
ATOM     83  C   LIG d   1       3.795  -0.876  -4.315  0.00  0.00    -0.057 A 
ATOM     84  C   LIG d   1       4.453  -0.425  -5.445  0.00  0.00    -0.034 A 
ATOM     85  H   LIG d   1       2.779  -0.565  -4.122  0.00  0.00     0.062 H 
ATOM     86  H   LIG d   1       3.950   0.240  -6.132  0.00  0.00     0.064 H 
BRANCH  81  87
ATOM     87  C   LIG d   1       3.723  -2.213  -2.202  0.00  0.00    -0.040 C 
ATOM     88  H   LIG d   1       2.668  -2.371  -2.432  0.00  0.00     0.028 H 
ATOM     89  H   LIG d   1       4.168  -3.153  -1.872  0.00  0.00     0.028 H 
ATOM     90  H   LIG d   1       3.813  -1.471  -1.409  0.00  0.00     0.028 H 
ENDBRANCH  81  87
ENDBRANCH  74  77
ENDBRANCH  73  74
ENDBRANCH   1  73
TORSDOF 14
ENDMDL
MODEL 4
REMARK VINA RESULT:      -6.2      7.310     10.204
REMARK  14 active torsions:
REMARK  status: ('A' for Active; 'I' for Inactive)
REMARK    1  A    between atoms: C_1  and  C_2 
REMARK    2  A    between atoms: C_5  and  S_8 
REMARK    3  A    between atoms: S_8  and  O_11 
REMARK    4  A    between atoms: O_11  and  C_12 
REMARK    5  A    between atoms: C_16  and  C_44 
REMARK    6  A    between atoms: C_21  and  C_43 
REMARK    7  A    between atoms: C_32  and  C_34 
REMARK    8  A    between atoms: C_34  and  C_36 
REMARK    9  A    between atoms: C_34  and  C_37 
REMARK   10  A    between atoms: C_37  and  C_38 
REMARK   11  A    between atoms: C_38  and  C_39 
REMARK   12  A    between atoms: C_39  and  C_40 
REMARK   13  A    between atoms: C_40  and  C_41 
REMARK   14  A    between atoms: C_40  and  C_42 
ROOT
ATOM      1  C   LIG d   1       7.155   0.589  -7.173  0.00  0.00     0.091 C 
ATOM      2  H   LIG d   1       6.451   1.353  -6.846  0.00  0.00     0.062 H 
ATOM      3  C   LIG d   1       7.737  -0.125  -5.952  0.00  0.00    -0.023 C 
ATOM      4  C   LIG d   1       8.414   0.878  -5.022  0.00  0.00    -0.041 C 
ATOM      5  C   LIG d   1       9.549   1.611  -5.741  0.00  0.00    -0.008 C 
ATOM      6  C   LIG d   1      10.192   2.627  -4.822  0.00  0.00    -0.029 C 
ATOM      7  H   LIG d   1      11.029   2.114  -4.321  0.00  0.00     0.031 H 
ATOM      8  C   LIG d   1       9.256   3.108  -3.722  0.00  0.00    -0.049 C 
ATOM      9  C   LIG d   1      10.022   3.988  -2.715  0.00  0.00    -0.047 C 
ATOM     10  C   LIG d   1      10.593   5.178  -3.444  0.00  0.00    -0.026 C 
ATOM     11  C   LIG d   1      11.481   4.710  -4.610  0.00  0.00    -0.032 C 
ATOM     12  H   LIG d   1      12.336   4.128  -4.181  0.00  0.00     0.031 H 
ATOM     13  C   LIG d   1      10.802   3.805  -5.593  0.00  0.00    -0.031 C 
ATOM     14  H   LIG d   1      11.576   3.393  -6.278  0.00  0.00     0.031 H 
ATOM     15  C   LIG d   1       9.729   4.463  -6.448  0.00  0.00    -0.031 C 
ATOM     16  C   LIG d   1       9.169   3.423  -7.388  0.00  0.00    -0.084 C 
ATOM     17  C   LIG d   1       9.037   2.179  -7.031  0.00  0.00    -0.065 C 
ATOM     18  C   LIG d   1       8.287   1.248  -7.969  0.00  0.00    -0.003 C 
ATOM     19  C   LIG d   1      12.075   6.032  -5.111  0.00  0.00    -0.049 C 
ATOM     20  C   LIG d   1      12.396   6.776  -3.784  0.00  0.00    -0.049 C 
ATOM     21  C   LIG d   1      11.573   6.076  -2.670  0.00  0.00    -0.033 C 
ATOM     22  H   LIG d   1      11.010   6.816  -2.099  0.00  0.00     0.031 H 
ATOM     23  H   LIG d   1       8.441  -0.889  -6.273  0.00  0.00     0.029 H 
ATOM     24  H   LIG d   1       6.921  -0.616  -5.411  0.00  0.00     0.029 H 
ATOM     25  H   LIG d   1       8.818   0.351  -4.155  0.00  0.00     0.027 H 
ATOM     26  H   LIG d   1       7.672   1.605  -4.682  0.00  0.00     0.027 H 
ATOM     27  H   LIG d   1       8.864   2.241  -3.184  0.00  0.00     0.027 H 
ATOM     28  H   LIG d   1       8.428   3.659  -4.151  0.00  0.00     0.027 H 
ATOM     29  H   LIG d   1      10.811   3.384  -2.263  0.00  0.00     0.027 H 
ATOM     30  H   LIG d   1       9.334   4.322  -1.934  0.00  0.00     0.027 H 
ATOM     31  H   LIG d   1      10.149   5.281  -7.028  0.00  0.00     0.031 H 
ATOM     32  H   LIG d   1       8.891   4.812  -5.850  0.00  0.00     0.031 H 
ATOM     33  H   LIG d   1       8.827   3.737  -8.358  0.00  0.00     0.057 H 
ATOM     34  H   LIG d   1       8.956   0.487  -8.363  0.00  0.00     0.034 H 
ATOM     35  H   LIG d   1       7.863   1.825  -8.792  0.00  0.00     0.034 H 
ATOM     36  H   LIG d   1      12.994   5.846  -5.671  0.00  0.00     0.027 H 
ATOM     37  H   LIG d   1      11.369   6.590  -5.717  0.00  0.00     0.027 H 
ATOM     38  H   LIG d   1      13.460   6.698  -3.563  0.00  0.00     0.027 H 
ATOM     39  H   LIG d   1      12.104   7.822  -3.862  0.00  0.00     0.027 H 
ENDROOT
BRANCH  21  40
ATOM     40  C   LIG d   1      12.483   5.268  -1.754  0.00  0.00    -0.041 C 
ATOM     41  H   LIG d   1      12.365   4.206  -1.970  0.00  0.00     0.030 H 
BRANCH  40  42
ATOM     42  C   LIG d   1      13.938   5.677  -1.991  0.00  0.00    -0.062 C 
ATOM     43  H   LIG d   1      14.600   4.965  -1.500  0.00  0.00     0.023 H 
ATOM     44  H   LIG d   1      14.143   5.687  -3.062  0.00  0.00     0.023 H 
ATOM     45  H   LIG d   1      14.106   6.673  -1.580  0.00  0.00     0.023 H 
ENDBRANCH  40  42
BRANCH  40  46
ATOM     46  C   LIG d   1      12.107   5.537  -0.296  0.00  0.00    -0.050 C 
ATOM     47  H   LIG d   1      11.941   4.590   0.219  0.00  0.00     0.027 H 
ATOM     48  H   LIG d   1      12.915   6.081   0.194  0.00  0.00     0.027 H 
BRANCH  46  49
ATOM     49  C   LIG d   1      10.827   6.375  -0.247  0.00  0.00    -0.053 C 
ATOM     50  H   LIG d   1      10.543   6.665  -1.258  0.00  0.00     0.026 H 
ATOM     51  H   LIG d   1      10.025   5.787   0.201  0.00  0.00     0.026 H 
BRANCH  49  52
ATOM     52  C   LIG d   1      11.070   7.630   0.595  0.00  0.00    -0.051 C 
ATOM     53  H   LIG d   1      10.545   7.538   1.544  0.00  0.00     0.027 H 
ATOM     54  H   LIG d   1      12.139   7.741   0.779  0.00  0.00     0.027 H 
BRANCH  52  55
ATOM     55  C   LIG d   1      10.552   8.857  -0.158  0.00  0.00    -0.047 C 
ATOM     56  H   LIG d   1      10.309   9.645   0.554  0.00  0.00     0.029 H 
BRANCH  55  57
ATOM     57  C   LIG d   1      11.632   9.356  -1.122  0.00  0.00    -0.063 C 
ATOM     58  H   LIG d   1      11.352  10.337  -1.506  0.00  0.00     0.023 H 
ATOM     59  H   LIG d   1      12.583   9.431  -0.595  0.00  0.00     0.023 H 
ATOM     60  H   LIG d   1      11.730   8.656  -1.951  0.00  0.00     0.023 H 
ENDBRANCH  55  57
BRANCH  55  61
ATOM     61  C   LIG d   1       9.299   8.479  -0.949  0.00  0.00    -0.063 C 
ATOM     62  H   LIG d   1       9.556   7.735  -1.703  0.00  0.00     0.023 H 
ATOM     63  H   LIG d   1       8.552   8.067  -0.271  0.00  0.00     0.023 H 
ATOM     64  H   LIG d   1       8.896   9.366  -1.438  0.00  0.00     0.023 H 
ENDBRANCH  55  61
ENDBRANCH  52  55
ENDBRANCH  49  52
ENDBRANCH  46  49
ENDBRANCH  40  46
ENDBRANCH  21  40
BRANCH  10  65
ATOM     65  C   LIG d   1       9.455   6.104  -3.890  0.00  0.00    -0.059 C 
ATOM     66  H   LIG d   1       8.955   6.515  -3.013  0.00  0.00     0.024 H 
ATOM     67  H   LIG d   1       9.862   6.917  -4.491  0.00  0.00     0.024 H 
ATOM     68  H   LIG d   1       8.738   5.537  -4.484  0.00  0.00     0.024 H 
ENDBRANCH  10  65
BRANCH   5  69
ATOM     69  C   LIG d   1      10.632   0.576  -6.085  0.00  0.00    -0.056 C 
ATOM     70  H   LIG d   1      10.869  -0.011  -5.197  0.00  0.00     0.024 H 
ATOM     71  H   LIG d   1      10.265  -0.086  -6.869  0.00  0.00     0.024 H 
ATOM     72  H   LIG d   1      11.529   1.089  -6.432  0.00  0.00     0.024 H 
ENDBRANCH   5  69
BRANCH   1  73
ATOM     73  O   LIG d   1       6.479  -0.358  -8.002  0.00  0.00    -0.231 OA
BRANCH  73  74
ATOM     74  S   LIG d   1       4.964  -0.339  -7.854  0.00  0.00     0.112 S 
ATOM     75  O   LIG d   1       4.567   1.025  -7.906  0.00  0.00    -0.142 OA
ATOM     76  O   LIG d   1       4.456  -1.314  -8.755  0.00  0.00    -0.142 OA
BRANCH  74  77
ATOM     77  C   LIG d   1       4.591  -0.911  -6.230  0.00  0.00     0.117 A 
ATOM     78  C   LIG d   1       4.941  -2.192  -5.851  0.00  0.00    -0.034 A 
ATOM     79  C   LIG d   1       4.649  -2.641  -4.577  0.00  0.00    -0.057 A 
ATOM     80  H   LIG d   1       5.444  -2.844  -6.550  0.00  0.00     0.064 H 
ATOM     81  C   LIG d   1       4.006  -1.806  -3.681  0.00  0.00    -0.050 A 
ATOM     82  H   LIG d   1       4.923  -3.643  -4.280  0.00  0.00     0.062 H 
ATOM     83  C   LIG d   1       3.657  -0.524  -4.059  0.00  0.00    -0.057 A 
ATOM     84  C   LIG d   1       3.953  -0.074  -5.333  0.00  0.00    -0.034 A 
ATOM     85  H   LIG d   1       3.155   0.128  -3.360  0.00  0.00     0.062 H 
ATOM     86  H   LIG d   1       3.683   0.929  -5.627  0.00  0.00     0.064 H 
BRANCH  81  87
ATOM     87  C   LIG d   1       3.687  -2.296  -2.292  0.00  0.00    -0.040 C 
ATOM     88  H   LIG d   1       4.340  -1.799  -1.572  0.00  0.00     0.028 H 
ATOM     89  H   LIG d   1       2.647  -2.068  -2.057  0.00  0.00     0.028 H 
ATOM     90  H   LIG d   1       3.843  -3.373  -2.241  0.00  0.00     0.028 H 
ENDBRANCH  81  87
ENDBRANCH  74  77
ENDBRANCH  73  74
ENDBRANCH   1  73
TORSDOF 14
ENDMDL
MODEL 5
REMARK VINA RESULT:      -6.2      3.408      4.389
REMARK  14 active torsions:
REMARK  status: ('A' for Active; 'I' for Inactive)
REMARK    1  A    between atoms: C_1  and  C_2 
REMARK    2  A    between atoms: C_5  and  S_8 
REMARK    3  A    between atoms: S_8  and  O_11 
REMARK    4  A    between atoms: O_11  and  C_12 
REMARK    5  A    between atoms: C_16  and  C_44 
REMARK    6  A    between atoms: C_21  and  C_43 
REMARK    7  A    between atoms: C_32  and  C_34 
REMARK    8  A    between atoms: C_34  and  C_36 
REMARK    9  A    between atoms: C_34  and  C_37 
REMARK   10  A    between atoms: C_37  and  C_38 
REMARK   11  A    between atoms: C_38  and  C_39 
REMARK   12  A    between atoms: C_39  and  C_40 
REMARK   13  A    between atoms: C_40  and  C_41 
REMARK   14  A    between atoms: C_40  and  C_42 
ROOT
ATOM      1  C   LIG d   1       5.169  -8.697  -5.847  0.00  0.00     0.091 C 
ATOM      2  H   LIG d   1       4.458  -8.326  -5.109  0.00  0.00     0.062 H 
ATOM      3  C   LIG d   1       6.585  -8.289  -5.440  0.00  0.00    -0.023 C 
ATOM      4  C   LIG d   1       6.683  -6.772  -5.304  0.00  0.00    -0.041 C 
ATOM      5  C   LIG d   1       6.340  -6.080  -6.626  0.00  0.00    -0.008 C 
ATOM      6  C   LIG d   1       6.406  -4.576  -6.472  0.00  0.00    -0.029 C 
ATOM      7  H   LIG d   1       7.432  -4.277  -6.743  0.00  0.00     0.031 H 
ATOM      8  C   LIG d   1       6.184  -4.116  -5.038  0.00  0.00    -0.049 C 
ATOM      9  C   LIG d   1       6.452  -2.604  -4.914  0.00  0.00    -0.047 C 
ATOM     10  C   LIG d   1       5.507  -1.866  -5.830  0.00  0.00    -0.026 C 
ATOM     11  C   LIG d   1       5.664  -2.374  -7.274  0.00  0.00    -0.032 C 
ATOM     12  H   LIG d   1       6.710  -2.152  -7.607  0.00  0.00     0.031 H 
ATOM     13  C   LIG d   1       5.470  -3.850  -7.445  0.00  0.00    -0.031 C 
ATOM     14  H   LIG d   1       5.779  -4.124  -8.478  0.00  0.00     0.031 H 
ATOM     15  C   LIG d   1       4.044  -4.345  -7.243  0.00  0.00    -0.031 C 
ATOM     16  C   LIG d   1       4.025  -5.837  -7.472  0.00  0.00    -0.084 C 
ATOM     17  C   LIG d   1       5.025  -6.594  -7.131  0.00  0.00    -0.065 C 
ATOM     18  C   LIG d   1       4.837  -8.100  -7.219  0.00  0.00    -0.003 C 
ATOM     19  C   LIG d   1       4.757  -1.414  -8.052  0.00  0.00    -0.049 C 
ATOM     20  C   LIG d   1       5.071  -0.045  -7.384  0.00  0.00    -0.049 C 
ATOM     21  C   LIG d   1       5.746  -0.358  -6.021  0.00  0.00    -0.033 C 
ATOM     22  H   LIG d   1       5.246   0.189  -5.222  0.00  0.00     0.031 H 
ATOM     23  H   LIG d   1       7.300  -8.657  -6.173  0.00  0.00     0.029 H 
ATOM     24  H   LIG d   1       6.819  -8.748  -4.474  0.00  0.00     0.029 H 
ATOM     25  H   LIG d   1       7.699  -6.501  -5.008  0.00  0.00     0.027 H 
ATOM     26  H   LIG d   1       5.987  -6.438  -4.530  0.00  0.00     0.027 H 
ATOM     27  H   LIG d   1       6.886  -4.639  -4.383  0.00  0.00     0.027 H 
ATOM     28  H   LIG d   1       5.173  -4.348  -4.725  0.00  0.00     0.027 H 
ATOM     29  H   LIG d   1       7.493  -2.417  -5.183  0.00  0.00     0.027 H 
ATOM     30  H   LIG d   1       6.286  -2.294  -3.878  0.00  0.00     0.027 H 
ATOM     31  H   LIG d   1       3.369  -3.866  -7.947  0.00  0.00     0.031 H 
ATOM     32  H   LIG d   1       3.702  -4.191  -6.222  0.00  0.00     0.031 H 
ATOM     33  H   LIG d   1       3.136  -6.282  -7.883  0.00  0.00     0.057 H 
ATOM     34  H   LIG d   1       5.495  -8.520  -7.976  0.00  0.00     0.034 H 
ATOM     35  H   LIG d   1       3.799  -8.323  -7.470  0.00  0.00     0.034 H 
ATOM     36  H   LIG d   1       5.042  -1.393  -9.106  0.00  0.00     0.027 H 
ATOM     37  H   LIG d   1       3.709  -1.674  -7.949  0.00  0.00     0.027 H 
ATOM     38  H   LIG d   1       5.753   0.527  -8.013  0.00  0.00     0.027 H 
ATOM     39  H   LIG d   1       4.150   0.513  -7.225  0.00  0.00     0.027 H 
ENDROOT
BRANCH  21  40
ATOM     40  C   LIG d   1       7.229  -0.017  -6.063  0.00  0.00    -0.041 C 
ATOM     41  H   LIG d   1       7.811  -0.935  -6.147  0.00  0.00     0.030 H 
BRANCH  40  42
ATOM     42  C   LIG d   1       7.512   0.879  -7.270  0.00  0.00    -0.062 C 
ATOM     43  H   LIG d   1       6.977   0.498  -8.139  0.00  0.00     0.023 H 
ATOM     44  H   LIG d   1       7.180   1.895  -7.055  0.00  0.00     0.023 H 
ATOM     45  H   LIG d   1       8.583   0.883  -7.476  0.00  0.00     0.023 H 
ENDBRANCH  40  42
BRANCH  40  46
ATOM     46  C   LIG d   1       7.618   0.718  -4.779  0.00  0.00    -0.050 C 
ATOM     47  H   LIG d   1       8.240   0.068  -4.161  0.00  0.00     0.027 H 
ATOM     48  H   LIG d   1       8.174   1.621  -5.030  0.00  0.00     0.027 H 
BRANCH  46  49
ATOM     49  C   LIG d   1       6.353   1.097  -4.006  0.00  0.00    -0.053 C 
ATOM     50  H   LIG d   1       6.368   2.165  -3.786  0.00  0.00     0.026 H 
ATOM     51  H   LIG d   1       5.475   0.862  -4.608  0.00  0.00     0.026 H 
BRANCH  49  52
ATOM     52  C   LIG d   1       6.299   0.307  -2.696  0.00  0.00    -0.051 C 
ATOM     53  H   LIG d   1       6.525  -0.740  -2.894  0.00  0.00     0.027 H 
ATOM     54  H   LIG d   1       7.033   0.712  -1.998  0.00  0.00     0.027 H 
BRANCH  52  55
ATOM     55  C   LIG d   1       4.900   0.421  -2.088  0.00  0.00    -0.047 C 
ATOM     56  H   LIG d   1       4.962   0.929  -1.125  0.00  0.00     0.029 H 
BRANCH  55  57
ATOM     57  C   LIG d   1       3.999   1.223  -3.031  0.00  0.00    -0.063 C 
ATOM     58  H   LIG d   1       3.698   0.595  -3.868  0.00  0.00     0.023 H 
ATOM     59  H   LIG d   1       3.114   1.558  -2.490  0.00  0.00     0.023 H 
ATOM     60  H   LIG d   1       4.546   2.090  -3.404  0.00  0.00     0.023 H 
ENDBRANCH  55  57
BRANCH  55  61
ATOM     61  C   LIG d   1       4.314  -0.978  -1.890  0.00  0.00    -0.063 C 
ATOM     62  H   LIG d   1       4.879  -1.696  -2.485  0.00  0.00     0.023 H 
ATOM     63  H   LIG d   1       4.374  -1.251  -0.837  0.00  0.00     0.023 H 
ATOM     64  H   LIG d   1       3.271  -0.983  -2.209  0.00  0.00     0.023 H 
ENDBRANCH  55  61
ENDBRANCH  52  55
ENDBRANCH  49  52
ENDBRANCH  46  49
ENDBRANCH  40  46
ENDBRANCH  21  40
BRANCH  10  65
ATOM     65  C   LIG d   1       4.074  -1.991  -5.302  0.00  0.00    -0.059 C 
ATOM     66  H   LIG d   1       3.747  -3.029  -5.374  0.00  0.00     0.024 H 
ATOM     67  H   LIG d   1       4.041  -1.671  -4.261  0.00  0.00     0.024 H 
ATOM     68  H   LIG d   1       3.412  -1.360  -5.896  0.00  0.00     0.024 H 
ENDBRANCH  10  65
BRANCH   5  69
ATOM     69  C   LIG d   1       7.417  -6.470  -7.651  0.00  0.00    -0.056 C 
ATOM     70  H   LIG d   1       6.939  -6.804  -8.572  0.00  0.00     0.024 H 
ATOM     71  H   LIG d   1       8.047  -5.605  -7.863  0.00  0.00     0.024 H 
ATOM     72  H   LIG d   1       8.030  -7.275  -7.247  0.00  0.00     0.024 H 
ENDBRANCH   5  69
BRANCH   1  73
ATOM     73  O   LIG d   1       5.084 -10.122  -5.915  0.00  0.00    -0.231 OA
BRANCH  73  74
ATOM     74  S   LIG d   1       4.356 -10.756  -4.738  0.00  0.00     0.112 S 
ATOM     75  O   LIG d   1       3.510  -9.752  -4.195  0.00  0.00    -0.142 OA
ATOM     76  O   LIG d   1       3.858 -12.006  -5.195  0.00  0.00    -0.142 OA
BRANCH  74  77
ATOM     77  C   LIG d   1       5.566 -11.114  -3.508  0.00  0.00     0.117 A 
ATOM     78  C   LIG d   1       6.647 -11.918  -3.815  0.00  0.00    -0.034 A 
ATOM     79  C   LIG d   1       7.596 -12.198  -2.850  0.00  0.00    -0.057 A 
ATOM     80  H   LIG d   1       6.751 -12.327  -4.809  0.00  0.00     0.064 H 
ATOM     81  C   LIG d   1       7.464 -11.674  -1.578  0.00  0.00    -0.050 A 
ATOM     82  H   LIG d   1       8.441 -12.827  -3.090  0.00  0.00     0.062 H 
ATOM     83  C   LIG d   1       6.384 -10.868  -1.271  0.00  0.00    -0.057 A 
ATOM     84  C   LIG d   1       5.436 -10.585  -2.238  0.00  0.00    -0.034 A 
ATOM     85  H   LIG d   1       6.280 -10.459  -0.277  0.00  0.00     0.062 H 
ATOM     86  H   LIG d   1       4.594  -9.952  -1.998  0.00  0.00     0.064 H 
BRANCH  81  87
ATOM     87  C   LIG d   1       8.498 -11.981  -0.526  0.00  0.00    -0.040 C 
ATOM     88  H   LIG d   1       8.955 -11.051  -0.184  0.00  0.00     0.028 H 
ATOM     89  H   LIG d   1       8.022 -12.483   0.316  0.00  0.00     0.028 H 
ATOM     90  H   LIG d   1       9.266 -12.629  -0.949  0.00  0.00     0.028 H 
ENDBRANCH  81  87
ENDBRANCH  74  77
ENDBRANCH  73  74
ENDBRANCH   1  73
TORSDOF 14
ENDMDL
MODEL 6
REMARK VINA RESULT:      -6.2      6.835     10.710
REMARK  14 active torsions:
REMARK  status: ('A' for Active; 'I' for Inactive)
REMARK    1  A    between atoms: C_1  and  C_2 
REMARK    2  A    between atoms: C_5  and  S_8 
REMARK    3  A    between atoms: S_8  and  O_11 
REMARK    4  A    between atoms: O_11  and  C_12 
REMARK    5  A    between atoms: C_16  and  C_44 
REMARK    6  A    between atoms: C_21  and  C_43 
REMARK    7  A    between atoms: C_32  and  C_34 
REMARK    8  A    between atoms: C_34  and  C_36 
REMARK    9  A    between atoms: C_34  and  C_37 
REMARK   10  A    between atoms: C_37  and  C_38 
REMARK   11  A    between atoms: C_38  and  C_39 
REMARK   12  A    between atoms: C_39  and  C_40 
REMARK   13  A    between atoms: C_40  and  C_41 
REMARK   14  A    between atoms: C_40  and  C_42 
ROOT
ATOM      1  C   LIG d   1      11.056   3.752  -4.816  0.00  0.00     0.091 C 
ATOM      2  H   LIG d   1      11.320   3.288  -3.866  0.00  0.00     0.062 H 
ATOM      3  C   LIG d   1       9.580   4.153  -4.794  0.00  0.00    -0.023 C 
ATOM      4  C   LIG d   1       8.702   2.935  -4.518  0.00  0.00    -0.041 C 
ATOM      5  C   LIG d   1       8.897   1.864  -5.594  0.00  0.00    -0.008 C 
ATOM      6  C   LIG d   1       8.048   0.648  -5.294  0.00  0.00    -0.029 C 
ATOM      7  H   LIG d   1       7.088   0.797  -5.814  0.00  0.00     0.031 H 
ATOM      8  C   LIG d   1       7.722   0.503  -3.814  0.00  0.00    -0.049 C 
ATOM      9  C   LIG d   1       6.706  -0.635  -3.599  0.00  0.00    -0.047 C 
ATOM     10  C   LIG d   1       7.303  -1.923  -4.110  0.00  0.00    -0.026 C 
ATOM     11  C   LIG d   1       7.711  -1.769  -5.585  0.00  0.00    -0.032 C 
ATOM     12  H   LIG d   1       6.785  -1.560  -6.180  0.00  0.00     0.031 H 
ATOM     13  C   LIG d   1       8.656  -0.640  -5.862  0.00  0.00    -0.031 C 
ATOM     14  H   LIG d   1       8.737  -0.516  -6.964  0.00  0.00     0.031 H 
ATOM     15  C   LIG d   1      10.064  -0.823  -5.313  0.00  0.00    -0.031 C 
ATOM     16  C   LIG d   1      10.882   0.386  -5.697  0.00  0.00    -0.084 C 
ATOM     17  C   LIG d   1      10.360   1.576  -5.751  0.00  0.00    -0.065 C 
ATOM     18  C   LIG d   1      11.299   2.754  -5.953  0.00  0.00    -0.003 C 
ATOM     19  C   LIG d   1       8.137  -3.196  -5.950  0.00  0.00    -0.049 C 
ATOM     20  C   LIG d   1       7.049  -4.058  -5.249  0.00  0.00    -0.049 C 
ATOM     21  C   LIG d   1       6.375  -3.148  -4.187  0.00  0.00    -0.033 C 
ATOM     22  H   LIG d   1       6.361  -3.650  -3.219  0.00  0.00     0.031 H 
ATOM     23  H   LIG d   1       9.311   4.616  -5.741  0.00  0.00     0.029 H 
ATOM     24  H   LIG d   1       9.428   4.889  -3.997  0.00  0.00     0.029 H 
ATOM     25  H   LIG d   1       7.654   3.242  -4.501  0.00  0.00     0.027 H 
ATOM     26  H   LIG d   1       8.966   2.520  -3.542  0.00  0.00     0.027 H 
ATOM     27  H   LIG d   1       7.270   1.432  -3.456  0.00  0.00     0.027 H 
ATOM     28  H   LIG d   1       8.627   0.313  -3.249  0.00  0.00     0.027 H 
ATOM     29  H   LIG d   1       5.789  -0.382  -4.136  0.00  0.00     0.027 H 
ATOM     30  H   LIG d   1       6.485  -0.723  -2.531  0.00  0.00     0.027 H 
ATOM     31  H   LIG d   1      10.526  -1.715  -5.730  0.00  0.00     0.031 H 
ATOM     32  H   LIG d   1      10.074  -0.862  -4.226  0.00  0.00     0.031 H 
ATOM     33  H   LIG d   1      11.934   0.258  -5.880  0.00  0.00     0.057 H 
ATOM     34  H   LIG d   1      11.107   3.229  -6.912  0.00  0.00     0.034 H 
ATOM     35  H   LIG d   1      12.332   2.406  -5.916  0.00  0.00     0.034 H 
ATOM     36  H   LIG d   1       8.093  -3.341  -7.032  0.00  0.00     0.027 H 
ATOM     37  H   LIG d   1       9.129  -3.431  -5.577  0.00  0.00     0.027 H 
ATOM     38  H   LIG d   1       6.309  -4.386  -5.978  0.00  0.00     0.027 H 
ATOM     39  H   LIG d   1       7.507  -4.919  -4.765  0.00  0.00     0.027 H 
ENDROOT
BRANCH  21  40
ATOM     40  C   LIG d   1       4.965  -2.768  -4.618  0.00  0.00    -0.041 C 
ATOM     41  H   LIG d   1       4.929  -1.702  -4.843  0.00  0.00     0.030 H 
BRANCH  40  42
ATOM     42  C   LIG d   1       4.581  -3.566  -5.865  0.00  0.00    -0.062 C 
ATOM     43  H   LIG d   1       4.431  -4.611  -5.596  0.00  0.00     0.023 H 
ATOM     44  H   LIG d   1       3.660  -3.163  -6.286  0.00  0.00     0.023 H 
ATOM     45  H   LIG d   1       5.380  -3.492  -6.604  0.00  0.00     0.023 H 
ENDBRANCH  40  42
BRANCH  40  46
ATOM     46  C   LIG d   1       3.985  -3.085  -3.487  0.00  0.00    -0.050 C 
ATOM     47  H   LIG d   1       2.994  -3.269  -3.904  0.00  0.00     0.027 H 
ATOM     48  H   LIG d   1       4.323  -3.970  -2.949  0.00  0.00     0.027 H 
BRANCH  46  49
ATOM     49  C   LIG d   1       3.918  -1.897  -2.523  0.00  0.00    -0.053 C 
ATOM     50  H   LIG d   1       3.731  -2.260  -1.512  0.00  0.00     0.026 H 
ATOM     51  H   LIG d   1       4.865  -1.357  -2.547  0.00  0.00     0.026 H 
BRANCH  49  52
ATOM     52  C   LIG d   1       2.785  -0.960  -2.947  0.00  0.00    -0.051 C 
ATOM     53  H   LIG d   1       2.101  -1.492  -3.606  0.00  0.00     0.027 H 
ATOM     54  H   LIG d   1       2.246  -0.619  -2.062  0.00  0.00     0.027 H 
BRANCH  52  55
ATOM     55  C   LIG d   1       3.369   0.247  -3.684  0.00  0.00    -0.047 C 
ATOM     56  H   LIG d   1       4.337  -0.020  -4.108  0.00  0.00     0.029 H 
BRANCH  55  57
ATOM     57  C   LIG d   1       2.418   0.666  -4.809  0.00  0.00    -0.063 C 
ATOM     58  H   LIG d   1       1.599   1.251  -4.393  0.00  0.00     0.023 H 
ATOM     59  H   LIG d   1       2.961   1.267  -5.538  0.00  0.00     0.023 H 
ATOM     60  H   LIG d   1       2.019  -0.224  -5.296  0.00  0.00     0.023 H 
ENDBRANCH  55  57
BRANCH  55  61
ATOM     61  C   LIG d   1       3.544   1.409  -2.705  0.00  0.00    -0.063 C 
ATOM     62  H   LIG d   1       4.379   2.031  -3.025  0.00  0.00     0.023 H 
ATOM     63  H   LIG d   1       2.632   2.006  -2.684  0.00  0.00     0.023 H 
ATOM     64  H   LIG d   1       3.745   1.016  -1.708  0.00  0.00     0.023 H 
ENDBRANCH  55  61
ENDBRANCH  52  55
ENDBRANCH  49  52
ENDBRANCH  46  49
ENDBRANCH  40  46
ENDBRANCH  21  40
BRANCH  10  65
ATOM     65  C   LIG d   1       8.466  -2.346  -3.206  0.00  0.00    -0.059 C 
ATOM     66  H   LIG d   1       8.441  -3.426  -3.061  0.00  0.00     0.024 H 
ATOM     67  H   LIG d   1       9.410  -2.064  -3.672  0.00  0.00     0.024 H 
ATOM     68  H   LIG d   1       8.376  -1.848  -2.241  0.00  0.00     0.024 H 
ENDBRANCH  10  65
BRANCH   5  69
ATOM     69  C   LIG d   1       8.390   2.441  -6.926  0.00  0.00    -0.056 C 
ATOM     70  H   LIG d   1       7.531   3.085  -6.740  0.00  0.00     0.024 H 
ATOM     71  H   LIG d   1       9.184   3.022  -7.395  0.00  0.00     0.024 H 
ATOM     72  H   LIG d   1       8.098   1.626  -7.587  0.00  0.00     0.024 H 
ENDBRANCH   5  69
BRANCH   1  73
ATOM     73  O   LIG d   1      11.863   4.913  -5.021  0.00  0.00    -0.231 OA
BRANCH  73  74
ATOM     74  S   LIG d   1      12.584   5.393  -3.769  0.00  0.00     0.112 S 
ATOM     75  O   LIG d   1      12.775   4.251  -2.946  0.00  0.00    -0.142 OA
ATOM     76  O   LIG d   1      13.666   6.203  -4.210  0.00  0.00    -0.142 OA
BRANCH  74  77
ATOM     77  C   LIG d   1      11.477   6.458  -2.905  0.00  0.00     0.117 A 
ATOM     78  C   LIG d   1      10.787   5.989  -1.804  0.00  0.00    -0.034 A 
ATOM     79  C   LIG d   1       9.918   6.824  -1.126  0.00  0.00    -0.057 A 
ATOM     80  H   LIG d   1      10.926   4.971  -1.472  0.00  0.00     0.064 H 
ATOM     81  C   LIG d   1       9.741   8.128  -1.550  0.00  0.00    -0.050 A 
ATOM     82  H   LIG d   1       9.378   6.458  -0.265  0.00  0.00     0.062 H 
ATOM     83  C   LIG d   1      10.433   8.597  -2.651  0.00  0.00    -0.057 A 
ATOM     84  C   LIG d   1      11.304   7.763  -3.326  0.00  0.00    -0.034 A 
ATOM     85  H   LIG d   1      10.295   9.616  -2.983  0.00  0.00     0.062 H 
ATOM     86  H   LIG d   1      11.847   8.131  -4.185  0.00  0.00     0.064 H 
BRANCH  81  87
ATOM     87  C   LIG d   1       8.794   9.038  -0.812  0.00  0.00    -0.040 C 
ATOM     88  H   LIG d   1       9.365   9.734  -0.195  0.00  0.00     0.028 H 
ATOM     89  H   LIG d   1       8.193   9.597  -1.530  0.00  0.00     0.028 H 
ATOM     90  H   LIG d   1       8.140   8.443  -0.176  0.00  0.00     0.028 H 
ENDBRANCH  81  87
ENDBRANCH  74  77
ENDBRANCH  73  74
ENDBRANCH   1  73
TORSDOF 14
ENDMDL
MODEL 7
REMARK VINA RESULT:      -6.1      7.709     11.411
REMARK  14 active torsions:
REMARK  status: ('A' for Active; 'I' for Inactive)
REMARK    1  A    between atoms: C_1  and  C_2 
REMARK    2  A    between atoms: C_5  and  S_8 
REMARK    3  A    between atoms: S_8  and  O_11 
REMARK    4  A    between atoms: O_11  and  C_12 
REMARK    5  A    between atoms: C_16  and  C_44 
REMARK    6  A    between atoms: C_21  and  C_43 
REMARK    7  A    between atoms: C_32  and  C_34 
REMARK    8  A    between atoms: C_34  and  C_36 
REMARK    9  A    between atoms: C_34  and  C_37 
REMARK   10  A    between atoms: C_37  and  C_38 
REMARK   11  A    between atoms: C_38  and  C_39 
REMARK   12  A    between atoms: C_39  and  C_40 
REMARK   13  A    between atoms: C_40  and  C_41 
REMARK   14  A    between atoms: C_40  and  C_42 
ROOT
ATOM      1  C   LIG d   1      11.729   4.664  -2.686  0.00  0.00     0.091 C 
ATOM      2  H   LIG d   1      11.533   3.949  -1.888  0.00  0.00     0.062 H 
ATOM      3  C   LIG d   1      10.427   5.370  -3.069  0.00  0.00    -0.023 C 
ATOM      4  C   LIG d   1       9.375   4.350  -3.497  0.00  0.00    -0.041 C 
ATOM      5  C   LIG d   1       9.859   3.537  -4.701  0.00  0.00    -0.008 C 
ATOM      6  C   LIG d   1       8.825   2.506  -5.097  0.00  0.00    -0.029 C 
ATOM      7  H   LIG d   1       8.180   2.981  -5.854  0.00  0.00     0.031 H 
ATOM      8  C   LIG d   1       7.917   2.104  -3.944  0.00  0.00    -0.049 C 
ATOM      9  C   LIG d   1       6.774   1.204  -4.452  0.00  0.00    -0.047 C 
ATOM     10  C   LIG d   1       7.370  -0.033  -5.077  0.00  0.00    -0.026 C 
ATOM     11  C   LIG d   1       8.351   0.358  -6.195  0.00  0.00    -0.032 C 
ATOM     12  H   LIG d   1       7.774   0.900  -6.987  0.00  0.00     0.031 H 
ATOM     13  C   LIG d   1       9.454   1.280  -5.769  0.00  0.00    -0.031 C 
ATOM     14  H   LIG d   1       9.985   1.631  -6.681  0.00  0.00     0.031 H 
ATOM     15  C   LIG d   1      10.490   0.666  -4.838  0.00  0.00    -0.031 C 
ATOM     16  C   LIG d   1      11.530   1.716  -4.530  0.00  0.00    -0.084 C 
ATOM     17  C   LIG d   1      11.217   2.972  -4.408  0.00  0.00    -0.065 C 
ATOM     18  C   LIG d   1      12.289   3.925  -3.905  0.00  0.00    -0.003 C 
ATOM     19  C   LIG d   1       8.717  -1.006  -6.792  0.00  0.00    -0.049 C 
ATOM     20  C   LIG d   1       7.346  -1.738  -6.812  0.00  0.00    -0.049 C 
ATOM     21  C   LIG d   1       6.414  -0.969  -5.837  0.00  0.00    -0.033 C 
ATOM     22  H   LIG d   1       5.954  -1.662  -5.134  0.00  0.00     0.031 H 
ATOM     23  H   LIG d   1      10.617   6.086  -3.866  0.00  0.00     0.029 H 
ATOM     24  H   LIG d   1      10.055   5.919  -2.197  0.00  0.00     0.029 H 
ATOM     25  H   LIG d   1       8.453   4.871  -3.762  0.00  0.00     0.027 H 
ATOM     26  H   LIG d   1       9.174   3.674  -2.662  0.00  0.00     0.027 H 
ATOM     27  H   LIG d   1       7.471   3.003  -3.510  0.00  0.00     0.027 H 
ATOM     28  H   LIG d   1       8.489   1.592  -3.179  0.00  0.00     0.027 H 
ATOM     29  H   LIG d   1       6.187   1.771  -5.177  0.00  0.00     0.027 H 
ATOM     30  H   LIG d   1       6.134   0.926  -3.609  0.00  0.00     0.027 H 
ATOM     31  H   LIG d   1      10.972  -0.187  -5.310  0.00  0.00     0.031 H 
ATOM     32  H   LIG d   1      10.058   0.378  -3.883  0.00  0.00     0.031 H 
ATOM     33  H   LIG d   1      12.543   1.401  -4.358  0.00  0.00     0.057 H 
ATOM     34  H   LIG d   1      12.557   4.637  -4.681  0.00  0.00     0.034 H 
ATOM     35  H   LIG d   1      13.172   3.355  -3.610  0.00  0.00     0.034 H 
ATOM     36  H   LIG d   1       9.095  -0.886  -7.809  0.00  0.00     0.027 H 
ATOM     37  H   LIG d   1       9.440  -1.535  -6.180  0.00  0.00     0.027 H 
ATOM     38  H   LIG d   1       6.928  -1.717  -7.818  0.00  0.00     0.027 H 
ATOM     39  H   LIG d   1       7.467  -2.768  -6.477  0.00  0.00     0.027 H 
ENDROOT
BRANCH  21  40
ATOM     40  C   LIG d   1       5.351  -0.194  -6.606  0.00  0.00    -0.041 C 
ATOM     41  H   LIG d   1       5.482   0.873  -6.431  0.00  0.00     0.030 H 
BRANCH  40  42
ATOM     42  C   LIG d   1       5.490  -0.487  -8.101  0.00  0.00    -0.062 C 
ATOM     43  H   LIG d   1       4.507  -0.694  -8.523  0.00  0.00     0.023 H 
ATOM     44  H   LIG d   1       5.926   0.378  -8.602  0.00  0.00     0.023 H 
ATOM     45  H   LIG d   1       6.136  -1.353  -8.244  0.00  0.00     0.023 H 
ENDBRANCH  40  42
BRANCH  40  46
ATOM     46  C   LIG d   1       3.963  -0.624  -6.127  0.00  0.00    -0.050 C 
ATOM     47  H   LIG d   1       3.291   0.234  -6.144  0.00  0.00     0.027 H 
ATOM     48  H   LIG d   1       3.577  -1.402  -6.784  0.00  0.00     0.027 H 
BRANCH  46  49
ATOM     49  C   LIG d   1       4.063  -1.166  -4.699  0.00  0.00    -0.053 C 
ATOM     50  H   LIG d   1       3.719  -2.200  -4.678  0.00  0.00     0.026 H 
ATOM     51  H   LIG d   1       5.099  -1.120  -4.364  0.00  0.00     0.026 H 
BRANCH  49  52
ATOM     52  C   LIG d   1       3.188  -0.319  -3.771  0.00  0.00    -0.051 C 
ATOM     53  H   LIG d   1       3.236   0.725  -4.079  0.00  0.00     0.027 H 
ATOM     54  H   LIG d   1       2.157  -0.668  -3.827  0.00  0.00     0.027 H 
BRANCH  52  55
ATOM     55  C   LIG d   1       3.694  -0.451  -2.333  0.00  0.00    -0.047 C 
ATOM     56  H   LIG d   1       2.857  -0.670  -1.671  0.00  0.00     0.029 H 
BRANCH  55  57
ATOM     57  C   LIG d   1       4.717  -1.588  -2.255  0.00  0.00    -0.063 C 
ATOM     58  H   LIG d   1       4.758  -1.970  -1.236  0.00  0.00     0.023 H 
ATOM     59  H   LIG d   1       4.421  -2.389  -2.932  0.00  0.00     0.023 H 
ATOM     60  H   LIG d   1       5.699  -1.213  -2.543  0.00  0.00     0.023 H 
ENDBRANCH  55  57
BRANCH  55  61
ATOM     61  C   LIG d   1       4.356   0.860  -1.902  0.00  0.00    -0.063 C 
ATOM     62  H   LIG d   1       4.869   0.712  -0.952  0.00  0.00     0.023 H 
ATOM     63  H   LIG d   1       5.075   1.169  -2.659  0.00  0.00     0.023 H 
ATOM     64  H   LIG d   1       3.594   1.631  -1.787  0.00  0.00     0.023 H 
ENDBRANCH  55  61
ENDBRANCH  52  55
ENDBRANCH  49  52
ENDBRANCH  46  49
ENDBRANCH  40  46
ENDBRANCH  21  40
BRANCH  10  65
ATOM     65  C   LIG d   1       8.013  -0.901  -3.989  0.00  0.00    -0.059 C 
ATOM     66  H   LIG d   1       7.276  -1.127  -3.218  0.00  0.00     0.024 H 
ATOM     67  H   LIG d   1       8.372  -1.831  -4.431  0.00  0.00     0.024 H 
ATOM     68  H   LIG d   1       8.851  -0.364  -3.544  0.00  0.00     0.024 H 
ENDBRANCH  10  65
BRANCH   5  69
ATOM     69  C   LIG d   1      10.002   4.502  -5.890  0.00  0.00    -0.056 C 
ATOM     70  H   LIG d   1       9.106   4.453  -6.508  0.00  0.00     0.024 H 
ATOM     71  H   LIG d   1      10.132   5.518  -5.519  0.00  0.00     0.024 H 
ATOM     72  H   LIG d   1      10.870   4.218  -6.485  0.00  0.00     0.024 H 
ENDBRANCH   5  69
BRANCH   1  73
ATOM     73  O   LIG d   1      12.680   5.631  -2.236  0.00  0.00    -0.231 OA
BRANCH  73  74
ATOM     74  S   LIG d   1      12.670   5.855  -0.731  0.00  0.00     0.112 S 
ATOM     75  O   LIG d   1      11.729   4.937  -0.189  0.00  0.00    -0.142 OA
ATOM     76  O   LIG d   1      14.029   5.887  -0.315  0.00  0.00    -0.142 OA
BRANCH  74  77
ATOM     77  C   LIG d   1      12.019   7.468  -0.448  0.00  0.00     0.117 A 
ATOM     78  C   LIG d   1      11.615   7.838   0.820  0.00  0.00    -0.034 A 
ATOM     79  C   LIG d   1      11.104   9.103   1.041  0.00  0.00    -0.057 A 
ATOM     80  H   LIG d   1      11.698   7.139   1.639  0.00  0.00     0.064 H 
ATOM     81  C   LIG d   1      10.999   9.999  -0.007  0.00  0.00    -0.050 A 
ATOM     82  H   LIG d   1      10.788   9.392   2.033  0.00  0.00     0.062 H 
ATOM     83  C   LIG d   1      11.404   9.630  -1.275  0.00  0.00    -0.057 A 
ATOM     84  C   LIG d   1      11.918   8.365  -1.495  0.00  0.00    -0.034 A 
ATOM     85  H   LIG d   1      11.322  10.329  -2.094  0.00  0.00     0.062 H 
ATOM     86  H   LIG d   1      12.238   8.078  -2.487  0.00  0.00     0.064 H 
BRANCH  81  87
ATOM     87  C   LIG d   1      10.441  11.378   0.235  0.00  0.00    -0.040 C 
ATOM     88  H   LIG d   1       9.609  11.316   0.938  0.00  0.00     0.028 H 
ATOM     89  H   LIG d   1      11.220  12.018   0.649  0.00  0.00     0.028 H 
ATOM     90  H   LIG d   1      10.088  11.797  -0.707  0.00  0.00     0.028 H 
ENDBRANCH  81  87
ENDBRANCH  74  77
ENDBRANCH  73  74
ENDBRANCH   1  73
TORSDOF 14
ENDMDL
MODEL 8
REMARK VINA RESULT:      -6.0      2.515      3.087
REMARK  14 active torsions:
REMARK  status: ('A' for Active; 'I' for Inactive)
REMARK    1  A    between atoms: C_1  and  C_2 
REMARK    2  A    between atoms: C_5  and  S_8 
REMARK    3  A    between atoms: S_8  and  O_11 
REMARK    4  A    between atoms: O_11  and  C_12 
REMARK    5  A    between atoms: C_16  and  C_44 
REMARK    6  A    between atoms: C_21  and  C_43 
REMARK    7  A    between atoms: C_32  and  C_34 
REMARK    8  A    between atoms: C_34  and  C_36 
REMARK    9  A    between atoms: C_34  and  C_37 
REMARK   10  A    between atoms: C_37  and  C_38 
REMARK   11  A    between atoms: C_38  and  C_39 
REMARK   12  A    between atoms: C_39  and  C_40 
REMARK   13  A    between atoms: C_40  and  C_41 
REMARK   14  A    between atoms: C_40  and  C_42 
ROOT
ATOM      1  C   LIG d   1      10.199  -7.447  -4.752  0.00  0.00     0.091 C 
ATOM      2  H   LIG d   1       9.203  -7.567  -5.178  0.00  0.00     0.062 H 
ATOM      3  C   LIG d   1      10.081  -6.920  -3.322  0.00  0.00    -0.023 C 
ATOM      4  C   LIG d   1       9.318  -5.598  -3.303  0.00  0.00    -0.041 C 
ATOM      5  C   LIG d   1      10.031  -4.542  -4.152  0.00  0.00    -0.008 C 
ATOM      6  C   LIG d   1       9.250  -3.246  -4.156  0.00  0.00    -0.029 C 
ATOM      7  H   LIG d   1       9.642  -2.639  -3.323  0.00  0.00     0.031 H 
ATOM      8  C   LIG d   1       7.765  -3.448  -3.885  0.00  0.00    -0.049 C 
ATOM      9  C   LIG d   1       7.063  -2.087  -3.713  0.00  0.00    -0.047 C 
ATOM     10  C   LIG d   1       7.239  -1.285  -4.979  0.00  0.00    -0.026 C 
ATOM     11  C   LIG d   1       8.734  -1.138  -5.310  0.00  0.00    -0.032 C 
ATOM     12  H   LIG d   1       9.219  -0.571  -4.474  0.00  0.00     0.031 H 
ATOM     13  C   LIG d   1       9.481  -2.432  -5.434  0.00  0.00    -0.031 C 
ATOM     14  H   LIG d   1      10.567  -2.201  -5.495  0.00  0.00     0.031 H 
ATOM     15  C   LIG d   1       9.118  -3.277  -6.648  0.00  0.00    -0.031 C 
ATOM     16  C   LIG d   1       9.972  -4.522  -6.629  0.00  0.00    -0.084 C 
ATOM     17  C   LIG d   1      10.308  -5.102  -5.515  0.00  0.00    -0.065 C 
ATOM     18  C   LIG d   1      10.999  -6.454  -5.600  0.00  0.00    -0.003 C 
ATOM     19  C   LIG d   1       8.704  -0.184  -6.510  0.00  0.00    -0.049 C 
ATOM     20  C   LIG d   1       7.619   0.846  -6.088  0.00  0.00    -0.049 C 
ATOM     21  C   LIG d   1       6.798   0.188  -4.947  0.00  0.00    -0.033 C 
ATOM     22  H   LIG d   1       5.732   0.250  -5.169  0.00  0.00     0.031 H 
ATOM     23  H   LIG d   1      11.073  -6.799  -2.891  0.00  0.00     0.029 H 
ATOM     24  H   LIG d   1       9.534  -7.654  -2.720  0.00  0.00     0.029 H 
ATOM     25  H   LIG d   1       9.239  -5.240  -2.275  0.00  0.00     0.027 H 
ATOM     26  H   LIG d   1       8.312  -5.762  -3.700  0.00  0.00     0.027 H 
ATOM     27  H   LIG d   1       7.645  -4.010  -2.955  0.00  0.00     0.027 H 
ATOM     28  H   LIG d   1       7.311  -4.007  -4.694  0.00  0.00     0.027 H 
ATOM     29  H   LIG d   1       7.509  -1.577  -2.856  0.00  0.00     0.027 H 
ATOM     30  H   LIG d   1       6.000  -2.253  -3.520  0.00  0.00     0.027 H 
ATOM     31  H   LIG d   1       9.306  -2.728  -7.567  0.00  0.00     0.031 H 
ATOM     32  H   LIG d   1       8.086  -3.616  -6.612  0.00  0.00     0.031 H 
ATOM     33  H   LIG d   1      10.261  -4.960  -7.567  0.00  0.00     0.057 H 
ATOM     34  H   LIG d   1      12.018  -6.382  -5.227  0.00  0.00     0.034 H 
ATOM     35  H   LIG d   1      11.012  -6.791  -6.638  0.00  0.00     0.034 H 
ATOM     36  H   LIG d   1       9.670   0.312  -6.625  0.00  0.00     0.027 H 
ATOM     37  H   LIG d   1       8.430  -0.695  -7.427  0.00  0.00     0.027 H 
ATOM     38  H   LIG d   1       8.093   1.758  -5.725  0.00  0.00     0.027 H 
ATOM     39  H   LIG d   1       6.969   1.073  -6.932  0.00  0.00     0.027 H 
ENDROOT
BRANCH  21  40
ATOM     40  C   LIG d   1       7.109   0.847  -3.609  0.00  0.00    -0.041 C 
ATOM     41  H   LIG d   1       7.494   0.098  -2.916  0.00  0.00     0.030 H 
BRANCH  40  42
ATOM     42  C   LIG d   1       8.159   1.941  -3.812  0.00  0.00    -0.062 C 
ATOM     43  H   LIG d   1       8.174   2.596  -2.942  0.00  0.00     0.023 H 
ATOM     44  H   LIG d   1       9.140   1.484  -3.940  0.00  0.00     0.023 H 
ATOM     45  H   LIG d   1       7.911   2.522  -4.700  0.00  0.00     0.023 H 
ENDBRANCH  40  42
BRANCH  40  46
ATOM     46  C   LIG d   1       5.832   1.464  -3.036  0.00  0.00    -0.050 C 
ATOM     47  H   LIG d   1       6.088   2.327  -2.422  0.00  0.00     0.027 H 
ATOM     48  H   LIG d   1       5.182   1.778  -3.853  0.00  0.00     0.027 H 
BRANCH  46  49
ATOM     49  C   LIG d   1       5.105   0.425  -2.178  0.00  0.00    -0.053 C 
ATOM     50  H   LIG d   1       5.335  -0.575  -2.545  0.00  0.00     0.026 H 
ATOM     51  H   LIG d   1       5.434   0.516  -1.142  0.00  0.00     0.026 H 
BRANCH  49  52
ATOM     52  C   LIG d   1       3.596   0.664  -2.258  0.00  0.00    -0.051 C 
ATOM     53  H   LIG d   1       3.188   0.751  -1.251  0.00  0.00     0.027 H 
ATOM     54  H   LIG d   1       3.403   1.584  -2.810  0.00  0.00     0.027 H 
BRANCH  52  55
ATOM     55  C   LIG d   1       2.931  -0.512  -2.977  0.00  0.00    -0.047 C 
ATOM     56  H   LIG d   1       1.878  -0.561  -2.697  0.00  0.00     0.029 H 
BRANCH  55  57
ATOM     57  C   LIG d   1       3.047  -0.314  -4.490  0.00  0.00    -0.063 C 
ATOM     58  H   LIG d   1       4.096  -0.345  -4.782  0.00  0.00     0.023 H 
ATOM     59  H   LIG d   1       2.504  -1.108  -5.003  0.00  0.00     0.023 H 
ATOM     60  H   LIG d   1       2.623   0.652  -4.763  0.00  0.00     0.023 H 
ENDBRANCH  55  57
BRANCH  55  61
ATOM     61  C   LIG d   1       3.627  -1.814  -2.578  0.00  0.00    -0.063 C 
ATOM     62  H   LIG d   1       3.431  -2.023  -1.526  0.00  0.00     0.023 H 
ATOM     63  H   LIG d   1       3.244  -2.632  -3.187  0.00  0.00     0.023 H 
ATOM     64  H   LIG d   1       4.701  -1.715  -2.734  0.00  0.00     0.023 H 
ENDBRANCH  55  61
ENDBRANCH  52  55
ENDBRANCH  49  52
ENDBRANCH  46  49
ENDBRANCH  40  46
ENDBRANCH  21  40
BRANCH  10  65
ATOM     65  C   LIG d   1       6.433  -1.930  -6.112  0.00  0.00    -0.059 C 
ATOM     66  H   LIG d   1       5.450  -1.461  -6.174  0.00  0.00     0.024 H 
ATOM     67  H   LIG d   1       6.960  -1.792  -7.057  0.00  0.00     0.024 H 
ATOM     68  H   LIG d   1       6.315  -2.995  -5.914  0.00  0.00     0.024 H 
ENDBRANCH  10  65
BRANCH   5  69
ATOM     69  C   LIG d   1      11.384  -4.243  -3.487  0.00  0.00    -0.056 C 
ATOM     70  H   LIG d   1      12.035  -3.736  -4.199  0.00  0.00     0.024 H 
ATOM     71  H   LIG d   1      11.229  -3.603  -2.619  0.00  0.00     0.024 H 
ATOM     72  H   LIG d   1      11.849  -5.177  -3.171  0.00  0.00     0.024 H 
ENDBRANCH   5  69
BRANCH   1  73
ATOM     73  O   LIG d   1      10.867  -8.710  -4.741  0.00  0.00    -0.231 OA
BRANCH  73  74
ATOM     74  S   LIG d   1      10.012  -9.867  -5.238  0.00  0.00     0.112 S 
ATOM     75  O   LIG d   1       9.199  -9.352  -6.284  0.00  0.00    -0.142 OA
ATOM     76  O   LIG d   1      10.890 -10.968  -5.430  0.00  0.00    -0.142 OA
BRANCH  74  77
ATOM     77  C   LIG d   1       8.923 -10.312  -3.927  0.00  0.00     0.117 A 
ATOM     78  C   LIG d   1       7.572 -10.043  -4.029  0.00  0.00    -0.034 A 
ATOM     79  C   LIG d   1       6.718 -10.392  -2.999  0.00  0.00    -0.057 A 
ATOM     80  H   LIG d   1       7.183  -9.560  -4.912  0.00  0.00     0.064 H 
ATOM     81  C   LIG d   1       7.216 -11.012  -1.868  0.00  0.00    -0.050 A 
ATOM     82  H   LIG d   1       5.661 -10.182  -3.079  0.00  0.00     0.062 H 
ATOM     83  C   LIG d   1       8.567 -11.283  -1.767  0.00  0.00    -0.057 A 
ATOM     84  C   LIG d   1       9.421 -10.936  -2.798  0.00  0.00    -0.034 A 
ATOM     85  H   LIG d   1       8.957 -11.766  -0.883  0.00  0.00     0.062 H 
ATOM     86  H   LIG d   1      10.477 -11.151  -2.720  0.00  0.00     0.064 H 
BRANCH  81  87
ATOM     87  C   LIG d   1       6.285 -11.392  -0.746  0.00  0.00    -0.040 C 
ATOM     88  H   LIG d   1       5.622 -10.554  -0.524  0.00  0.00     0.028 H 
ATOM     89  H   LIG d   1       5.691 -12.257  -1.043  0.00  0.00     0.028 H 
ATOM     90  H   LIG d   1       6.867 -11.638   0.142  0.00  0.00     0.028 H 
ENDBRANCH  81  87
ENDBRANCH  74  77
ENDBRANCH  73  74
ENDBRANCH   1  73
TORSDOF 14
ENDMDL
MODEL 9
REMARK VINA RESULT:      -6.0      7.804     11.740
REMARK  14 active torsions:
REMARK  status: ('A' for Active; 'I' for Inactive)
REMARK    1  A    between atoms: C_1  and  C_2 
REMARK    2  A    between atoms: C_5  and  S_8 
REMARK    3  A    between atoms: S_8  and  O_11 
REMARK    4  A    between atoms: O_11  and  C_12 
REMARK    5  A    between atoms: C_16  and  C_44 
REMARK    6  A    between atoms: C_21  and  C_43 
REMARK    7  A    between atoms: C_32  and  C_34 
REMARK    8  A    between atoms: C_34  and  C_36 
REMARK    9  A    between atoms: C_34  and  C_37 
REMARK   10  A    between atoms: C_37  and  C_38 
REMARK   11  A    between atoms: C_38  and  C_39 
REMARK   12  A    between atoms: C_39  and  C_40 
REMARK   13  A    between atoms: C_40  and  C_41 
REMARK   14  A    between atoms: C_40  and  C_42 
ROOT
ATOM      1  C   LIG d   1       9.531   2.718  -4.690  0.00  0.00     0.091 C 
ATOM      2  H   LIG d   1       8.671   2.891  -5.336  0.00  0.00     0.062 H 
ATOM      3  C   LIG d   1       9.477   3.676  -3.500  0.00  0.00    -0.023 C 
ATOM      4  C   LIG d   1       9.442   5.124  -3.984  0.00  0.00    -0.041 C 
ATOM      5  C   LIG d   1      10.685   5.453  -4.815  0.00  0.00    -0.008 C 
ATOM      6  C   LIG d   1      10.626   6.878  -5.319  0.00  0.00    -0.029 C 
ATOM      7  H   LIG d   1      11.136   7.500  -4.566  0.00  0.00     0.031 H 
ATOM      8  C   LIG d   1       9.203   7.410  -5.429  0.00  0.00    -0.049 C 
ATOM      9  C   LIG d   1       9.218   8.915  -5.761  0.00  0.00    -0.047 C 
ATOM     10  C   LIG d   1       9.933   9.116  -7.074  0.00  0.00    -0.026 C 
ATOM     11  C   LIG d   1      11.347   8.514  -7.006  0.00  0.00    -0.032 C 
ATOM     12  H   LIG d   1      11.919   9.065  -6.216  0.00  0.00     0.031 H 
ATOM     13  C   LIG d   1      11.396   7.064  -6.632  0.00  0.00    -0.031 C 
ATOM     14  H   LIG d   1      12.457   6.789  -6.441  0.00  0.00     0.031 H 
ATOM     15  C   LIG d   1      10.851   6.104  -7.681  0.00  0.00    -0.031 C 
ATOM     16  C   LIG d   1      10.995   4.697  -7.154  0.00  0.00    -0.084 C 
ATOM     17  C   LIG d   1      10.852   4.421  -5.892  0.00  0.00    -0.065 C 
ATOM     18  C   LIG d   1      10.820   2.958  -5.484  0.00  0.00    -0.003 C 
ATOM     19  C   LIG d   1      11.946   8.952  -8.348  0.00  0.00    -0.049 C 
ATOM     20  C   LIG d   1      11.436  10.415  -8.478  0.00  0.00    -0.049 C 
ATOM     21  C   LIG d   1      10.248  10.563  -7.490  0.00  0.00    -0.033 C 
ATOM     22  H   LIG d   1       9.384  10.986  -8.004  0.00  0.00     0.031 H 
ATOM     23  H   LIG d   1      10.334   3.507  -2.852  0.00  0.00     0.029 H 
ATOM     24  H   LIG d   1       8.567   3.472  -2.926  0.00  0.00     0.029 H 
ATOM     25  H   LIG d   1       9.399   5.792  -3.122  0.00  0.00     0.027 H 
ATOM     26  H   LIG d   1       8.548   5.273  -4.595  0.00  0.00     0.027 H 
ATOM     27  H   LIG d   1       8.699   7.280  -4.467  0.00  0.00     0.027 H 
ATOM     28  H   LIG d   1       8.657   6.861  -6.188  0.00  0.00     0.027 H 
ATOM     29  H   LIG d   1       9.726   9.439  -4.949  0.00  0.00     0.027 H 
ATOM     30  H   LIG d   1       8.189   9.277  -5.835  0.00  0.00     0.027 H 
ATOM     31  H   LIG d   1      11.406   6.197  -8.611  0.00  0.00     0.031 H 
ATOM     32  H   LIG d   1       9.789   6.255  -7.856  0.00  0.00     0.031 H 
ATOM     33  H   LIG d   1      11.170   3.901  -7.856  0.00  0.00     0.057 H 
ATOM     34  H   LIG d   1      11.684   2.717  -4.871  0.00  0.00     0.034 H 
ATOM     35  H   LIG d   1      10.818   2.331  -6.377  0.00  0.00     0.034 H 
ATOM     36  H   LIG d   1      13.037   8.936  -8.300  0.00  0.00     0.027 H 
ATOM     37  H   LIG d   1      11.595   8.336  -9.169  0.00  0.00     0.027 H 
ATOM     38  H   LIG d   1      12.230  11.111  -8.209  0.00  0.00     0.027 H 
ATOM     39  H   LIG d   1      11.100  10.605  -9.497  0.00  0.00     0.027 H 
ENDROOT
BRANCH  21  40
ATOM     40  C   LIG d   1      10.642  11.425  -6.298  0.00  0.00    -0.041 C 
ATOM     41  H   LIG d   1      10.745  10.797  -5.414  0.00  0.00     0.030 H 
BRANCH  40  42
ATOM     42  C   LIG d   1      11.974  12.119  -6.589  0.00  0.00    -0.062 C 
ATOM     43  H   LIG d   1      11.837  13.199  -6.551  0.00  0.00     0.023 H 
ATOM     44  H   LIG d   1      12.710  11.819  -5.844  0.00  0.00     0.023 H 
ATOM     45  H   LIG d   1      12.323  11.832  -7.581  0.00  0.00     0.023 H 
ENDBRANCH  40  42
BRANCH  40  46
ATOM     46  C   LIG d   1       9.559  12.478  -6.052  0.00  0.00    -0.050 C 
ATOM     47  H   LIG d   1       9.744  13.345  -6.688  0.00  0.00     0.027 H 
ATOM     48  H   LIG d   1       8.582  12.057  -6.286  0.00  0.00     0.027 H 
BRANCH  46  49
ATOM     49  C   LIG d   1       9.591  12.908  -4.584  0.00  0.00    -0.053 C 
ATOM     50  H   LIG d   1      10.626  13.023  -4.261  0.00  0.00     0.026 H 
ATOM     51  H   LIG d   1       9.068  13.858  -4.471  0.00  0.00     0.026 H 
BRANCH  49  52
ATOM     52  C   LIG d   1       8.905  11.842  -3.726  0.00  0.00    -0.051 C 
ATOM     53  H   LIG d   1       7.945  12.221  -3.376  0.00  0.00     0.027 H 
ATOM     54  H   LIG d   1       8.746  10.944  -4.322  0.00  0.00     0.027 H 
BRANCH  52  55
ATOM     55  C   LIG d   1       9.790  11.507  -2.524  0.00  0.00    -0.047 C 
ATOM     56  H   LIG d   1       9.279  11.790  -1.604  0.00  0.00     0.029 H 
BRANCH  55  57
ATOM     57  C   LIG d   1      10.075  10.002  -2.506  0.00  0.00    -0.063 C 
ATOM     58  H   LIG d   1      11.107   9.824  -2.804  0.00  0.00     0.023 H 
ATOM     59  H   LIG d   1       9.915   9.615  -1.500  0.00  0.00     0.023 H 
ATOM     60  H   LIG d   1       9.403   9.498  -3.201  0.00  0.00     0.023 H 
ENDBRANCH  55  57
BRANCH  55  61
ATOM     61  C   LIG d   1      11.109  12.274  -2.631  0.00  0.00    -0.063 C 
ATOM     62  H   LIG d   1      11.907  11.690  -2.172  0.00  0.00     0.023 H 
ATOM     63  H   LIG d   1      11.344  12.447  -3.681  0.00  0.00     0.023 H 
ATOM     64  H   LIG d   1      11.017  13.230  -2.117  0.00  0.00     0.023 H 
ENDBRANCH  55  61
ENDBRANCH  52  55
ENDBRANCH  49  52
ENDBRANCH  46  49
ENDBRANCH  40  46
ENDBRANCH  21  40
BRANCH  10  65
ATOM     65  C   LIG d   1       9.087   8.537  -8.214  0.00  0.00    -0.059 C 
ATOM     66  H   LIG d   1       9.102   7.447  -8.162  0.00  0.00     0.024 H 
ATOM     67  H   LIG d   1       8.061   8.890  -8.122  0.00  0.00     0.024 H 
ATOM     68  H   LIG d   1       9.498   8.860  -9.171  0.00  0.00     0.024 H 
ENDBRANCH  10  65
BRANCH   5  69
ATOM     69  C   LIG d   1      11.907   5.360  -3.888  0.00  0.00    -0.056 C 
ATOM     70  H   LIG d   1      12.279   4.336  -3.878  0.00  0.00     0.024 H 
ATOM     71  H   LIG d   1      12.689   6.027  -4.250  0.00  0.00     0.024 H 
ATOM     72  H   LIG d   1      11.620   5.652  -2.878  0.00  0.00     0.024 H 
ENDBRANCH   5  69
BRANCH   1  73
ATOM     73  O   LIG d   1       9.507   1.369  -4.218  0.00  0.00    -0.231 OA
BRANCH  73  74
ATOM     74  S   LIG d   1       8.763   0.406  -5.132  0.00  0.00     0.112 S 
ATOM     75  O   LIG d   1       8.217   1.187  -6.187  0.00  0.00    -0.142 OA
ATOM     76  O   LIG d   1       9.639  -0.688  -5.369  0.00  0.00    -0.142 OA
BRANCH  74  77
ATOM     77  C   LIG d   1       7.397  -0.230  -4.219  0.00  0.00     0.117 A 
ATOM     78  C   LIG d   1       7.128  -1.585  -4.233  0.00  0.00    -0.034 A 
ATOM     79  C   LIG d   1       6.056  -2.084  -3.516  0.00  0.00    -0.057 A 
ATOM     80  H   LIG d   1       7.754  -2.254  -4.803  0.00  0.00     0.064 H 
ATOM     81  C   LIG d   1       5.255  -1.227  -2.785  0.00  0.00    -0.050 A 
ATOM     82  H   LIG d   1       5.846  -3.144  -3.527  0.00  0.00     0.062 H 
ATOM     83  C   LIG d   1       5.525   0.127  -2.770  0.00  0.00    -0.057 A 
ATOM     84  C   LIG d   1       6.599   0.626  -3.484  0.00  0.00    -0.034 A 
ATOM     85  H   LIG d   1       4.898   0.798  -2.199  0.00  0.00     0.062 H 
ATOM     86  H   LIG d   1       6.811   1.685  -3.469  0.00  0.00     0.064 H 
BRANCH  81  87
ATOM     87  C   LIG d   1       4.086  -1.772  -2.005  0.00  0.00    -0.040 C 
ATOM     88  H   LIG d   1       3.337  -2.162  -2.696  0.00  0.00     0.028 H 
ATOM     89  H   LIG d   1       4.428  -2.573  -1.349  0.00  0.00     0.028 H 
ATOM     90  H   LIG d   1       3.646  -0.975  -1.406  0.00  0.00     0.028 H 
ENDBRANCH  81  87
ENDBRANCH  74  77
ENDBRANCH  73  74
ENDBRANCH   1  73
TORSDOF 14
ENDMDL
