MODEL 1
REMARK VINA RESULT:      -7.7      0.000      0.000
REMARK  8 active torsions:
REMARK  status: ('A' for Active; 'I' for Inactive)
REMARK    1  A    between atoms: C_1  and  O_2 
REMARK    2  A    between atoms: O_2  and  C_3 
REMARK    3  A    between atoms: C_6  and  C_11 
REMARK    4  A    between atoms: C_7  and  O_9 
REMARK    5  A    between atoms: O_9  and  C_10 
REMARK    6  A    between atoms: N_30  and  C_33 
REMARK    7  A    between atoms: C_33  and  C_34 
REMARK    8  A    between atoms: C_34  and  C_35 
ROOT
ATOM      1  C   LIG d   1      11.412   3.709  -4.274  0.00  0.00     0.096 C 
ATOM      2  H   LIG d   1      11.495   4.184  -5.251  0.00  0.00     0.062 H 
ATOM      3  C   LIG d   1      12.736   3.090  -3.887  0.00  0.00     0.046 A 
ATOM      4  C   LIG d   1      12.964   1.760  -3.876  0.00  0.00    -0.015 A 
ATOM      5  C   LIG d   1      14.339   1.568  -3.461  0.00  0.00     0.003 A 
ATOM      6  C   LIG d   1      15.121   0.424  -3.273  0.00  0.00    -0.052 A 
ATOM      7  C   LIG d   1      16.417   0.619  -2.863  0.00  0.00    -0.061 A 
ATOM      8  C   LIG d   1      16.936   1.884  -2.643  0.00  0.00    -0.060 A 
ATOM      9  C   LIG d   1      16.185   3.033  -2.822  0.00  0.00    -0.038 A 
ATOM     10  C   LIG d   1      14.866   2.865  -3.238  0.00  0.00     0.047 A 
ATOM     11  N   LIG d   1      13.869   3.759  -3.506  0.00  0.00    -0.356 N 
ATOM     12  H   LIG d   1      13.951   4.723  -3.436  0.00  0.00     0.166 HD
ATOM     13  C   LIG d   1      11.942   0.712  -4.236  0.00  0.00     0.002 C 
ATOM     14  C   LIG d   1      10.796   1.380  -5.008  0.00  0.00     0.107 A 
ATOM     15  H   LIG d   1      11.155   1.624  -6.008  0.00  0.00     0.060 H 
ATOM     16  N   LIG d   1      10.416   2.617  -4.328  0.00  0.00    -0.276 N 
ATOM     17  C   LIG d   1       9.221   2.803  -3.765  0.00  0.00     0.234 A 
ATOM     18  O   LIG d   1       9.032   3.842  -3.168  0.00  0.00    -0.274 OA
ATOM     19  C   LIG d   1       8.100   1.816  -3.818  0.00  0.00     0.091 A 
ATOM     20  N   LIG d   1       8.449   0.633  -4.587  0.00  0.00    -0.291 N 
ATOM     21  C   LIG d   1       9.649   0.429  -5.126  0.00  0.00     0.237 A 
ATOM     22  O   LIG d   1       9.822  -0.595  -5.753  0.00  0.00    -0.274 OA
ATOM     23  H   LIG d   1      14.724  -0.566  -3.443  0.00  0.00     0.062 H 
ATOM     24  H   LIG d   1      17.051  -0.241  -2.707  0.00  0.00     0.062 H 
ATOM     25  H   LIG d   1      17.962   1.978  -2.319  0.00  0.00     0.062 H 
ATOM     26  H   LIG d   1      16.602   4.014  -2.648  0.00  0.00     0.064 H 
ATOM     27  H   LIG d   1      11.551   0.255  -3.326  0.00  0.00     0.034 H 
ATOM     28  H   LIG d   1      12.405  -0.054  -4.859  0.00  0.00     0.034 H 
ATOM     29  H   LIG d   1       7.231   2.292  -4.274  0.00  0.00     0.056 H 
ATOM     30  H   LIG d   1       7.843   1.516  -2.801  0.00  0.00     0.056 H 
ENDROOT
BRANCH  20  31
ATOM     31  C   LIG d   1       7.422  -0.393  -4.779  0.00  0.00     0.019 C 
ATOM     32  H   LIG d   1       6.498   0.076  -5.117  0.00  0.00     0.047 H 
ATOM     33  H   LIG d   1       7.760  -1.110  -5.527  0.00  0.00     0.047 H 
BRANCH  31  34
ATOM     34  C   LIG d   1       7.171  -1.117  -3.455  0.00  0.00    -0.016 C 
ATOM     35  H   LIG d   1       7.425  -2.172  -3.564  0.00  0.00     0.033 H 
ATOM     36  H   LIG d   1       7.790  -0.674  -2.674  0.00  0.00     0.033 H 
BRANCH  34  37
ATOM     37  C   LIG d   1       5.719  -0.987  -3.077  0.00  0.00    -0.072 C 
ATOM     38  C   LIG d   1       4.821  -2.166  -3.312  0.00  0.00    -0.032 C 
ATOM     39  C   LIG d   1       3.532  -2.017  -2.497  0.00  0.00    -0.049 C 
ATOM     40  H   LIG d   1       4.576  -2.228  -4.372  0.00  0.00     0.031 H 
ATOM     41  H   LIG d   1       5.335  -3.078  -3.007  0.00  0.00     0.031 H 
ATOM     42  C   LIG d   1       2.960  -0.616  -2.754  0.00  0.00    -0.049 C 
ATOM     43  H   LIG d   1       3.750  -2.135  -1.436  0.00  0.00     0.027 H 
ATOM     44  H   LIG d   1       2.811  -2.771  -2.813  0.00  0.00     0.027 H 
ATOM     45  C   LIG d   1       3.911   0.414  -2.141  0.00  0.00    -0.035 C 
ATOM     46  H   LIG d   1       1.978  -0.531  -2.288  0.00  0.00     0.027 H 
ATOM     47  H   LIG d   1       2.873  -0.443  -3.826  0.00  0.00     0.027 H 
ATOM     48  C   LIG d   1       5.321   0.138  -2.574  0.00  0.00    -0.085 C 
ATOM     49  H   LIG d   1       3.849   0.361  -1.054  0.00  0.00     0.031 H 
ATOM     50  H   LIG d   1       3.619   1.411  -2.471  0.00  0.00     0.031 H 
ATOM     51  H   LIG d   1       6.049   0.926  -2.458  0.00  0.00     0.057 H 
ENDBRANCH  34  37
ENDBRANCH  31  34
ENDBRANCH  20  31
BRANCH   1  52
ATOM     52  C   LIG d   1      11.001   4.726  -3.241  0.00  0.00     0.021 A 
ATOM     53  C   LIG d   1      11.151   4.445  -1.897  0.00  0.00    -0.050 A 
ATOM     54  C   LIG d   1      10.781   5.379  -0.948  0.00  0.00    -0.019 A 
ATOM     55  H   LIG d   1      11.563   3.496  -1.587  0.00  0.00     0.062 H 
ATOM     56  C   LIG d   1      10.246   6.597  -1.343  0.00  0.00     0.124 A 
ATOM     57  H   LIG d   1      10.903   5.159   0.102  0.00  0.00     0.065 H 
ATOM     58  C   LIG d   1      10.089   6.879  -2.692  0.00  0.00     0.022 A 
ATOM     59  C   LIG d   1      10.467   5.943  -3.641  0.00  0.00     0.129 A 
ATOM     60  H   LIG d   1       9.673   7.826  -3.001  0.00  0.00     0.069 H 
BRANCH  56  61
ATOM     61  O   LIG d   1       9.876   7.513  -0.409  0.00  0.00    -0.495 OA
BRANCH  61  62
ATOM     62  C   LIG d   1       9.163   8.660  -0.873  0.00  0.00     0.079 C 
ATOM     63  H   LIG d   1       8.113   8.403  -1.015  0.00  0.00     0.066 H 
ATOM     64  H   LIG d   1       9.244   9.460  -0.138  0.00  0.00     0.066 H 
ATOM     65  H   LIG d   1       9.587   8.993  -1.820  0.00  0.00     0.066 H 
ENDBRANCH  61  62
ENDBRANCH  56  61
BRANCH  59  66
ATOM     66  O   LIG d   1      10.314   6.217  -4.964  0.00  0.00    -0.495 OA
BRANCH  66  67
ATOM     67  C   LIG d   1       9.395   7.255  -5.310  0.00  0.00     0.079 C 
ATOM     68  H   LIG d   1       9.568   7.565  -6.340  0.00  0.00     0.066 H 
ATOM     69  H   LIG d   1       8.374   6.884  -5.209  0.00  0.00     0.066 H 
ATOM     70  H   LIG d   1       9.540   8.106  -4.644  0.00  0.00     0.066 H 
ENDBRANCH  66  67
ENDBRANCH  59  66
ENDBRANCH   1  52
TORSDOF 8
ENDMDL
MODEL 2
REMARK VINA RESULT:      -7.3      3.691      6.892
REMARK  8 active torsions:
REMARK  status: ('A' for Active; 'I' for Inactive)
REMARK    1  A    between atoms: C_1  and  O_2 
REMARK    2  A    between atoms: O_2  and  C_3 
REMARK    3  A    between atoms: C_6  and  C_11 
REMARK    4  A    between atoms: C_7  and  O_9 
REMARK    5  A    between atoms: O_9  and  C_10 
REMARK    6  A    between atoms: N_30  and  C_33 
REMARK    7  A    between atoms: C_33  and  C_34 
REMARK    8  A    between atoms: C_34  and  C_35 
ROOT
ATOM      1  C   LIG d   1      10.877   5.723  -7.099  0.00  0.00     0.096 C 
ATOM      2  H   LIG d   1      11.949   5.550  -7.003  0.00  0.00     0.062 H 
ATOM      3  C   LIG d   1      10.537   7.121  -6.633  0.00  0.00     0.046 A 
ATOM      4  C   LIG d   1       9.895   7.386  -5.476  0.00  0.00    -0.015 A 
ATOM      5  C   LIG d   1       9.763   8.827  -5.384  0.00  0.00     0.003 A 
ATOM      6  C   LIG d   1       9.195   9.666  -4.422  0.00  0.00    -0.052 A 
ATOM      7  C   LIG d   1       9.248  11.016  -4.667  0.00  0.00    -0.061 A 
ATOM      8  C   LIG d   1       9.834  11.533  -5.811  0.00  0.00    -0.060 A 
ATOM      9  C   LIG d   1      10.404  10.726  -6.779  0.00  0.00    -0.038 A 
ATOM     10  C   LIG d   1      10.364   9.351  -6.557  0.00  0.00     0.047 A 
ATOM     11  N   LIG d   1      10.822   8.291  -7.286  0.00  0.00    -0.356 N 
ATOM     12  H   LIG d   1      11.279   8.357  -8.139  0.00  0.00     0.166 HD
ATOM     13  C   LIG d   1       9.423   6.341  -4.498  0.00  0.00     0.002 C 
ATOM     14  C   LIG d   1      10.147   5.020  -4.794  0.00  0.00     0.107 A 
ATOM     15  H   LIG d   1      11.181   5.116  -4.461  0.00  0.00     0.060 H 
ATOM     16  N   LIG d   1      10.136   4.779  -6.236  0.00  0.00    -0.276 N 
ATOM     17  C   LIG d   1       9.496   3.753  -6.800  0.00  0.00     0.234 A 
ATOM     18  O   LIG d   1       9.495   3.683  -8.010  0.00  0.00    -0.274 OA
ATOM     19  C   LIG d   1       8.780   2.685  -6.039  0.00  0.00     0.091 A 
ATOM     20  N   LIG d   1       8.885   2.872  -4.602  0.00  0.00    -0.291 N 
ATOM     21  C   LIG d   1       9.497   3.910  -4.035  0.00  0.00     0.237 A 
ATOM     22  O   LIG d   1       9.527   3.956  -2.823  0.00  0.00    -0.274 OA
ATOM     23  H   LIG d   1       8.736   9.271  -3.526  0.00  0.00     0.062 H 
ATOM     24  H   LIG d   1       8.819  11.696  -3.946  0.00  0.00     0.062 H 
ATOM     25  H   LIG d   1       9.846  12.604  -5.952  0.00  0.00     0.062 H 
ATOM     26  H   LIG d   1      10.859  11.142  -7.666  0.00  0.00     0.064 H 
ATOM     27  H   LIG d   1       8.347   6.199  -4.606  0.00  0.00     0.034 H 
ATOM     28  H   LIG d   1       9.648   6.661  -3.480  0.00  0.00     0.034 H 
ATOM     29  H   LIG d   1       9.206   1.716  -6.303  0.00  0.00     0.056 H 
ATOM     30  H   LIG d   1       7.726   2.694  -6.321  0.00  0.00     0.056 H 
ENDROOT
BRANCH  20  31
ATOM     31  C   LIG d   1       8.285   1.862  -3.728  0.00  0.00     0.019 C 
ATOM     32  H   LIG d   1       9.068   1.229  -3.311  0.00  0.00     0.047 H 
ATOM     33  H   LIG d   1       7.748   2.356  -2.917  0.00  0.00     0.047 H 
BRANCH  31  34
ATOM     34  C   LIG d   1       7.310   1.003  -4.536  0.00  0.00    -0.016 C 
ATOM     35  H   LIG d   1       6.846   1.612  -5.311  0.00  0.00     0.033 H 
ATOM     36  H   LIG d   1       7.851   0.177  -4.999  0.00  0.00     0.033 H 
BRANCH  34  37
ATOM     37  C   LIG d   1       6.246   0.455  -3.622  0.00  0.00    -0.072 C 
ATOM     38  C   LIG d   1       5.917  -1.006  -3.720  0.00  0.00    -0.032 C 
ATOM     39  C   LIG d   1       5.160  -1.460  -2.468  0.00  0.00    -0.049 C 
ATOM     40  H   LIG d   1       5.298  -1.178  -4.602  0.00  0.00     0.031 H 
ATOM     41  H   LIG d   1       6.839  -1.579  -3.811  0.00  0.00     0.031 H 
ATOM     42  C   LIG d   1       4.007  -0.479  -2.219  0.00  0.00    -0.049 C 
ATOM     43  H   LIG d   1       5.832  -1.461  -1.610  0.00  0.00     0.027 H 
ATOM     44  H   LIG d   1       4.761  -2.463  -2.626  0.00  0.00     0.027 H 
ATOM     45  C   LIG d   1       4.600   0.875  -1.827  0.00  0.00    -0.035 C 
ATOM     46  H   LIG d   1       3.377  -0.852  -1.411  0.00  0.00     0.027 H 
ATOM     47  H   LIG d   1       3.412  -0.370  -3.127  0.00  0.00     0.027 H 
ATOM     48  C   LIG d   1       5.668   1.274  -2.802  0.00  0.00    -0.085 C 
ATOM     49  H   LIG d   1       5.032   0.805  -0.827  0.00  0.00     0.031 H 
ATOM     50  H   LIG d   1       3.811   1.626  -1.827  0.00  0.00     0.031 H 
ATOM     51  H   LIG d   1       5.975   2.309  -2.822  0.00  0.00     0.057 H 
ENDBRANCH  34  37
ENDBRANCH  31  34
ENDBRANCH  20  31
BRANCH   1  52
ATOM     52  C   LIG d   1      10.454   5.545  -8.535  0.00  0.00     0.021 A 
ATOM     53  C   LIG d   1       9.224   6.014  -8.956  0.00  0.00    -0.050 A 
ATOM     54  C   LIG d   1       8.836   5.858 -10.272  0.00  0.00    -0.019 A 
ATOM     55  H   LIG d   1       8.567   6.508  -8.255  0.00  0.00     0.062 H 
ATOM     56  C   LIG d   1       9.677   5.218 -11.173  0.00  0.00     0.124 A 
ATOM     57  H   LIG d   1       7.877   6.229 -10.599  0.00  0.00     0.065 H 
ATOM     58  C   LIG d   1      10.909   4.742 -10.752  0.00  0.00     0.022 A 
ATOM     59  C   LIG d   1      11.298   4.906  -9.432  0.00  0.00     0.129 A 
ATOM     60  H   LIG d   1      11.564   4.245 -11.452  0.00  0.00     0.069 H 
BRANCH  56  61
ATOM     61  O   LIG d   1       9.292   5.059 -12.467  0.00  0.00    -0.495 OA
BRANCH  61  62
ATOM     62  C   LIG d   1       8.916   6.238 -13.181  0.00  0.00     0.079 C 
ATOM     63  H   LIG d   1       9.745   6.946 -13.176  0.00  0.00     0.066 H 
ATOM     64  H   LIG d   1       8.668   5.977 -14.209  0.00  0.00     0.066 H 
ATOM     65  H   LIG d   1       8.048   6.692 -12.702  0.00  0.00     0.066 H 
ENDBRANCH  61  62
ENDBRANCH  56  61
BRANCH  59  66
ATOM     66  O   LIG d   1      12.505   4.440  -9.017  0.00  0.00    -0.495 OA
BRANCH  66  67
ATOM     67  C   LIG d   1      12.798   3.068  -9.283  0.00  0.00     0.079 C 
ATOM     68  H   LIG d   1      11.878   2.542  -9.537  0.00  0.00     0.066 H 
ATOM     69  H   LIG d   1      13.497   3.001 -10.118  0.00  0.00     0.066 H 
ATOM     70  H   LIG d   1      13.245   2.613  -8.398  0.00  0.00     0.066 H 
ENDBRANCH  66  67
ENDBRANCH  59  66
ENDBRANCH   1  52
TORSDOF 8
ENDMDL
MODEL 3
REMARK VINA RESULT:      -7.0      3.140      5.997
REMARK  8 active torsions:
REMARK  status: ('A' for Active; 'I' for Inactive)
REMARK    1  A    between atoms: C_1  and  O_2 
REMARK    2  A    between atoms: O_2  and  C_3 
REMARK    3  A    between atoms: C_6  and  C_11 
REMARK    4  A    between atoms: C_7  and  O_9 
REMARK    5  A    between atoms: O_9  and  C_10 
REMARK    6  A    between atoms: N_30  and  C_33 
REMARK    7  A    between atoms: C_33  and  C_34 
REMARK    8  A    between atoms: C_34  and  C_35 
ROOT
ATOM      1  C   LIG d   1      11.205   6.521  -5.131  0.00  0.00     0.096 C 
ATOM      2  H   LIG d   1      12.282   6.361  -5.111  0.00  0.00     0.062 H 
ATOM      3  C   LIG d   1      10.808   7.493  -4.043  0.00  0.00     0.046 A 
ATOM      4  C   LIG d   1      10.154   7.129  -2.919  0.00  0.00    -0.015 A 
ATOM      5  C   LIG d   1       9.963   8.331  -2.131  0.00  0.00     0.003 A 
ATOM      6  C   LIG d   1       9.361   8.565  -0.891  0.00  0.00    -0.052 A 
ATOM      7  C   LIG d   1       9.360   9.860  -0.437  0.00  0.00    -0.061 A 
ATOM      8  C   LIG d   1       9.925  10.895  -1.164  0.00  0.00    -0.060 A 
ATOM      9  C   LIG d   1      10.528  10.692  -2.393  0.00  0.00    -0.038 A 
ATOM     10  C   LIG d   1      10.544   9.386  -2.879  0.00  0.00     0.047 A 
ATOM     11  N   LIG d   1      11.044   8.842  -4.027  0.00  0.00    -0.356 N 
ATOM     12  H   LIG d   1      11.499   9.337  -4.727  0.00  0.00     0.166 HD
ATOM     13  C   LIG d   1       9.725   5.722  -2.594  0.00  0.00     0.002 C 
ATOM     14  C   LIG d   1      10.502   4.746  -3.488  0.00  0.00     0.107 A 
ATOM     15  H   LIG d   1      11.531   4.701  -3.130  0.00  0.00     0.060 H 
ATOM     16  N   LIG d   1      10.501   5.249  -4.861  0.00  0.00    -0.276 N 
ATOM     17  C   LIG d   1       9.904   4.613  -5.871  0.00  0.00     0.234 A 
ATOM     18  O   LIG d   1       9.907   5.150  -6.958  0.00  0.00    -0.274 OA
ATOM     19  C   LIG d   1       9.232   3.284  -5.752  0.00  0.00     0.091 A 
ATOM     20  N   LIG d   1       9.329   2.741  -4.407  0.00  0.00    -0.291 N 
ATOM     21  C   LIG d   1       9.898   3.383  -3.390  0.00  0.00     0.237 A 
ATOM     22  O   LIG d   1       9.925   2.826  -2.312  0.00  0.00    -0.274 OA
ATOM     23  H   LIG d   1       8.919   7.763  -0.317  0.00  0.00     0.062 H 
ATOM     24  H   LIG d   1       8.903  10.080   0.517  0.00  0.00     0.062 H 
ATOM     25  H   LIG d   1       9.893  11.896  -0.758  0.00  0.00     0.062 H 
ATOM     26  H   LIG d   1      10.966  11.508  -2.949  0.00  0.00     0.064 H 
ATOM     27  H   LIG d   1       8.655   5.614  -2.780  0.00  0.00     0.034 H 
ATOM     28  H   LIG d   1       9.936   5.505  -1.546  0.00  0.00     0.034 H 
ATOM     29  H   LIG d   1       9.697   2.588  -6.450  0.00  0.00     0.056 H 
ATOM     30  H   LIG d   1       8.179   3.394  -6.014  0.00  0.00     0.056 H 
ENDROOT
BRANCH  20  31
ATOM     31  C   LIG d   1       8.770   1.411  -4.158  0.00  0.00     0.019 C 
ATOM     32  H   LIG d   1       9.408   0.655  -4.617  0.00  0.00     0.047 H 
ATOM     33  H   LIG d   1       8.714   1.234  -3.084  0.00  0.00     0.047 H 
BRANCH  31  34
ATOM     34  C   LIG d   1       7.366   1.326  -4.762  0.00  0.00    -0.016 C 
ATOM     35  H   LIG d   1       6.978   2.332  -4.921  0.00  0.00     0.033 H 
ATOM     36  H   LIG d   1       7.411   0.799  -5.715  0.00  0.00     0.033 H 
BRANCH  34  37
ATOM     37  C   LIG d   1       6.458   0.580  -3.820  0.00  0.00    -0.072 C 
ATOM     38  C   LIG d   1       6.374  -0.912  -3.956  0.00  0.00    -0.032 C 
ATOM     39  C   LIG d   1       5.771  -1.523  -2.687  0.00  0.00    -0.049 C 
ATOM     40  H   LIG d   1       5.749  -1.162  -4.813  0.00  0.00     0.031 H 
ATOM     41  H   LIG d   1       7.374  -1.317  -4.109  0.00  0.00     0.031 H 
ATOM     42  C   LIG d   1       4.483  -0.759  -2.350  0.00  0.00    -0.049 C 
ATOM     43  H   LIG d   1       6.476  -1.433  -1.862  0.00  0.00     0.027 H 
ATOM     44  H   LIG d   1       5.538  -2.574  -2.862  0.00  0.00     0.027 H 
ATOM     45  C   LIG d   1       4.860   0.665  -1.937  0.00  0.00    -0.035 C 
ATOM     46  H   LIG d   1       3.967  -1.255  -1.528  0.00  0.00     0.027 H 
ATOM     47  H   LIG d   1       3.833  -0.727  -3.225  0.00  0.00     0.027 H 
ATOM     48  C   LIG d   1       5.793   1.267  -2.946  0.00  0.00    -0.085 C 
ATOM     49  H   LIG d   1       5.347   0.641  -0.962  0.00  0.00     0.031 H 
ATOM     50  H   LIG d   1       3.956   1.271  -1.874  0.00  0.00     0.031 H 
ATOM     51  H   LIG d   1       5.920   2.339  -2.942  0.00  0.00     0.057 H 
ENDBRANCH  34  37
ENDBRANCH  31  34
ENDBRANCH  20  31
BRANCH   1  52
ATOM     52  C   LIG d   1      10.790   7.061  -6.475  0.00  0.00     0.021 A 
ATOM     53  C   LIG d   1       9.543   7.635  -6.634  0.00  0.00    -0.050 A 
ATOM     54  C   LIG d   1       9.162   8.136  -7.864  0.00  0.00    -0.019 A 
ATOM     55  H   LIG d   1       8.866   7.697  -5.795  0.00  0.00     0.062 H 
ATOM     56  C   LIG d   1      10.027   8.053  -8.946  0.00  0.00     0.124 A 
ATOM     57  H   LIG d   1       8.189   8.588  -7.985  0.00  0.00     0.065 H 
ATOM     58  C   LIG d   1      11.277   7.472  -8.791  0.00  0.00     0.022 A 
ATOM     59  C   LIG d   1      11.658   6.976  -7.554  0.00  0.00     0.129 A 
ATOM     60  H   LIG d   1      11.951   7.407  -9.632  0.00  0.00     0.069 H 
BRANCH  56  61
ATOM     61  O   LIG d   1       9.650   8.540 -10.158  0.00  0.00    -0.495 OA
BRANCH  61  62
ATOM     62  C   LIG d   1      10.445   8.165 -11.284  0.00  0.00     0.079 C 
ATOM     63  H   LIG d   1      11.373   7.708 -10.938  0.00  0.00     0.066 H 
ATOM     64  H   LIG d   1       9.895   7.450 -11.895  0.00  0.00     0.066 H 
ATOM     65  H   LIG d   1      10.675   9.049 -11.878  0.00  0.00     0.066 H 
ENDBRANCH  61  62
ENDBRANCH  56  61
BRANCH  59  66
ATOM     66  O   LIG d   1      12.882   6.406  -7.399  0.00  0.00    -0.495 OA
BRANCH  66  67
ATOM     67  C   LIG d   1      13.182   5.277  -8.221  0.00  0.00     0.079 C 
ATOM     68  H   LIG d   1      13.952   5.548  -8.943  0.00  0.00     0.066 H 
ATOM     69  H   LIG d   1      13.542   4.458  -7.597  0.00  0.00     0.066 H 
ATOM     70  H   LIG d   1      12.281   4.963  -8.750  0.00  0.00     0.066 H 
ENDBRANCH  66  67
ENDBRANCH  59  66
ENDBRANCH   1  52
TORSDOF 8
ENDMDL
MODEL 4
REMARK VINA RESULT:      -7.0      5.049      9.317
REMARK  8 active torsions:
REMARK  status: ('A' for Active; 'I' for Inactive)
REMARK    1  A    between atoms: C_1  and  O_2 
REMARK    2  A    between atoms: O_2  and  C_3 
REMARK    3  A    between atoms: C_6  and  C_11 
REMARK    4  A    between atoms: C_7  and  O_9 
REMARK    5  A    between atoms: O_9  and  C_10 
REMARK    6  A    between atoms: N_30  and  C_33 
REMARK    7  A    between atoms: C_33  and  C_34 
REMARK    8  A    between atoms: C_34  and  C_35 
ROOT
ATOM      1  C   LIG d   1       5.270  -1.669  -5.069  0.00  0.00     0.096 C 
ATOM      2  H   LIG d   1       4.599  -1.754  -4.214  0.00  0.00     0.062 H 
ATOM      3  C   LIG d   1       4.468  -1.490  -6.338  0.00  0.00     0.046 A 
ATOM      4  C   LIG d   1       4.327  -2.453  -7.274  0.00  0.00    -0.015 A 
ATOM      5  C   LIG d   1       3.491  -1.905  -8.324  0.00  0.00     0.003 A 
ATOM      6  C   LIG d   1       3.013  -2.434  -9.526  0.00  0.00    -0.052 A 
ATOM      7  C   LIG d   1       2.227  -1.612 -10.296  0.00  0.00    -0.061 A 
ATOM      8  C   LIG d   1       1.917  -0.319  -9.910  0.00  0.00    -0.060 A 
ATOM      9  C   LIG d   1       2.376   0.230  -8.725  0.00  0.00    -0.038 A 
ATOM     10  C   LIG d   1       3.176  -0.582  -7.923  0.00  0.00     0.047 A 
ATOM     11  N   LIG d   1       3.782  -0.367  -6.719  0.00  0.00    -0.356 N 
ATOM     12  H   LIG d   1       3.735   0.457  -6.210  0.00  0.00     0.166 HD
ATOM     13  C   LIG d   1       4.947  -3.824  -7.194  0.00  0.00     0.002 C 
ATOM     14  C   LIG d   1       5.373  -4.093  -5.743  0.00  0.00     0.107 A 
ATOM     15  H   LIG d   1       4.474  -4.273  -5.152  0.00  0.00     0.060 H 
ATOM     16  N   LIG d   1       6.056  -2.913  -5.217  0.00  0.00    -0.276 N 
ATOM     17  C   LIG d   1       7.343  -2.911  -4.863  0.00  0.00     0.234 A 
ATOM     18  O   LIG d   1       7.828  -1.860  -4.501  0.00  0.00    -0.274 OA
ATOM     19  C   LIG d   1       8.226  -4.116  -4.886  0.00  0.00     0.091 A 
ATOM     20  N   LIG d   1       7.512  -5.309  -5.309  0.00  0.00    -0.291 N 
ATOM     21  C   LIG d   1       6.236  -5.311  -5.691  0.00  0.00     0.237 A 
ATOM     22  O   LIG d   1       5.745  -6.371  -6.018  0.00  0.00    -0.274 OA
ATOM     23  H   LIG d   1       3.250  -3.442  -9.835  0.00  0.00     0.062 H 
ATOM     24  H   LIG d   1       1.840  -1.986 -11.232  0.00  0.00     0.062 H 
ATOM     25  H   LIG d   1       1.295   0.283 -10.557  0.00  0.00     0.062 H 
ATOM     26  H   LIG d   1       2.125   1.239  -8.435  0.00  0.00     0.064 H 
ATOM     27  H   LIG d   1       5.821  -3.869  -7.844  0.00  0.00     0.034 H 
ATOM     28  H   LIG d   1       4.221  -4.575  -7.507  0.00  0.00     0.034 H 
ATOM     29  H   LIG d   1       8.627  -4.279  -3.885  0.00  0.00     0.056 H 
ATOM     30  H   LIG d   1       9.054  -3.936  -5.573  0.00  0.00     0.056 H 
ENDROOT
BRANCH  20  31
ATOM     31  C   LIG d   1       8.237  -6.581  -5.317  0.00  0.00     0.019 C 
ATOM     32  H   LIG d   1       7.544  -7.395  -5.530  0.00  0.00     0.047 H 
ATOM     33  H   LIG d   1       9.012  -6.554  -6.083  0.00  0.00     0.047 H 
BRANCH  31  34
ATOM     34  C   LIG d   1       8.882  -6.808  -3.948  0.00  0.00    -0.016 C 
ATOM     35  H   LIG d   1       9.955  -6.956  -4.073  0.00  0.00     0.033 H 
ATOM     36  H   LIG d   1       8.707  -5.938  -3.315  0.00  0.00     0.033 H 
BRANCH  34  37
ATOM     37  C   LIG d   1       8.278  -8.028  -3.303  0.00  0.00    -0.072 C 
ATOM     38  C   LIG d   1       7.212  -8.768  -4.057  0.00  0.00    -0.032 C 
ATOM     39  C   LIG d   1       7.032 -10.172  -3.471  0.00  0.00    -0.049 C 
ATOM     40  H   LIG d   1       6.272  -8.221  -3.984  0.00  0.00     0.031 H 
ATOM     41  H   LIG d   1       7.501  -8.850  -5.104  0.00  0.00     0.031 H 
ATOM     42  C   LIG d   1       6.879 -10.044  -1.949  0.00  0.00    -0.049 C 
ATOM     43  H   LIG d   1       7.905 -10.783  -3.700  0.00  0.00     0.027 H 
ATOM     44  H   LIG d   1       6.138 -10.632  -3.891  0.00  0.00     0.027 H 
ATOM     45  C   LIG d   1       8.210  -9.563  -1.368  0.00  0.00    -0.035 C 
ATOM     46  H   LIG d   1       6.622 -11.014  -1.524  0.00  0.00     0.027 H 
ATOM     47  H   LIG d   1       6.096  -9.322  -1.716  0.00  0.00     0.027 H 
ATOM     48  C   LIG d   1       8.707  -8.370  -2.130  0.00  0.00    -0.085 C 
ATOM     49  H   LIG d   1       8.945 -10.367  -1.435  0.00  0.00     0.031 H 
ATOM     50  H   LIG d   1       8.068  -9.291  -0.322  0.00  0.00     0.031 H 
ATOM     51  H   LIG d   1       9.471  -7.759  -1.673  0.00  0.00     0.057 H 
ENDBRANCH  34  37
ENDBRANCH  31  34
ENDBRANCH  20  31
BRANCH   1  52
ATOM     52  C   LIG d   1       6.197  -0.496  -4.880  0.00  0.00     0.021 A 
ATOM     53  C   LIG d   1       6.970  -0.050  -5.934  0.00  0.00    -0.050 A 
ATOM     54  C   LIG d   1       7.817   1.029  -5.766  0.00  0.00    -0.019 A 
ATOM     55  H   LIG d   1       6.909  -0.542  -6.894  0.00  0.00     0.062 H 
ATOM     56  C   LIG d   1       7.902   1.659  -4.532  0.00  0.00     0.124 A 
ATOM     57  H   LIG d   1       8.417   1.378  -6.592  0.00  0.00     0.065 H 
ATOM     58  C   LIG d   1       7.131   1.210  -3.470  0.00  0.00     0.022 A 
ATOM     59  C   LIG d   1       6.278   0.131  -3.645  0.00  0.00     0.129 A 
ATOM     60  H   LIG d   1       7.196   1.699  -2.510  0.00  0.00     0.069 H 
BRANCH  56  61
ATOM     61  O   LIG d   1       8.740   2.717  -4.365  0.00  0.00    -0.495 OA
BRANCH  61  62
ATOM     62  C   LIG d   1       9.781   2.572  -3.398  0.00  0.00     0.079 C 
ATOM     63  H   LIG d   1      10.047   1.518  -3.305  0.00  0.00     0.066 H 
ATOM     64  H   LIG d   1      10.654   3.140  -3.716  0.00  0.00     0.066 H 
ATOM     65  H   LIG d   1       9.437   2.945  -2.434  0.00  0.00     0.066 H 
ENDBRANCH  61  62
ENDBRANCH  56  61
BRANCH  59  66
ATOM     66  O   LIG d   1       5.522  -0.311  -2.606  0.00  0.00    -0.495 OA
BRANCH  66  67
ATOM     67  C   LIG d   1       4.687   0.648  -1.955  0.00  0.00     0.079 C 
ATOM     68  H   LIG d   1       4.922   0.673  -0.892  0.00  0.00     0.066 H 
ATOM     69  H   LIG d   1       4.860   1.634  -2.389  0.00  0.00     0.066 H 
ATOM     70  H   LIG d   1       3.641   0.370  -2.090  0.00  0.00     0.066 H 
ENDBRANCH  66  67
ENDBRANCH  59  66
ENDBRANCH   1  52
TORSDOF 8
ENDMDL
MODEL 5
REMARK VINA RESULT:      -7.0      7.484     10.122
REMARK  8 active torsions:
REMARK  status: ('A' for Active; 'I' for Inactive)
REMARK    1  A    between atoms: C_1  and  O_2 
REMARK    2  A    between atoms: O_2  and  C_3 
REMARK    3  A    between atoms: C_6  and  C_11 
REMARK    4  A    between atoms: C_7  and  O_9 
REMARK    5  A    between atoms: O_9  and  C_10 
REMARK    6  A    between atoms: N_30  and  C_33 
REMARK    7  A    between atoms: C_33  and  C_34 
REMARK    8  A    between atoms: C_34  and  C_35 
ROOT
ATOM      1  C   LIG d   1       5.988  -1.921  -7.142  0.00  0.00     0.096 C 
ATOM      2  H   LIG d   1       6.985  -1.556  -7.387  0.00  0.00     0.062 H 
ATOM      3  C   LIG d   1       5.551  -1.366  -5.805  0.00  0.00     0.046 A 
ATOM      4  C   LIG d   1       5.475  -2.106  -4.678  0.00  0.00    -0.015 A 
ATOM      5  C   LIG d   1       5.028  -1.223  -3.619  0.00  0.00     0.003 A 
ATOM      6  C   LIG d   1       4.775  -1.427  -2.260  0.00  0.00    -0.052 A 
ATOM      7  C   LIG d   1       4.353  -0.338  -1.538  0.00  0.00    -0.061 A 
ATOM      8  C   LIG d   1       4.183   0.908  -2.118  0.00  0.00    -0.060 A 
ATOM      9  C   LIG d   1       4.427   1.139  -3.460  0.00  0.00    -0.038 A 
ATOM     10  C   LIG d   1       4.857   0.051  -4.218  0.00  0.00     0.047 A 
ATOM     11  N   LIG d   1       5.183  -0.074  -5.538  0.00  0.00    -0.356 N 
ATOM     12  H   LIG d   1       5.157   0.644  -6.189  0.00  0.00     0.166 HD
ATOM     13  C   LIG d   1       5.802  -3.575  -4.593  0.00  0.00     0.002 C 
ATOM     14  C   LIG d   1       6.623  -3.973  -5.827  0.00  0.00     0.107 A 
ATOM     15  H   LIG d   1       7.628  -3.564  -5.715  0.00  0.00     0.060 H 
ATOM     16  N   LIG d   1       6.008  -3.395  -7.020  0.00  0.00    -0.276 N 
ATOM     17  C   LIG d   1       5.474  -4.132  -7.997  0.00  0.00     0.234 A 
ATOM     18  O   LIG d   1       4.930  -3.549  -8.911  0.00  0.00    -0.274 OA
ATOM     19  C   LIG d   1       5.499  -5.625  -8.038  0.00  0.00     0.091 A 
ATOM     20  N   LIG d   1       6.207  -6.191  -6.901  0.00  0.00    -0.291 N 
ATOM     21  C   LIG d   1       6.716  -5.463  -5.910  0.00  0.00     0.237 A 
ATOM     22  O   LIG d   1       7.291  -6.047  -5.015  0.00  0.00    -0.274 OA
ATOM     23  H   LIG d   1       4.905  -2.395  -1.799  0.00  0.00     0.062 H 
ATOM     24  H   LIG d   1       4.146  -0.457  -0.484  0.00  0.00     0.062 H 
ATOM     25  H   LIG d   1       3.847   1.729  -1.501  0.00  0.00     0.062 H 
ATOM     26  H   LIG d   1       4.292   2.116  -3.900  0.00  0.00     0.064 H 
ATOM     27  H   LIG d   1       4.879  -4.155  -4.567  0.00  0.00     0.034 H 
ATOM     28  H   LIG d   1       6.381  -3.771  -3.690  0.00  0.00     0.034 H 
ATOM     29  H   LIG d   1       5.991  -5.945  -8.957  0.00  0.00     0.056 H 
ATOM     30  H   LIG d   1       4.475  -5.997  -8.039  0.00  0.00     0.056 H 
ENDROOT
BRANCH  20  31
ATOM     31  C   LIG d   1       6.368  -7.645  -6.843  0.00  0.00     0.019 C 
ATOM     32  H   LIG d   1       6.604  -8.025  -7.837  0.00  0.00     0.047 H 
ATOM     33  H   LIG d   1       7.178  -7.894  -6.157  0.00  0.00     0.047 H 
BRANCH  31  34
ATOM     34  C   LIG d   1       5.068  -8.283  -6.350  0.00  0.00    -0.016 C 
ATOM     35  H   LIG d   1       4.334  -7.504  -6.148  0.00  0.00     0.033 H 
ATOM     36  H   LIG d   1       4.680  -8.957  -7.115  0.00  0.00     0.033 H 
BRANCH  34  37
ATOM     37  C   LIG d   1       5.336  -9.060  -5.087  0.00  0.00    -0.072 C 
ATOM     38  C   LIG d   1       6.764  -9.346  -4.726  0.00  0.00    -0.032 C 
ATOM     39  C   LIG d   1       6.864  -9.744  -3.250  0.00  0.00    -0.049 C 
ATOM     40  H   LIG d   1       7.138 -10.160  -5.348  0.00  0.00     0.031 H 
ATOM     41  H   LIG d   1       7.366  -8.455  -4.900  0.00  0.00     0.031 H 
ATOM     42  C   LIG d   1       5.821 -10.835  -2.973  0.00  0.00    -0.049 C 
ATOM     43  H   LIG d   1       6.664  -8.878  -2.620  0.00  0.00     0.027 H 
ATOM     44  H   LIG d   1       7.862 -10.130  -3.042  0.00  0.00     0.027 H 
ATOM     45  C   LIG d   1       4.428 -10.215  -3.100  0.00  0.00    -0.035 C 
ATOM     46  H   LIG d   1       5.958 -11.225  -1.965  0.00  0.00     0.027 H 
ATOM     47  H   LIG d   1       5.930 -11.643  -3.697  0.00  0.00     0.027 H 
ATOM     48  C   LIG d   1       4.319  -9.444  -4.383  0.00  0.00    -0.085 C 
ATOM     49  H   LIG d   1       4.253  -9.543  -2.259  0.00  0.00     0.031 H 
ATOM     50  H   LIG d   1       3.680 -11.008  -3.090  0.00  0.00     0.031 H 
ATOM     51  H   LIG d   1       3.332  -9.193  -4.741  0.00  0.00     0.057 H 
ENDBRANCH  34  37
ENDBRANCH  31  34
ENDBRANCH  20  31
BRANCH   1  52
ATOM     52  C   LIG d   1       5.011  -1.508  -8.212  0.00  0.00     0.021 A 
ATOM     53  C   LIG d   1       3.652  -1.616  -7.985  0.00  0.00    -0.050 A 
ATOM     54  C   LIG d   1       2.753  -1.232  -8.962  0.00  0.00    -0.019 A 
ATOM     55  H   LIG d   1       3.291  -1.996  -7.040  0.00  0.00     0.062 H 
ATOM     56  C   LIG d   1       3.215  -0.749 -10.178  0.00  0.00     0.124 A 
ATOM     57  H   LIG d   1       1.693  -1.313  -8.781  0.00  0.00     0.065 H 
ATOM     58  C   LIG d   1       4.578  -0.644 -10.411  0.00  0.00     0.022 A 
ATOM     59  C   LIG d   1       5.476  -1.025  -9.426  0.00  0.00     0.129 A 
ATOM     60  H   LIG d   1       4.938  -0.268 -11.356  0.00  0.00     0.069 H 
BRANCH  56  61
ATOM     61  O   LIG d   1       2.330  -0.377 -11.142  0.00  0.00    -0.495 OA
BRANCH  61  62
ATOM     62  C   LIG d   1       1.243  -1.266 -11.401  0.00  0.00     0.079 C 
ATOM     63  H   LIG d   1       1.522  -2.278 -11.105  0.00  0.00     0.066 H 
ATOM     64  H   LIG d   1       0.370  -0.950 -10.832  0.00  0.00     0.066 H 
ATOM     65  H   LIG d   1       1.007  -1.252 -12.465  0.00  0.00     0.066 H 
ENDBRANCH  61  62
ENDBRANCH  56  61
BRANCH  59  66
ATOM     66  O   LIG d   1       6.813  -0.924  -9.651  0.00  0.00    -0.495 OA
BRANCH  66  67
ATOM     67  C   LIG d   1       7.343   0.390  -9.837  0.00  0.00     0.079 C 
ATOM     68  H   LIG d   1       8.423   0.369  -9.695  0.00  0.00     0.066 H 
ATOM     69  H   LIG d   1       7.116   0.733 -10.847  0.00  0.00     0.066 H 
ATOM     70  H   LIG d   1       6.893   1.070  -9.113  0.00  0.00     0.066 H 
ENDBRANCH  66  67
ENDBRANCH  59  66
ENDBRANCH   1  52
TORSDOF 8
ENDMDL
MODEL 6
REMARK VINA RESULT:      -6.9      3.905      5.998
REMARK  8 active torsions:
REMARK  status: ('A' for Active; 'I' for Inactive)
REMARK    1  A    between atoms: C_1  and  O_2 
REMARK    2  A    between atoms: O_2  and  C_3 
REMARK    3  A    between atoms: C_6  and  C_11 
REMARK    4  A    between atoms: C_7  and  O_9 
REMARK    5  A    between atoms: O_9  and  C_10 
REMARK    6  A    between atoms: N_30  and  C_33 
REMARK    7  A    between atoms: C_33  and  C_34 
REMARK    8  A    between atoms: C_34  and  C_35 
ROOT
ATOM      1  C   LIG d   1       9.998   3.095  -7.744  0.00  0.00     0.096 C 
ATOM      2  H   LIG d   1      10.919   2.543  -7.928  0.00  0.00     0.062 H 
ATOM      3  C   LIG d   1      10.153   3.962  -6.515  0.00  0.00     0.046 A 
ATOM      4  C   LIG d   1       9.555   3.698  -5.334  0.00  0.00    -0.015 A 
ATOM      5  C   LIG d   1       9.951   4.745  -4.414  0.00  0.00     0.003 A 
ATOM      6  C   LIG d   1       9.649   4.990  -3.071  0.00  0.00    -0.052 A 
ATOM      7  C   LIG d   1      10.213   6.105  -2.502  0.00  0.00    -0.061 A 
ATOM      8  C   LIG d   1      11.044   6.954  -3.214  0.00  0.00    -0.060 A 
ATOM      9  C   LIG d   1      11.361   6.734  -4.543  0.00  0.00    -0.038 A 
ATOM     10  C   LIG d   1      10.802   5.610  -5.147  0.00  0.00     0.047 A 
ATOM     11  N   LIG d   1      10.902   5.105  -6.412  0.00  0.00    -0.356 N 
ATOM     12  H   LIG d   1      11.423   5.497  -7.130  0.00  0.00     0.166 HD
ATOM     13  C   LIG d   1       8.650   2.520  -5.076  0.00  0.00     0.002 C 
ATOM     14  C   LIG d   1       8.864   1.477  -6.182  0.00  0.00     0.107 A 
ATOM     15  H   LIG d   1       9.828   0.996  -6.015  0.00  0.00     0.060 H 
ATOM     16  N   LIG d   1       8.890   2.151  -7.478  0.00  0.00    -0.276 N 
ATOM     17  C   LIG d   1       7.971   1.950  -8.425  0.00  0.00     0.234 A 
ATOM     18  O   LIG d   1       8.050   2.611  -9.439  0.00  0.00    -0.274 OA
ATOM     19  C   LIG d   1       6.850   0.968  -8.318  0.00  0.00     0.091 A 
ATOM     20  N   LIG d   1       6.892   0.225  -7.069  0.00  0.00    -0.291 N 
ATOM     21  C   LIG d   1       7.789   0.441  -6.110  0.00  0.00     0.237 A 
ATOM     22  O   LIG d   1       7.729  -0.246  -5.112  0.00  0.00    -0.274 OA
ATOM     23  H   LIG d   1       9.002   4.333  -2.508  0.00  0.00     0.062 H 
ATOM     24  H   LIG d   1      10.001   6.327  -1.466  0.00  0.00     0.062 H 
ATOM     25  H   LIG d   1      11.459   7.817  -2.715  0.00  0.00     0.062 H 
ATOM     26  H   LIG d   1      12.012   7.403  -5.087  0.00  0.00     0.064 H 
ATOM     27  H   LIG d   1       7.610   2.850  -5.081  0.00  0.00     0.034 H 
ATOM     28  H   LIG d   1       8.888   2.080  -4.107  0.00  0.00     0.034 H 
ATOM     29  H   LIG d   1       6.914   0.267  -9.150  0.00  0.00     0.056 H 
ATOM     30  H   LIG d   1       5.902   1.503  -8.380  0.00  0.00     0.056 H 
ENDROOT
BRANCH  20  31
ATOM     31  C   LIG d   1       5.890  -0.821  -6.855  0.00  0.00     0.019 C 
ATOM     32  H   LIG d   1       5.731  -1.369  -7.783  0.00  0.00     0.047 H 
ATOM     33  H   LIG d   1       6.240  -1.507  -6.083  0.00  0.00     0.047 H 
BRANCH  31  34
ATOM     34  C   LIG d   1       4.573  -0.183  -6.409  0.00  0.00    -0.016 C 
ATOM     35  H   LIG d   1       4.693   0.899  -6.356  0.00  0.00     0.033 H 
ATOM     36  H   LIG d   1       3.790  -0.426  -7.128  0.00  0.00     0.033 H 
BRANCH  34  37
ATOM     37  C   LIG d   1       4.190  -0.714  -5.053  0.00  0.00    -0.072 C 
ATOM     38  C   LIG d   1       3.288   0.126  -4.197  0.00  0.00    -0.032 C 
ATOM     39  C   LIG d   1       2.673  -0.729  -3.084  0.00  0.00    -0.049 C 
ATOM     40  H   LIG d   1       3.863   0.940  -3.755  0.00  0.00     0.031 H 
ATOM     41  H   LIG d   1       2.490   0.542  -4.812  0.00  0.00     0.031 H 
ATOM     42  C   LIG d   1       3.803  -1.504  -2.392  0.00  0.00    -0.049 C 
ATOM     43  H   LIG d   1       1.956  -1.430  -3.510  0.00  0.00     0.027 H 
ATOM     44  H   LIG d   1       2.175  -0.084  -2.360  0.00  0.00     0.027 H 
ATOM     45  C   LIG d   1       4.364  -2.526  -3.382  0.00  0.00    -0.035 C 
ATOM     46  H   LIG d   1       3.409  -2.020  -1.516  0.00  0.00     0.027 H 
ATOM     47  H   LIG d   1       4.591  -0.815  -2.089  0.00  0.00     0.027 H 
ATOM     48  C   LIG d   1       4.664  -1.864  -4.695  0.00  0.00    -0.085 C 
ATOM     49  H   LIG d   1       3.633  -3.320  -3.536  0.00  0.00     0.031 H 
ATOM     50  H   LIG d   1       5.281  -2.954  -2.975  0.00  0.00     0.031 H 
ATOM     51  H   LIG d   1       5.314  -2.380  -5.385  0.00  0.00     0.057 H 
ENDBRANCH  34  37
ENDBRANCH  31  34
ENDBRANCH  20  31
BRANCH   1  52
ATOM     52  C   LIG d   1       9.665   3.953  -8.937  0.00  0.00     0.021 A 
ATOM     53  C   LIG d   1       8.747   4.978  -8.816  0.00  0.00    -0.050 A 
ATOM     54  C   LIG d   1       8.444   5.771  -9.907  0.00  0.00    -0.019 A 
ATOM     55  H   LIG d   1       8.268   5.164  -7.866  0.00  0.00     0.062 H 
ATOM     56  C   LIG d   1       9.054   5.530 -11.130  0.00  0.00     0.124 A 
ATOM     57  H   LIG d   1       7.730   6.574  -9.809  0.00  0.00     0.065 H 
ATOM     58  C   LIG d   1       9.972   4.499 -11.256  0.00  0.00     0.022 A 
ATOM     59  C   LIG d   1      10.278   3.709 -10.158  0.00  0.00     0.129 A 
ATOM     60  H   LIG d   1      10.447   4.311 -12.207  0.00  0.00     0.069 H 
BRANCH  56  61
ATOM     61  O   LIG d   1       8.752   6.306 -12.205  0.00  0.00    -0.495 OA
BRANCH  61  62
ATOM     62  C   LIG d   1       9.598   7.430 -12.451  0.00  0.00     0.079 C 
ATOM     63  H   LIG d   1       8.990   8.332 -12.535  0.00  0.00     0.066 H 
ATOM     64  H   LIG d   1      10.301   7.543 -11.627  0.00  0.00     0.066 H 
ATOM     65  H   LIG d   1      10.148   7.276 -13.379  0.00  0.00     0.066 H 
ENDBRANCH  61  62
ENDBRANCH  56  61
BRANCH  59  66
ATOM     66  O   LIG d   1      11.177   2.697 -10.278  0.00  0.00    -0.495 OA
BRANCH  66  67
ATOM     67  C   LIG d   1      10.921   1.718 -11.286  0.00  0.00     0.079 C 
ATOM     68  H   LIG d   1       9.875   1.770 -11.586  0.00  0.00     0.066 H 
ATOM     69  H   LIG d   1      11.557   1.911 -12.151  0.00  0.00     0.066 H 
ATOM     70  H   LIG d   1      11.137   0.724 -10.891  0.00  0.00     0.066 H 
ENDBRANCH  66  67
ENDBRANCH  59  66
ENDBRANCH   1  52
TORSDOF 8
ENDMDL
MODEL 7
REMARK VINA RESULT:      -6.8      2.697      4.058
REMARK  8 active torsions:
REMARK  status: ('A' for Active; 'I' for Inactive)
REMARK    1  A    between atoms: C_1  and  O_2 
REMARK    2  A    between atoms: O_2  and  C_3 
REMARK    3  A    between atoms: C_6  and  C_11 
REMARK    4  A    between atoms: C_7  and  O_9 
REMARK    5  A    between atoms: O_9  and  C_10 
REMARK    6  A    between atoms: N_30  and  C_33 
REMARK    7  A    between atoms: C_33  and  C_34 
REMARK    8  A    between atoms: C_34  and  C_35 
ROOT
ATOM      1  C   LIG d   1       9.997   5.295  -4.629  0.00  0.00     0.096 C 
ATOM      2  H   LIG d   1       9.182   6.011  -4.522  0.00  0.00     0.062 H 
ATOM      3  C   LIG d   1      10.754   5.564  -5.910  0.00  0.00     0.046 A 
ATOM      4  C   LIG d   1      10.680   4.772  -7.001  0.00  0.00    -0.015 A 
ATOM      5  C   LIG d   1      11.534   5.361  -8.013  0.00  0.00     0.003 A 
ATOM      6  C   LIG d   1      11.846   4.989  -9.323  0.00  0.00    -0.052 A 
ATOM      7  C   LIG d   1      12.715   5.801 -10.009  0.00  0.00    -0.061 A 
ATOM      8  C   LIG d   1      13.263   6.939  -9.440  0.00  0.00    -0.060 A 
ATOM      9  C   LIG d   1      12.971   7.332  -8.146  0.00  0.00    -0.038 A 
ATOM     10  C   LIG d   1      12.091   6.526  -7.425  0.00  0.00     0.047 A 
ATOM     11  N   LIG d   1      11.596   6.616  -6.156  0.00  0.00    -0.356 N 
ATOM     12  H   LIG d   1      11.810   7.319  -5.523  0.00  0.00     0.166 HD
ATOM     13  C   LIG d   1       9.850   3.517  -7.095  0.00  0.00     0.002 C 
ATOM     14  C   LIG d   1       8.807   3.526  -5.969  0.00  0.00     0.107 A 
ATOM     15  H   LIG d   1       8.042   4.261  -6.219  0.00  0.00     0.060 H 
ATOM     16  N   LIG d   1       9.454   3.923  -4.720  0.00  0.00    -0.276 N 
ATOM     17  C   LIG d   1       9.569   3.111  -3.666  0.00  0.00     0.234 A 
ATOM     18  O   LIG d   1      10.182   3.519  -2.703  0.00  0.00    -0.274 OA
ATOM     19  C   LIG d   1       8.994   1.734  -3.596  0.00  0.00     0.091 A 
ATOM     20  N   LIG d   1       8.261   1.385  -4.802  0.00  0.00    -0.291 N 
ATOM     21  C   LIG d   1       8.168   2.179  -5.866  0.00  0.00     0.237 A 
ATOM     22  O   LIG d   1       7.523   1.782  -6.814  0.00  0.00    -0.274 OA
ATOM     23  H   LIG d   1      11.423   4.103  -9.776  0.00  0.00     0.062 H 
ATOM     24  H   LIG d   1      12.981   5.544 -11.024  0.00  0.00     0.062 H 
ATOM     25  H   LIG d   1      13.942   7.540 -10.026  0.00  0.00     0.062 H 
ATOM     26  H   LIG d   1      13.404   8.222  -7.714  0.00  0.00     0.064 H 
ATOM     27  H   LIG d   1      10.494   2.644  -6.989  0.00  0.00     0.034 H 
ATOM     28  H   LIG d   1       9.345   3.482  -8.061  0.00  0.00     0.034 H 
ATOM     29  H   LIG d   1       8.320   1.675  -2.741  0.00  0.00     0.056 H 
ATOM     30  H   LIG d   1       9.805   1.018  -3.454  0.00  0.00     0.056 H 
ENDROOT
BRANCH  20  31
ATOM     31  C   LIG d   1       7.587   0.086  -4.848  0.00  0.00     0.019 C 
ATOM     32  H   LIG d   1       6.605   0.201  -5.306  0.00  0.00     0.047 H 
ATOM     33  H   LIG d   1       8.183  -0.612  -5.436  0.00  0.00     0.047 H 
BRANCH  31  34
ATOM     34  C   LIG d   1       7.425  -0.456  -3.426  0.00  0.00    -0.016 C 
ATOM     35  H   LIG d   1       7.790  -1.482  -3.384  0.00  0.00     0.033 H 
ATOM     36  H   LIG d   1       7.999   0.162  -2.734  0.00  0.00     0.033 H 
BRANCH  34  37
ATOM     37  C   LIG d   1       5.970  -0.423  -3.038  0.00  0.00    -0.072 C 
ATOM     38  C   LIG d   1       5.190  -1.703  -3.121  0.00  0.00    -0.032 C 
ATOM     39  C   LIG d   1       3.900  -1.586  -2.305  0.00  0.00    -0.049 C 
ATOM     40  H   LIG d   1       4.944  -1.908  -4.163  0.00  0.00     0.031 H 
ATOM     41  H   LIG d   1       5.793  -2.520  -2.726  0.00  0.00     0.031 H 
ATOM     42  C   LIG d   1       3.191  -0.285  -2.705  0.00  0.00    -0.049 C 
ATOM     43  H   LIG d   1       4.136  -1.561  -1.241  0.00  0.00     0.027 H 
ATOM     44  H   LIG d   1       3.253  -2.437  -2.519  0.00  0.00     0.027 H 
ATOM     45  C   LIG d   1       4.042   0.894  -2.231  0.00  0.00    -0.035 C 
ATOM     46  H   LIG d   1       2.210  -0.243  -2.233  0.00  0.00     0.027 H 
ATOM     47  H   LIG d   1       3.079  -0.244  -3.789  0.00  0.00     0.027 H 
ATOM     48  C   LIG d   1       5.468   0.708  -2.657  0.00  0.00    -0.085 C 
ATOM     49  H   LIG d   1       3.995   0.960  -1.143  0.00  0.00     0.031 H 
ATOM     50  H   LIG d   1       3.652   1.815  -2.665  0.00  0.00     0.031 H 
ATOM     51  H   LIG d   1       6.118   1.571  -2.644  0.00  0.00     0.057 H 
ENDBRANCH  34  37
ENDBRANCH  31  34
ENDBRANCH  20  31
BRANCH   1  52
ATOM     52  C   LIG d   1      10.931   5.400  -3.452  0.00  0.00     0.021 A 
ATOM     53  C   LIG d   1      12.181   4.813  -3.507  0.00  0.00    -0.050 A 
ATOM     54  C   LIG d   1      13.042   4.912  -2.431  0.00  0.00    -0.019 A 
ATOM     55  H   LIG d   1      12.487   4.279  -4.394  0.00  0.00     0.062 H 
ATOM     56  C   LIG d   1      12.648   5.593  -1.287  0.00  0.00     0.124 A 
ATOM     57  H   LIG d   1      14.019   4.456  -2.478  0.00  0.00     0.065 H 
ATOM     58  C   LIG d   1      11.393   6.180  -1.227  0.00  0.00     0.022 A 
ATOM     59  C   LIG d   1      10.534   6.083  -2.311  0.00  0.00     0.129 A 
ATOM     60  H   LIG d   1      11.086   6.710  -0.338  0.00  0.00     0.069 H 
BRANCH  56  61
ATOM     61  O   LIG d   1      13.494   5.686  -0.226  0.00  0.00    -0.495 OA
BRANCH  61  62
ATOM     62  C   LIG d   1      14.869   5.943  -0.514  0.00  0.00     0.079 C 
ATOM     63  H   LIG d   1      15.490   5.534   0.285  0.00  0.00     0.066 H 
ATOM     64  H   LIG d   1      15.137   5.471  -1.458  0.00  0.00     0.066 H 
ATOM     65  H   LIG d   1      15.032   7.018  -0.586  0.00  0.00     0.066 H 
ENDBRANCH  61  62
ENDBRANCH  56  61
BRANCH  59  66
ATOM     66  O   LIG d   1       9.303   6.656  -2.255  0.00  0.00    -0.495 OA
BRANCH  66  67
ATOM     67  C   LIG d   1       9.141   7.761  -1.364  0.00  0.00     0.079 C 
ATOM     68  H   LIG d   1       9.758   8.593  -1.702  0.00  0.00     0.066 H 
ATOM     69  H   LIG d   1       8.094   8.067  -1.351  0.00  0.00     0.066 H 
ATOM     70  H   LIG d   1       9.446   7.466  -0.359  0.00  0.00     0.066 H 
ENDBRANCH  66  67
ENDBRANCH  59  66
ENDBRANCH   1  52
TORSDOF 8
ENDMDL
MODEL 8
REMARK VINA RESULT:      -6.5      6.978     11.260
REMARK  8 active torsions:
REMARK  status: ('A' for Active; 'I' for Inactive)
REMARK    1  A    between atoms: C_1  and  O_2 
REMARK    2  A    between atoms: O_2  and  C_3 
REMARK    3  A    between atoms: C_6  and  C_11 
REMARK    4  A    between atoms: C_7  and  O_9 
REMARK    5  A    between atoms: O_9  and  C_10 
REMARK    6  A    between atoms: N_30  and  C_33 
REMARK    7  A    between atoms: C_33  and  C_34 
REMARK    8  A    between atoms: C_34  and  C_35 
ROOT
ATOM      1  C   LIG d   1       9.296  -7.315  -4.743  0.00  0.00     0.096 C 
ATOM      2  H   LIG d   1       9.912  -7.484  -5.626  0.00  0.00     0.062 H 
ATOM      3  C   LIG d   1       8.134  -8.283  -4.731  0.00  0.00     0.046 A 
ATOM      4  C   LIG d   1       6.858  -7.922  -4.985  0.00  0.00    -0.015 A 
ATOM      5  C   LIG d   1       6.050  -9.121  -4.886  0.00  0.00     0.003 A 
ATOM      6  C   LIG d   1       4.682  -9.356  -5.047  0.00  0.00    -0.052 A 
ATOM      7  C   LIG d   1       4.250 -10.648  -4.874  0.00  0.00    -0.061 A 
ATOM      8  C   LIG d   1       5.120 -11.677  -4.554  0.00  0.00    -0.060 A 
ATOM      9  C   LIG d   1       6.478 -11.473  -4.391  0.00  0.00    -0.038 A 
ATOM     10  C   LIG d   1       6.945 -10.171  -4.560  0.00  0.00     0.047 A 
ATOM     11  N   LIG d   1       8.195  -9.628  -4.476  0.00  0.00    -0.356 N 
ATOM     12  H   LIG d   1       9.004 -10.120  -4.266  0.00  0.00     0.166 HD
ATOM     13  C   LIG d   1       6.412  -6.518  -5.304  0.00  0.00     0.002 C 
ATOM     14  C   LIG d   1       7.637  -5.688  -5.715  0.00  0.00     0.107 A 
ATOM     15  H   LIG d   1       7.944  -6.005  -6.712  0.00  0.00     0.060 H 
ATOM     16  N   LIG d   1       8.729  -5.950  -4.779  0.00  0.00    -0.276 N 
ATOM     17  C   LIG d   1       9.234  -5.018  -3.969  0.00  0.00     0.234 A 
ATOM     18  O   LIG d   1      10.095  -5.357  -3.184  0.00  0.00    -0.274 OA
ATOM     19  C   LIG d   1       8.810  -3.585  -3.962  0.00  0.00     0.091 A 
ATOM     20  N   LIG d   1       7.799  -3.310  -4.968  0.00  0.00    -0.291 N 
ATOM     21  C   LIG d   1       7.270  -4.240  -5.759  0.00  0.00     0.237 A 
ATOM     22  O   LIG d   1       6.436  -3.890  -6.568  0.00  0.00    -0.274 OA
ATOM     23  H   LIG d   1       3.996  -8.559  -5.296  0.00  0.00     0.062 H 
ATOM     24  H   LIG d   1       3.199 -10.868  -4.989  0.00  0.00     0.062 H 
ATOM     25  H   LIG d   1       4.724 -12.674  -4.429  0.00  0.00     0.062 H 
ATOM     26  H   LIG d   1       7.146 -12.285  -4.143  0.00  0.00     0.064 H 
ATOM     27  H   LIG d   1       5.948  -6.073  -4.423  0.00  0.00     0.034 H 
ATOM     28  H   LIG d   1       5.693  -6.538  -6.124  0.00  0.00     0.034 H 
ATOM     29  H   LIG d   1       9.682  -2.957  -4.153  0.00  0.00     0.056 H 
ATOM     30  H   LIG d   1       8.408  -3.339  -2.978  0.00  0.00     0.056 H 
ENDROOT
BRANCH  20  31
ATOM     31  C   LIG d   1       7.335  -1.929  -5.121  0.00  0.00     0.019 C 
ATOM     32  H   LIG d   1       8.101  -1.341  -5.626  0.00  0.00     0.047 H 
ATOM     33  H   LIG d   1       6.419  -1.916  -5.712  0.00  0.00     0.047 H 
BRANCH  31  34
ATOM     34  C   LIG d   1       7.059  -1.328  -3.741  0.00  0.00    -0.016 C 
ATOM     35  H   LIG d   1       7.456  -1.989  -2.971  0.00  0.00     0.033 H 
ATOM     36  H   LIG d   1       7.542  -0.353  -3.666  0.00  0.00     0.033 H 
BRANCH  34  37
ATOM     37  C   LIG d   1       5.574  -1.168  -3.550  0.00  0.00    -0.072 C 
ATOM     38  C   LIG d   1       4.876  -0.088  -4.324  0.00  0.00    -0.032 C 
ATOM     39  C   LIG d   1       3.366  -0.345  -4.341  0.00  0.00    -0.049 C 
ATOM     40  H   LIG d   1       5.076   0.877  -3.856  0.00  0.00     0.031 H 
ATOM     41  H   LIG d   1       5.251  -0.077  -5.347  0.00  0.00     0.031 H 
ATOM     42  C   LIG d   1       2.905  -0.609  -2.902  0.00  0.00    -0.049 C 
ATOM     43  H   LIG d   1       3.146  -1.213  -4.961  0.00  0.00     0.027 H 
ATOM     44  H   LIG d   1       2.851   0.531  -4.736  0.00  0.00     0.027 H 
ATOM     45  C   LIG d   1       3.505  -1.938  -2.439  0.00  0.00    -0.035 C 
ATOM     46  H   LIG d   1       1.817  -0.667  -2.870  0.00  0.00     0.027 H 
ATOM     47  H   LIG d   1       3.248   0.195  -2.250  0.00  0.00     0.027 H 
ATOM     48  C   LIG d   1       4.978  -1.969  -2.725  0.00  0.00    -0.085 C 
ATOM     49  H   LIG d   1       3.017  -2.758  -2.966  0.00  0.00     0.031 H 
ATOM     50  H   LIG d   1       3.342  -2.051  -1.366  0.00  0.00     0.031 H 
ATOM     51  H   LIG d   1       5.578  -2.705  -2.211  0.00  0.00     0.057 H 
ENDBRANCH  34  37
ENDBRANCH  31  34
ENDBRANCH  20  31
BRANCH   1  52
ATOM     52  C   LIG d   1      10.123  -7.494  -3.496  0.00  0.00     0.021 A 
ATOM     53  C   LIG d   1       9.504  -7.607  -2.266  0.00  0.00    -0.050 A 
ATOM     54  C   LIG d   1      10.260  -7.777  -1.122  0.00  0.00    -0.019 A 
ATOM     55  H   LIG d   1       8.426  -7.568  -2.199  0.00  0.00     0.062 H 
ATOM     56  C   LIG d   1      11.644  -7.822  -1.206  0.00  0.00     0.124 A 
ATOM     57  H   LIG d   1       9.773  -7.869  -0.163  0.00  0.00     0.065 H 
ATOM     58  C   LIG d   1      12.269  -7.703  -2.438  0.00  0.00     0.022 A 
ATOM     59  C   LIG d   1      11.507  -7.539  -3.584  0.00  0.00     0.129 A 
ATOM     60  H   LIG d   1      13.346  -7.739  -2.504  0.00  0.00     0.069 H 
BRANCH  56  61
ATOM     61  O   LIG d   1      12.388  -7.983  -0.079  0.00  0.00    -0.495 OA
BRANCH  61  62
ATOM     62  C   LIG d   1      13.542  -8.819  -0.178  0.00  0.00     0.079 C 
ATOM     63  H   LIG d   1      14.398  -8.221  -0.495  0.00  0.00     0.066 H 
ATOM     64  H   LIG d   1      13.752  -9.266   0.793  0.00  0.00     0.066 H 
ATOM     65  H   LIG d   1      13.360  -9.606  -0.909  0.00  0.00     0.066 H 
ENDBRANCH  61  62
ENDBRANCH  56  61
BRANCH  59  66
ATOM     66  O   LIG d   1      12.116  -7.422  -4.793  0.00  0.00    -0.495 OA
BRANCH  66  67
ATOM     67  C   LIG d   1      12.967  -6.291  -4.985  0.00  0.00     0.079 C 
ATOM     68  H   LIG d   1      13.812  -6.351  -4.300  0.00  0.00     0.066 H 
ATOM     69  H   LIG d   1      13.333  -6.281  -6.013  0.00  0.00     0.066 H 
ATOM     70  H   LIG d   1      12.406  -5.376  -4.791  0.00  0.00     0.066 H 
ENDBRANCH  66  67
ENDBRANCH  59  66
ENDBRANCH   1  52
TORSDOF 8
ENDMDL
MODEL 9
REMARK VINA RESULT:      -6.5      4.350      6.412
REMARK  8 active torsions:
REMARK  status: ('A' for Active; 'I' for Inactive)
REMARK    1  A    between atoms: C_1  and  O_2 
REMARK    2  A    between atoms: O_2  and  C_3 
REMARK    3  A    between atoms: C_6  and  C_11 
REMARK    4  A    between atoms: C_7  and  O_9 
REMARK    5  A    between atoms: O_9  and  C_10 
REMARK    6  A    between atoms: N_30  and  C_33 
REMARK    7  A    between atoms: C_33  and  C_34 
REMARK    8  A    between atoms: C_34  and  C_35 
ROOT
ATOM      1  C   LIG d   1      11.035   5.477  -6.795  0.00  0.00     0.096 C 
ATOM      2  H   LIG d   1      12.053   5.087  -6.806  0.00  0.00     0.062 H 
ATOM      3  C   LIG d   1      10.762   6.168  -5.478  0.00  0.00     0.046 A 
ATOM      4  C   LIG d   1       9.964   5.655  -4.518  0.00  0.00    -0.015 A 
ATOM      5  C   LIG d   1       9.961   6.600  -3.419  0.00  0.00     0.003 A 
ATOM      6  C   LIG d   1       9.326   6.604  -2.174  0.00  0.00    -0.052 A 
ATOM      7  C   LIG d   1       9.553   7.689  -1.364  0.00  0.00    -0.061 A 
ATOM      8  C   LIG d   1      10.372   8.737  -1.752  0.00  0.00    -0.060 A 
ATOM      9  C   LIG d   1      11.014   8.760  -2.977  0.00  0.00    -0.038 A 
ATOM     10  C   LIG d   1      10.801   7.671  -3.820  0.00  0.00     0.047 A 
ATOM     11  N   LIG d   1      11.267   7.374  -5.069  0.00  0.00    -0.356 N 
ATOM     12  H   LIG d   1      11.865   7.933  -5.588  0.00  0.00     0.166 HD
ATOM     13  C   LIG d   1       9.232   4.342  -4.621  0.00  0.00     0.002 C 
ATOM     14  C   LIG d   1       9.861   3.510  -5.748  0.00  0.00     0.107 A 
ATOM     15  H   LIG d   1      10.829   3.145  -5.402  0.00  0.00     0.060 H 
ATOM     16  N   LIG d   1      10.069   4.364  -6.916  0.00  0.00    -0.276 N 
ATOM     17  C   LIG d   1       9.435   4.181  -8.076  0.00  0.00     0.234 A 
ATOM     18  O   LIG d   1       9.631   4.987  -8.960  0.00  0.00    -0.274 OA
ATOM     19  C   LIG d   1       8.498   3.052  -8.357  0.00  0.00     0.091 A 
ATOM     20  N   LIG d   1       8.379   2.147  -7.226  0.00  0.00    -0.291 N 
ATOM     21  C   LIG d   1       8.986   2.339  -6.057  0.00  0.00     0.237 A 
ATOM     22  O   LIG d   1       8.816   1.511  -5.187  0.00  0.00    -0.274 OA
ATOM     23  H   LIG d   1       8.686   5.790  -1.863  0.00  0.00     0.062 H 
ATOM     24  H   LIG d   1       9.079   7.727  -0.395  0.00  0.00     0.062 H 
ATOM     25  H   LIG d   1      10.513   9.566  -1.074  0.00  0.00     0.062 H 
ATOM     26  H   LIG d   1      11.650   9.583  -3.267  0.00  0.00     0.064 H 
ATOM     27  H   LIG d   1       8.181   4.525  -4.846  0.00  0.00     0.034 H 
ATOM     28  H   LIG d   1       9.314   3.800  -3.678  0.00  0.00     0.034 H 
ATOM     29  H   LIG d   1       8.864   2.495  -9.220  0.00  0.00     0.056 H 
ATOM     30  H   LIG d   1       7.513   3.457  -8.592  0.00  0.00     0.056 H 
ENDROOT
BRANCH  20  31
ATOM     31  C   LIG d   1       7.542   0.955  -7.381  0.00  0.00     0.019 C 
ATOM     32  H   LIG d   1       8.147   0.062  -7.222  0.00  0.00     0.047 H 
ATOM     33  H   LIG d   1       6.733   0.980  -6.650  0.00  0.00     0.047 H 
BRANCH  31  34
ATOM     34  C   LIG d   1       6.953   0.925  -8.792  0.00  0.00    -0.016 C 
ATOM     35  H   LIG d   1       7.404   1.716  -9.391  0.00  0.00     0.033 H 
ATOM     36  H   LIG d   1       7.160  -0.041  -9.253  0.00  0.00     0.033 H 
BRANCH  34  37
ATOM     37  C   LIG d   1       5.463   1.137  -8.720  0.00  0.00    -0.072 C 
ATOM     38  C   LIG d   1       4.630   0.067  -8.077  0.00  0.00    -0.032 C 
ATOM     39  C   LIG d   1       3.251   0.623  -7.710  0.00  0.00    -0.049 C 
ATOM     40  H   LIG d   1       4.514  -0.766  -8.770  0.00  0.00     0.031 H 
ATOM     41  H   LIG d   1       5.128  -0.283  -7.173  0.00  0.00     0.031 H 
ATOM     42  C   LIG d   1       2.677   1.338  -8.941  0.00  0.00    -0.049 C 
ATOM     43  H   LIG d   1       3.345   1.331  -6.887  0.00  0.00     0.027 H 
ATOM     44  H   LIG d   1       2.592  -0.195  -7.421  0.00  0.00     0.027 H 
ATOM     45  C   LIG d   1       3.522   2.583  -9.215  0.00  0.00    -0.035 C 
ATOM     46  H   LIG d   1       1.645   1.630  -8.746  0.00  0.00     0.027 H 
ATOM     47  H   LIG d   1       2.713   0.673  -9.804  0.00  0.00     0.027 H 
ATOM     48  C   LIG d   1       4.980   2.228  -9.222  0.00  0.00    -0.085 C 
ATOM     49  H   LIG d   1       3.334   3.326  -8.438  0.00  0.00     0.031 H 
ATOM     50  H   LIG d   1       3.246   2.998 -10.185  0.00  0.00     0.031 H 
ATOM     51  H   LIG d   1       5.669   2.927  -9.671  0.00  0.00     0.057 H 
ENDBRANCH  34  37
ENDBRANCH  31  34
ENDBRANCH  20  31
BRANCH   1  52
ATOM     52  C   LIG d   1      10.844   6.447  -7.932  0.00  0.00     0.021 A 
ATOM     53  C   LIG d   1       9.735   7.272  -7.957  0.00  0.00    -0.050 A 
ATOM     54  C   LIG d   1       9.560   8.167  -8.995  0.00  0.00    -0.019 A 
ATOM     55  H   LIG d   1       9.006   7.220  -7.162  0.00  0.00     0.062 H 
ATOM     56  C   LIG d   1      10.493   8.231 -10.021  0.00  0.00     0.124 A 
ATOM     57  H   LIG d   1       8.696   8.812  -9.011  0.00  0.00     0.065 H 
ATOM     58  C   LIG d   1      11.604   7.402 -10.001  0.00  0.00     0.022 A 
ATOM     59  C   LIG d   1      11.779   6.509  -8.955  0.00  0.00     0.129 A 
ATOM     60  H   LIG d   1      12.330   7.451 -10.798  0.00  0.00     0.069 H 
BRANCH  56  61
ATOM     61  O   LIG d   1      10.318   9.108 -11.045  0.00  0.00    -0.495 OA
BRANCH  61  62
ATOM     62  C   LIG d   1      10.022   8.555 -12.329  0.00  0.00     0.079 C 
ATOM     63  H   LIG d   1      10.722   8.951 -13.066  0.00  0.00     0.066 H 
ATOM     64  H   LIG d   1      10.116   7.470 -12.287  0.00  0.00     0.066 H 
ATOM     65  H   LIG d   1       9.004   8.821 -12.614  0.00  0.00     0.066 H 
ENDBRANCH  61  62
ENDBRANCH  56  61
BRANCH  59  66
ATOM     66  O   LIG d   1      12.867   5.694  -8.933  0.00  0.00    -0.495 OA
BRANCH  66  67
ATOM     67  C   LIG d   1      12.991   4.747  -9.994  0.00  0.00     0.079 C 
ATOM     68  H   LIG d   1      12.003   4.383 -10.274  0.00  0.00     0.066 H 
ATOM     69  H   LIG d   1      13.459   5.225 -10.856  0.00  0.00     0.066 H 
ATOM     70  H   LIG d   1      13.607   3.909  -9.665  0.00  0.00     0.066 H 
ENDBRANCH  66  67
ENDBRANCH  59  66
ENDBRANCH   1  52
TORSDOF 8
ENDMDL
MODEL 10
REMARK VINA RESULT:      -6.4      3.851      7.428
REMARK  8 active torsions:
REMARK  status: ('A' for Active; 'I' for Inactive)
REMARK    1  A    between atoms: C_1  and  O_2 
REMARK    2  A    between atoms: O_2  and  C_3 
REMARK    3  A    between atoms: C_6  and  C_11 
REMARK    4  A    between atoms: C_7  and  O_9 
REMARK    5  A    between atoms: O_9  and  C_10 
REMARK    6  A    between atoms: N_30  and  C_33 
REMARK    7  A    between atoms: C_33  and  C_34 
REMARK    8  A    between atoms: C_34  and  C_35 
ROOT
ATOM      1  C   LIG d   1       8.963   0.117  -5.164  0.00  0.00     0.096 C 
ATOM      2  H   LIG d   1       9.787   0.460  -4.538  0.00  0.00     0.062 H 
ATOM      3  C   LIG d   1       7.685   0.078  -4.357  0.00  0.00     0.046 A 
ATOM      4  C   LIG d   1       7.095  -1.066  -3.949  0.00  0.00    -0.015 A 
ATOM      5  C   LIG d   1       5.909  -0.690  -3.205  0.00  0.00     0.003 A 
ATOM      6  C   LIG d   1       4.923  -1.436  -2.554  0.00  0.00    -0.052 A 
ATOM      7  C   LIG d   1       3.919  -0.733  -1.937  0.00  0.00    -0.061 A 
ATOM      8  C   LIG d   1       3.874   0.651  -1.952  0.00  0.00    -0.060 A 
ATOM      9  C   LIG d   1       4.837   1.415  -2.588  0.00  0.00    -0.038 A 
ATOM     10  C   LIG d   1       5.869   0.728  -3.223  0.00  0.00     0.047 A 
ATOM     11  N   LIG d   1       6.958   1.156  -3.927  0.00  0.00    -0.356 N 
ATOM     12  H   LIG d   1       7.182   2.084  -4.097  0.00  0.00     0.166 HD
ATOM     13  C   LIG d   1       7.613  -2.450  -4.242  0.00  0.00     0.002 C 
ATOM     14  C   LIG d   1       9.083  -2.350  -4.673  0.00  0.00     0.107 A 
ATOM     15  H   LIG d   1       9.682  -2.123  -3.790  0.00  0.00     0.060 H 
ATOM     16  N   LIG d   1       9.228  -1.259  -5.635  0.00  0.00    -0.276 N 
ATOM     17  C   LIG d   1       9.590  -1.450  -6.906  0.00  0.00     0.234 A 
ATOM     18  O   LIG d   1       9.616  -0.483  -7.637  0.00  0.00    -0.274 OA
ATOM     19  C   LIG d   1       9.964  -2.774  -7.487  0.00  0.00     0.091 A 
ATOM     20  N   LIG d   1       9.921  -3.838  -6.497  0.00  0.00    -0.291 N 
ATOM     21  C   LIG d   1       9.533  -3.659  -5.236  0.00  0.00     0.237 A 
ATOM     22  O   LIG d   1       9.543  -4.622  -4.498  0.00  0.00    -0.274 OA
ATOM     23  H   LIG d   1       4.950  -2.517  -2.537  0.00  0.00     0.062 H 
ATOM     24  H   LIG d   1       3.138  -1.276  -1.425  0.00  0.00     0.062 H 
ATOM     25  H   LIG d   1       3.058   1.152  -1.451  0.00  0.00     0.062 H 
ATOM     26  H   LIG d   1       4.791   2.495  -2.591  0.00  0.00     0.064 H 
ATOM     27  H   LIG d   1       7.028  -2.898  -5.047  0.00  0.00     0.034 H 
ATOM     28  H   LIG d   1       7.536  -3.069  -3.348  0.00  0.00     0.034 H 
ATOM     29  H   LIG d   1      10.974  -2.710  -7.894  0.00  0.00     0.056 H 
ATOM     30  H   LIG d   1       9.273  -3.015  -8.296  0.00  0.00     0.056 H 
ENDROOT
BRANCH  20  31
ATOM     31  C   LIG d   1      10.327  -5.182  -6.910  0.00  0.00     0.019 C 
ATOM     32  H   LIG d   1      11.321  -5.142  -7.357  0.00  0.00     0.047 H 
ATOM     33  H   LIG d   1      10.346  -5.840  -6.041  0.00  0.00     0.047 H 
BRANCH  31  34
ATOM     34  C   LIG d   1       9.330  -5.724  -7.937  0.00  0.00    -0.016 C 
ATOM     35  H   LIG d   1       9.162  -4.975  -8.710  0.00  0.00     0.033 H 
ATOM     36  H   LIG d   1       9.732  -6.630  -8.391  0.00  0.00     0.033 H 
BRANCH  34  37
ATOM     37  C   LIG d   1       8.026  -6.041  -7.253  0.00  0.00    -0.072 C 
ATOM     38  C   LIG d   1       6.846  -5.161  -7.542  0.00  0.00    -0.032 C 
ATOM     39  C   LIG d   1       5.550  -5.863  -7.123  0.00  0.00    -0.049 C 
ATOM     40  H   LIG d   1       6.949  -4.226  -6.990  0.00  0.00     0.031 H 
ATOM     41  H   LIG d   1       6.809  -4.946  -8.610  0.00  0.00     0.031 H 
ATOM     42  C   LIG d   1       5.725  -6.381  -5.690  0.00  0.00    -0.049 C 
ATOM     43  H   LIG d   1       5.350  -6.698  -7.793  0.00  0.00     0.027 H 
ATOM     44  H   LIG d   1       4.723  -5.154  -7.158  0.00  0.00     0.027 H 
ATOM     45  C   LIG d   1       6.769  -7.500  -5.704  0.00  0.00    -0.035 C 
ATOM     46  H   LIG d   1       4.776  -6.771  -5.323  0.00  0.00     0.027 H 
ATOM     47  H   LIG d   1       6.064  -5.572  -5.043  0.00  0.00     0.027 H 
ATOM     48  C   LIG d   1       7.994  -7.055  -6.447  0.00  0.00    -0.085 C 
ATOM     49  H   LIG d   1       6.349  -8.380  -6.193  0.00  0.00     0.031 H 
ATOM     50  H   LIG d   1       7.039  -7.752  -4.678  0.00  0.00     0.031 H 
ATOM     51  H   LIG d   1       8.905  -7.616  -6.303  0.00  0.00     0.057 H 
ENDBRANCH  34  37
ENDBRANCH  31  34
ENDBRANCH  20  31
BRANCH   1  52
ATOM     52  C   LIG d   1       8.795   1.039  -6.344  0.00  0.00     0.021 A 
ATOM     53  C   LIG d   1       7.670   0.944  -7.141  0.00  0.00    -0.050 A 
ATOM     54  C   LIG d   1       7.510   1.792  -8.220  0.00  0.00    -0.019 A 
ATOM     55  H   LIG d   1       6.912   0.208  -6.917  0.00  0.00     0.062 H 
ATOM     56  C   LIG d   1       8.486   2.734  -8.513  0.00  0.00     0.124 A 
ATOM     57  H   LIG d   1       6.629   1.718  -8.838  0.00  0.00     0.065 H 
ATOM     58  C   LIG d   1       9.619   2.829  -7.718  0.00  0.00     0.022 A 
ATOM     59  C   LIG d   1       9.773   1.980  -6.633  0.00  0.00     0.129 A 
ATOM     60  H   LIG d   1      10.378   3.562  -7.944  0.00  0.00     0.069 H 
BRANCH  56  61
ATOM     61  O   LIG d   1       8.332   3.565  -9.578  0.00  0.00    -0.495 OA
BRANCH  61  62
ATOM     62  C   LIG d   1       8.824   4.898  -9.437  0.00  0.00     0.079 C 
ATOM     63  H   LIG d   1       9.807   4.974  -9.904  0.00  0.00     0.066 H 
ATOM     64  H   LIG d   1       8.138   5.592  -9.922  0.00  0.00     0.066 H 
ATOM     65  H   LIG d   1       8.904   5.147  -8.379  0.00  0.00     0.066 H 
ENDBRANCH  61  62
ENDBRANCH  56  61
BRANCH  59  66
ATOM     66  O   LIG d   1      10.882   2.071  -5.852  0.00  0.00    -0.495 OA
BRANCH  66  67
ATOM     67  C   LIG d   1      11.094   3.306  -5.166  0.00  0.00     0.079 C 
ATOM     68  H   LIG d   1      10.974   3.152  -4.095  0.00  0.00     0.066 H 
ATOM     69  H   LIG d   1      12.104   3.666  -5.370  0.00  0.00     0.066 H 
ATOM     70  H   LIG d   1      10.369   4.043  -5.512  0.00  0.00     0.066 H 
ENDBRANCH  66  67
ENDBRANCH  59  66
ENDBRANCH   1  52
TORSDOF 8
ENDMDL
