MODEL 1
REMARK VINA RESULT:      -7.2      0.000      0.000
REMARK  5 active torsions:
REMARK  status: ('A' for Active; 'I' for Inactive)
REMARK    1  A    between atoms: C_1  and  C_2 
REMARK    2  A    between atoms: C_5  and  C_8 
REMARK    3  A    between atoms: C_8  and  N_9 
REMARK       I    between atoms: N_9  and  C_10 
REMARK    4  A    between atoms: C_10  and  C_12 
REMARK    5  A    between atoms: N_18  and  C_19 
ROOT
ATOM      1  C   LIG d   1       4.859  -3.077  -8.646  0.00  0.00     0.106 C 
ATOM      2  H   LIG d   1       3.790  -2.861  -8.665  0.00  0.00     0.060 H 
ATOM      3  C   LIG d   1       5.191  -4.213  -9.639  0.00  0.00    -0.017 C 
ATOM      4  C   LIG d   1       5.576  -3.419 -10.909  0.00  0.00     0.026 C 
ATOM      5  C   LIG d   1       6.027  -2.073 -10.385  0.00  0.00     0.219 C 
ATOM      6  O   LIG d   1       6.663  -1.259 -11.018  0.00  0.00    -0.276 OA
ATOM      7  N   LIG d   1       5.621  -1.913  -9.113  0.00  0.00    -0.251 N 
ATOM      8  H   LIG d   1       6.031  -4.809  -9.283  0.00  0.00     0.029 H 
ATOM      9  H   LIG d   1       4.318  -4.840  -9.821  0.00  0.00     0.029 H 
ATOM     10  H   LIG d   1       6.389  -3.917 -11.438  0.00  0.00     0.036 H 
ATOM     11  H   LIG d   1       4.712  -3.302 -11.562  0.00  0.00     0.036 H 
ENDROOT
BRANCH   1  12
ATOM     12  C   LIG d   1       5.288  -3.458  -7.253  0.00  0.00     0.234 C 
ATOM     13  N   LIG d   1       4.439  -3.300  -6.219  0.00  0.00    -0.310 N 
ATOM     14  H   LIG d   1       3.550  -2.941  -6.371  0.00  0.00     0.149 HD
ATOM     15  O   LIG d   1       6.399  -3.906  -7.063  0.00  0.00    -0.274 OA
BRANCH  13  16
ATOM     16  C   LIG d   1       4.856  -3.670  -4.865  0.00  0.00     0.037 C 
ATOM     17  H   LIG d   1       4.182  -4.430  -4.471  0.00  0.00     0.051 H 
ATOM     18  H   LIG d   1       5.873  -4.065  -4.893  0.00  0.00     0.051 H 
BRANCH  16  19
ATOM     19  C   LIG d   1       4.815  -2.454  -3.976  0.00  0.00    -0.030 A 
ATOM     20  C   LIG d   1       5.556  -1.333  -4.303  0.00  0.00    -0.057 A 
ATOM     21  C   LIG d   1       5.518  -0.218  -3.488  0.00  0.00    -0.059 A 
ATOM     22  H   LIG d   1       6.163  -1.329  -5.196  0.00  0.00     0.062 H 
ATOM     23  C   LIG d   1       4.741  -0.222  -2.345  0.00  0.00    -0.050 A 
ATOM     24  H   LIG d   1       6.097   0.658  -3.743  0.00  0.00     0.062 H 
ATOM     25  C   LIG d   1       4.000  -1.343  -2.017  0.00  0.00    -0.059 A 
ATOM     26  C   LIG d   1       4.034  -2.456  -2.835  0.00  0.00    -0.057 A 
ATOM     27  H   LIG d   1       3.393  -1.347  -1.125  0.00  0.00     0.062 H 
ATOM     28  H   LIG d   1       3.452  -3.331  -2.582  0.00  0.00     0.062 H 
BRANCH  23  29
ATOM     29  C   LIG d   1       4.700   0.995  -1.456  0.00  0.00    -0.040 C 
ATOM     30  H   LIG d   1       4.258   1.828  -2.002  0.00  0.00     0.028 H 
ATOM     31  H   LIG d   1       4.098   0.779  -0.573  0.00  0.00     0.028 H 
ATOM     32  H   LIG d   1       5.713   1.255  -1.151  0.00  0.00     0.028 H 
ENDBRANCH  23  29
ENDBRANCH  16  19
ENDBRANCH  13  16
ENDBRANCH   1  12
BRANCH   7  33
ATOM     33  C   LIG d   1       5.899  -0.727  -8.300  0.00  0.00     0.201 A 
ATOM     34  H   LIG d   1       5.976  -1.004  -7.249  0.00  0.00     0.101 H 
ATOM     35  O   LIG d   1       7.132  -0.097  -8.742  0.00  0.00    -0.435 OA
ATOM     36  C   LIG d   1       6.863   1.153  -9.153  0.00  0.00     0.342 A 
ATOM     37  C   LIG d   1       5.423   1.437  -9.010  0.00  0.00     0.067 A 
ATOM     38  O   LIG d   1       7.687   1.937  -9.581  0.00  0.00    -0.245 OA
ATOM     39  C   LIG d   1       4.808   0.296  -8.487  0.00  0.00     0.025 A 
ATOM     40  C   LIG d   1       4.651   2.566  -9.292  0.00  0.00    -0.047 A 
ATOM     41  C   LIG d   1       3.452   0.286  -8.252  0.00  0.00    -0.053 A 
ATOM     42  C   LIG d   1       2.693   1.409  -8.535  0.00  0.00    -0.061 A 
ATOM     43  H   LIG d   1       2.982  -0.596  -7.844  0.00  0.00     0.062 H 
ATOM     44  C   LIG d   1       3.293   2.543  -9.053  0.00  0.00    -0.061 A 
ATOM     45  H   LIG d   1       1.629   1.400  -8.350  0.00  0.00     0.062 H 
ATOM     46  H   LIG d   1       2.694   3.416  -9.270  0.00  0.00     0.062 H 
ATOM     47  H   LIG d   1       5.116   3.453  -9.696  0.00  0.00     0.063 H 
ENDBRANCH   7  33
TORSDOF 5
ENDMDL
MODEL 2
REMARK VINA RESULT:      -7.1      2.264      6.424
REMARK  5 active torsions:
REMARK  status: ('A' for Active; 'I' for Inactive)
REMARK    1  A    between atoms: C_1  and  C_2 
REMARK    2  A    between atoms: C_5  and  C_8 
REMARK    3  A    between atoms: C_8  and  N_9 
REMARK       I    between atoms: N_9  and  C_10 
REMARK    4  A    between atoms: C_10  and  C_12 
REMARK    5  A    between atoms: N_18  and  C_19 
ROOT
ATOM      1  C   LIG d   1       8.268  -0.001  -6.153  0.00  0.00     0.106 C 
ATOM      2  H   LIG d   1       8.256   0.824  -5.441  0.00  0.00     0.060 H 
ATOM      3  C   LIG d   1       9.702  -0.557  -6.303  0.00  0.00    -0.017 C 
ATOM      4  C   LIG d   1       9.702  -1.709  -5.270  0.00  0.00     0.026 C 
ATOM      5  C   LIG d   1       8.243  -2.089  -5.136  0.00  0.00     0.219 C 
ATOM      6  O   LIG d   1       7.837  -3.119  -4.641  0.00  0.00    -0.276 OA
ATOM      7  N   LIG d   1       7.465  -1.121  -5.647  0.00  0.00    -0.251 N 
ATOM      8  H   LIG d   1       9.870  -0.937  -7.310  0.00  0.00     0.029 H 
ATOM      9  H   LIG d   1      10.442   0.199  -6.042  0.00  0.00     0.029 H 
ATOM     10  H   LIG d   1      10.286  -2.552  -5.640  0.00  0.00     0.036 H 
ATOM     11  H   LIG d   1      10.094  -1.365  -4.314  0.00  0.00     0.036 H 
ENDROOT
BRANCH   1  12
ATOM     12  C   LIG d   1       7.742   0.456  -7.489  0.00  0.00     0.234 C 
ATOM     13  N   LIG d   1       6.826   1.442  -7.552  0.00  0.00    -0.310 N 
ATOM     14  H   LIG d   1       6.505   1.858  -6.736  0.00  0.00     0.149 HD
ATOM     15  O   LIG d   1       8.144  -0.064  -8.509  0.00  0.00    -0.274 OA
BRANCH  13  16
ATOM     16  C   LIG d   1       6.316   1.888  -8.850  0.00  0.00     0.037 C 
ATOM     17  H   LIG d   1       6.165   2.967  -8.831  0.00  0.00     0.051 H 
ATOM     18  H   LIG d   1       7.036   1.635  -9.630  0.00  0.00     0.051 H 
BRANCH  16  19
ATOM     19  C   LIG d   1       5.005   1.202  -9.137  0.00  0.00    -0.030 A 
ATOM     20  C   LIG d   1       4.222   0.743  -8.094  0.00  0.00    -0.057 A 
ATOM     21  C   LIG d   1       3.020   0.115  -8.357  0.00  0.00    -0.059 A 
ATOM     22  H   LIG d   1       4.551   0.876  -7.073  0.00  0.00     0.062 H 
ATOM     23  C   LIG d   1       2.599  -0.055  -9.662  0.00  0.00    -0.050 A 
ATOM     24  H   LIG d   1       2.408  -0.245  -7.542  0.00  0.00     0.062 H 
ATOM     25  C   LIG d   1       3.382   0.404 -10.706  0.00  0.00    -0.059 A 
ATOM     26  C   LIG d   1       4.581   1.037 -10.443  0.00  0.00    -0.057 A 
ATOM     27  H   LIG d   1       3.053   0.272 -11.726  0.00  0.00     0.062 H 
ATOM     28  H   LIG d   1       5.191   1.400 -11.257  0.00  0.00     0.062 H 
BRANCH  23  29
ATOM     29  C   LIG d   1       1.287  -0.740  -9.949  0.00  0.00    -0.040 C 
ATOM     30  H   LIG d   1       1.438  -1.511 -10.704  0.00  0.00     0.028 H 
ATOM     31  H   LIG d   1       0.909  -1.198  -9.034  0.00  0.00     0.028 H 
ATOM     32  H   LIG d   1       0.567  -0.008 -10.313  0.00  0.00     0.028 H 
ENDBRANCH  23  29
ENDBRANCH  16  19
ENDBRANCH  13  16
ENDBRANCH   1  12
BRANCH   7  33
ATOM     33  C   LIG d   1       6.001  -1.174  -5.689  0.00  0.00     0.201 A 
ATOM     34  H   LIG d   1       5.620  -0.423  -6.383  0.00  0.00     0.101 H 
ATOM     35  O   LIG d   1       5.561  -2.497  -6.096  0.00  0.00    -0.435 OA
ATOM     36  C   LIG d   1       4.818  -3.033  -5.113  0.00  0.00     0.342 A 
ATOM     37  C   LIG d   1       4.716  -2.093  -3.983  0.00  0.00     0.067 A 
ATOM     38  O   LIG d   1       4.304  -4.133  -5.151  0.00  0.00    -0.245 OA
ATOM     39  C   LIG d   1       5.435  -0.941  -4.311  0.00  0.00     0.025 A 
ATOM     40  C   LIG d   1       4.071  -2.170  -2.746  0.00  0.00    -0.047 A 
ATOM     41  C   LIG d   1       5.507   0.109  -3.425  0.00  0.00    -0.053 A 
ATOM     42  C   LIG d   1       4.866   0.025  -2.200  0.00  0.00    -0.061 A 
ATOM     43  H   LIG d   1       6.060   0.998  -3.686  0.00  0.00     0.062 H 
ATOM     44  C   LIG d   1       4.151  -1.112  -1.865  0.00  0.00    -0.061 A 
ATOM     45  H   LIG d   1       4.924   0.849  -1.505  0.00  0.00     0.062 H 
ATOM     46  H   LIG d   1       3.653  -1.170  -0.908  0.00  0.00     0.062 H 
ATOM     47  H   LIG d   1       3.512  -3.055  -2.481  0.00  0.00     0.063 H 
ENDBRANCH   7  33
TORSDOF 5
ENDMDL
MODEL 3
REMARK VINA RESULT:      -7.0      2.813      6.973
REMARK  5 active torsions:
REMARK  status: ('A' for Active; 'I' for Inactive)
REMARK    1  A    between atoms: C_1  and  C_2 
REMARK    2  A    between atoms: C_5  and  C_8 
REMARK    3  A    between atoms: C_8  and  N_9 
REMARK       I    between atoms: N_9  and  C_10 
REMARK    4  A    between atoms: C_10  and  C_12 
REMARK    5  A    between atoms: N_18  and  C_19 
ROOT
ATOM      1  C   LIG d   1       3.224  -0.809  -4.169  0.00  0.00     0.106 C 
ATOM      2  H   LIG d   1       2.495  -1.609  -4.305  0.00  0.00     0.060 H 
ATOM      3  C   LIG d   1       3.112  -0.221  -2.745  0.00  0.00    -0.017 C 
ATOM      4  C   LIG d   1       4.170  -1.048  -1.978  0.00  0.00     0.026 C 
ATOM      5  C   LIG d   1       5.140  -1.498  -3.050  0.00  0.00     0.219 C 
ATOM      6  O   LIG d   1       6.253  -1.932  -2.843  0.00  0.00    -0.276 OA
ATOM      7  N   LIG d   1       4.588  -1.343  -4.266  0.00  0.00    -0.251 N 
ATOM      8  H   LIG d   1       3.366   0.838  -2.739  0.00  0.00     0.029 H 
ATOM      9  H   LIG d   1       2.116  -0.386  -2.332  0.00  0.00     0.029 H 
ATOM     10  H   LIG d   1       4.677  -0.427  -1.239  0.00  0.00     0.036 H 
ATOM     11  H   LIG d   1       3.708  -1.910  -1.499  0.00  0.00     0.036 H 
ENDROOT
BRANCH   1  12
ATOM     12  C   LIG d   1       3.011   0.270  -5.198  0.00  0.00     0.234 C 
ATOM     13  N   LIG d   1       2.917  -0.052  -6.503  0.00  0.00    -0.310 N 
ATOM     14  H   LIG d   1       2.986  -0.979  -6.780  0.00  0.00     0.149 HD
ATOM     15  O   LIG d   1       2.925   1.429  -4.852  0.00  0.00    -0.274 OA
BRANCH  13  16
ATOM     16  C   LIG d   1       2.710   0.997  -7.504  0.00  0.00     0.037 C 
ATOM     17  H   LIG d   1       1.755   1.489  -7.322  0.00  0.00     0.051 H 
ATOM     18  H   LIG d   1       3.515   1.730  -7.435  0.00  0.00     0.051 H 
BRANCH  16  19
ATOM     19  C   LIG d   1       2.707   0.385  -8.881  0.00  0.00    -0.030 A 
ATOM     20  C   LIG d   1       3.532   0.895  -9.866  0.00  0.00    -0.057 A 
ATOM     21  C   LIG d   1       3.529   0.334 -11.129  0.00  0.00    -0.059 A 
ATOM     22  H   LIG d   1       4.180   1.731  -9.648  0.00  0.00     0.062 H 
ATOM     23  C   LIG d   1       2.701  -0.737 -11.408  0.00  0.00    -0.050 A 
ATOM     24  H   LIG d   1       4.174   0.732 -11.899  0.00  0.00     0.062 H 
ATOM     25  C   LIG d   1       1.874  -1.246 -10.423  0.00  0.00    -0.059 A 
ATOM     26  C   LIG d   1       1.882  -0.689  -9.159  0.00  0.00    -0.057 A 
ATOM     27  H   LIG d   1       1.227  -2.083 -10.641  0.00  0.00     0.062 H 
ATOM     28  H   LIG d   1       1.240  -1.089  -8.388  0.00  0.00     0.062 H 
BRANCH  23  29
ATOM     29  C   LIG d   1       2.697  -1.348 -12.786  0.00  0.00    -0.040 C 
ATOM     30  H   LIG d   1       1.672  -1.571 -13.082  0.00  0.00     0.028 H 
ATOM     31  H   LIG d   1       3.136  -0.647 -13.496  0.00  0.00     0.028 H 
ATOM     32  H   LIG d   1       3.281  -2.268 -12.776  0.00  0.00     0.028 H 
ENDBRANCH  23  29
ENDBRANCH  16  19
ENDBRANCH  13  16
ENDBRANCH   1  12
BRANCH   7  33
ATOM     33  C   LIG d   1       5.260  -1.670  -5.526  0.00  0.00     0.201 A 
ATOM     34  H   LIG d   1       4.631  -1.382  -6.370  0.00  0.00     0.101 H 
ATOM     35  O   LIG d   1       6.540  -0.987  -5.601  0.00  0.00    -0.435 OA
ATOM     36  C   LIG d   1       7.519  -1.902  -5.694  0.00  0.00     0.342 A 
ATOM     37  C   LIG d   1       6.949  -3.262  -5.686  0.00  0.00     0.067 A 
ATOM     38  O   LIG d   1       8.704  -1.646  -5.772  0.00  0.00    -0.245 OA
ATOM     39  C   LIG d   1       5.560  -3.147  -5.584  0.00  0.00     0.025 A 
ATOM     40  C   LIG d   1       7.529  -4.530  -5.758  0.00  0.00    -0.047 A 
ATOM     41  C   LIG d   1       4.770  -4.274  -5.554  0.00  0.00    -0.053 A 
ATOM     42  C   LIG d   1       5.354  -5.528  -5.625  0.00  0.00    -0.061 A 
ATOM     43  H   LIG d   1       3.698  -4.179  -5.479  0.00  0.00     0.062 H 
ATOM     44  C   LIG d   1       6.729  -5.652  -5.726  0.00  0.00    -0.061 A 
ATOM     45  H   LIG d   1       4.734  -6.411  -5.601  0.00  0.00     0.062 H 
ATOM     46  H   LIG d   1       7.177  -6.634  -5.782  0.00  0.00     0.062 H 
ATOM     47  H   LIG d   1       8.601  -4.631  -5.837  0.00  0.00     0.063 H 
ENDBRANCH   7  33
TORSDOF 5
ENDMDL
MODEL 4
REMARK VINA RESULT:      -6.9      3.305      5.843
REMARK  5 active torsions:
REMARK  status: ('A' for Active; 'I' for Inactive)
REMARK    1  A    between atoms: C_1  and  C_2 
REMARK    2  A    between atoms: C_5  and  C_8 
REMARK    3  A    between atoms: C_8  and  N_9 
REMARK       I    between atoms: N_9  and  C_10 
REMARK    4  A    between atoms: C_10  and  C_12 
REMARK    5  A    between atoms: N_18  and  C_19 
ROOT
ATOM      1  C   LIG d   1       4.512  -3.265  -6.895  0.00  0.00     0.106 C 
ATOM      2  H   LIG d   1       3.739  -3.585  -6.196  0.00  0.00     0.060 H 
ATOM      3  C   LIG d   1       3.905  -3.041  -8.298  0.00  0.00    -0.017 C 
ATOM      4  C   LIG d   1       3.586  -1.528  -8.265  0.00  0.00     0.026 C 
ATOM      5  C   LIG d   1       4.544  -0.967  -7.235  0.00  0.00     0.219 C 
ATOM      6  O   LIG d   1       4.813   0.208  -7.104  0.00  0.00    -0.276 OA
ATOM      7  N   LIG d   1       5.055  -1.962  -6.490  0.00  0.00    -0.251 N 
ATOM      8  H   LIG d   1       4.631  -3.269  -9.078  0.00  0.00     0.029 H 
ATOM      9  H   LIG d   1       2.996  -3.627  -8.427  0.00  0.00     0.029 H 
ATOM     10  H   LIG d   1       3.767  -1.078  -9.241  0.00  0.00     0.036 H 
ATOM     11  H   LIG d   1       2.555  -1.361  -7.954  0.00  0.00     0.036 H 
ENDROOT
BRANCH   1  12
ATOM     12  C   LIG d   1       5.614  -4.291  -6.960  0.00  0.00     0.234 C 
ATOM     13  N   LIG d   1       5.701  -5.246  -6.014  0.00  0.00    -0.310 N 
ATOM     14  H   LIG d   1       5.055  -5.273  -5.290  0.00  0.00     0.149 HD
ATOM     15  O   LIG d   1       6.421  -4.257  -7.864  0.00  0.00    -0.274 OA
BRANCH  13  16
ATOM     16  C   LIG d   1       6.772  -6.245  -6.077  0.00  0.00     0.037 C 
ATOM     17  H   LIG d   1       6.961  -6.509  -7.117  0.00  0.00     0.051 H 
ATOM     18  H   LIG d   1       7.680  -5.832  -5.635  0.00  0.00     0.051 H 
BRANCH  16  19
ATOM     19  C   LIG d   1       6.357  -7.476  -5.313  0.00  0.00    -0.030 A 
ATOM     20  C   LIG d   1       5.048  -7.917  -5.372  0.00  0.00    -0.057 A 
ATOM     21  C   LIG d   1       4.668  -9.047  -4.672  0.00  0.00    -0.059 A 
ATOM     22  H   LIG d   1       4.324  -7.380  -5.966  0.00  0.00     0.062 H 
ATOM     23  C   LIG d   1       5.596  -9.734  -3.912  0.00  0.00    -0.050 A 
ATOM     24  H   LIG d   1       3.645  -9.392  -4.718  0.00  0.00     0.062 H 
ATOM     25  C   LIG d   1       6.904  -9.292  -3.852  0.00  0.00    -0.059 A 
ATOM     26  C   LIG d   1       7.286  -8.166  -4.557  0.00  0.00    -0.057 A 
ATOM     27  H   LIG d   1       7.629  -9.829  -3.259  0.00  0.00     0.062 H 
ATOM     28  H   LIG d   1       8.309  -7.823  -4.514  0.00  0.00     0.062 H 
BRANCH  23  29
ATOM     29  C   LIG d   1       5.180 -10.966  -3.148  0.00  0.00    -0.040 C 
ATOM     30  H   LIG d   1       5.998 -11.285  -2.501  0.00  0.00     0.028 H 
ATOM     31  H   LIG d   1       4.304 -10.738  -2.540  0.00  0.00     0.028 H 
ATOM     32  H   LIG d   1       4.938 -11.763  -3.850  0.00  0.00     0.028 H 
ENDBRANCH  23  29
ENDBRANCH  16  19
ENDBRANCH  13  16
ENDBRANCH   1  12
BRANCH   7  33
ATOM     33  C   LIG d   1       6.025  -1.771  -5.409  0.00  0.00     0.201 A 
ATOM     34  H   LIG d   1       6.684  -2.637  -5.341  0.00  0.00     0.101 H 
ATOM     35  O   LIG d   1       6.805  -0.568  -5.647  0.00  0.00    -0.435 OA
ATOM     36  C   LIG d   1       6.610   0.288  -4.630  0.00  0.00     0.342 A 
ATOM     37  C   LIG d   1       5.681  -0.295  -3.644  0.00  0.00     0.067 A 
ATOM     38  O   LIG d   1       7.125   1.385  -4.536  0.00  0.00    -0.245 OA
ATOM     39  C   LIG d   1       5.307  -1.561  -4.100  0.00  0.00     0.025 A 
ATOM     40  C   LIG d   1       5.165   0.181  -2.437  0.00  0.00    -0.047 A 
ATOM     41  C   LIG d   1       4.436  -2.334  -3.366  0.00  0.00    -0.053 A 
ATOM     42  C   LIG d   1       3.928  -1.855  -2.170  0.00  0.00    -0.061 A 
ATOM     43  H   LIG d   1       4.153  -3.313  -3.720  0.00  0.00     0.062 H 
ATOM     44  C   LIG d   1       4.293  -0.602  -1.710  0.00  0.00    -0.061 A 
ATOM     45  H   LIG d   1       3.245  -2.462  -1.595  0.00  0.00     0.062 H 
ATOM     46  H   LIG d   1       3.893  -0.235  -0.776  0.00  0.00     0.062 H 
ATOM     47  H   LIG d   1       5.448   1.158  -2.075  0.00  0.00     0.063 H 
ENDBRANCH   7  33
TORSDOF 5
ENDMDL
MODEL 5
REMARK VINA RESULT:      -6.9      2.071      2.856
REMARK  5 active torsions:
REMARK  status: ('A' for Active; 'I' for Inactive)
REMARK    1  A    between atoms: C_1  and  C_2 
REMARK    2  A    between atoms: C_5  and  C_8 
REMARK    3  A    between atoms: C_8  and  N_9 
REMARK       I    between atoms: N_9  and  C_10 
REMARK    4  A    between atoms: C_10  and  C_12 
REMARK    5  A    between atoms: N_18  and  C_19 
ROOT
ATOM      1  C   LIG d   1       6.440  -3.499  -7.691  0.00  0.00     0.106 C 
ATOM      2  H   LIG d   1       6.026  -4.424  -8.093  0.00  0.00     0.060 H 
ATOM      3  C   LIG d   1       7.863  -3.265  -8.247  0.00  0.00    -0.017 C 
ATOM      4  C   LIG d   1       7.578  -2.370  -9.475  0.00  0.00     0.026 C 
ATOM      5  C   LIG d   1       6.258  -1.703  -9.153  0.00  0.00     0.219 C 
ATOM      6  O   LIG d   1       5.816  -0.726  -9.720  0.00  0.00    -0.276 OA
ATOM      7  N   LIG d   1       5.649  -2.349  -8.144  0.00  0.00    -0.251 N 
ATOM      8  H   LIG d   1       8.484  -2.742  -7.520  0.00  0.00     0.029 H 
ATOM      9  H   LIG d   1       8.323  -4.205  -8.549  0.00  0.00     0.029 H 
ATOM     10  H   LIG d   1       8.364  -1.625  -9.596  0.00  0.00     0.036 H 
ATOM     11  H   LIG d   1       7.486  -2.976 -10.376  0.00  0.00     0.036 H 
ENDROOT
BRANCH   1  12
ATOM     12  C   LIG d   1       6.469  -3.553  -6.186  0.00  0.00     0.234 C 
ATOM     13  N   LIG d   1       7.267  -2.715  -5.496  0.00  0.00    -0.310 N 
ATOM     14  H   LIG d   1       7.824  -2.076  -5.969  0.00  0.00     0.149 HD
ATOM     15  O   LIG d   1       5.773  -4.352  -5.595  0.00  0.00    -0.274 OA
BRANCH  13  16
ATOM     16  C   LIG d   1       7.295  -2.767  -4.032  0.00  0.00     0.037 C 
ATOM     17  H   LIG d   1       6.936  -3.740  -3.697  0.00  0.00     0.051 H 
ATOM     18  H   LIG d   1       8.317  -2.617  -3.683  0.00  0.00     0.051 H 
BRANCH  16  19
ATOM     19  C   LIG d   1       6.409  -1.684  -3.473  0.00  0.00    -0.030 A 
ATOM     20  C   LIG d   1       5.221  -2.016  -2.849  0.00  0.00    -0.057 A 
ATOM     21  C   LIG d   1       4.409  -1.022  -2.336  0.00  0.00    -0.059 A 
ATOM     22  H   LIG d   1       4.928  -3.052  -2.763  0.00  0.00     0.062 H 
ATOM     23  C   LIG d   1       4.784   0.303  -2.447  0.00  0.00    -0.050 A 
ATOM     24  H   LIG d   1       3.480  -1.282  -1.849  0.00  0.00     0.062 H 
ATOM     25  C   LIG d   1       5.972   0.636  -3.072  0.00  0.00    -0.059 A 
ATOM     26  C   LIG d   1       6.787  -0.358  -3.580  0.00  0.00    -0.057 A 
ATOM     27  H   LIG d   1       6.265   1.671  -3.158  0.00  0.00     0.062 H 
ATOM     28  H   LIG d   1       7.717  -0.099  -4.064  0.00  0.00     0.062 H 
BRANCH  23  29
ATOM     29  C   LIG d   1       3.897   1.387  -1.888  0.00  0.00    -0.040 C 
ATOM     30  H   LIG d   1       3.098   0.935  -1.300  0.00  0.00     0.028 H 
ATOM     31  H   LIG d   1       4.487   2.046  -1.251  0.00  0.00     0.028 H 
ATOM     32  H   LIG d   1       3.466   1.962  -2.706  0.00  0.00     0.028 H 
ENDBRANCH  23  29
ENDBRANCH  16  19
ENDBRANCH  13  16
ENDBRANCH   1  12
BRANCH   7  33
ATOM     33  C   LIG d   1       4.357  -1.958  -7.573  0.00  0.00     0.201 A 
ATOM     34  H   LIG d   1       4.076  -2.649  -6.777  0.00  0.00     0.101 H 
ATOM     35  O   LIG d   1       4.430  -0.603  -7.054  0.00  0.00    -0.435 OA
ATOM     36  C   LIG d   1       3.542   0.164  -7.708  0.00  0.00     0.342 A 
ATOM     37  C   LIG d   1       2.816  -0.638  -8.710  0.00  0.00     0.067 A 
ATOM     38  O   LIG d   1       3.362   1.348  -7.503  0.00  0.00    -0.245 OA
ATOM     39  C   LIG d   1       3.299  -1.947  -8.647  0.00  0.00     0.025 A 
ATOM     40  C   LIG d   1       1.814  -0.319  -9.628  0.00  0.00    -0.047 A 
ATOM     41  C   LIG d   1       2.791  -2.915  -9.483  0.00  0.00    -0.053 A 
ATOM     42  C   LIG d   1       1.797  -2.591 -10.392  0.00  0.00    -0.061 A 
ATOM     43  H   LIG d   1       3.164  -3.926  -9.428  0.00  0.00     0.062 H 
ATOM     44  C   LIG d   1       1.312  -1.296 -10.462  0.00  0.00    -0.061 A 
ATOM     45  H   LIG d   1       1.399  -3.351 -11.047  0.00  0.00     0.062 H 
ATOM     46  H   LIG d   1       0.536  -1.051 -11.172  0.00  0.00     0.062 H 
ATOM     47  H   LIG d   1       1.433   0.690  -9.685  0.00  0.00     0.063 H 
ENDBRANCH   7  33
TORSDOF 5
ENDMDL
MODEL 6
REMARK VINA RESULT:      -6.8      4.096      6.037
REMARK  5 active torsions:
REMARK  status: ('A' for Active; 'I' for Inactive)
REMARK    1  A    between atoms: C_1  and  C_2 
REMARK    2  A    between atoms: C_5  and  C_8 
REMARK    3  A    between atoms: C_8  and  N_9 
REMARK       I    between atoms: N_9  and  C_10 
REMARK    4  A    between atoms: C_10  and  C_12 
REMARK    5  A    between atoms: N_18  and  C_19 
ROOT
ATOM      1  C   LIG d   1       8.000  -1.980  -4.524  0.00  0.00     0.106 C 
ATOM      2  H   LIG d   1       7.972  -1.839  -3.443  0.00  0.00     0.060 H 
ATOM      3  C   LIG d   1       8.379  -3.439  -4.864  0.00  0.00    -0.017 C 
ATOM      4  C   LIG d   1       6.988  -4.098  -5.014  0.00  0.00     0.026 C 
ATOM      5  C   LIG d   1       6.068  -2.950  -5.373  0.00  0.00     0.219 C 
ATOM      6  O   LIG d   1       4.957  -3.072  -5.842  0.00  0.00    -0.276 OA
ATOM      7  N   LIG d   1       6.665  -1.778  -5.098  0.00  0.00    -0.251 N 
ATOM      8  H   LIG d   1       8.937  -3.489  -5.799  0.00  0.00     0.029 H 
ATOM      9  H   LIG d   1       8.940  -3.896  -4.049  0.00  0.00     0.029 H 
ATOM     10  H   LIG d   1       7.002  -4.841  -5.811  0.00  0.00     0.036 H 
ATOM     11  H   LIG d   1       6.678  -4.554  -4.075  0.00  0.00     0.036 H 
ENDROOT
BRANCH   1  12
ATOM     12  C   LIG d   1       8.986  -1.025  -5.147  0.00  0.00     0.234 C 
ATOM     13  N   LIG d   1       9.324   0.109  -4.504  0.00  0.00    -0.310 N 
ATOM     14  H   LIG d   1       8.933   0.312  -3.640  0.00  0.00     0.149 HD
ATOM     15  O   LIG d   1       9.475  -1.279  -6.228  0.00  0.00    -0.274 OA
BRANCH  13  16
ATOM     16  C   LIG d   1      10.282   1.037  -5.109  0.00  0.00     0.037 C 
ATOM     17  H   LIG d   1      11.296   0.676  -4.938  0.00  0.00     0.051 H 
ATOM     18  H   LIG d   1      10.096   1.103  -6.182  0.00  0.00     0.051 H 
BRANCH  16  19
ATOM     19  C   LIG d   1      10.123   2.401  -4.489  0.00  0.00    -0.030 A 
ATOM     20  C   LIG d   1      10.547   2.624  -3.192  0.00  0.00    -0.057 A 
ATOM     21  C   LIG d   1      10.402   3.875  -2.623  0.00  0.00    -0.059 A 
ATOM     22  H   LIG d   1      10.993   1.820  -2.624  0.00  0.00     0.062 H 
ATOM     23  C   LIG d   1       9.831   4.903  -3.349  0.00  0.00    -0.050 A 
ATOM     24  H   LIG d   1      10.733   4.049  -1.609  0.00  0.00     0.062 H 
ATOM     25  C   LIG d   1       9.406   4.680  -4.646  0.00  0.00    -0.059 A 
ATOM     26  C   LIG d   1       9.557   3.431  -5.217  0.00  0.00    -0.057 A 
ATOM     27  H   LIG d   1       8.961   5.483  -5.213  0.00  0.00     0.062 H 
ATOM     28  H   LIG d   1       9.229   3.258  -6.232  0.00  0.00     0.062 H 
BRANCH  23  29
ATOM     29  C   LIG d   1       9.672   6.267  -2.727  0.00  0.00    -0.040 C 
ATOM     30  H   LIG d   1       8.939   6.842  -3.295  0.00  0.00     0.028 H 
ATOM     31  H   LIG d   1       9.329   6.160  -1.697  0.00  0.00     0.028 H 
ATOM     32  H   LIG d   1      10.630   6.785  -2.739  0.00  0.00     0.028 H 
ENDBRANCH  23  29
ENDBRANCH  16  19
ENDBRANCH  13  16
ENDBRANCH   1  12
BRANCH   7  33
ATOM     33  C   LIG d   1       6.057  -0.466  -5.336  0.00  0.00     0.201 A 
ATOM     34  H   LIG d   1       6.828   0.262  -5.589  0.00  0.00     0.101 H 
ATOM     35  O   LIG d   1       5.082  -0.555  -6.410  0.00  0.00    -0.435 OA
ATOM     36  C   LIG d   1       3.874  -0.210  -5.935  0.00  0.00     0.342 A 
ATOM     37  C   LIG d   1       3.968   0.133  -4.505  0.00  0.00     0.067 A 
ATOM     38  O   LIG d   1       2.851  -0.184  -6.590  0.00  0.00    -0.245 OA
ATOM     39  C   LIG d   1       5.301  -0.016  -4.111  0.00  0.00     0.025 A 
ATOM     40  C   LIG d   1       3.018   0.545  -3.568  0.00  0.00    -0.047 A 
ATOM     41  C   LIG d   1       5.674   0.241  -2.812  0.00  0.00    -0.053 A 
ATOM     42  C   LIG d   1       4.725   0.648  -1.889  0.00  0.00    -0.061 A 
ATOM     43  H   LIG d   1       6.705   0.128  -2.514  0.00  0.00     0.062 H 
ATOM     44  C   LIG d   1       3.403   0.799  -2.268  0.00  0.00    -0.061 A 
ATOM     45  H   LIG d   1       5.019   0.849  -0.869  0.00  0.00     0.062 H 
ATOM     46  H   LIG d   1       2.669   1.118  -1.543  0.00  0.00     0.062 H 
ATOM     47  H   LIG d   1       1.986   0.664  -3.861  0.00  0.00     0.063 H 
ENDBRANCH   7  33
TORSDOF 5
ENDMDL
MODEL 7
REMARK VINA RESULT:      -6.7      2.833      6.005
REMARK  5 active torsions:
REMARK  status: ('A' for Active; 'I' for Inactive)
REMARK    1  A    between atoms: C_1  and  C_2 
REMARK    2  A    between atoms: C_5  and  C_8 
REMARK    3  A    between atoms: C_8  and  N_9 
REMARK       I    between atoms: N_9  and  C_10 
REMARK    4  A    between atoms: C_10  and  C_12 
REMARK    5  A    between atoms: N_18  and  C_19 
ROOT
ATOM      1  C   LIG d   1       5.136  -0.341  -3.498  0.00  0.00     0.106 C 
ATOM      2  H   LIG d   1       4.410   0.446  -3.707  0.00  0.00     0.060 H 
ATOM      3  C   LIG d   1       4.837  -0.995  -2.131  0.00  0.00    -0.017 C 
ATOM      4  C   LIG d   1       3.953  -2.195  -2.544  0.00  0.00     0.026 C 
ATOM      5  C   LIG d   1       4.344  -2.470  -3.980  0.00  0.00     0.219 C 
ATOM      6  O   LIG d   1       4.092  -3.490  -4.586  0.00  0.00    -0.276 OA
ATOM      7  N   LIG d   1       5.014  -1.420  -4.485  0.00  0.00    -0.251 N 
ATOM      8  H   LIG d   1       5.755  -1.335  -1.651  0.00  0.00     0.029 H 
ATOM      9  H   LIG d   1       4.287  -0.312  -1.483  0.00  0.00     0.029 H 
ATOM     10  H   LIG d   1       4.167  -3.061  -1.916  0.00  0.00     0.036 H 
ATOM     11  H   LIG d   1       2.898  -1.932  -2.482  0.00  0.00     0.036 H 
ENDROOT
BRANCH   1  12
ATOM     12  C   LIG d   1       6.533   0.224  -3.512  0.00  0.00     0.234 C 
ATOM     13  N   LIG d   1       6.739   1.504  -3.881  0.00  0.00    -0.310 N 
ATOM     14  H   LIG d   1       5.988   2.062  -4.138  0.00  0.00     0.149 HD
ATOM     15  O   LIG d   1       7.472  -0.473  -3.192  0.00  0.00    -0.274 OA
BRANCH  13  16
ATOM     16  C   LIG d   1       8.097   2.053  -3.895  0.00  0.00     0.037 C 
ATOM     17  H   LIG d   1       8.133   2.949  -3.276  0.00  0.00     0.051 H 
ATOM     18  H   LIG d   1       8.793   1.311  -3.502  0.00  0.00     0.051 H 
BRANCH  16  19
ATOM     19  C   LIG d   1       8.483   2.403  -5.309  0.00  0.00    -0.030 A 
ATOM     20  C   LIG d   1       7.989   1.661  -6.365  0.00  0.00    -0.057 A 
ATOM     21  C   LIG d   1       8.343   1.983  -7.662  0.00  0.00    -0.059 A 
ATOM     22  H   LIG d   1       7.325   0.830  -6.176  0.00  0.00     0.062 H 
ATOM     23  C   LIG d   1       9.192   3.046  -7.903  0.00  0.00    -0.050 A 
ATOM     24  H   LIG d   1       7.957   1.402  -8.487  0.00  0.00     0.062 H 
ATOM     25  C   LIG d   1       9.687   3.789  -6.846  0.00  0.00    -0.059 A 
ATOM     26  C   LIG d   1       9.328   3.471  -5.551  0.00  0.00    -0.057 A 
ATOM     27  H   LIG d   1      10.350   4.620  -7.035  0.00  0.00     0.062 H 
ATOM     28  H   LIG d   1       9.711   4.053  -4.726  0.00  0.00     0.062 H 
BRANCH  23  29
ATOM     29  C   LIG d   1       9.578   3.396  -9.317  0.00  0.00    -0.040 C 
ATOM     30  H   LIG d   1      10.030   4.389  -9.335  0.00  0.00     0.028 H 
ATOM     31  H   LIG d   1      10.296   2.665  -9.690  0.00  0.00     0.028 H 
ATOM     32  H   LIG d   1       8.691   3.389  -9.948  0.00  0.00     0.028 H 
ENDBRANCH  23  29
ENDBRANCH  16  19
ENDBRANCH  13  16
ENDBRANCH   1  12
BRANCH   7  33
ATOM     33  C   LIG d   1       5.549  -1.359  -5.848  0.00  0.00     0.201 A 
ATOM     34  H   LIG d   1       6.319  -0.589  -5.912  0.00  0.00     0.101 H 
ATOM     35  O   LIG d   1       6.100  -2.649  -6.226  0.00  0.00    -0.435 OA
ATOM     36  C   LIG d   1       5.434  -3.113  -7.296  0.00  0.00     0.342 A 
ATOM     37  C   LIG d   1       4.390  -2.154  -7.701  0.00  0.00     0.067 A 
ATOM     38  O   LIG d   1       5.659  -4.170  -7.850  0.00  0.00    -0.245 OA
ATOM     39  C   LIG d   1       4.439  -1.066  -6.826  0.00  0.00     0.025 A 
ATOM     40  C   LIG d   1       3.445  -2.165  -8.729  0.00  0.00    -0.047 A 
ATOM     41  C   LIG d   1       3.565  -0.014  -6.976  0.00  0.00    -0.053 A 
ATOM     42  C   LIG d   1       2.630  -0.033  -7.998  0.00  0.00    -0.061 A 
ATOM     43  H   LIG d   1       3.610   0.826  -6.300  0.00  0.00     0.062 H 
ATOM     44  C   LIG d   1       2.573  -1.106  -8.870  0.00  0.00    -0.061 A 
ATOM     45  H   LIG d   1       1.944   0.793  -8.115  0.00  0.00     0.062 H 
ATOM     46  H   LIG d   1       1.842  -1.114  -9.665  0.00  0.00     0.062 H 
ATOM     47  H   LIG d   1       3.398  -3.001  -9.412  0.00  0.00     0.063 H 
ENDBRANCH   7  33
TORSDOF 5
ENDMDL
MODEL 8
REMARK VINA RESULT:      -6.7      4.791      7.466
REMARK  5 active torsions:
REMARK  status: ('A' for Active; 'I' for Inactive)
REMARK    1  A    between atoms: C_1  and  C_2 
REMARK    2  A    between atoms: C_5  and  C_8 
REMARK    3  A    between atoms: C_8  and  N_9 
REMARK       I    between atoms: N_9  and  C_10 
REMARK    4  A    between atoms: C_10  and  C_12 
REMARK    5  A    between atoms: N_18  and  C_19 
ROOT
ATOM      1  C   LIG d   1       8.325   0.513  -6.129  0.00  0.00     0.106 C 
ATOM      2  H   LIG d   1       8.875  -0.416  -6.288  0.00  0.00     0.060 H 
ATOM      3  C   LIG d   1       7.872   1.104  -7.482  0.00  0.00    -0.017 C 
ATOM      4  C   LIG d   1       6.448   0.517  -7.621  0.00  0.00     0.026 C 
ATOM      5  C   LIG d   1       6.020   0.236  -6.197  0.00  0.00     0.219 C 
ATOM      6  O   LIG d   1       4.879   0.030  -5.842  0.00  0.00    -0.276 OA
ATOM      7  N   LIG d   1       7.089   0.250  -5.382  0.00  0.00    -0.251 N 
ATOM      8  H   LIG d   1       7.842   2.193  -7.441  0.00  0.00     0.029 H 
ATOM      9  H   LIG d   1       8.515   0.761  -8.292  0.00  0.00     0.029 H 
ATOM     10  H   LIG d   1       5.780   1.243  -8.085  0.00  0.00     0.036 H 
ATOM     11  H   LIG d   1       6.470  -0.405  -8.200  0.00  0.00     0.036 H 
ENDROOT
BRANCH   1  12
ATOM     12  C   LIG d   1       9.182   1.504  -5.385  0.00  0.00     0.234 C 
ATOM     13  N   LIG d   1       8.738   2.759  -5.180  0.00  0.00    -0.310 N 
ATOM     14  H   LIG d   1       7.865   3.025  -5.510  0.00  0.00     0.149 HD
ATOM     15  O   LIG d   1      10.274   1.171  -4.973  0.00  0.00    -0.274 OA
BRANCH  13  16
ATOM     16  C   LIG d   1       9.572   3.723  -4.457  0.00  0.00     0.037 C 
ATOM     17  H   LIG d   1       9.177   3.862  -3.451  0.00  0.00     0.051 H 
ATOM     18  H   LIG d   1      10.594   3.346  -4.398  0.00  0.00     0.051 H 
BRANCH  16  19
ATOM     19  C   LIG d   1       9.565   5.041  -5.187  0.00  0.00    -0.030 A 
ATOM     20  C   LIG d   1       9.239   6.203  -4.513  0.00  0.00    -0.057 A 
ATOM     21  C   LIG d   1       9.233   7.412  -5.182  0.00  0.00    -0.059 A 
ATOM     22  H   LIG d   1       8.990   6.165  -3.462  0.00  0.00     0.062 H 
ATOM     23  C   LIG d   1       9.552   7.460  -6.526  0.00  0.00    -0.050 A 
ATOM     24  H   LIG d   1       8.978   8.320  -4.655  0.00  0.00     0.062 H 
ATOM     25  C   LIG d   1       9.877   6.298  -7.201  0.00  0.00    -0.059 A 
ATOM     26  C   LIG d   1       9.889   5.090  -6.530  0.00  0.00    -0.057 A 
ATOM     27  H   LIG d   1      10.127   6.336  -8.251  0.00  0.00     0.062 H 
ATOM     28  H   LIG d   1      10.147   4.182  -7.056  0.00  0.00     0.062 H 
BRANCH  23  29
ATOM     29  C   LIG d   1       9.544   8.779  -7.255  0.00  0.00    -0.040 C 
ATOM     30  H   LIG d   1       9.210   8.625  -8.282  0.00  0.00     0.028 H 
ATOM     31  H   LIG d   1       8.865   9.469  -6.753  0.00  0.00     0.028 H 
ATOM     32  H   LIG d   1      10.550   9.197  -7.259  0.00  0.00     0.028 H 
ENDBRANCH  23  29
ENDBRANCH  16  19
ENDBRANCH  13  16
ENDBRANCH   1  12
BRANCH   7  33
ATOM     33  C   LIG d   1       7.028   0.026  -3.935  0.00  0.00     0.201 A 
ATOM     34  H   LIG d   1       8.005  -0.287  -3.565  0.00  0.00     0.101 H 
ATOM     35  O   LIG d   1       6.603   1.240  -3.260  0.00  0.00    -0.435 OA
ATOM     36  C   LIG d   1       5.457   0.997  -2.603  0.00  0.00     0.342 A 
ATOM     37  C   LIG d   1       5.044  -0.404  -2.801  0.00  0.00     0.067 A 
ATOM     38  O   LIG d   1       4.849   1.815  -1.941  0.00  0.00    -0.245 OA
ATOM     39  C   LIG d   1       5.993  -1.023  -3.617  0.00  0.00     0.025 A 
ATOM     40  C   LIG d   1       3.948  -1.139  -2.342  0.00  0.00    -0.047 A 
ATOM     41  C   LIG d   1       5.851  -2.347  -3.966  0.00  0.00    -0.053 A 
ATOM     42  C   LIG d   1       4.762  -3.069  -3.507  0.00  0.00    -0.061 A 
ATOM     43  H   LIG d   1       6.590  -2.822  -4.593  0.00  0.00     0.062 H 
ATOM     44  C   LIG d   1       3.816  -2.465  -2.698  0.00  0.00    -0.061 A 
ATOM     45  H   LIG d   1       4.651  -4.108  -3.781  0.00  0.00     0.062 H 
ATOM     46  H   LIG d   1       2.969  -3.034  -2.343  0.00  0.00     0.062 H 
ATOM     47  H   LIG d   1       3.208  -0.670  -1.710  0.00  0.00     0.063 H 
ENDBRANCH   7  33
TORSDOF 5
ENDMDL
MODEL 9
REMARK VINA RESULT:      -6.7      3.688      6.251
REMARK  5 active torsions:
REMARK  status: ('A' for Active; 'I' for Inactive)
REMARK    1  A    between atoms: C_1  and  C_2 
REMARK    2  A    between atoms: C_5  and  C_8 
REMARK    3  A    between atoms: C_8  and  N_9 
REMARK       I    between atoms: N_9  and  C_10 
REMARK    4  A    between atoms: C_10  and  C_12 
REMARK    5  A    between atoms: N_18  and  C_19 
ROOT
ATOM      1  C   LIG d   1       6.649  -0.634  -7.697  0.00  0.00     0.106 C 
ATOM      2  H   LIG d   1       6.720  -1.706  -7.884  0.00  0.00     0.060 H 
ATOM      3  C   LIG d   1       5.820   0.049  -8.807  0.00  0.00    -0.017 C 
ATOM      4  C   LIG d   1       4.403   0.048  -8.187  0.00  0.00     0.026 C 
ATOM      5  C   LIG d   1       4.650  -0.008  -6.695  0.00  0.00     0.219 C 
ATOM      6  O   LIG d   1       3.824   0.248  -5.844  0.00  0.00    -0.276 OA
ATOM      7  N   LIG d   1       5.917  -0.382  -6.450  0.00  0.00    -0.251 N 
ATOM      8  H   LIG d   1       6.167   1.066  -8.985  0.00  0.00     0.029 H 
ATOM      9  H   LIG d   1       5.842  -0.537  -9.726  0.00  0.00     0.029 H 
ATOM     10  H   LIG d   1       3.870   0.961  -8.453  0.00  0.00     0.036 H 
ATOM     11  H   LIG d   1       3.844  -0.828  -8.513  0.00  0.00     0.036 H 
ENDROOT
BRANCH   1  12
ATOM     12  C   LIG d   1       8.026  -0.026  -7.625  0.00  0.00     0.234 C 
ATOM     13  N   LIG d   1       8.187   1.301  -7.791  0.00  0.00    -0.310 N 
ATOM     14  H   LIG d   1       7.416   1.866  -7.956  0.00  0.00     0.149 HD
ATOM     15  O   LIG d   1       8.990  -0.733  -7.419  0.00  0.00    -0.274 OA
BRANCH  13  16
ATOM     16  C   LIG d   1       9.526   1.892  -7.721  0.00  0.00     0.037 C 
ATOM     17  H   LIG d   1      10.233   1.147  -7.354  0.00  0.00     0.051 H 
ATOM     18  H   LIG d   1       9.829   2.223  -8.715  0.00  0.00     0.051 H 
BRANCH  16  19
ATOM     19  C   LIG d   1       9.507   3.071  -6.783  0.00  0.00    -0.030 A 
ATOM     20  C   LIG d   1       9.842   4.329  -7.249  0.00  0.00    -0.057 A 
ATOM     21  C   LIG d   1       9.824   5.411  -6.389  0.00  0.00    -0.059 A 
ATOM     22  H   LIG d   1      10.116   4.467  -8.284  0.00  0.00     0.062 H 
ATOM     23  C   LIG d   1       9.473   5.236  -5.064  0.00  0.00    -0.050 A 
ATOM     24  H   LIG d   1      10.086   6.395  -6.752  0.00  0.00     0.062 H 
ATOM     25  C   LIG d   1       9.139   3.977  -4.598  0.00  0.00    -0.059 A 
ATOM     26  C   LIG d   1       9.151   2.897  -5.459  0.00  0.00    -0.057 A 
ATOM     27  H   LIG d   1       8.865   3.840  -3.563  0.00  0.00     0.062 H 
ATOM     28  H   LIG d   1       8.886   1.914  -5.096  0.00  0.00     0.062 H 
BRANCH  23  29
ATOM     29  C   LIG d   1       9.455   6.416  -4.126  0.00  0.00    -0.040 C 
ATOM     30  H   LIG d   1      10.448   6.864  -4.086  0.00  0.00     0.028 H 
ATOM     31  H   LIG d   1       8.738   7.155  -4.486  0.00  0.00     0.028 H 
ATOM     32  H   LIG d   1       9.164   6.084  -3.130  0.00  0.00     0.028 H 
ENDBRANCH  23  29
ENDBRANCH  16  19
ENDBRANCH  13  16
ENDBRANCH   1  12
BRANCH   7  33
ATOM     33  C   LIG d   1       6.492  -0.525  -5.110  0.00  0.00     0.201 A 
ATOM     34  H   LIG d   1       7.462  -1.020  -5.171  0.00  0.00     0.101 H 
ATOM     35  O   LIG d   1       6.635   0.779  -4.486  0.00  0.00    -0.435 OA
ATOM     36  C   LIG d   1       5.897   0.811  -3.364  0.00  0.00     0.342 A 
ATOM     37  C   LIG d   1       5.211  -0.479  -3.169  0.00  0.00     0.067 A 
ATOM     38  O   LIG d   1       5.807   1.766  -2.618  0.00  0.00    -0.245 OA
ATOM     39  C   LIG d   1       5.561  -1.319  -4.229  0.00  0.00     0.025 A 
ATOM     40  C   LIG d   1       4.345  -0.947  -2.179  0.00  0.00    -0.047 A 
ATOM     41  C   LIG d   1       5.056  -2.598  -4.298  0.00  0.00    -0.053 A 
ATOM     42  C   LIG d   1       4.197  -3.054  -3.313  0.00  0.00    -0.061 A 
ATOM     43  H   LIG d   1       5.332  -3.244  -5.117  0.00  0.00     0.062 H 
ATOM     44  C   LIG d   1       3.844  -2.230  -2.258  0.00  0.00    -0.061 A 
ATOM     45  H   LIG d   1       3.800  -4.057  -3.367  0.00  0.00     0.062 H 
ATOM     46  H   LIG d   1       3.174  -2.594  -1.493  0.00  0.00     0.062 H 
ATOM     47  H   LIG d   1       4.068  -0.307  -1.355  0.00  0.00     0.063 H 
ENDBRANCH   7  33
TORSDOF 5
ENDMDL
