MODEL 1
REMARK VINA RESULT:      -7.3      0.000      0.000
REMARK  8 active torsions:
REMARK  status: ('A' for Active; 'I' for Inactive)
REMARK    1  A    between atoms: C_1  and  O_2 
REMARK    2  A    between atoms: O_2  and  C_3 
REMARK    3  A    between atoms: C_8  and  N_9 
REMARK       I    between atoms: N_12  and  C_15 
REMARK    4  A    between atoms: C_15  and  C_17 
REMARK    5  A    between atoms: C_17  and  C_18 
REMARK    6  A    between atoms: C_23  and  C_25 
REMARK    7  A    between atoms: C_25  and  C_26 
REMARK    8  A    between atoms: C_28  and  C_31 
ROOT
ATOM      1  N   LIG d   1       7.450   0.422  -4.108  0.00  0.00    -0.324 NA
ATOM      2  C   LIG d   1       8.090   1.612  -3.532  0.00  0.00     0.028 C 
ATOM      3  C   LIG d   1       9.423   1.867  -4.243  0.00  0.00     0.030 C 
ATOM      4  N   LIG d   1       9.174   1.935  -5.691  0.00  0.00    -0.298 N 
ATOM      5  C   LIG d   1       8.416   0.842  -6.319  0.00  0.00     0.030 C 
ATOM      6  C   LIG d   1       7.123   0.628  -5.526  0.00  0.00     0.028 C 
ATOM      7  C   LIG d   1       9.628   2.972  -6.423  0.00  0.00     0.216 C 
ATOM      8  O   LIG d   1       9.413   3.012  -7.616  0.00  0.00    -0.276 OA
ATOM      9  H   LIG d   1       7.438   2.476  -3.662  0.00  0.00     0.048 H 
ATOM     10  H   LIG d   1       8.270   1.449  -2.469  0.00  0.00     0.048 H 
ATOM     11  H   LIG d   1      10.114   1.051  -4.029  0.00  0.00     0.048 H 
ATOM     12  H   LIG d   1       9.847   2.810  -3.900  0.00  0.00     0.048 H 
ATOM     13  H   LIG d   1       9.010  -0.072  -6.304  0.00  0.00     0.048 H 
ATOM     14  H   LIG d   1       8.175   1.108  -7.348  0.00  0.00     0.048 H 
ATOM     15  H   LIG d   1       6.602  -0.249  -5.910  0.00  0.00     0.048 H 
ATOM     16  H   LIG d   1       6.483   1.504  -5.628  0.00  0.00     0.048 H 
ENDROOT
BRANCH   7  17
ATOM     17  C   LIG d   1      10.402   4.081  -5.759  0.00  0.00     0.028 C 
ATOM     18  H   LIG d   1      10.266   4.023  -4.679  0.00  0.00     0.036 H 
ATOM     19  H   LIG d   1      11.461   3.979  -5.998  0.00  0.00     0.036 H 
BRANCH  17  20
ATOM     20  C   LIG d   1       9.893   5.432  -6.264  0.00  0.00    -0.020 C 
ATOM     21  H   LIG d   1       8.970   5.287  -6.825  0.00  0.00     0.031 H 
ATOM     22  C   LIG d   1       9.629   6.357  -5.074  0.00  0.00     0.008 C 
ATOM     23  C   LIG d   1       9.180   7.728  -5.589  0.00  0.00    -0.030 C 
ATOM     24  H   LIG d   1       8.846   5.929  -4.447  0.00  0.00     0.036 H 
ATOM     25  H   LIG d   1       9.005   8.393  -4.743  0.00  0.00     0.082 H 
ATOM     26  H   LIG d   1       8.258   7.615  -6.159  0.00  0.00     0.082 H 
ATOM     27  N   LIG d   1      10.230   8.306  -6.449  0.00  0.00     0.227 N 
ATOM     28  C   LIG d   1      10.460   7.448  -7.626  0.00  0.00    -0.033 C 
ATOM     29  H   LIG d   1       9.935   9.238  -6.763  0.00  0.00     0.201 HD
ATOM     30  H   LIG d   1      11.101   8.385  -5.912  0.00  0.00     0.201 HD
ATOM     31  C   LIG d   1      10.949   6.069  -7.173  0.00  0.00    -0.009 C 
ATOM     32  H   LIG d   1      11.215   7.909  -8.261  0.00  0.00     0.081 H 
ATOM     33  H   LIG d   1       9.533   7.336  -8.187  0.00  0.00     0.081 H 
ATOM     34  H   LIG d   1      11.884   6.178  -6.623  0.00  0.00     0.032 H 
ATOM     35  H   LIG d   1      11.109   5.435  -8.045  0.00  0.00     0.032 H 
BRANCH  22  36
ATOM     36  C   LIG d   1      10.911   6.516  -4.255  0.00  0.00     0.001 C 
ATOM     37  H   LIG d   1      11.550   5.646  -4.407  0.00  0.00     0.033 H 
ATOM     38  H   LIG d   1      11.438   7.414  -4.576  0.00  0.00     0.033 H 
BRANCH  36  39
ATOM     39  C   LIG d   1      10.563   6.634  -2.793  0.00  0.00     0.085 A 
ATOM     40  N   LIG d   1       9.399   6.929  -2.293  0.00  0.00    -0.083 NA
ATOM     41  O   LIG d   1       9.417   6.947  -1.084  0.00  0.00    -0.353 OA
ATOM     42  C   LIG d   1      10.645   6.667  -0.606  0.00  0.00     0.183 A 
ATOM     43  C   LIG d   1      11.438   6.451  -1.700  0.00  0.00     0.009 A 
ATOM     44  H   LIG d   1      12.489   6.200  -1.722  0.00  0.00     0.068 H 
BRANCH  42  45
ATOM     45  C   LIG d   1      11.051   6.604   0.809  0.00  0.00     0.110 C 
ATOM     46  O   LIG d   1      11.684   7.516   1.302  0.00  0.00    -0.541 OA
ATOM     47  O   LIG d   1      10.721   5.532   1.557  0.00  0.00    -0.541 OA
ENDBRANCH  42  45
ENDBRANCH  36  39
ENDBRANCH  22  36
ENDBRANCH  17  20
ENDBRANCH   7  17
BRANCH   1  48
ATOM     48  C   LIG d   1       6.312   0.061  -3.378  0.00  0.00     0.072 A 
ATOM     49  C   LIG d   1       5.996  -1.283  -3.196  0.00  0.00     0.141 A 
ATOM     50  C   LIG d   1       4.868  -1.635  -2.473  0.00  0.00    -0.018 A 
ATOM     51  C   LIG d   1       4.060  -0.653  -1.933  0.00  0.00    -0.058 A 
ATOM     52  H   LIG d   1       4.622  -2.677  -2.331  0.00  0.00     0.066 H 
ATOM     53  C   LIG d   1       4.373   0.682  -2.112  0.00  0.00    -0.060 A 
ATOM     54  H   LIG d   1       3.181  -0.929  -1.368  0.00  0.00     0.062 H 
ATOM     55  C   LIG d   1       5.492   1.042  -2.838  0.00  0.00    -0.037 A 
ATOM     56  H   LIG d   1       3.737   1.446  -1.687  0.00  0.00     0.062 H 
ATOM     57  H   LIG d   1       5.731   2.085  -2.981  0.00  0.00     0.064 H 
BRANCH  49  58
ATOM     58  O   LIG d   1       6.793  -2.248  -3.727  0.00  0.00    -0.493 OA
BRANCH  58  59
ATOM     59  C   LIG d   1       6.179  -3.180  -4.619  0.00  0.00     0.079 C 
ATOM     60  H   LIG d   1       5.153  -2.870  -4.819  0.00  0.00     0.066 H 
ATOM     61  H   LIG d   1       6.738  -3.211  -5.555  0.00  0.00     0.066 H 
ATOM     62  H   LIG d   1       6.176  -4.171  -4.165  0.00  0.00     0.066 H 
ENDBRANCH  58  59
ENDBRANCH  49  58
ENDBRANCH   1  48
TORSDOF 8
ENDMDL
MODEL 2
REMARK VINA RESULT:      -7.2      6.705     10.525
REMARK  8 active torsions:
REMARK  status: ('A' for Active; 'I' for Inactive)
REMARK    1  A    between atoms: C_1  and  O_2 
REMARK    2  A    between atoms: O_2  and  C_3 
REMARK    3  A    between atoms: C_8  and  N_9 
REMARK       I    between atoms: N_12  and  C_15 
REMARK    4  A    between atoms: C_15  and  C_17 
REMARK    5  A    between atoms: C_17  and  C_18 
REMARK    6  A    between atoms: C_23  and  C_25 
REMARK    7  A    between atoms: C_25  and  C_26 
REMARK    8  A    between atoms: C_28  and  C_31 
ROOT
ATOM      1  N   LIG d   1       4.372  -0.089  -6.198  0.00  0.00    -0.324 NA
ATOM      2  C   LIG d   1       3.289  -0.425  -7.131  0.00  0.00     0.028 C 
ATOM      3  C   LIG d   1       3.363   0.498  -8.352  0.00  0.00     0.030 C 
ATOM      4  N   LIG d   1       4.719   0.415  -8.917  0.00  0.00    -0.298 N 
ATOM      5  C   LIG d   1       5.863   0.606  -8.013  0.00  0.00     0.030 C 
ATOM      6  C   LIG d   1       5.689  -0.322  -6.806  0.00  0.00     0.028 C 
ATOM      7  C   LIG d   1       4.907   0.171 -10.229  0.00  0.00     0.216 C 
ATOM      8  O   LIG d   1       6.032   0.105 -10.678  0.00  0.00    -0.276 OA
ATOM      9  H   LIG d   1       3.394  -1.462  -7.452  0.00  0.00     0.048 H 
ATOM     10  H   LIG d   1       2.327  -0.294  -6.634  0.00  0.00     0.048 H 
ATOM     11  H   LIG d   1       3.156   1.524  -8.048  0.00  0.00     0.048 H 
ATOM     12  H   LIG d   1       2.636   0.179  -9.097  0.00  0.00     0.048 H 
ATOM     13  H   LIG d   1       5.896   1.642  -7.676  0.00  0.00     0.048 H 
ATOM     14  H   LIG d   1       6.787   0.358  -8.534  0.00  0.00     0.048 H 
ATOM     15  H   LIG d   1       6.469  -0.115  -6.073  0.00  0.00     0.048 H 
ATOM     16  H   LIG d   1       5.761  -1.360  -7.130  0.00  0.00     0.048 H 
ENDROOT
BRANCH   7  17
ATOM     17  C   LIG d   1       3.720  -0.021 -11.137  0.00  0.00     0.028 C 
ATOM     18  H   LIG d   1       2.832  -0.218 -10.538  0.00  0.00     0.036 H 
ATOM     19  H   LIG d   1       3.567   0.880 -11.730  0.00  0.00     0.036 H 
BRANCH  17  20
ATOM     20  C   LIG d   1       3.979  -1.207 -12.070  0.00  0.00    -0.020 C 
ATOM     21  H   LIG d   1       4.895  -1.034 -12.635  0.00  0.00     0.031 H 
ATOM     22  C   LIG d   1       4.121  -2.487 -11.243  0.00  0.00     0.008 C 
ATOM     23  C   LIG d   1       4.316  -3.678 -12.185  0.00  0.00    -0.030 C 
ATOM     24  H   LIG d   1       4.983  -2.400 -10.583  0.00  0.00     0.036 H 
ATOM     25  H   LIG d   1       4.403  -4.594 -11.599  0.00  0.00     0.082 H 
ATOM     26  H   LIG d   1       5.225  -3.533 -12.768  0.00  0.00     0.082 H 
ATOM     27  N   LIG d   1       3.157  -3.793 -13.090  0.00  0.00     0.227 N 
ATOM     28  C   LIG d   1       3.037  -2.585 -13.928  0.00  0.00    -0.033 C 
ATOM     29  H   LIG d   1       3.281  -4.613 -13.696  0.00  0.00     0.201 HD
ATOM     30  H   LIG d   1       2.302  -3.904 -12.533  0.00  0.00     0.201 HD
ATOM     31  C   LIG d   1       2.803  -1.361 -13.039  0.00  0.00    -0.009 C 
ATOM     32  H   LIG d   1       2.195  -2.705 -14.609  0.00  0.00     0.081 H 
ATOM     33  H   LIG d   1       3.952  -2.444 -14.504  0.00  0.00     0.081 H 
ATOM     34  H   LIG d   1       1.880  -1.494 -12.473  0.00  0.00     0.032 H 
ATOM     35  H   LIG d   1       2.724  -0.469 -13.661  0.00  0.00     0.032 H 
BRANCH  22  36
ATOM     36  C   LIG d   1       2.856  -2.700 -10.408  0.00  0.00     0.001 C 
ATOM     37  H   LIG d   1       2.610  -1.778  -9.881  0.00  0.00     0.033 H 
ATOM     38  H   LIG d   1       2.030  -2.976 -11.064  0.00  0.00     0.033 H 
BRANCH  36  39
ATOM     39  C   LIG d   1       3.094  -3.802  -9.408  0.00  0.00     0.085 A 
ATOM     40  N   LIG d   1       2.643  -5.020  -9.473  0.00  0.00    -0.083 NA
ATOM     41  O   LIG d   1       2.999  -5.686  -8.528  0.00  0.00    -0.353 OA
ATOM     42  C   LIG d   1       3.753  -4.966  -7.675  0.00  0.00     0.183 A 
ATOM     43  C   LIG d   1       3.845  -3.711  -8.215  0.00  0.00     0.009 A 
ATOM     44  H   LIG d   1       4.368  -2.853  -7.820  0.00  0.00     0.068 H 
BRANCH  42  45
ATOM     45  C   LIG d   1       4.358  -5.434  -6.416  0.00  0.00     0.110 C 
ATOM     46  O   LIG d   1       3.649  -5.755  -5.483  0.00  0.00    -0.541 OA
ATOM     47  O   LIG d   1       5.699  -5.506  -6.298  0.00  0.00    -0.541 OA
ENDBRANCH  42  45
ENDBRANCH  36  39
ENDBRANCH  22  36
ENDBRANCH  17  20
ENDBRANCH   7  17
BRANCH   1  48
ATOM     48  C   LIG d   1       4.240  -0.798  -4.999  0.00  0.00     0.072 A 
ATOM     49  C   LIG d   1       3.639  -0.197  -3.896  0.00  0.00     0.141 A 
ATOM     50  C   LIG d   1       3.511  -0.904  -2.710  0.00  0.00    -0.018 A 
ATOM     51  C   LIG d   1       3.979  -2.201  -2.626  0.00  0.00    -0.058 A 
ATOM     52  H   LIG d   1       3.044  -0.440  -1.854  0.00  0.00     0.066 H 
ATOM     53  C   LIG d   1       4.575  -2.799  -3.721  0.00  0.00    -0.060 A 
ATOM     54  H   LIG d   1       3.877  -2.751  -1.701  0.00  0.00     0.062 H 
ATOM     55  C   LIG d   1       4.713  -2.098  -4.904  0.00  0.00    -0.037 A 
ATOM     56  H   LIG d   1       4.939  -3.813  -3.649  0.00  0.00     0.062 H 
ATOM     57  H   LIG d   1       5.184  -2.566  -5.757  0.00  0.00     0.064 H 
BRANCH  49  58
ATOM     58  O   LIG d   1       3.177   1.079  -3.980  0.00  0.00    -0.493 OA
BRANCH  58  59
ATOM     59  C   LIG d   1       3.605   1.993  -2.969  0.00  0.00     0.079 C 
ATOM     60  H   LIG d   1       2.997   2.897  -3.016  0.00  0.00     0.066 H 
ATOM     61  H   LIG d   1       3.491   1.530  -1.989  0.00  0.00     0.066 H 
ATOM     62  H   LIG d   1       4.651   2.252  -3.130  0.00  0.00     0.066 H 
ENDBRANCH  58  59
ENDBRANCH  49  58
ENDBRANCH   1  48
TORSDOF 8
ENDMDL
MODEL 3
REMARK VINA RESULT:      -7.1      5.393      9.077
REMARK  8 active torsions:
REMARK  status: ('A' for Active; 'I' for Inactive)
REMARK    1  A    between atoms: C_1  and  O_2 
REMARK    2  A    between atoms: O_2  and  C_3 
REMARK    3  A    between atoms: C_8  and  N_9 
REMARK       I    between atoms: N_12  and  C_15 
REMARK    4  A    between atoms: C_15  and  C_17 
REMARK    5  A    between atoms: C_17  and  C_18 
REMARK    6  A    between atoms: C_23  and  C_25 
REMARK    7  A    between atoms: C_25  and  C_26 
REMARK    8  A    between atoms: C_28  and  C_31 
ROOT
ATOM      1  N   LIG d   1       5.124  -1.590  -4.941  0.00  0.00    -0.324 NA
ATOM      2  C   LIG d   1       4.896  -1.016  -6.274  0.00  0.00     0.028 C 
ATOM      3  C   LIG d   1       5.424  -1.982  -7.340  0.00  0.00     0.030 C 
ATOM      4  N   LIG d   1       4.813  -3.302  -7.117  0.00  0.00    -0.298 N 
ATOM      5  C   LIG d   1       4.882  -3.882  -5.768  0.00  0.00     0.030 C 
ATOM      6  C   LIG d   1       4.375  -2.841  -4.764  0.00  0.00     0.028 C 
ATOM      7  C   LIG d   1       4.207  -3.962  -8.124  0.00  0.00     0.216 C 
ATOM      8  O   LIG d   1       3.708  -5.049  -7.923  0.00  0.00    -0.276 OA
ATOM      9  H   LIG d   1       3.828  -0.858  -6.424  0.00  0.00     0.048 H 
ATOM     10  H   LIG d   1       5.420  -0.063  -6.354  0.00  0.00     0.048 H 
ATOM     11  H   LIG d   1       6.508  -2.062  -7.256  0.00  0.00     0.048 H 
ATOM     12  H   LIG d   1       5.156  -1.617  -8.330  0.00  0.00     0.048 H 
ATOM     13  H   LIG d   1       5.914  -4.144  -5.533  0.00  0.00     0.048 H 
ATOM     14  H   LIG d   1       4.255  -4.772  -5.720  0.00  0.00     0.048 H 
ATOM     15  H   LIG d   1       4.522  -3.212  -3.750  0.00  0.00     0.048 H 
ATOM     16  H   LIG d   1       3.314  -2.657  -4.934  0.00  0.00     0.048 H 
ENDROOT
BRANCH   7  17
ATOM     17  C   LIG d   1       4.149  -3.348  -9.499  0.00  0.00     0.028 C 
ATOM     18  H   LIG d   1       4.831  -2.499  -9.548  0.00  0.00     0.036 H 
ATOM     19  H   LIG d   1       4.440  -4.092 -10.241  0.00  0.00     0.036 H 
BRANCH  17  20
ATOM     20  C   LIG d   1       2.723  -2.873  -9.786  0.00  0.00    -0.020 C 
ATOM     21  H   LIG d   1       2.035  -3.336  -9.079  0.00  0.00     0.031 H 
ATOM     22  C   LIG d   1       2.653  -1.351  -9.644  0.00  0.00     0.008 C 
ATOM     23  C   LIG d   1       1.240  -0.874  -9.993  0.00  0.00    -0.030 C 
ATOM     24  H   LIG d   1       2.889  -1.069  -8.617  0.00  0.00     0.036 H 
ATOM     25  H   LIG d   1       1.192   0.212  -9.907  0.00  0.00     0.082 H 
ATOM     26  H   LIG d   1       0.526  -1.325  -9.304  0.00  0.00     0.082 H 
ATOM     27  N   LIG d   1       0.911  -1.264 -11.377  0.00  0.00     0.227 N 
ATOM     28  C   LIG d   1       0.927  -2.733 -11.515  0.00  0.00    -0.033 C 
ATOM     29  H   LIG d   1      -0.025  -0.912 -11.613  0.00  0.00     0.201 HD
ATOM     30  H   LIG d   1       1.602  -0.856 -12.016  0.00  0.00     0.201 HD
ATOM     31  C   LIG d   1       2.330  -3.265 -11.213  0.00  0.00    -0.009 C 
ATOM     32  H   LIG d   1       0.650  -2.997 -12.535  0.00  0.00     0.081 H 
ATOM     33  H   LIG d   1       0.214  -3.175 -10.819  0.00  0.00     0.081 H 
ATOM     34  H   LIG d   1       3.041  -2.833 -11.917  0.00  0.00     0.032 H 
ATOM     35  H   LIG d   1       2.336  -4.350 -11.308  0.00  0.00     0.032 H 
BRANCH  22  36
ATOM     36  C   LIG d   1       3.659  -0.701 -10.596  0.00  0.00     0.001 C 
ATOM     37  H   LIG d   1       4.347  -1.459 -10.970  0.00  0.00     0.033 H 
ATOM     38  H   LIG d   1       3.127  -0.249 -11.433  0.00  0.00     0.033 H 
BRANCH  36  39
ATOM     39  C   LIG d   1       4.434   0.362  -9.861  0.00  0.00     0.085 A 
ATOM     40  N   LIG d   1       3.943   1.299  -9.104  0.00  0.00    -0.083 NA
ATOM     41  O   LIG d   1       4.807   2.007  -8.641  0.00  0.00    -0.353 OA
ATOM     42  C   LIG d   1       6.030   1.624  -9.054  0.00  0.00     0.183 A 
ATOM     43  C   LIG d   1       5.836   0.538  -9.864  0.00  0.00     0.009 A 
ATOM     44  H   LIG d   1       6.580  -0.047 -10.384  0.00  0.00     0.068 H 
BRANCH  42  45
ATOM     45  C   LIG d   1       7.319   2.248  -8.704  0.00  0.00     0.110 C 
ATOM     46  O   LIG d   1       7.795   3.104  -9.423  0.00  0.00    -0.541 OA
ATOM     47  O   LIG d   1       7.970   1.869  -7.587  0.00  0.00    -0.541 OA
ENDBRANCH  42  45
ENDBRANCH  36  39
ENDBRANCH  22  36
ENDBRANCH  17  20
ENDBRANCH   7  17
BRANCH   1  48
ATOM     48  C   LIG d   1       4.805  -0.668  -3.937  0.00  0.00     0.072 A 
ATOM     49  C   LIG d   1       5.803   0.124  -3.374  0.00  0.00     0.141 A 
ATOM     50  C   LIG d   1       5.482   1.035  -2.380  0.00  0.00    -0.018 A 
ATOM     51  C   LIG d   1       4.174   1.156  -1.951  0.00  0.00    -0.058 A 
ATOM     52  H   LIG d   1       6.254   1.650  -1.943  0.00  0.00     0.066 H 
ATOM     53  C   LIG d   1       3.182   0.371  -2.510  0.00  0.00    -0.060 A 
ATOM     54  H   LIG d   1       3.925   1.867  -1.177  0.00  0.00     0.062 H 
ATOM     55  C   LIG d   1       3.496  -0.545  -3.496  0.00  0.00    -0.037 A 
ATOM     56  H   LIG d   1       2.162   0.469  -2.171  0.00  0.00     0.062 H 
ATOM     57  H   LIG d   1       2.720  -1.161  -3.928  0.00  0.00     0.064 H 
BRANCH  49  58
ATOM     58  O   LIG d   1       7.089   0.005  -3.798  0.00  0.00    -0.493 OA
BRANCH  58  59
ATOM     59  C   LIG d   1       7.813   1.215  -4.026  0.00  0.00     0.079 C 
ATOM     60  H   LIG d   1       8.828   0.977  -4.346  0.00  0.00     0.066 H 
ATOM     61  H   LIG d   1       7.315   1.797  -4.803  0.00  0.00     0.066 H 
ATOM     62  H   LIG d   1       7.850   1.797  -3.105  0.00  0.00     0.066 H 
ENDBRANCH  58  59
ENDBRANCH  49  58
ENDBRANCH   1  48
TORSDOF 8
ENDMDL
MODEL 4
REMARK VINA RESULT:      -7.1      5.682     10.279
REMARK  8 active torsions:
REMARK  status: ('A' for Active; 'I' for Inactive)
REMARK    1  A    between atoms: C_1  and  O_2 
REMARK    2  A    between atoms: O_2  and  C_3 
REMARK    3  A    between atoms: C_8  and  N_9 
REMARK       I    between atoms: N_12  and  C_15 
REMARK    4  A    between atoms: C_15  and  C_17 
REMARK    5  A    between atoms: C_17  and  C_18 
REMARK    6  A    between atoms: C_23  and  C_25 
REMARK    7  A    between atoms: C_25  and  C_26 
REMARK    8  A    between atoms: C_28  and  C_31 
ROOT
ATOM      1  N   LIG d   1       5.175  -1.707  -5.019  0.00  0.00    -0.324 NA
ATOM      2  C   LIG d   1       4.773  -1.283  -6.366  0.00  0.00     0.028 C 
ATOM      3  C   LIG d   1       5.397  -2.223  -7.402  0.00  0.00     0.030 C 
ATOM      4  N   LIG d   1       5.041  -3.607  -7.053  0.00  0.00    -0.298 N 
ATOM      5  C   LIG d   1       5.289  -4.063  -5.676  0.00  0.00     0.030 C 
ATOM      6  C   LIG d   1       4.668  -3.050  -4.709  0.00  0.00     0.028 C 
ATOM      7  C   LIG d   1       4.501  -4.434  -7.969  0.00  0.00     0.216 C 
ATOM      8  O   LIG d   1       4.212  -5.572  -7.663  0.00  0.00    -0.276 OA
ATOM      9  H   LIG d   1       3.686  -1.320  -6.450  0.00  0.00     0.048 H 
ATOM     10  H   LIG d   1       5.116  -0.264  -6.545  0.00  0.00     0.048 H 
ATOM     11  H   LIG d   1       6.482  -2.111  -7.391  0.00  0.00     0.048 H 
ATOM     12  H   LIG d   1       5.012  -1.985  -8.393  0.00  0.00     0.048 H 
ATOM     13  H   LIG d   1       6.363  -4.127  -5.499  0.00  0.00     0.048 H 
ATOM     14  H   LIG d   1       4.831  -5.040  -5.527  0.00  0.00     0.048 H 
ATOM     15  H   LIG d   1       4.937  -3.313  -3.685  0.00  0.00     0.048 H 
ATOM     16  H   LIG d   1       3.583  -3.063  -4.814  0.00  0.00     0.048 H 
ENDROOT
BRANCH   7  17
ATOM     17  C   LIG d   1       4.256  -3.946  -9.373  0.00  0.00     0.028 C 
ATOM     18  H   LIG d   1       4.471  -2.879  -9.430  0.00  0.00     0.036 H 
ATOM     19  H   LIG d   1       4.904  -4.485 -10.064  0.00  0.00     0.036 H 
BRANCH  17  20
ATOM     20  C   LIG d   1       2.793  -4.191  -9.750  0.00  0.00    -0.020 C 
ATOM     21  H   LIG d   1       2.267  -4.632  -8.903  0.00  0.00     0.031 H 
ATOM     22  C   LIG d   1       2.132  -2.863 -10.127  0.00  0.00     0.008 C 
ATOM     23  C   LIG d   1       0.688  -3.123 -10.564  0.00  0.00    -0.030 C 
ATOM     24  H   LIG d   1       2.138  -2.196  -9.265  0.00  0.00     0.036 H 
ATOM     25  H   LIG d   1       0.220  -2.180 -10.847  0.00  0.00     0.082 H 
ATOM     26  H   LIG d   1       0.135  -3.569  -9.737  0.00  0.00     0.082 H 
ATOM     27  N   LIG d   1       0.674  -4.036 -11.722  0.00  0.00     0.227 N 
ATOM     28  C   LIG d   1       1.264  -5.338 -11.358  0.00  0.00    -0.033 C 
ATOM     29  H   LIG d   1      -0.296  -4.178 -12.028  0.00  0.00     0.201 HD
ATOM     30  H   LIG d   1       1.217  -3.620 -12.487  0.00  0.00     0.201 HD
ATOM     31  C   LIG d   1       2.726  -5.145 -10.946  0.00  0.00    -0.009 C 
ATOM     32  H   LIG d   1       1.214  -6.005 -12.218  0.00  0.00     0.081 H 
ATOM     33  H   LIG d   1       0.709  -5.774 -10.527  0.00  0.00     0.081 H 
ATOM     34  H   LIG d   1       3.285  -4.722 -11.781  0.00  0.00     0.032 H 
ATOM     35  H   LIG d   1       3.156  -6.107 -10.669  0.00  0.00     0.032 H 
BRANCH  22  36
ATOM     36  C   LIG d   1       2.904  -2.217 -11.279  0.00  0.00     0.001 C 
ATOM     37  H   LIG d   1       3.826  -2.771 -11.455  0.00  0.00     0.033 H 
ATOM     38  H   LIG d   1       2.292  -2.234 -12.181  0.00  0.00     0.033 H 
BRANCH  36  39
ATOM     39  C   LIG d   1       3.236  -0.790 -10.925  0.00  0.00     0.085 A 
ATOM     40  N   LIG d   1       3.771   0.101 -11.707  0.00  0.00    -0.083 NA
ATOM     41  O   LIG d   1       3.918   1.164 -11.149  0.00  0.00    -0.353 OA
ATOM     42  C   LIG d   1       3.494   1.112  -9.872  0.00  0.00     0.183 A 
ATOM     43  C   LIG d   1       3.032  -0.162  -9.676  0.00  0.00     0.009 A 
ATOM     44  H   LIG d   1       2.612  -0.587  -8.776  0.00  0.00     0.068 H 
BRANCH  42  45
ATOM     45  C   LIG d   1       3.520   2.206  -8.885  0.00  0.00     0.110 C 
ATOM     46  O   LIG d   1       2.793   2.164  -7.911  0.00  0.00    -0.541 OA
ATOM     47  O   LIG d   1       4.348   3.254  -9.062  0.00  0.00    -0.541 OA
ENDBRANCH  42  45
ENDBRANCH  36  39
ENDBRANCH  22  36
ENDBRANCH  17  20
ENDBRANCH   7  17
BRANCH   1  48
ATOM     48  C   LIG d   1       4.760  -0.779  -4.056  0.00  0.00     0.072 A 
ATOM     49  C   LIG d   1       5.673   0.124  -3.517  0.00  0.00     0.141 A 
ATOM     50  C   LIG d   1       5.256   1.040  -2.564  0.00  0.00    -0.018 A 
ATOM     51  C   LIG d   1       3.937   1.056  -2.152  0.00  0.00    -0.058 A 
ATOM     52  H   LIG d   1       5.962   1.741  -2.146  0.00  0.00     0.066 H 
ATOM     53  C   LIG d   1       3.030   0.160  -2.687  0.00  0.00    -0.060 A 
ATOM     54  H   LIG d   1       3.614   1.771  -1.410  0.00  0.00     0.062 H 
ATOM     55  C   LIG d   1       3.439  -0.761  -3.633  0.00  0.00    -0.037 A 
ATOM     56  H   LIG d   1       2.000   0.177  -2.361  0.00  0.00     0.062 H 
ATOM     57  H   LIG d   1       2.729  -1.463  -4.045  0.00  0.00     0.064 H 
BRANCH  49  58
ATOM     58  O   LIG d   1       6.970   0.108  -3.925  0.00  0.00    -0.493 OA
BRANCH  58  59
ATOM     59  C   LIG d   1       7.702   1.330  -3.812  0.00  0.00     0.079 C 
ATOM     60  H   LIG d   1       8.404   1.410  -4.642  0.00  0.00     0.066 H 
ATOM     61  H   LIG d   1       7.010   2.172  -3.839  0.00  0.00     0.066 H 
ATOM     62  H   LIG d   1       8.250   1.340  -2.870  0.00  0.00     0.066 H 
ENDBRANCH  58  59
ENDBRANCH  49  58
ENDBRANCH   1  48
TORSDOF 8
ENDMDL
MODEL 5
REMARK VINA RESULT:      -7.1      7.247     12.615
REMARK  8 active torsions:
REMARK  status: ('A' for Active; 'I' for Inactive)
REMARK    1  A    between atoms: C_1  and  O_2 
REMARK    2  A    between atoms: O_2  and  C_3 
REMARK    3  A    between atoms: C_8  and  N_9 
REMARK       I    between atoms: N_12  and  C_15 
REMARK    4  A    between atoms: C_15  and  C_17 
REMARK    5  A    between atoms: C_17  and  C_18 
REMARK    6  A    between atoms: C_23  and  C_25 
REMARK    7  A    between atoms: C_25  and  C_26 
REMARK    8  A    between atoms: C_28  and  C_31 
ROOT
ATOM      1  N   LIG d   1       4.649  -0.673  -5.690  0.00  0.00    -0.324 NA
ATOM      2  C   LIG d   1       3.543  -0.225  -6.545  0.00  0.00     0.028 C 
ATOM      3  C   LIG d   1       3.802  -0.673  -7.988  0.00  0.00     0.030 C 
ATOM      4  N   LIG d   1       4.041  -2.124  -7.989  0.00  0.00    -0.298 N 
ATOM      5  C   LIG d   1       5.042  -2.666  -7.057  0.00  0.00     0.030 C 
ATOM      6  C   LIG d   1       4.733  -2.139  -5.652  0.00  0.00     0.028 C 
ATOM      7  C   LIG d   1       3.362  -2.936  -8.823  0.00  0.00     0.216 C 
ATOM      8  O   LIG d   1       3.571  -4.131  -8.811  0.00  0.00    -0.276 OA
ATOM      9  H   LIG d   1       2.609  -0.661  -6.191  0.00  0.00     0.048 H 
ATOM     10  H   LIG d   1       3.473   0.863  -6.509  0.00  0.00     0.048 H 
ATOM     11  H   LIG d   1       4.680  -0.157  -8.379  0.00  0.00     0.048 H 
ATOM     12  H   LIG d   1       2.934  -0.444  -8.604  0.00  0.00     0.048 H 
ATOM     13  H   LIG d   1       6.038  -2.342  -7.359  0.00  0.00     0.048 H 
ATOM     14  H   LIG d   1       4.992  -3.755  -7.059  0.00  0.00     0.048 H 
ATOM     15  H   LIG d   1       5.527  -2.441  -4.968  0.00  0.00     0.048 H 
ATOM     16  H   LIG d   1       3.783  -2.549  -5.309  0.00  0.00     0.048 H 
ENDROOT
BRANCH   7  17
ATOM     17  C   LIG d   1       2.341  -2.359  -9.770  0.00  0.00     0.028 C 
ATOM     18  H   LIG d   1       1.388  -2.870  -9.632  0.00  0.00     0.036 H 
ATOM     19  H   LIG d   1       2.217  -1.296  -9.567  0.00  0.00     0.036 H 
BRANCH  17  20
ATOM     20  C   LIG d   1       2.818  -2.551 -11.211  0.00  0.00    -0.020 C 
ATOM     21  H   LIG d   1       3.902  -2.666 -11.225  0.00  0.00     0.031 H 
ATOM     22  C   LIG d   1       2.163  -3.801 -11.805  0.00  0.00     0.008 C 
ATOM     23  C   LIG d   1       2.594  -3.952 -13.267  0.00  0.00    -0.030 C 
ATOM     24  H   LIG d   1       2.476  -4.679 -11.240  0.00  0.00     0.036 H 
ATOM     25  H   LIG d   1       2.118  -4.833 -13.696  0.00  0.00     0.082 H 
ATOM     26  H   LIG d   1       3.677  -4.065 -13.314  0.00  0.00     0.082 H 
ATOM     27  N   LIG d   1       2.185  -2.760 -14.033  0.00  0.00     0.227 N 
ATOM     28  C   LIG d   1       2.847  -1.554 -13.501  0.00  0.00    -0.033 C 
ATOM     29  H   LIG d   1       2.449  -2.884 -15.018  0.00  0.00     0.201 HD
ATOM     30  H   LIG d   1       1.167  -2.646 -13.962  0.00  0.00     0.201 HD
ATOM     31  C   LIG d   1       2.423  -1.330 -12.048  0.00  0.00    -0.009 C 
ATOM     32  H   LIG d   1       2.555  -0.693 -14.101  0.00  0.00     0.081 H 
ATOM     33  H   LIG d   1       3.929  -1.678 -13.548  0.00  0.00     0.081 H 
ATOM     34  H   LIG d   1       1.343  -1.192 -12.002  0.00  0.00     0.032 H 
ATOM     35  H   LIG d   1       2.921  -0.444 -11.656  0.00  0.00     0.032 H 
BRANCH  22  36
ATOM     36  C   LIG d   1       0.641  -3.663 -11.735  0.00  0.00     0.001 C 
ATOM     37  H   LIG d   1       0.383  -2.697 -11.301  0.00  0.00     0.033 H 
ATOM     38  H   LIG d   1       0.223  -3.733 -12.739  0.00  0.00     0.033 H 
BRANCH  36  39
ATOM     39  C   LIG d   1       0.075  -4.767 -10.878  0.00  0.00     0.085 A 
ATOM     40  N   LIG d   1       0.739  -5.739 -10.326  0.00  0.00    -0.083 NA
ATOM     41  O   LIG d   1       0.019  -6.475  -9.690  0.00  0.00    -0.353 OA
ATOM     42  C   LIG d   1      -1.266  -6.076  -9.748  0.00  0.00     0.183 A 
ATOM     43  C   LIG d   1      -1.280  -4.948 -10.522  0.00  0.00     0.009 A 
ATOM     44  H   LIG d   1      -2.129  -4.339 -10.798  0.00  0.00     0.068 H 
BRANCH  42  45
ATOM     45  C   LIG d   1      -2.423  -6.723  -9.104  0.00  0.00     0.110 C 
ATOM     46  O   LIG d   1      -2.501  -7.935  -9.070  0.00  0.00    -0.541 OA
ATOM     47  O   LIG d   1      -3.397  -5.970  -8.555  0.00  0.00    -0.541 OA
ENDBRANCH  42  45
ENDBRANCH  36  39
ENDBRANCH  22  36
ENDBRANCH  17  20
ENDBRANCH   7  17
BRANCH   1  48
ATOM     48  C   LIG d   1       4.532  -0.144  -4.399  0.00  0.00     0.072 A 
ATOM     49  C   LIG d   1       5.604   0.529  -3.820  0.00  0.00     0.141 A 
ATOM     50  C   LIG d   1       5.482   1.051  -2.542  0.00  0.00    -0.018 A 
ATOM     51  C   LIG d   1       4.298   0.903  -1.846  0.00  0.00    -0.058 A 
ATOM     52  H   LIG d   1       6.313   1.573  -2.091  0.00  0.00     0.066 H 
ATOM     53  C   LIG d   1       3.232   0.235  -2.420  0.00  0.00    -0.060 A 
ATOM     54  H   LIG d   1       4.204   1.311  -0.850  0.00  0.00     0.062 H 
ATOM     55  C   LIG d   1       3.348  -0.294  -3.692  0.00  0.00    -0.037 A 
ATOM     56  H   LIG d   1       2.308   0.123  -1.872  0.00  0.00     0.062 H 
ATOM     57  H   LIG d   1       2.515  -0.819  -4.136  0.00  0.00     0.064 H 
BRANCH  49  58
ATOM     58  O   LIG d   1       6.769   0.675  -4.506  0.00  0.00    -0.493 OA
BRANCH  58  59
ATOM     59  C   LIG d   1       7.719   1.605  -3.984  0.00  0.00     0.079 C 
ATOM     60  H   LIG d   1       8.474   1.818  -4.742  0.00  0.00     0.066 H 
ATOM     61  H   LIG d   1       7.211   2.530  -3.710  0.00  0.00     0.066 H 
ATOM     62  H   LIG d   1       8.199   1.180  -3.103  0.00  0.00     0.066 H 
ENDBRANCH  58  59
ENDBRANCH  49  58
ENDBRANCH   1  48
TORSDOF 8
ENDMDL
MODEL 6
REMARK VINA RESULT:      -7.0      5.333     11.704
REMARK  8 active torsions:
REMARK  status: ('A' for Active; 'I' for Inactive)
REMARK    1  A    between atoms: C_1  and  O_2 
REMARK    2  A    between atoms: O_2  and  C_3 
REMARK    3  A    between atoms: C_8  and  N_9 
REMARK       I    between atoms: N_12  and  C_15 
REMARK    4  A    between atoms: C_15  and  C_17 
REMARK    5  A    between atoms: C_17  and  C_18 
REMARK    6  A    between atoms: C_23  and  C_25 
REMARK    7  A    between atoms: C_25  and  C_26 
REMARK    8  A    between atoms: C_28  and  C_31 
ROOT
ATOM      1  N   LIG d   1       6.872  -2.082  -4.118  0.00  0.00    -0.324 NA
ATOM      2  C   LIG d   1       6.056  -3.064  -4.844  0.00  0.00     0.028 C 
ATOM      3  C   LIG d   1       6.958  -3.894  -5.763  0.00  0.00     0.030 C 
ATOM      4  N   LIG d   1       8.047  -4.465  -4.956  0.00  0.00    -0.298 N 
ATOM      5  C   LIG d   1       8.824  -3.560  -4.095  0.00  0.00     0.030 C 
ATOM      6  C   LIG d   1       7.848  -2.744  -3.242  0.00  0.00     0.028 C 
ATOM      7  C   LIG d   1       8.326  -5.783  -5.005  0.00  0.00     0.216 C 
ATOM      8  O   LIG d   1       9.228  -6.237  -4.332  0.00  0.00    -0.276 OA
ATOM      9  H   LIG d   1       5.559  -3.722  -4.132  0.00  0.00     0.048 H 
ATOM     10  H   LIG d   1       5.307  -2.544  -5.442  0.00  0.00     0.048 H 
ATOM     11  H   LIG d   1       7.376  -3.254  -6.541  0.00  0.00     0.048 H 
ATOM     12  H   LIG d   1       6.379  -4.697  -6.218  0.00  0.00     0.048 H 
ATOM     13  H   LIG d   1       9.420  -2.889  -4.712  0.00  0.00     0.048 H 
ATOM     14  H   LIG d   1       9.477  -4.143  -3.447  0.00  0.00     0.048 H 
ATOM     15  H   LIG d   1       8.399  -1.991  -2.678  0.00  0.00     0.048 H 
ATOM     16  H   LIG d   1       7.326  -3.406  -2.551  0.00  0.00     0.048 H 
ENDROOT
BRANCH   7  17
ATOM     17  C   LIG d   1       7.518  -6.692  -5.895  0.00  0.00     0.028 C 
ATOM     18  H   LIG d   1       6.594  -6.190  -6.183  0.00  0.00     0.036 H 
ATOM     19  H   LIG d   1       8.095  -6.933  -6.788  0.00  0.00     0.036 H 
BRANCH  17  20
ATOM     20  C   LIG d   1       7.184  -7.979  -5.140  0.00  0.00    -0.020 C 
ATOM     21  H   LIG d   1       7.623  -7.942  -4.142  0.00  0.00     0.031 H 
ATOM     22  C   LIG d   1       5.665  -8.126  -5.024  0.00  0.00     0.008 C 
ATOM     23  C   LIG d   1       5.336  -9.447  -4.324  0.00  0.00    -0.030 C 
ATOM     24  H   LIG d   1       5.262  -7.296  -4.444  0.00  0.00     0.036 H 
ATOM     25  H   LIG d   1       4.254  -9.561  -4.254  0.00  0.00     0.082 H 
ATOM     26  H   LIG d   1       5.766  -9.442  -3.322  0.00  0.00     0.082 H 
ATOM     27  N   LIG d   1       5.890 -10.573  -5.098  0.00  0.00     0.227 N 
ATOM     28  C   LIG d   1       7.360 -10.471  -5.175  0.00  0.00    -0.033 C 
ATOM     29  H   LIG d   1       5.637 -11.457  -4.638  0.00  0.00     0.201 HD
ATOM     30  H   LIG d   1       5.500 -10.556  -6.046  0.00  0.00     0.201 HD
ATOM     31  C   LIG d   1       7.750  -9.181  -5.902  0.00  0.00    -0.009 C 
ATOM     32  H   LIG d   1       7.749 -11.328  -5.723  0.00  0.00     0.081 H 
ATOM     33  H   LIG d   1       7.781 -10.461  -4.170  0.00  0.00     0.081 H 
ATOM     34  H   LIG d   1       7.341  -9.196  -6.912  0.00  0.00     0.032 H 
ATOM     35  H   LIG d   1       8.836  -9.104  -5.949  0.00  0.00     0.032 H 
BRANCH  22  36
ATOM     36  C   LIG d   1       5.043  -8.123  -6.422  0.00  0.00     0.001 C 
ATOM     37  H   LIG d   1       5.814  -8.339  -7.163  0.00  0.00     0.033 H 
ATOM     38  H   LIG d   1       4.265  -8.883  -6.476  0.00  0.00     0.033 H 
BRANCH  36  39
ATOM     39  C   LIG d   1       4.443  -6.769  -6.703  0.00  0.00     0.085 A 
ATOM     40  N   LIG d   1       3.839  -5.995  -5.849  0.00  0.00    -0.083 NA
ATOM     41  O   LIG d   1       3.462  -4.965  -6.359  0.00  0.00    -0.353 OA
ATOM     42  C   LIG d   1       3.771  -4.924  -7.670  0.00  0.00     0.183 A 
ATOM     43  C   LIG d   1       4.422  -6.096  -7.945  0.00  0.00     0.009 A 
ATOM     44  H   LIG d   1       4.824  -6.428  -8.890  0.00  0.00     0.068 H 
BRANCH  42  45
ATOM     45  C   LIG d   1       3.470  -3.835  -8.616  0.00  0.00     0.110 C 
ATOM     46  O   LIG d   1       3.708  -2.683  -8.314  0.00  0.00    -0.541 OA
ATOM     47  O   LIG d   1       2.928  -4.118  -9.818  0.00  0.00    -0.541 OA
ENDBRANCH  42  45
ENDBRANCH  36  39
ENDBRANCH  22  36
ENDBRANCH  17  20
ENDBRANCH   7  17
BRANCH   1  48
ATOM     48  C   LIG d   1       6.065  -1.198  -3.393  0.00  0.00     0.072 A 
ATOM     49  C   LIG d   1       6.278   0.176  -3.482  0.00  0.00     0.141 A 
ATOM     50  C   LIG d   1       5.477   1.046  -2.761  0.00  0.00    -0.018 A 
ATOM     51  C   LIG d   1       4.468   0.552  -1.957  0.00  0.00    -0.058 A 
ATOM     52  H   LIG d   1       5.641   2.112  -2.830  0.00  0.00     0.066 H 
ATOM     53  C   LIG d   1       4.255  -0.812  -1.869  0.00  0.00    -0.060 A 
ATOM     54  H   LIG d   1       3.843   1.232  -1.397  0.00  0.00     0.062 H 
ATOM     55  C   LIG d   1       5.054  -1.687  -2.579  0.00  0.00    -0.037 A 
ATOM     56  H   LIG d   1       3.464  -1.193  -1.239  0.00  0.00     0.062 H 
ATOM     57  H   LIG d   1       4.888  -2.752  -2.504  0.00  0.00     0.064 H 
BRANCH  49  58
ATOM     58  O   LIG d   1       7.271   0.662  -4.275  0.00  0.00    -0.493 OA
BRANCH  58  59
ATOM     59  C   LIG d   1       7.935   1.846  -3.831  0.00  0.00     0.079 C 
ATOM     60  H   LIG d   1       8.993   1.788  -4.090  0.00  0.00     0.066 H 
ATOM     61  H   LIG d   1       7.491   2.716  -4.316  0.00  0.00     0.066 H 
ATOM     62  H   LIG d   1       7.831   1.940  -2.751  0.00  0.00     0.066 H 
ENDBRANCH  58  59
ENDBRANCH  49  58
ENDBRANCH   1  48
TORSDOF 8
ENDMDL
MODEL 7
REMARK VINA RESULT:      -6.9      5.761     12.587
REMARK  8 active torsions:
REMARK  status: ('A' for Active; 'I' for Inactive)
REMARK    1  A    between atoms: C_1  and  O_2 
REMARK    2  A    between atoms: O_2  and  C_3 
REMARK    3  A    between atoms: C_8  and  N_9 
REMARK       I    between atoms: N_12  and  C_15 
REMARK    4  A    between atoms: C_15  and  C_17 
REMARK    5  A    between atoms: C_17  and  C_18 
REMARK    6  A    between atoms: C_23  and  C_25 
REMARK    7  A    between atoms: C_25  and  C_26 
REMARK    8  A    between atoms: C_28  and  C_31 
ROOT
ATOM      1  N   LIG d   1       5.871  -2.000  -4.503  0.00  0.00    -0.324 NA
ATOM      2  C   LIG d   1       4.800  -2.967  -4.776  0.00  0.00     0.028 C 
ATOM      3  C   LIG d   1       5.227  -3.889  -5.924  0.00  0.00     0.030 C 
ATOM      4  N   LIG d   1       6.530  -4.482  -5.586  0.00  0.00    -0.298 N 
ATOM      5  C   LIG d   1       7.617  -3.583  -5.169  0.00  0.00     0.030 C 
ATOM      6  C   LIG d   1       7.096  -2.675  -4.051  0.00  0.00     0.028 C 
ATOM      7  C   LIG d   1       6.722  -5.814  -5.657  0.00  0.00     0.216 C 
ATOM      8  O   LIG d   1       7.803  -6.287  -5.374  0.00  0.00    -0.276 OA
ATOM      9  H   LIG d   1       4.612  -3.563  -3.883  0.00  0.00     0.048 H 
ATOM     10  H   LIG d   1       3.891  -2.434  -5.056  0.00  0.00     0.048 H 
ATOM     11  H   LIG d   1       5.316  -3.310  -6.843  0.00  0.00     0.048 H 
ATOM     12  H   LIG d   1       4.488  -4.678  -6.054  0.00  0.00     0.048 H 
ATOM     13  H   LIG d   1       7.935  -2.976  -6.016  0.00  0.00     0.048 H 
ATOM     14  H   LIG d   1       8.457  -4.172  -4.801  0.00  0.00     0.048 H 
ATOM     15  H   LIG d   1       7.852  -1.929  -3.806  0.00  0.00     0.048 H 
ATOM     16  H   LIG d   1       6.876  -3.274  -3.168  0.00  0.00     0.048 H 
ENDROOT
BRANCH   7  17
ATOM     17  C   LIG d   1       5.594  -6.716  -6.087  0.00  0.00     0.028 C 
ATOM     18  H   LIG d   1       5.258  -7.309  -5.236  0.00  0.00     0.036 H 
ATOM     19  H   LIG d   1       4.766  -6.112  -6.458  0.00  0.00     0.036 H 
BRANCH  17  20
ATOM     20  C   LIG d   1       6.082  -7.649  -7.197  0.00  0.00    -0.020 C 
ATOM     21  H   LIG d   1       7.098  -7.376  -7.483  0.00  0.00     0.031 H 
ATOM     22  C   LIG d   1       6.065  -9.095  -6.694  0.00  0.00     0.008 C 
ATOM     23  C   LIG d   1       6.494 -10.030  -7.829  0.00  0.00    -0.030 C 
ATOM     24  H   LIG d   1       6.755  -9.198  -5.857  0.00  0.00     0.036 H 
ATOM     25  H   LIG d   1       6.468 -11.062  -7.478  0.00  0.00     0.082 H 
ATOM     26  H   LIG d   1       7.507  -9.778  -8.141  0.00  0.00     0.082 H 
ATOM     27  N   LIG d   1       5.570  -9.885  -8.970  0.00  0.00     0.227 N 
ATOM     28  C   LIG d   1       5.614  -8.507  -9.495  0.00  0.00    -0.033 C 
ATOM     29  H   LIG d   1       5.846 -10.539  -9.713  0.00  0.00     0.201 HD
ATOM     30  H   LIG d   1       4.616 -10.099  -8.662  0.00  0.00     0.201 HD
ATOM     31  C   LIG d   1       5.158  -7.527  -8.412  0.00  0.00    -0.009 C 
ATOM     32  H   LIG d   1       4.949  -8.432 -10.355  0.00  0.00     0.081 H 
ATOM     33  H   LIG d   1       6.631  -8.262  -9.800  0.00  0.00     0.081 H 
ATOM     34  H   LIG d   1       4.135  -7.763  -8.116  0.00  0.00     0.032 H 
ATOM     35  H   LIG d   1       5.200  -6.510  -8.800  0.00  0.00     0.032 H 
BRANCH  22  36
ATOM     36  C   LIG d   1       4.651  -9.462  -6.240  0.00  0.00     0.001 C 
ATOM     37  H   LIG d   1       3.984  -8.616  -6.410  0.00  0.00     0.033 H 
ATOM     38  H   LIG d   1       4.298 -10.323  -6.808  0.00  0.00     0.033 H 
BRANCH  36  39
ATOM     39  C   LIG d   1       4.666  -9.801  -4.771  0.00  0.00     0.085 A 
ATOM     40  N   LIG d   1       3.642  -9.836  -3.971  0.00  0.00    -0.083 NA
ATOM     41  O   LIG d   1       3.957 -10.144  -2.845  0.00  0.00    -0.353 OA
ATOM     42  C   LIG d   1       5.285 -10.351  -2.745  0.00  0.00     0.183 A 
ATOM     43  C   LIG d   1       5.798 -10.137  -3.995  0.00  0.00     0.009 A 
ATOM     44  H   LIG d   1       6.828 -10.206  -4.313  0.00  0.00     0.068 H 
BRANCH  42  45
ATOM     45  C   LIG d   1       6.033 -10.733  -1.534  0.00  0.00     0.110 C 
ATOM     46  O   LIG d   1       5.982 -11.875  -1.123  0.00  0.00    -0.541 OA
ATOM     47  O   LIG d   1       6.772  -9.814  -0.881  0.00  0.00    -0.541 OA
ENDBRANCH  42  45
ENDBRANCH  36  39
ENDBRANCH  22  36
ENDBRANCH  17  20
ENDBRANCH   7  17
BRANCH   1  48
ATOM     48  C   LIG d   1       5.456  -1.040  -3.574  0.00  0.00     0.072 A 
ATOM     49  C   LIG d   1       5.817   0.295  -3.741  0.00  0.00     0.141 A 
ATOM     50  C   LIG d   1       5.403   1.242  -2.818  0.00  0.00    -0.018 A 
ATOM     51  C   LIG d   1       4.632   0.861  -1.736  0.00  0.00    -0.058 A 
ATOM     52  H   LIG d   1       5.681   2.278  -2.946  0.00  0.00     0.066 H 
ATOM     53  C   LIG d   1       4.273  -0.464  -1.570  0.00  0.00    -0.060 A 
ATOM     54  H   LIG d   1       4.309   1.601  -1.018  0.00  0.00     0.062 H 
ATOM     55  C   LIG d   1       4.687  -1.415  -2.482  0.00  0.00    -0.037 A 
ATOM     56  H   LIG d   1       3.670  -0.756  -0.722  0.00  0.00     0.062 H 
ATOM     57  H   LIG d   1       4.409  -2.450  -2.347  0.00  0.00     0.064 H 
BRANCH  49  58
ATOM     58  O   LIG d   1       6.574   0.669  -4.807  0.00  0.00    -0.493 OA
BRANCH  58  59
ATOM     59  C   LIG d   1       7.881   1.174  -4.530  0.00  0.00     0.079 C 
ATOM     60  H   LIG d   1       8.079   2.038  -5.166  0.00  0.00     0.066 H 
ATOM     61  H   LIG d   1       7.942   1.472  -3.484  0.00  0.00     0.066 H 
ATOM     62  H   LIG d   1       8.621   0.399  -4.731  0.00  0.00     0.066 H 
ENDBRANCH  58  59
ENDBRANCH  49  58
ENDBRANCH   1  48
TORSDOF 8
ENDMDL
MODEL 8
REMARK VINA RESULT:      -6.9      7.234     11.848
REMARK  8 active torsions:
REMARK  status: ('A' for Active; 'I' for Inactive)
REMARK    1  A    between atoms: C_1  and  O_2 
REMARK    2  A    between atoms: O_2  and  C_3 
REMARK    3  A    between atoms: C_8  and  N_9 
REMARK       I    between atoms: N_12  and  C_15 
REMARK    4  A    between atoms: C_15  and  C_17 
REMARK    5  A    between atoms: C_17  and  C_18 
REMARK    6  A    between atoms: C_23  and  C_25 
REMARK    7  A    between atoms: C_25  and  C_26 
REMARK    8  A    between atoms: C_28  and  C_31 
ROOT
ATOM      1  N   LIG d   1       6.127  -2.081  -4.926  0.00  0.00    -0.324 NA
ATOM      2  C   LIG d   1       6.100  -3.542  -5.075  0.00  0.00     0.028 C 
ATOM      3  C   LIG d   1       7.289  -3.987  -5.934  0.00  0.00     0.030 C 
ATOM      4  N   LIG d   1       8.521  -3.444  -5.343  0.00  0.00    -0.298 N 
ATOM      5  C   LIG d   1       8.572  -2.006  -5.037  0.00  0.00     0.030 C 
ATOM      6  C   LIG d   1       7.333  -1.640  -4.213  0.00  0.00     0.028 C 
ATOM      7  C   LIG d   1       9.576  -4.243  -5.088  0.00  0.00     0.216 C 
ATOM      8  O   LIG d   1      10.585  -3.778  -4.600  0.00  0.00    -0.276 OA
ATOM      9  H   LIG d   1       6.167  -4.010  -4.093  0.00  0.00     0.048 H 
ATOM     10  H   LIG d   1       5.170  -3.842  -5.558  0.00  0.00     0.048 H 
ATOM     11  H   LIG d   1       7.171  -3.604  -6.948  0.00  0.00     0.048 H 
ATOM     12  H   LIG d   1       7.340  -5.075  -5.954  0.00  0.00     0.048 H 
ATOM     13  H   LIG d   1       8.577  -1.434  -5.964  0.00  0.00     0.048 H 
ATOM     14  H   LIG d   1       9.471  -1.786  -4.463  0.00  0.00     0.048 H 
ATOM     15  H   LIG d   1       7.297  -0.560  -4.071  0.00  0.00     0.048 H 
ATOM     16  H   LIG d   1       7.382  -2.133  -3.242  0.00  0.00     0.048 H 
ENDROOT
BRANCH   7  17
ATOM     17  C   LIG d   1       9.503  -5.713  -5.410  0.00  0.00     0.028 C 
ATOM     18  H   LIG d   1       8.495  -5.963  -5.743  0.00  0.00     0.036 H 
ATOM     19  H   LIG d   1      10.215  -5.948  -6.201  0.00  0.00     0.036 H 
BRANCH  17  20
ATOM     20  C   LIG d   1       9.842  -6.527  -4.160  0.00  0.00    -0.020 C 
ATOM     21  H   LIG d   1      10.146  -5.854  -3.358  0.00  0.00     0.031 H 
ATOM     22  C   LIG d   1       8.612  -7.324  -3.719  0.00  0.00     0.008 C 
ATOM     23  C   LIG d   1       8.975  -8.184  -2.505  0.00  0.00    -0.030 C 
ATOM     24  H   LIG d   1       7.810  -6.637  -3.451  0.00  0.00     0.036 H 
ATOM     25  H   LIG d   1       8.104  -8.764  -2.198  0.00  0.00     0.082 H 
ATOM     26  H   LIG d   1       9.288  -7.538  -1.685  0.00  0.00     0.082 H 
ATOM     27  N   LIG d   1      10.070  -9.107  -2.858  0.00  0.00     0.227 N 
ATOM     28  C   LIG d   1      11.278  -8.350  -3.238  0.00  0.00    -0.033 C 
ATOM     29  H   LIG d   1      10.285  -9.702  -2.048  0.00  0.00     0.201 HD
ATOM     30  H   LIG d   1       9.776  -9.694  -3.646  0.00  0.00     0.201 HD
ATOM     31  C   LIG d   1      10.985  -7.496  -4.474  0.00  0.00    -0.009 C 
ATOM     32  H   LIG d   1      12.081  -9.051  -3.464  0.00  0.00     0.081 H 
ATOM     33  H   LIG d   1      11.581  -7.704  -2.415  0.00  0.00     0.081 H 
ATOM     34  H   LIG d   1      10.695  -8.144  -5.302  0.00  0.00     0.032 H 
ATOM     35  H   LIG d   1      11.876  -6.932  -4.747  0.00  0.00     0.032 H 
BRANCH  22  36
ATOM     36  C   LIG d   1       8.151  -8.228  -4.864  0.00  0.00     0.001 C 
ATOM     37  H   LIG d   1       8.360  -7.742  -5.817  0.00  0.00     0.033 H 
ATOM     38  H   LIG d   1       8.685  -9.177  -4.815  0.00  0.00     0.033 H 
BRANCH  36  39
ATOM     39  C   LIG d   1       6.669  -8.479  -4.741  0.00  0.00     0.085 A 
ATOM     40  N   LIG d   1       5.714  -7.726  -5.202  0.00  0.00    -0.083 NA
ATOM     41  O   LIG d   1       4.621  -8.182  -4.956  0.00  0.00    -0.353 OA
ATOM     42  C   LIG d   1       4.712  -9.334  -4.265  0.00  0.00     0.183 A 
ATOM     43  C   LIG d   1       6.049  -9.573  -4.099  0.00  0.00     0.009 A 
ATOM     44  H   LIG d   1       6.520 -10.404  -3.593  0.00  0.00     0.068 H 
BRANCH  42  45
ATOM     45  C   LIG d   1       3.597 -10.170  -3.786  0.00  0.00     0.110 C 
ATOM     46  O   LIG d   1       2.732  -9.686  -3.084  0.00  0.00    -0.541 OA
ATOM     47  O   LIG d   1       3.537 -11.473  -4.127  0.00  0.00    -0.541 OA
ENDBRANCH  42  45
ENDBRANCH  36  39
ENDBRANCH  22  36
ENDBRANCH  17  20
ENDBRANCH   7  17
BRANCH   1  48
ATOM     48  C   LIG d   1       4.970  -1.621  -4.286  0.00  0.00     0.072 A 
ATOM     49  C   LIG d   1       4.218  -0.596  -4.855  0.00  0.00     0.141 A 
ATOM     50  C   LIG d   1       3.074  -0.144  -4.218  0.00  0.00    -0.018 A 
ATOM     51  C   LIG d   1       2.680  -0.712  -3.021  0.00  0.00    -0.058 A 
ATOM     52  H   LIG d   1       2.490   0.651  -4.658  0.00  0.00     0.066 H 
ATOM     53  C   LIG d   1       3.425  -1.731  -2.456  0.00  0.00    -0.060 A 
ATOM     54  H   LIG d   1       1.787  -0.359  -2.526  0.00  0.00     0.062 H 
ATOM     55  C   LIG d   1       4.571  -2.182  -3.082  0.00  0.00    -0.037 A 
ATOM     56  H   LIG d   1       3.112  -2.171  -1.520  0.00  0.00     0.062 H 
ATOM     57  H   LIG d   1       5.154  -2.975  -2.636  0.00  0.00     0.064 H 
BRANCH  49  58
ATOM     58  O   LIG d   1       4.607  -0.039  -6.034  0.00  0.00    -0.493 OA
BRANCH  58  59
ATOM     59  C   LIG d   1       3.642  -0.009  -7.087  0.00  0.00     0.079 C 
ATOM     60  H   LIG d   1       3.649   0.974  -7.558  0.00  0.00     0.066 H 
ATOM     61  H   LIG d   1       3.890  -0.769  -7.829  0.00  0.00     0.066 H 
ATOM     62  H   LIG d   1       2.651  -0.209  -6.680  0.00  0.00     0.066 H 
ENDBRANCH  58  59
ENDBRANCH  49  58
ENDBRANCH   1  48
TORSDOF 8
ENDMDL
MODEL 9
REMARK VINA RESULT:      -6.6      4.671      7.466
REMARK  8 active torsions:
REMARK  status: ('A' for Active; 'I' for Inactive)
REMARK    1  A    between atoms: C_1  and  O_2 
REMARK    2  A    between atoms: O_2  and  C_3 
REMARK    3  A    between atoms: C_8  and  N_9 
REMARK       I    between atoms: N_12  and  C_15 
REMARK    4  A    between atoms: C_15  and  C_17 
REMARK    5  A    between atoms: C_17  and  C_18 
REMARK    6  A    between atoms: C_23  and  C_25 
REMARK    7  A    between atoms: C_25  and  C_26 
REMARK    8  A    between atoms: C_28  and  C_31 
ROOT
ATOM      1  N   LIG d   1      11.079   7.307  -1.866  0.00  0.00    -0.324 NA
ATOM      2  C   LIG d   1      11.675   7.742  -3.136  0.00  0.00     0.028 C 
ATOM      3  C   LIG d   1      11.949   6.518  -4.016  0.00  0.00     0.030 C 
ATOM      4  N   LIG d   1      10.702   5.748  -4.145  0.00  0.00    -0.298 N 
ATOM      5  C   LIG d   1       9.973   5.392  -2.918  0.00  0.00     0.030 C 
ATOM      6  C   LIG d   1       9.777   6.662  -2.083  0.00  0.00     0.028 C 
ATOM      7  C   LIG d   1      10.240   5.379  -5.356  0.00  0.00     0.216 C 
ATOM      8  O   LIG d   1       9.209   4.745  -5.445  0.00  0.00    -0.276 OA
ATOM      9  H   LIG d   1      10.987   8.413  -3.651  0.00  0.00     0.048 H 
ATOM     10  H   LIG d   1      12.611   8.265  -2.938  0.00  0.00     0.048 H 
ATOM     11  H   LIG d   1      12.714   5.897  -3.550  0.00  0.00     0.048 H 
ATOM     12  H   LIG d   1      12.284   6.841  -5.000  0.00  0.00     0.048 H 
ATOM     13  H   LIG d   1      10.548   4.664  -2.348  0.00  0.00     0.048 H 
ATOM     14  H   LIG d   1       9.001   4.972  -3.179  0.00  0.00     0.048 H 
ATOM     15  H   LIG d   1       9.336   6.400  -1.121  0.00  0.00     0.048 H 
ATOM     16  H   LIG d   1       9.114   7.347  -2.611  0.00  0.00     0.048 H 
ENDROOT
BRANCH   7  17
ATOM     17  C   LIG d   1      11.003   5.754  -6.600  0.00  0.00     0.028 C 
ATOM     18  H   LIG d   1      11.771   6.486  -6.348  0.00  0.00     0.036 H 
ATOM     19  H   LIG d   1      11.472   4.865  -7.021  0.00  0.00     0.036 H 
BRANCH  17  20
ATOM     20  C   LIG d   1      10.042   6.358  -7.626  0.00  0.00    -0.020 C 
ATOM     21  H   LIG d   1       9.171   5.711  -7.734  0.00  0.00     0.031 H 
ATOM     22  C   LIG d   1       9.595   7.744  -7.155  0.00  0.00     0.008 C 
ATOM     23  C   LIG d   1       8.684   8.368  -8.215  0.00  0.00    -0.030 C 
ATOM     24  H   LIG d   1       9.051   7.651  -6.216  0.00  0.00     0.036 H 
ATOM     25  H   LIG d   1       8.376   9.362  -7.889  0.00  0.00     0.082 H 
ATOM     26  H   LIG d   1       7.803   7.741  -8.350  0.00  0.00     0.082 H 
ATOM     27  N   LIG d   1       9.412   8.484  -9.493  0.00  0.00     0.227 N 
ATOM     28  C   LIG d   1       9.806   7.149  -9.983  0.00  0.00    -0.033 C 
ATOM     29  H   LIG d   1       8.804   8.933 -10.189  0.00  0.00     0.201 HD
ATOM     30  H   LIG d   1      10.253   9.055  -9.353  0.00  0.00     0.201 HD
ATOM     31  C   LIG d   1      10.752   6.489  -8.977  0.00  0.00    -0.009 C 
ATOM     32  H   LIG d   1      10.313   7.257 -10.941  0.00  0.00     0.081 H 
ATOM     33  H   LIG d   1       8.920   6.528 -10.109  0.00  0.00     0.081 H 
ATOM     34  H   LIG d   1      11.645   7.103  -8.860  0.00  0.00     0.032 H 
ATOM     35  H   LIG d   1      11.033   5.500  -9.338  0.00  0.00     0.032 H 
BRANCH  22  36
ATOM     36  C   LIG d   1      10.822   8.634  -6.950  0.00  0.00     0.001 C 
ATOM     37  H   LIG d   1      11.540   8.122  -6.309  0.00  0.00     0.033 H 
ATOM     38  H   LIG d   1      11.283   8.846  -7.915  0.00  0.00     0.033 H 
BRANCH  36  39
ATOM     39  C   LIG d   1      10.401   9.928  -6.299  0.00  0.00     0.085 A 
ATOM     40  N   LIG d   1      10.593  11.128  -6.762  0.00  0.00    -0.083 NA
ATOM     41  O   LIG d   1      10.143  11.974  -6.024  0.00  0.00    -0.353 OA
ATOM     42  C   LIG d   1       9.582  11.425  -4.929  0.00  0.00     0.183 A 
ATOM     43  C   LIG d   1       9.728  10.071  -5.066  0.00  0.00     0.009 A 
ATOM     44  H   LIG d   1       9.404   9.294  -4.389  0.00  0.00     0.068 H 
BRANCH  42  45
ATOM     45  C   LIG d   1       8.940  12.138  -3.811  0.00  0.00     0.110 C 
ATOM     46  O   LIG d   1       9.419  13.175  -3.395  0.00  0.00    -0.541 OA
ATOM     47  O   LIG d   1       7.822  11.640  -3.247  0.00  0.00    -0.541 OA
ENDBRANCH  42  45
ENDBRANCH  36  39
ENDBRANCH  22  36
ENDBRANCH  17  20
ENDBRANCH   7  17
BRANCH   1  48
ATOM     48  C   LIG d   1      10.965   8.378  -0.973  0.00  0.00     0.072 A 
ATOM     49  C   LIG d   1      11.413   8.244   0.339  0.00  0.00     0.141 A 
ATOM     50  C   LIG d   1      11.298   9.307   1.220  0.00  0.00    -0.018 A 
ATOM     51  C   LIG d   1      10.740  10.498   0.796  0.00  0.00    -0.058 A 
ATOM     52  H   LIG d   1      11.646   9.204   2.237  0.00  0.00     0.066 H 
ATOM     53  C   LIG d   1      10.296  10.633  -0.507  0.00  0.00    -0.060 A 
ATOM     54  H   LIG d   1      10.653  11.326   1.484  0.00  0.00     0.062 H 
ATOM     55  C   LIG d   1      10.401   9.575  -1.389  0.00  0.00    -0.037 A 
ATOM     56  H   LIG d   1       9.861  11.566  -0.833  0.00  0.00     0.062 H 
ATOM     57  H   LIG d   1      10.048   9.682  -2.404  0.00  0.00     0.064 H 
BRANCH  49  58
ATOM     58  O   LIG d   1      11.963   7.071   0.755  0.00  0.00    -0.493 OA
BRANCH  58  59
ATOM     59  C   LIG d   1      11.095   6.139   1.402  0.00  0.00     0.079 C 
ATOM     60  H   LIG d   1      11.239   6.197   2.481  0.00  0.00     0.066 H 
ATOM     61  H   LIG d   1      10.059   6.379   1.160  0.00  0.00     0.066 H 
ATOM     62  H   LIG d   1      11.323   5.130   1.059  0.00  0.00     0.066 H 
ENDBRANCH  58  59
ENDBRANCH  49  58
ENDBRANCH   1  48
TORSDOF 8
ENDMDL
