MODEL 1
REMARK VINA RESULT:      -5.7      0.000      0.000
REMARK  8 active torsions:
REMARK  status: ('A' for Active; 'I' for Inactive)
REMARK    1  A    between atoms: C_1  and  O_2 
REMARK    2  A    between atoms: O_2  and  C_3 
REMARK    3  A    between atoms: C_3  and  C_4 
REMARK       I    between atoms: C_4  and  N_6 
REMARK    4  A    between atoms: N_12  and  C_13 
REMARK    5  A    between atoms: C_13  and  C_14 
REMARK    6  A    between atoms: C_22  and  C_24 
REMARK    7  A    between atoms: C_24  and  O_26 
REMARK    8  A    between atoms: O_26  and  C_27 
ROOT
ATOM      1  C   LIG d   1       4.220  -0.802  -8.832  0.00  0.00     0.242 C 
ATOM      2  O   LIG d   1       3.561  -0.518  -9.809  0.00  0.00    -0.273 OA
ATOM      3  N   LIG d   1       4.578  -2.082  -8.610  0.00  0.00    -0.280 N 
ATOM      4  C   LIG d   1       5.489  -2.432  -7.504  0.00  0.00     0.058 C 
ATOM      5  C   LIG d   1       4.913  -3.654  -6.827  0.00  0.00     0.059 A 
ATOM      6  C   LIG d   1       3.905  -4.398  -7.331  0.00  0.00     0.066 A 
ATOM      7  N   LIG d   1       3.668  -5.399  -6.477  0.00  0.00    -0.240 NA
ATOM      8  C   LIG d   1       4.487  -5.303  -5.463  0.00  0.00     0.097 A 
ATOM      9  N   LIG d   1       5.281  -4.222  -5.646  0.00  0.00    -0.328 N 
ATOM     10  C   LIG d   1       3.202  -4.107  -8.633  0.00  0.00     0.020 C 
ATOM     11  C   LIG d   1       4.076  -3.165  -9.469  0.00  0.00     0.129 C 
ATOM     12  H   LIG d   1       4.918  -3.721  -9.883  0.00  0.00     0.062 H 
ATOM     13  H   LIG d   1       6.481  -2.655  -7.897  0.00  0.00     0.053 H 
ATOM     14  H   LIG d   1       5.547  -1.606  -6.795  0.00  0.00     0.053 H 
ATOM     15  H   LIG d   1       4.525  -5.974  -4.619  0.00  0.00     0.103 H 
ATOM     16  H   LIG d   1       2.242  -3.632  -8.432  0.00  0.00     0.035 H 
ATOM     17  H   LIG d   1       3.041  -5.037  -9.179  0.00  0.00     0.035 H 
ENDROOT
BRANCH   9  18
ATOM     18  C   LIG d   1       6.337  -3.754  -4.746  0.00  0.00     0.050 C 
ATOM     19  H   LIG d   1       6.610  -4.554  -4.058  0.00  0.00     0.054 H 
ATOM     20  H   LIG d   1       7.211  -3.462  -5.330  0.00  0.00     0.054 H 
BRANCH  18  21
ATOM     21  C   LIG d   1       5.839  -2.567  -3.962  0.00  0.00    -0.028 A 
ATOM     22  C   LIG d   1       4.618  -2.628  -3.317  0.00  0.00    -0.056 A 
ATOM     23  C   LIG d   1       4.161  -1.540  -2.598  0.00  0.00    -0.043 A 
ATOM     24  H   LIG d   1       4.021  -3.526  -3.374  0.00  0.00     0.062 H 
ATOM     25  C   LIG d   1       4.925  -0.389  -2.524  0.00  0.00     0.041 A 
ATOM     26  H   LIG d   1       3.207  -1.588  -2.093  0.00  0.00     0.063 H 
ATOM     27  C   LIG d   1       6.147  -0.328  -3.170  0.00  0.00    -0.043 A 
ATOM     28 CL   LIG d   1       4.350   0.979  -1.621  0.00  0.00    -0.084 Cl
ATOM     29  C   LIG d   1       6.606  -1.418  -3.884  0.00  0.00    -0.056 A 
ATOM     30  H   LIG d   1       6.743   0.570  -3.113  0.00  0.00     0.063 H 
ATOM     31  H   LIG d   1       7.562  -1.373  -4.385  0.00  0.00     0.062 H 
ENDBRANCH  18  21
ENDBRANCH   9  18
BRANCH   1  32
ATOM     32  C   LIG d   1       4.635   0.275  -7.864  0.00  0.00     0.123 C 
ATOM     33  H   LIG d   1       5.366  -0.128  -7.163  0.00  0.00     0.066 H 
ATOM     34  H   LIG d   1       5.080   1.105  -8.413  0.00  0.00     0.066 H 
BRANCH  32  35
ATOM     35  O   LIG d   1       3.490   0.738  -7.145  0.00  0.00    -0.374 OA
BRANCH  35  36
ATOM     36  C   LIG d   1       3.258   0.049  -5.914  0.00  0.00     0.037 C 
ATOM     37  H   LIG d   1       4.039   0.310  -5.200  0.00  0.00     0.052 H 
ATOM     38  H   LIG d   1       2.288   0.340  -5.513  0.00  0.00     0.052 H 
ATOM     39  H   LIG d   1       3.273  -1.026  -6.091  0.00  0.00     0.052 H 
ENDBRANCH  35  36
ENDBRANCH  32  35
ENDBRANCH   1  32
BRANCH  11  40
ATOM     40  C   LIG d   1       3.257  -2.580 -10.591  0.00  0.00     0.328 C 
ATOM     41  O   LIG d   1       3.794  -2.243 -11.618  0.00  0.00    -0.249 OA
BRANCH  40  42
ATOM     42  O   LIG d   1       1.930  -2.434 -10.448  0.00  0.00    -0.467 OA
BRANCH  42  43
ATOM     43  C   LIG d   1       1.151  -2.263 -11.661  0.00  0.00     0.082 C 
ATOM     44  H   LIG d   1       1.397  -1.305 -12.117  0.00  0.00     0.066 H 
ATOM     45  H   LIG d   1       1.382  -3.068 -12.358  0.00  0.00     0.066 H 
ATOM     46  H   LIG d   1       0.089  -2.288 -11.416  0.00  0.00     0.066 H 
ENDBRANCH  42  43
ENDBRANCH  40  42
ENDBRANCH  11  40
TORSDOF 8
ENDMDL
MODEL 2
REMARK VINA RESULT:      -5.4      3.749      7.327
REMARK  8 active torsions:
REMARK  status: ('A' for Active; 'I' for Inactive)
REMARK    1  A    between atoms: C_1  and  O_2 
REMARK    2  A    between atoms: O_2  and  C_3 
REMARK    3  A    between atoms: C_3  and  C_4 
REMARK       I    between atoms: C_4  and  N_6 
REMARK    4  A    between atoms: N_12  and  C_13 
REMARK    5  A    between atoms: C_13  and  C_14 
REMARK    6  A    between atoms: C_22  and  C_24 
REMARK    7  A    between atoms: C_24  and  O_26 
REMARK    8  A    between atoms: O_26  and  C_27 
ROOT
ATOM      1  C   LIG d   1       4.459  -3.469  -5.445  0.00  0.00     0.242 C 
ATOM      2  O   LIG d   1       4.458  -3.706  -4.256  0.00  0.00    -0.273 OA
ATOM      3  N   LIG d   1       4.654  -2.209  -5.881  0.00  0.00    -0.280 N 
ATOM      4  C   LIG d   1       4.793  -1.919  -7.320  0.00  0.00     0.058 C 
ATOM      5  C   LIG d   1       3.958  -0.693  -7.607  0.00  0.00     0.059 A 
ATOM      6  C   LIG d   1       3.420   0.099  -6.656  0.00  0.00     0.066 A 
ATOM      7  N   LIG d   1       2.762   1.088  -7.269  0.00  0.00    -0.240 NA
ATOM      8  C   LIG d   1       2.869   0.937  -8.564  0.00  0.00     0.097 A 
ATOM      9  N   LIG d   1       3.610  -0.168  -8.813  0.00  0.00    -0.328 N 
ATOM     10  C   LIG d   1       3.564  -0.134  -5.173  0.00  0.00     0.020 C 
ATOM     11  C   LIG d   1       4.740  -1.088  -4.933  0.00  0.00     0.129 C 
ATOM     12  H   LIG d   1       5.679  -0.554  -5.084  0.00  0.00     0.062 H 
ATOM     13  H   LIG d   1       5.838  -1.725  -7.560  0.00  0.00     0.053 H 
ATOM     14  H   LIG d   1       4.429  -2.764  -7.905  0.00  0.00     0.053 H 
ATOM     15  H   LIG d   1       2.438   1.587  -9.311  0.00  0.00     0.103 H 
ATOM     16  H   LIG d   1       2.648  -0.578  -4.782  0.00  0.00     0.035 H 
ATOM     17  H   LIG d   1       3.753   0.814  -4.669  0.00  0.00     0.035 H 
ENDROOT
BRANCH   9  18
ATOM     18  C   LIG d   1       3.970  -0.696 -10.131  0.00  0.00     0.050 C 
ATOM     19  H   LIG d   1       4.220   0.128 -10.797  0.00  0.00     0.054 H 
ATOM     20  H   LIG d   1       4.830  -1.360 -10.034  0.00  0.00     0.054 H 
BRANCH  18  21
ATOM     21  C   LIG d   1       2.805  -1.465 -10.699  0.00  0.00    -0.028 A 
ATOM     22  C   LIG d   1       2.478  -2.705 -10.184  0.00  0.00    -0.056 A 
ATOM     23  C   LIG d   1       1.409  -3.410 -10.705  0.00  0.00    -0.043 A 
ATOM     24  H   LIG d   1       3.057  -3.123  -9.375  0.00  0.00     0.062 H 
ATOM     25  C   LIG d   1       0.666  -2.874 -11.743  0.00  0.00     0.041 A 
ATOM     26  H   LIG d   1       1.153  -4.379 -10.303  0.00  0.00     0.063 H 
ATOM     27  C   LIG d   1       0.995  -1.633 -12.258  0.00  0.00    -0.043 A 
ATOM     28 CL   LIG d   1      -0.676  -3.760 -12.398  0.00  0.00    -0.084 Cl
ATOM     29  C   LIG d   1       2.059  -0.926 -11.733  0.00  0.00    -0.056 A 
ATOM     30  H   LIG d   1       0.415  -1.215 -13.068  0.00  0.00     0.063 H 
ATOM     31  H   LIG d   1       2.314   0.045 -12.132  0.00  0.00     0.062 H 
ENDBRANCH  18  21
ENDBRANCH   9  18
BRANCH   1  32
ATOM     32  C   LIG d   1       4.241  -4.584  -6.434  0.00  0.00     0.123 C 
ATOM     33  H   LIG d   1       3.470  -4.291  -7.147  0.00  0.00     0.066 H 
ATOM     34  H   LIG d   1       5.171  -4.784  -6.967  0.00  0.00     0.066 H 
BRANCH  32  35
ATOM     35  O   LIG d   1       3.827  -5.763  -5.741  0.00  0.00    -0.374 OA
BRANCH  35  36
ATOM     36  C   LIG d   1       4.744  -6.854  -5.849  0.00  0.00     0.037 C 
ATOM     37  H   LIG d   1       5.757  -6.467  -5.961  0.00  0.00     0.052 H 
ATOM     38  H   LIG d   1       4.686  -7.466  -4.950  0.00  0.00     0.052 H 
ATOM     39  H   LIG d   1       4.488  -7.458  -6.719  0.00  0.00     0.052 H 
ENDBRANCH  35  36
ENDBRANCH  32  35
ENDBRANCH   1  32
BRANCH  11  40
ATOM     40  C   LIG d   1       4.682  -1.615  -3.522  0.00  0.00     0.328 C 
ATOM     41  O   LIG d   1       3.614  -1.796  -2.989  0.00  0.00    -0.249 OA
BRANCH  40  42
ATOM     42  O   LIG d   1       5.818  -1.885  -2.859  0.00  0.00    -0.467 OA
BRANCH  42  43
ATOM     43  C   LIG d   1       7.054  -1.393  -3.440  0.00  0.00     0.082 C 
ATOM     44  H   LIG d   1       6.845  -0.508  -4.040  0.00  0.00     0.066 H 
ATOM     45  H   LIG d   1       7.753  -1.136  -2.644  0.00  0.00     0.066 H 
ATOM     46  H   LIG d   1       7.491  -2.167  -4.071  0.00  0.00     0.066 H 
ENDBRANCH  42  43
ENDBRANCH  40  42
ENDBRANCH  11  40
TORSDOF 8
ENDMDL
MODEL 3
REMARK VINA RESULT:      -5.3      3.643      6.586
REMARK  8 active torsions:
REMARK  status: ('A' for Active; 'I' for Inactive)
REMARK    1  A    between atoms: C_1  and  O_2 
REMARK    2  A    between atoms: O_2  and  C_3 
REMARK    3  A    between atoms: C_3  and  C_4 
REMARK       I    between atoms: C_4  and  N_6 
REMARK    4  A    between atoms: N_12  and  C_13 
REMARK    5  A    between atoms: C_13  and  C_14 
REMARK    6  A    between atoms: C_22  and  C_24 
REMARK    7  A    between atoms: C_24  and  O_26 
REMARK    8  A    between atoms: O_26  and  C_27 
ROOT
ATOM      1  C   LIG d   1       4.559  -2.522  -4.326  0.00  0.00     0.242 C 
ATOM      2  O   LIG d   1       4.030  -2.638  -3.241  0.00  0.00    -0.273 OA
ATOM      3  N   LIG d   1       4.576  -1.325  -4.944  0.00  0.00    -0.280 N 
ATOM      4  C   LIG d   1       5.328  -1.130  -6.197  0.00  0.00     0.058 C 
ATOM      5  C   LIG d   1       4.437  -0.339  -7.128  0.00  0.00     0.059 A 
ATOM      6  C   LIG d   1       3.295   0.272  -6.750  0.00  0.00     0.066 A 
ATOM      7  N   LIG d   1       2.782   0.883  -7.822  0.00  0.00    -0.240 NA
ATOM      8  C   LIG d   1       3.561   0.672  -8.851  0.00  0.00     0.097 A 
ATOM      9  N   LIG d   1       4.607  -0.090  -8.455  0.00  0.00    -0.328 N 
ATOM     10  C   LIG d   1       2.737   0.240  -5.349  0.00  0.00     0.020 C 
ATOM     11  C   LIG d   1       3.851  -0.176  -4.381  0.00  0.00     0.129 C 
ATOM     12  H   LIG d   1       4.541   0.657  -4.239  0.00  0.00     0.062 H 
ATOM     13  H   LIG d   1       6.246  -0.578  -5.998  0.00  0.00     0.053 H 
ATOM     14  H   LIG d   1       5.564  -2.097  -6.642  0.00  0.00     0.053 H 
ATOM     15  H   LIG d   1       3.397   1.044  -9.851  0.00  0.00     0.103 H 
ATOM     16  H   LIG d   1       1.920  -0.480  -5.297  0.00  0.00     0.035 H 
ATOM     17  H   LIG d   1       2.368   1.230  -5.078  0.00  0.00     0.035 H 
ENDROOT
BRANCH   9  18
ATOM     18  C   LIG d   1       5.712  -0.557  -9.296  0.00  0.00     0.050 C 
ATOM     19  H   LIG d   1       5.919  -1.604  -9.076  0.00  0.00     0.054 H 
ATOM     20  H   LIG d   1       5.440  -0.452 -10.346  0.00  0.00     0.054 H 
BRANCH  18  21
ATOM     21  C   LIG d   1       6.942   0.267  -9.011  0.00  0.00    -0.028 A 
ATOM     22  C   LIG d   1       6.883   1.646  -9.091  0.00  0.00    -0.056 A 
ATOM     23  C   LIG d   1       8.010   2.402  -8.830  0.00  0.00    -0.043 A 
ATOM     24  H   LIG d   1       5.956   2.132  -9.357  0.00  0.00     0.062 H 
ATOM     25  C   LIG d   1       9.198   1.778  -8.489  0.00  0.00     0.041 A 
ATOM     26  H   LIG d   1       7.965   3.479  -8.892  0.00  0.00     0.063 H 
ATOM     27  C   LIG d   1       9.256   0.398  -8.410  0.00  0.00    -0.043 A 
ATOM     28 CL   LIG d   1      10.614   2.728  -8.162  0.00  0.00    -0.084 Cl
ATOM     29  C   LIG d   1       8.127  -0.357  -8.666  0.00  0.00    -0.056 A 
ATOM     30  H   LIG d   1      10.182  -0.089  -8.145  0.00  0.00     0.063 H 
ATOM     31  H   LIG d   1       8.170  -1.434  -8.600  0.00  0.00     0.062 H 
ENDBRANCH  18  21
ENDBRANCH   9  18
BRANCH   1  32
ATOM     32  C   LIG d   1       5.195  -3.719  -4.984  0.00  0.00     0.123 C 
ATOM     33  H   LIG d   1       5.651  -3.415  -5.927  0.00  0.00     0.066 H 
ATOM     34  H   LIG d   1       5.961  -4.131  -4.327  0.00  0.00     0.066 H 
BRANCH  32  35
ATOM     35  O   LIG d   1       4.198  -4.711  -5.235  0.00  0.00    -0.374 OA
BRANCH  35  36
ATOM     36  C   LIG d   1       3.950  -4.948  -6.623  0.00  0.00     0.037 C 
ATOM     37  H   LIG d   1       2.883  -5.110  -6.778  0.00  0.00     0.052 H 
ATOM     38  H   LIG d   1       4.273  -4.084  -7.202  0.00  0.00     0.052 H 
ATOM     39  H   LIG d   1       4.501  -5.831  -6.945  0.00  0.00     0.052 H 
ENDBRANCH  35  36
ENDBRANCH  32  35
ENDBRANCH   1  32
BRANCH  11  40
ATOM     40  C   LIG d   1       3.248  -0.561  -3.055  0.00  0.00     0.328 C 
ATOM     41  O   LIG d   1       2.117  -0.981  -3.004  0.00  0.00    -0.249 OA
BRANCH  40  42
ATOM     42  O   LIG d   1       3.968  -0.439  -1.928  0.00  0.00    -0.467 OA
BRANCH  42  43
ATOM     43  C   LIG d   1       4.646   0.827  -1.713  0.00  0.00     0.082 C 
ATOM     44  H   LIG d   1       4.303   1.552  -2.451  0.00  0.00     0.066 H 
ATOM     45  H   LIG d   1       4.423   1.194  -0.711  0.00  0.00     0.066 H 
ATOM     46  H   LIG d   1       5.722   0.684  -1.816  0.00  0.00     0.066 H 
ENDBRANCH  42  43
ENDBRANCH  40  42
ENDBRANCH  11  40
TORSDOF 8
ENDMDL
MODEL 4
REMARK VINA RESULT:      -5.2      3.887      7.487
REMARK  8 active torsions:
REMARK  status: ('A' for Active; 'I' for Inactive)
REMARK    1  A    between atoms: C_1  and  O_2 
REMARK    2  A    between atoms: O_2  and  C_3 
REMARK    3  A    between atoms: C_3  and  C_4 
REMARK       I    between atoms: C_4  and  N_6 
REMARK    4  A    between atoms: N_12  and  C_13 
REMARK    5  A    between atoms: C_13  and  C_14 
REMARK    6  A    between atoms: C_22  and  C_24 
REMARK    7  A    between atoms: C_24  and  O_26 
REMARK    8  A    between atoms: O_26  and  C_27 
ROOT
ATOM      1  C   LIG d   1       4.484  -2.582  -4.560  0.00  0.00     0.242 C 
ATOM      2  O   LIG d   1       4.054  -2.635  -3.428  0.00  0.00    -0.273 OA
ATOM      3  N   LIG d   1       4.515  -1.405  -5.215  0.00  0.00    -0.280 N 
ATOM      4  C   LIG d   1       5.155  -1.291  -6.538  0.00  0.00     0.058 C 
ATOM      5  C   LIG d   1       4.231  -0.469  -7.407  0.00  0.00     0.059 A 
ATOM      6  C   LIG d   1       3.168   0.222  -6.945  0.00  0.00     0.066 A 
ATOM      7  N   LIG d   1       2.594   0.836  -7.984  0.00  0.00    -0.240 NA
ATOM      8  C   LIG d   1       3.258   0.549  -9.074  0.00  0.00     0.097 A 
ATOM      9  N   LIG d   1       4.289  -0.267  -8.752  0.00  0.00    -0.328 N 
ATOM     10  C   LIG d   1       2.744   0.263  -5.498  0.00  0.00     0.020 C 
ATOM     11  C   LIG d   1       3.917  -0.197  -4.624  0.00  0.00     0.129 C 
ATOM     12  H   LIG d   1       4.666   0.593  -4.574  0.00  0.00     0.062 H 
ATOM     13  H   LIG d   1       6.120  -0.793  -6.442  0.00  0.00     0.053 H 
ATOM     14  H   LIG d   1       5.290  -2.282  -6.971  0.00  0.00     0.053 H 
ATOM     15  H   LIG d   1       3.024   0.904 -10.065  0.00  0.00     0.103 H 
ATOM     16  H   LIG d   1       1.894  -0.402  -5.348  0.00  0.00     0.035 H 
ATOM     17  H   LIG d   1       2.463   1.280  -5.226  0.00  0.00     0.035 H 
ENDROOT
BRANCH   9  18
ATOM     18  C   LIG d   1       5.280  -0.825  -9.676  0.00  0.00     0.050 C 
ATOM     19  H   LIG d   1       6.081  -0.103  -9.828  0.00  0.00     0.054 H 
ATOM     20  H   LIG d   1       5.692  -1.743  -9.256  0.00  0.00     0.054 H 
BRANCH  18  21
ATOM     21  C   LIG d   1       4.620  -1.129 -10.996  0.00  0.00    -0.028 A 
ATOM     22  C   LIG d   1       4.858  -0.318 -12.090  0.00  0.00    -0.056 A 
ATOM     23  C   LIG d   1       4.254  -0.597 -13.301  0.00  0.00    -0.043 A 
ATOM     24  H   LIG d   1       5.517   0.533 -11.999  0.00  0.00     0.062 H 
ATOM     25  C   LIG d   1       3.409  -1.687 -13.419  0.00  0.00     0.041 A 
ATOM     26  H   LIG d   1       4.440   0.036 -14.156  0.00  0.00     0.063 H 
ATOM     27  C   LIG d   1       3.171  -2.497 -12.323  0.00  0.00    -0.043 A 
ATOM     28 CL   LIG d   1       2.649  -2.036 -14.940  0.00  0.00    -0.084 Cl
ATOM     29  C   LIG d   1       3.780  -2.222 -11.114  0.00  0.00    -0.056 A 
ATOM     30  H   LIG d   1       2.512  -3.348 -12.414  0.00  0.00     0.063 H 
ATOM     31  H   LIG d   1       3.598  -2.856 -10.259  0.00  0.00     0.062 H 
ENDBRANCH  18  21
ENDBRANCH   9  18
BRANCH   1  32
ATOM     32  C   LIG d   1       4.982  -3.833  -5.236  0.00  0.00     0.123 C 
ATOM     33  H   LIG d   1       5.526  -3.565  -6.142  0.00  0.00     0.066 H 
ATOM     34  H   LIG d   1       5.646  -4.372  -4.560  0.00  0.00     0.066 H 
BRANCH  32  35
ATOM     35  O   LIG d   1       3.871  -4.666  -5.575  0.00  0.00    -0.374 OA
BRANCH  35  36
ATOM     36  C   LIG d   1       3.828  -5.044  -6.953  0.00  0.00     0.037 C 
ATOM     37  H   LIG d   1       2.890  -4.706  -7.393  0.00  0.00     0.052 H 
ATOM     38  H   LIG d   1       4.663  -4.586  -7.481  0.00  0.00     0.052 H 
ATOM     39  H   LIG d   1       3.897  -6.129  -7.033  0.00  0.00     0.052 H 
ENDBRANCH  35  36
ENDBRANCH  32  35
ENDBRANCH   1  32
BRANCH  11  40
ATOM     40  C   LIG d   1       3.419  -0.509  -3.236  0.00  0.00     0.328 C 
ATOM     41  O   LIG d   1       2.308  -0.953  -3.078  0.00  0.00    -0.249 OA
BRANCH  40  42
ATOM     42  O   LIG d   1       4.213  -0.294  -2.174  0.00  0.00    -0.467 OA
BRANCH  42  43
ATOM     43  C   LIG d   1       5.284   0.673  -2.336  0.00  0.00     0.082 C 
ATOM     44  H   LIG d   1       6.218   0.244  -1.974  0.00  0.00     0.066 H 
ATOM     45  H   LIG d   1       5.386   0.929  -3.391  0.00  0.00     0.066 H 
ATOM     46  H   LIG d   1       5.050   1.572  -1.765  0.00  0.00     0.066 H 
ENDBRANCH  42  43
ENDBRANCH  40  42
ENDBRANCH  11  40
TORSDOF 8
ENDMDL
MODEL 5
REMARK VINA RESULT:      -5.2      4.154      7.011
REMARK  8 active torsions:
REMARK  status: ('A' for Active; 'I' for Inactive)
REMARK    1  A    between atoms: C_1  and  O_2 
REMARK    2  A    between atoms: O_2  and  C_3 
REMARK    3  A    between atoms: C_3  and  C_4 
REMARK       I    between atoms: C_4  and  N_6 
REMARK    4  A    between atoms: N_12  and  C_13 
REMARK    5  A    between atoms: C_13  and  C_14 
REMARK    6  A    between atoms: C_22  and  C_24 
REMARK    7  A    between atoms: C_24  and  O_26 
REMARK    8  A    between atoms: O_26  and  C_27 
ROOT
ATOM      1  C   LIG d   1       4.425  -1.148  -4.441  0.00  0.00     0.242 C 
ATOM      2  O   LIG d   1       4.982  -1.789  -3.575  0.00  0.00    -0.273 OA
ATOM      3  N   LIG d   1       4.934  -1.117  -5.688  0.00  0.00    -0.280 N 
ATOM      4  C   LIG d   1       4.203  -0.458  -6.787  0.00  0.00     0.058 C 
ATOM      5  C   LIG d   1       5.214   0.355  -7.564  0.00  0.00     0.059 A 
ATOM      6  C   LIG d   1       6.550   0.257  -7.405  0.00  0.00     0.066 A 
ATOM      7  N   LIG d   1       7.128   1.108  -8.260  0.00  0.00    -0.240 NA
ATOM      8  C   LIG d   1       6.200   1.731  -8.939  0.00  0.00     0.097 A 
ATOM      9  N   LIG d   1       4.989   1.286  -8.530  0.00  0.00    -0.328 N 
ATOM     10  C   LIG d   1       7.226  -0.665  -6.422  0.00  0.00     0.020 C 
ATOM     11  C   LIG d   1       6.228  -1.747  -5.991  0.00  0.00     0.129 C 
ATOM     12  H   LIG d   1       6.102  -2.469  -6.799  0.00  0.00     0.062 H 
ATOM     13  H   LIG d   1       3.750  -1.208  -7.434  0.00  0.00     0.053 H 
ATOM     14  H   LIG d   1       3.433   0.197  -6.380  0.00  0.00     0.053 H 
ATOM     15  H   LIG d   1       6.372   2.476  -9.701  0.00  0.00     0.103 H 
ATOM     16  H   LIG d   1       7.547  -0.097  -5.549  0.00  0.00     0.035 H 
ATOM     17  H   LIG d   1       8.091  -1.133  -6.891  0.00  0.00     0.035 H 
ENDROOT
BRANCH   9  18
ATOM     18  C   LIG d   1       3.685   1.724  -9.034  0.00  0.00     0.050 C 
ATOM     19  H   LIG d   1       2.986   1.814  -8.203  0.00  0.00     0.054 H 
ATOM     20  H   LIG d   1       3.791   2.690  -9.527  0.00  0.00     0.054 H 
BRANCH  18  21
ATOM     21  C   LIG d   1       3.163   0.711 -10.020  0.00  0.00    -0.028 A 
ATOM     22  C   LIG d   1       3.835   0.494 -11.209  0.00  0.00    -0.056 A 
ATOM     23  C   LIG d   1       3.356  -0.434 -12.114  0.00  0.00    -0.043 A 
ATOM     24  H   LIG d   1       4.734   1.050 -11.430  0.00  0.00     0.062 H 
ATOM     25  C   LIG d   1       2.204  -1.147 -11.830  0.00  0.00     0.041 A 
ATOM     26  H   LIG d   1       3.881  -0.604 -13.042  0.00  0.00     0.063 H 
ATOM     27  C   LIG d   1       1.531  -0.928 -10.641  0.00  0.00    -0.043 A 
ATOM     28 CL   LIG d   1       1.602  -2.313 -12.968  0.00  0.00    -0.084 Cl
ATOM     29  C   LIG d   1       2.014  -0.004  -9.734  0.00  0.00    -0.056 A 
ATOM     30  H   LIG d   1       0.632  -1.484 -10.420  0.00  0.00     0.063 H 
ATOM     31  H   LIG d   1       1.492   0.163  -8.803  0.00  0.00     0.062 H 
ENDBRANCH  18  21
ENDBRANCH   9  18
BRANCH   1  32
ATOM     32  C   LIG d   1       3.166  -0.386  -4.121  0.00  0.00     0.123 C 
ATOM     33  H   LIG d   1       3.128   0.522  -4.723  0.00  0.00     0.066 H 
ATOM     34  H   LIG d   1       2.298  -1.006  -4.345  0.00  0.00     0.066 H 
BRANCH  32  35
ATOM     35  O   LIG d   1       3.157  -0.039  -2.735  0.00  0.00    -0.374 OA
BRANCH  35  36
ATOM     36  C   LIG d   1       3.672   1.266  -2.458  0.00  0.00     0.037 C 
ATOM     37  H   LIG d   1       4.407   1.534  -3.217  0.00  0.00     0.052 H 
ATOM     38  H   LIG d   1       2.856   1.988  -2.472  0.00  0.00     0.052 H 
ATOM     39  H   LIG d   1       4.146   1.269  -1.477  0.00  0.00     0.052 H 
ENDBRANCH  35  36
ENDBRANCH  32  35
ENDBRANCH   1  32
BRANCH  11  40
ATOM     40  C   LIG d   1       6.746  -2.450  -4.763  0.00  0.00     0.328 C 
ATOM     41  O   LIG d   1       7.461  -1.863  -3.987  0.00  0.00    -0.249 OA
BRANCH  40  42
ATOM     42  O   LIG d   1       6.411  -3.730  -4.530  0.00  0.00    -0.467 OA
BRANCH  42  43
ATOM     43  C   LIG d   1       6.157  -4.566  -5.689  0.00  0.00     0.082 C 
ATOM     44  H   LIG d   1       5.161  -5.001  -5.612  0.00  0.00     0.066 H 
ATOM     45  H   LIG d   1       6.222  -3.963  -6.594  0.00  0.00     0.066 H 
ATOM     46  H   LIG d   1       6.900  -5.363  -5.731  0.00  0.00     0.066 H 
ENDBRANCH  42  43
ENDBRANCH  40  42
ENDBRANCH  11  40
TORSDOF 8
ENDMDL
MODEL 6
REMARK VINA RESULT:      -5.1      4.285      6.700
REMARK  8 active torsions:
REMARK  status: ('A' for Active; 'I' for Inactive)
REMARK    1  A    between atoms: C_1  and  O_2 
REMARK    2  A    between atoms: O_2  and  C_3 
REMARK    3  A    between atoms: C_3  and  C_4 
REMARK       I    between atoms: C_4  and  N_6 
REMARK    4  A    between atoms: N_12  and  C_13 
REMARK    5  A    between atoms: C_13  and  C_14 
REMARK    6  A    between atoms: C_22  and  C_24 
REMARK    7  A    between atoms: C_24  and  O_26 
REMARK    8  A    between atoms: O_26  and  C_27 
ROOT
ATOM      1  C   LIG d   1       4.387  -0.354  -5.710  0.00  0.00     0.242 C 
ATOM      2  O   LIG d   1       3.256  -0.249  -5.290  0.00  0.00    -0.273 OA
ATOM      3  N   LIG d   1       5.430  -0.310  -4.858  0.00  0.00    -0.280 N 
ATOM      4  C   LIG d   1       6.804  -0.569  -5.328  0.00  0.00     0.058 C 
ATOM      5  C   LIG d   1       7.691   0.480  -4.698  0.00  0.00     0.059 A 
ATOM      6  C   LIG d   1       7.303   1.307  -3.704  0.00  0.00     0.066 A 
ATOM      7  N   LIG d   1       8.342   2.087  -3.390  0.00  0.00    -0.240 NA
ATOM      8  C   LIG d   1       9.358   1.777  -4.153  0.00  0.00     0.097 A 
ATOM      9  N   LIG d   1       8.988   0.777  -4.985  0.00  0.00    -0.328 N 
ATOM     10  C   LIG d   1       5.926   1.310  -3.090  0.00  0.00     0.020 C 
ATOM     11  C   LIG d   1       5.227  -0.011  -3.433  0.00  0.00     0.129 C 
ATOM     12  H   LIG d   1       5.649  -0.814  -2.827  0.00  0.00     0.062 H 
ATOM     13  H   LIG d   1       7.122  -1.563  -5.017  0.00  0.00     0.053 H 
ATOM     14  H   LIG d   1       6.845  -0.488  -6.414  0.00  0.00     0.053 H 
ATOM     15  H   LIG d   1      10.332   2.243  -4.123  0.00  0.00     0.103 H 
ATOM     16  H   LIG d   1       5.349   2.143  -3.492  0.00  0.00     0.035 H 
ATOM     17  H   LIG d   1       6.006   1.411  -2.008  0.00  0.00     0.035 H 
ENDROOT
BRANCH   9  18
ATOM     18  C   LIG d   1       9.825   0.134  -6.001  0.00  0.00     0.050 C 
ATOM     19  H   LIG d   1       9.190  -0.336  -6.751  0.00  0.00     0.054 H 
ATOM     20  H   LIG d   1      10.458   0.883  -6.479  0.00  0.00     0.054 H 
BRANCH  18  21
ATOM     21  C   LIG d   1      10.691  -0.913  -5.349  0.00  0.00    -0.028 A 
ATOM     22  C   LIG d   1      10.239  -2.215  -5.242  0.00  0.00    -0.056 A 
ATOM     23  C   LIG d   1      11.033  -3.175  -4.644  0.00  0.00    -0.043 A 
ATOM     24  H   LIG d   1       9.266  -2.482  -5.626  0.00  0.00     0.062 H 
ATOM     25  C   LIG d   1      12.281  -2.833  -4.152  0.00  0.00     0.041 A 
ATOM     26  H   LIG d   1      10.681  -4.192  -4.561  0.00  0.00     0.063 H 
ATOM     27  C   LIG d   1      12.732  -1.529  -4.259  0.00  0.00    -0.043 A 
ATOM     28 CL   LIG d   1      13.278  -4.039  -3.400  0.00  0.00    -0.084 Cl
ATOM     29  C   LIG d   1      11.940  -0.571  -4.862  0.00  0.00    -0.056 A 
ATOM     30  H   LIG d   1      13.705  -1.263  -3.875  0.00  0.00     0.063 H 
ATOM     31  H   LIG d   1      12.294   0.445  -4.950  0.00  0.00     0.062 H 
ENDBRANCH  18  21
ENDBRANCH   9  18
BRANCH   1  32
ATOM     32  C   LIG d   1       4.629  -0.529  -7.187  0.00  0.00     0.123 C 
ATOM     33  H   LIG d   1       5.575  -1.047  -7.342  0.00  0.00     0.066 H 
ATOM     34  H   LIG d   1       3.819  -1.117  -7.621  0.00  0.00     0.066 H 
BRANCH  32  35
ATOM     35  O   LIG d   1       4.678   0.752  -7.818  0.00  0.00    -0.374 OA
BRANCH  35  36
ATOM     36  C   LIG d   1       3.483   1.100  -8.522  0.00  0.00     0.037 C 
ATOM     37  H   LIG d   1       3.673   1.968  -9.153  0.00  0.00     0.052 H 
ATOM     38  H   LIG d   1       3.171   0.261  -9.144  0.00  0.00     0.052 H 
ATOM     39  H   LIG d   1       2.696   1.336  -7.806  0.00  0.00     0.052 H 
ENDBRANCH  35  36
ENDBRANCH  32  35
ENDBRANCH   1  32
BRANCH  11  40
ATOM     40  C   LIG d   1       3.752   0.111  -3.149  0.00  0.00     0.328 C 
ATOM     41  O   LIG d   1       3.209   1.187  -3.226  0.00  0.00    -0.249 OA
BRANCH  40  42
ATOM     42  O   LIG d   1       3.040  -0.977  -2.811  0.00  0.00    -0.467 OA
BRANCH  42  43
ATOM     43  C   LIG d   1       3.787  -2.145  -2.379  0.00  0.00     0.082 C 
ATOM     44  H   LIG d   1       4.310  -1.918  -1.451  0.00  0.00     0.066 H 
ATOM     45  H   LIG d   1       3.100  -2.975  -2.216  0.00  0.00     0.066 H 
ATOM     46  H   LIG d   1       4.510  -2.417  -3.148  0.00  0.00     0.066 H 
ENDBRANCH  42  43
ENDBRANCH  40  42
ENDBRANCH  11  40
TORSDOF 8
ENDMDL
MODEL 7
REMARK VINA RESULT:      -5.1      3.292      5.918
REMARK  8 active torsions:
REMARK  status: ('A' for Active; 'I' for Inactive)
REMARK    1  A    between atoms: C_1  and  O_2 
REMARK    2  A    between atoms: O_2  and  C_3 
REMARK    3  A    between atoms: C_3  and  C_4 
REMARK       I    between atoms: C_4  and  N_6 
REMARK    4  A    between atoms: N_12  and  C_13 
REMARK    5  A    between atoms: C_13  and  C_14 
REMARK    6  A    between atoms: C_22  and  C_24 
REMARK    7  A    between atoms: C_24  and  O_26 
REMARK    8  A    between atoms: O_26  and  C_27 
ROOT
ATOM      1  C   LIG d   1       4.070  -0.900  -6.470  0.00  0.00     0.242 C 
ATOM      2  O   LIG d   1       3.452   0.091  -6.144  0.00  0.00    -0.273 OA
ATOM      3  N   LIG d   1       4.523  -1.751  -5.528  0.00  0.00    -0.280 N 
ATOM      4  C   LIG d   1       5.159  -3.027  -5.904  0.00  0.00     0.058 C 
ATOM      5  C   LIG d   1       6.385  -3.184  -5.034  0.00  0.00     0.059 A 
ATOM      6  C   LIG d   1       6.657  -2.413  -3.960  0.00  0.00     0.066 A 
ATOM      7  N   LIG d   1       7.807  -2.842  -3.429  0.00  0.00    -0.240 NA
ATOM      8  C   LIG d   1       8.258  -3.847  -4.134  0.00  0.00     0.097 A 
ATOM      9  N   LIG d   1       7.395  -4.089  -5.148  0.00  0.00    -0.328 N 
ATOM     10  C   LIG d   1       5.786  -1.278  -3.484  0.00  0.00     0.020 C 
ATOM     11  C   LIG d   1       4.390  -1.434  -4.098  0.00  0.00     0.129 C 
ATOM     12  H   LIG d   1       3.858  -2.242  -3.594  0.00  0.00     0.062 H 
ATOM     13  H   LIG d   1       4.468  -3.852  -5.730  0.00  0.00     0.053 H 
ATOM     14  H   LIG d   1       5.449  -3.001  -6.955  0.00  0.00     0.053 H 
ATOM     15  H   LIG d   1       9.168  -4.393  -3.940  0.00  0.00     0.103 H 
ATOM     16  H   LIG d   1       6.219  -0.328  -3.798  0.00  0.00     0.035 H 
ATOM     17  H   LIG d   1       5.712  -1.303  -2.397  0.00  0.00     0.035 H 
ENDROOT
BRANCH   9  18
ATOM     18  C   LIG d   1       7.523  -5.128  -6.172  0.00  0.00     0.050 C 
ATOM     19  H   LIG d   1       6.997  -4.817  -7.074  0.00  0.00     0.054 H 
ATOM     20  H   LIG d   1       8.578  -5.284  -6.402  0.00  0.00     0.054 H 
BRANCH  18  21
ATOM     21  C   LIG d   1       6.925  -6.414  -5.660  0.00  0.00    -0.028 A 
ATOM     22  C   LIG d   1       5.577  -6.666  -5.835  0.00  0.00    -0.056 A 
ATOM     23  C   LIG d   1       5.029  -7.845  -5.366  0.00  0.00    -0.043 A 
ATOM     24  H   LIG d   1       4.953  -5.943  -6.338  0.00  0.00     0.062 H 
ATOM     25  C   LIG d   1       5.829  -8.772  -4.720  0.00  0.00     0.041 A 
ATOM     26  H   LIG d   1       3.976  -8.043  -5.502  0.00  0.00     0.063 H 
ATOM     27  C   LIG d   1       7.178  -8.517  -4.545  0.00  0.00    -0.043 A 
ATOM     28 CL   LIG d   1       5.140 -10.252  -4.130  0.00  0.00    -0.084 Cl
ATOM     29  C   LIG d   1       7.726  -7.342  -5.020  0.00  0.00    -0.056 A 
ATOM     30  H   LIG d   1       7.802  -9.241  -4.042  0.00  0.00     0.063 H 
ATOM     31  H   LIG d   1       8.780  -7.145  -4.888  0.00  0.00     0.062 H 
ENDBRANCH  18  21
ENDBRANCH   9  18
BRANCH   1  32
ATOM     32  C   LIG d   1       4.334  -1.178  -7.926  0.00  0.00     0.123 C 
ATOM     33  H   LIG d   1       4.560  -0.243  -8.440  0.00  0.00     0.066 H 
ATOM     34  H   LIG d   1       5.182  -1.856  -8.019  0.00  0.00     0.066 H 
BRANCH  32  35
ATOM     35  O   LIG d   1       3.178  -1.778  -8.514  0.00  0.00    -0.374 OA
BRANCH  35  36
ATOM     36  C   LIG d   1       2.422  -0.894  -9.344  0.00  0.00     0.037 C 
ATOM     37  H   LIG d   1       2.870   0.100  -9.319  0.00  0.00     0.052 H 
ATOM     38  H   LIG d   1       2.424  -1.267 -10.368  0.00  0.00     0.052 H 
ATOM     39  H   LIG d   1       1.397  -0.839  -8.978  0.00  0.00     0.052 H 
ENDBRANCH  35  36
ENDBRANCH  32  35
ENDBRANCH   1  32
BRANCH  11  40
ATOM     40  C   LIG d   1       3.622  -0.147  -3.937  0.00  0.00     0.328 C 
ATOM     41  O   LIG d   1       2.415  -0.157  -3.960  0.00  0.00    -0.249 OA
BRANCH  40  42
ATOM     42  O   LIG d   1       4.280   1.011  -3.766  0.00  0.00    -0.467 OA
BRANCH  42  43
ATOM     43  C   LIG d   1       4.021   1.742  -2.540  0.00  0.00     0.082 C 
ATOM     44  H   LIG d   1       2.952   1.931  -2.449  0.00  0.00     0.066 H 
ATOM     45  H   LIG d   1       4.360   1.155  -1.687  0.00  0.00     0.066 H 
ATOM     46  H   LIG d   1       4.558   2.691  -2.563  0.00  0.00     0.066 H 
ENDBRANCH  42  43
ENDBRANCH  40  42
ENDBRANCH  11  40
TORSDOF 8
ENDMDL
MODEL 8
REMARK VINA RESULT:      -5.0      7.720     10.548
REMARK  8 active torsions:
REMARK  status: ('A' for Active; 'I' for Inactive)
REMARK    1  A    between atoms: C_1  and  O_2 
REMARK    2  A    between atoms: O_2  and  C_3 
REMARK    3  A    between atoms: C_3  and  C_4 
REMARK       I    between atoms: C_4  and  N_6 
REMARK    4  A    between atoms: N_12  and  C_13 
REMARK    5  A    between atoms: C_13  and  C_14 
REMARK    6  A    between atoms: C_22  and  C_24 
REMARK    7  A    between atoms: C_24  and  O_26 
REMARK    8  A    between atoms: O_26  and  C_27 
ROOT
ATOM      1  C   LIG d   1       9.910   7.694  -4.849  0.00  0.00     0.242 C 
ATOM      2  O   LIG d   1      10.341   8.751  -4.442  0.00  0.00    -0.273 OA
ATOM      3  N   LIG d   1       9.599   6.713  -3.979  0.00  0.00    -0.280 N 
ATOM      4  C   LIG d   1       8.949   5.472  -4.438  0.00  0.00     0.058 C 
ATOM      5  C   LIG d   1       9.650   4.324  -3.747  0.00  0.00     0.059 A 
ATOM      6  C   LIG d   1      10.518   4.470  -2.724  0.00  0.00     0.066 A 
ATOM      7  N   LIG d   1      10.928   3.251  -2.357  0.00  0.00    -0.240 NA
ATOM      8  C   LIG d   1      10.351   2.357  -3.117  0.00  0.00     0.097 A 
ATOM      9  N   LIG d   1       9.545   2.991  -4.000  0.00  0.00    -0.328 N 
ATOM     10  C   LIG d   1      10.921   5.797  -2.132  0.00  0.00     0.020 C 
ATOM     11  C   LIG d   1       9.892   6.857  -2.545  0.00  0.00     0.129 C 
ATOM     12  H   LIG d   1       8.976   6.718  -1.970  0.00  0.00     0.062 H 
ATOM     13  H   LIG d   1       7.894   5.483  -4.167  0.00  0.00     0.053 H 
ATOM     14  H   LIG d   1       9.055   5.376  -5.519  0.00  0.00     0.053 H 
ATOM     15  H   LIG d   1      10.493   1.289  -3.051  0.00  0.00     0.103 H 
ATOM     16  H   LIG d   1      11.906   6.079  -2.505  0.00  0.00     0.035 H 
ATOM     17  H   LIG d   1      10.952   5.721  -1.046  0.00  0.00     0.035 H 
ENDROOT
BRANCH   9  18
ATOM     18  C   LIG d   1       8.715   2.362  -5.030  0.00  0.00     0.050 C 
ATOM     19  H   LIG d   1       8.117   3.123  -5.530  0.00  0.00     0.054 H 
ATOM     20  H   LIG d   1       9.355   1.864  -5.759  0.00  0.00     0.054 H 
BRANCH  18  21
ATOM     21  C   LIG d   1       7.801   1.348  -4.389  0.00  0.00    -0.028 A 
ATOM     22  C   LIG d   1       6.754   1.769  -3.591  0.00  0.00    -0.056 A 
ATOM     23  C   LIG d   1       5.916   0.840  -3.003  0.00  0.00    -0.043 A 
ATOM     24  H   LIG d   1       6.590   2.824  -3.427  0.00  0.00     0.062 H 
ATOM     25  C   LIG d   1       6.126  -0.512  -3.213  0.00  0.00     0.041 A 
ATOM     26  H   LIG d   1       5.098   1.169  -2.381  0.00  0.00     0.063 H 
ATOM     27  C   LIG d   1       7.176  -0.932  -4.011  0.00  0.00    -0.043 A 
ATOM     28 CL   LIG d   1       5.075  -1.679  -2.474  0.00  0.00    -0.084 Cl
ATOM     29  C   LIG d   1       8.009  -0.002  -4.603  0.00  0.00    -0.056 A 
ATOM     30  H   LIG d   1       7.340  -1.986  -4.175  0.00  0.00     0.063 H 
ATOM     31  H   LIG d   1       8.825  -0.330  -5.230  0.00  0.00     0.062 H 
ENDBRANCH  18  21
ENDBRANCH   9  18
BRANCH   1  32
ATOM     32  C   LIG d   1       9.725   7.475  -6.328  0.00  0.00     0.123 C 
ATOM     33  H   LIG d   1      10.699   7.353  -6.803  0.00  0.00     0.066 H 
ATOM     34  H   LIG d   1       9.127   6.578  -6.491  0.00  0.00     0.066 H 
BRANCH  32  35
ATOM     35  O   LIG d   1       9.055   8.602  -6.897  0.00  0.00    -0.374 OA
BRANCH  35  36
ATOM     36  C   LIG d   1       8.979   8.575  -8.323  0.00  0.00     0.037 C 
ATOM     37  H   LIG d   1       8.050   9.045  -8.647  0.00  0.00     0.052 H 
ATOM     38  H   LIG d   1       9.826   9.118  -8.743  0.00  0.00     0.052 H 
ATOM     39  H   LIG d   1       9.002   7.541  -8.669  0.00  0.00     0.052 H 
ENDBRANCH  35  36
ENDBRANCH  32  35
ENDBRANCH   1  32
BRANCH  11  40
ATOM     40  C   LIG d   1      10.451   8.231  -2.280  0.00  0.00     0.328 C 
ATOM     41  O   LIG d   1      11.642   8.420  -2.334  0.00  0.00    -0.249 OA
BRANCH  40  42
ATOM     42  O   LIG d   1       9.623   9.247  -1.984  0.00  0.00    -0.467 OA
BRANCH  42  43
ATOM     43  C   LIG d   1       8.754   9.076  -0.834  0.00  0.00     0.082 C 
ATOM     44  H   LIG d   1       8.457   8.031  -0.757  0.00  0.00     0.066 H 
ATOM     45  H   LIG d   1       9.286   9.371   0.071  0.00  0.00     0.066 H 
ATOM     46  H   LIG d   1       7.868   9.699  -0.953  0.00  0.00     0.066 H 
ENDBRANCH  42  43
ENDBRANCH  40  42
ENDBRANCH  11  40
TORSDOF 8
ENDMDL
MODEL 9
REMARK VINA RESULT:      -4.9      4.785      7.128
REMARK  8 active torsions:
REMARK  status: ('A' for Active; 'I' for Inactive)
REMARK    1  A    between atoms: C_1  and  O_2 
REMARK    2  A    between atoms: O_2  and  C_3 
REMARK    3  A    between atoms: C_3  and  C_4 
REMARK       I    between atoms: C_4  and  N_6 
REMARK    4  A    between atoms: N_12  and  C_13 
REMARK    5  A    between atoms: C_13  and  C_14 
REMARK    6  A    between atoms: C_22  and  C_24 
REMARK    7  A    between atoms: C_24  and  O_26 
REMARK    8  A    between atoms: O_26  and  C_27 
ROOT
ATOM      1  C   LIG d   1       5.353  -0.345  -6.768  0.00  0.00     0.242 C 
ATOM      2  O   LIG d   1       4.267  -0.783  -6.454  0.00  0.00    -0.273 OA
ATOM      3  N   LIG d   1       6.349  -0.301  -5.861  0.00  0.00    -0.280 N 
ATOM      4  C   LIG d   1       7.713   0.101  -6.254  0.00  0.00     0.058 C 
ATOM      5  C   LIG d   1       8.217   1.050  -5.190  0.00  0.00     0.059 A 
ATOM      6  C   LIG d   1       7.608   1.252  -4.003  0.00  0.00     0.066 A 
ATOM      7  N   LIG d   1       8.335   2.139  -3.315  0.00  0.00    -0.240 NA
ATOM      8  C   LIG d   1       9.369   2.496  -4.032  0.00  0.00     0.097 A 
ATOM      9  N   LIG d   1       9.328   1.835  -5.212  0.00  0.00    -0.328 N 
ATOM     10  C   LIG d   1       6.332   0.573  -3.574  0.00  0.00     0.020 C 
ATOM     11  C   LIG d   1       6.107  -0.661  -4.456  0.00  0.00     0.129 C 
ATOM     12  H   LIG d   1       6.795  -1.453  -4.158  0.00  0.00     0.062 H 
ATOM     13  H   LIG d   1       8.357  -0.776  -6.309  0.00  0.00     0.053 H 
ATOM     14  H   LIG d   1       7.687   0.606  -7.220  0.00  0.00     0.053 H 
ATOM     15  H   LIG d   1      10.129   3.201  -3.732  0.00  0.00     0.103 H 
ATOM     16  H   LIG d   1       5.495   1.261  -3.689  0.00  0.00     0.035 H 
ATOM     17  H   LIG d   1       6.411   0.267  -2.531  0.00  0.00     0.035 H 
ENDROOT
BRANCH   9  18
ATOM     18  C   LIG d   1      10.297   1.944  -6.306  0.00  0.00     0.050 C 
ATOM     19  H   LIG d   1      11.270   2.222  -5.903  0.00  0.00     0.054 H 
ATOM     20  H   LIG d   1      10.376   0.985  -6.818  0.00  0.00     0.054 H 
BRANCH  18  21
ATOM     21  C   LIG d   1       9.838   2.998  -7.280  0.00  0.00    -0.028 A 
ATOM     22  C   LIG d   1      10.154   4.326  -7.062  0.00  0.00    -0.056 A 
ATOM     23  C   LIG d   1       9.733   5.293  -7.956  0.00  0.00    -0.043 A 
ATOM     24  H   LIG d   1      10.730   4.608  -6.193  0.00  0.00     0.062 H 
ATOM     25  C   LIG d   1       8.994   4.931  -9.069  0.00  0.00     0.041 A 
ATOM     26  H   LIG d   1       9.980   6.330  -7.786  0.00  0.00     0.063 H 
ATOM     27  C   LIG d   1       8.677   3.602  -9.286  0.00  0.00    -0.043 A 
ATOM     28 CL   LIG d   1       8.464   6.145 -10.191  0.00  0.00    -0.084 Cl
ATOM     29  C   LIG d   1       9.104   2.635  -8.396  0.00  0.00    -0.056 A 
ATOM     30  H   LIG d   1       8.101   3.320 -10.155  0.00  0.00     0.063 H 
ATOM     31  H   LIG d   1       8.861   1.597  -8.567  0.00  0.00     0.062 H 
ENDBRANCH  18  21
ENDBRANCH   9  18
BRANCH   1  32
ATOM     32  C   LIG d   1       5.588   0.154  -8.170  0.00  0.00     0.123 C 
ATOM     33  H   LIG d   1       6.620  -0.046  -8.458  0.00  0.00     0.066 H 
ATOM     34  H   LIG d   1       4.914  -0.359  -8.856  0.00  0.00     0.066 H 
BRANCH  32  35
ATOM     35  O   LIG d   1       5.342   1.560  -8.223  0.00  0.00    -0.374 OA
BRANCH  35  36
ATOM     36  C   LIG d   1       4.741   1.999  -9.444  0.00  0.00     0.037 C 
ATOM     37  H   LIG d   1       4.758   3.089  -9.485  0.00  0.00     0.052 H 
ATOM     38  H   LIG d   1       5.298   1.596 -10.288  0.00  0.00     0.052 H 
ATOM     39  H   LIG d   1       3.710   1.650  -9.487  0.00  0.00     0.052 H 
ENDBRANCH  35  36
ENDBRANCH  32  35
ENDBRANCH   1  32
BRANCH  11  40
ATOM     40  C   LIG d   1       4.687  -1.142  -4.297  0.00  0.00     0.328 C 
ATOM     41  O   LIG d   1       4.427  -2.313  -4.434  0.00  0.00    -0.249 OA
BRANCH  40  42
ATOM     42  O   LIG d   1       3.711  -0.268  -4.002  0.00  0.00    -0.467 OA
BRANCH  42  43
ATOM     43  C   LIG d   1       2.666  -0.724  -3.104  0.00  0.00     0.082 C 
ATOM     44  H   LIG d   1       2.472  -1.782  -3.282  0.00  0.00     0.066 H 
ATOM     45  H   LIG d   1       2.985  -0.581  -2.072  0.00  0.00     0.066 H 
ATOM     46  H   LIG d   1       1.756  -0.152  -3.286  0.00  0.00     0.066 H 
ENDBRANCH  42  43
ENDBRANCH  40  42
ENDBRANCH  11  40
TORSDOF 8
ENDMDL
MODEL 10
REMARK VINA RESULT:      -4.9      6.390      8.363
REMARK  8 active torsions:
REMARK  status: ('A' for Active; 'I' for Inactive)
REMARK    1  A    between atoms: C_1  and  O_2 
REMARK    2  A    between atoms: O_2  and  C_3 
REMARK    3  A    between atoms: C_3  and  C_4 
REMARK       I    between atoms: C_4  and  N_6 
REMARK    4  A    between atoms: N_12  and  C_13 
REMARK    5  A    between atoms: C_13  and  C_14 
REMARK    6  A    between atoms: C_22  and  C_24 
REMARK    7  A    between atoms: C_24  and  O_26 
REMARK    8  A    between atoms: O_26  and  C_27 
ROOT
ATOM      1  C   LIG d   1       5.342  -8.548  -5.026  0.00  0.00     0.242 C 
ATOM      2  O   LIG d   1       4.156  -8.676  -5.242  0.00  0.00    -0.273 OA
ATOM      3  N   LIG d   1       6.002  -9.483  -4.314  0.00  0.00    -0.280 N 
ATOM      4  C   LIG d   1       7.466  -9.418  -4.153  0.00  0.00     0.058 C 
ATOM      5  C   LIG d   1       7.764  -9.716  -2.701  0.00  0.00     0.059 A 
ATOM      6  C   LIG d   1       6.860 -10.198  -1.823  0.00  0.00     0.066 A 
ATOM      7  N   LIG d   1       7.473 -10.352  -0.645  0.00  0.00    -0.240 NA
ATOM      8  C   LIG d   1       8.722  -9.980  -0.759  0.00  0.00     0.097 A 
ATOM      9  N   LIG d   1       8.941  -9.575  -2.031  0.00  0.00    -0.328 N 
ATOM     10  C   LIG d   1       5.420 -10.495  -2.161  0.00  0.00     0.020 C 
ATOM     11  C   LIG d   1       5.281 -10.600  -3.685  0.00  0.00     0.129 C 
ATOM     12  H   LIG d   1       5.704 -11.546  -4.026  0.00  0.00     0.062 H 
ATOM     13  H   LIG d   1       7.944 -10.160  -4.793  0.00  0.00     0.053 H 
ATOM     14  H   LIG d   1       7.824  -8.421  -4.409  0.00  0.00     0.053 H 
ATOM     15  H   LIG d   1       9.456  -9.995   0.032  0.00  0.00     0.103 H 
ATOM     16  H   LIG d   1       4.785  -9.691  -1.791  0.00  0.00     0.035 H 
ATOM     17  H   LIG d   1       5.122 -11.437  -1.702  0.00  0.00     0.035 H 
ENDROOT
BRANCH   9  18
ATOM     18  C   LIG d   1      10.205  -9.080  -2.583  0.00  0.00     0.050 C 
ATOM     19  H   LIG d   1      11.000  -9.220  -1.852  0.00  0.00     0.054 H 
ATOM     20  H   LIG d   1      10.445  -9.633  -3.492  0.00  0.00     0.054 H 
BRANCH  18  21
ATOM     21  C   LIG d   1      10.071  -7.614  -2.907  0.00  0.00    -0.028 A 
ATOM     22  C   LIG d   1       9.823  -6.704  -1.897  0.00  0.00    -0.056 A 
ATOM     23  C   LIG d   1       9.701  -5.360  -2.193  0.00  0.00    -0.043 A 
ATOM     24  H   LIG d   1       9.724  -7.043  -0.876  0.00  0.00     0.062 H 
ATOM     25  C   LIG d   1       9.827  -4.925  -3.501  0.00  0.00     0.041 A 
ATOM     26  H   LIG d   1       9.507  -4.648  -1.405  0.00  0.00     0.063 H 
ATOM     27  C   LIG d   1      10.075  -5.837  -4.511  0.00  0.00    -0.043 A 
ATOM     28 CL   LIG d   1       9.673  -3.236  -3.874  0.00  0.00    -0.084 Cl
ATOM     29  C   LIG d   1      10.203  -7.180  -4.213  0.00  0.00    -0.056 A 
ATOM     30  H   LIG d   1      10.174  -5.499  -5.532  0.00  0.00     0.063 H 
ATOM     31  H   LIG d   1      10.401  -7.893  -5.001  0.00  0.00     0.062 H 
ENDBRANCH  18  21
ENDBRANCH   9  18
BRANCH   1  32
ATOM     32  C   LIG d   1       6.078  -7.342  -5.550  0.00  0.00     0.123 C 
ATOM     33  H   LIG d   1       6.947  -7.145  -4.921  0.00  0.00     0.066 H 
ATOM     34  H   LIG d   1       6.405  -7.532  -6.572  0.00  0.00     0.066 H 
BRANCH  32  35
ATOM     35  O   LIG d   1       5.209  -6.208  -5.531  0.00  0.00    -0.374 OA
BRANCH  35  36
ATOM     36  C   LIG d   1       5.047  -5.578  -6.803  0.00  0.00     0.037 C 
ATOM     37  H   LIG d   1       5.698  -4.706  -6.862  0.00  0.00     0.052 H 
ATOM     38  H   LIG d   1       5.311  -6.281  -7.593  0.00  0.00     0.052 H 
ATOM     39  H   LIG d   1       4.010  -5.266  -6.925  0.00  0.00     0.052 H 
ENDBRANCH  35  36
ENDBRANCH  32  35
ENDBRANCH   1  32
BRANCH  11  40
ATOM     40  C   LIG d   1       3.823 -10.535  -4.063  0.00  0.00     0.328 C 
ATOM     41  O   LIG d   1       3.044  -9.933  -3.364  0.00  0.00    -0.249 OA
BRANCH  40  42
ATOM     42  O   LIG d   1       3.390 -11.146  -5.178  0.00  0.00    -0.467 OA
BRANCH  42  43
ATOM     43  C   LIG d   1       4.205 -12.232  -5.693  0.00  0.00     0.082 C 
ATOM     44  H   LIG d   1       3.565 -13.073  -5.955  0.00  0.00     0.066 H 
ATOM     45  H   LIG d   1       4.743 -11.894  -6.579  0.00  0.00     0.066 H 
ATOM     46  H   LIG d   1       4.921 -12.542  -4.931  0.00  0.00     0.066 H 
ENDBRANCH  42  43
ENDBRANCH  40  42
ENDBRANCH  11  40
TORSDOF 8
ENDMDL
