MODEL 1
REMARK VINA RESULT:      -6.5      0.000      0.000
REMARK  11 active torsions:
REMARK  status: ('A' for Active; 'I' for Inactive)
REMARK    1  A    between atoms: C_1  and  C_2 
REMARK    2  A    between atoms: C_2  and  O_3 
REMARK    3  A    between atoms: O_3  and  C_4 
REMARK    4  A    between atoms: C_4  and  C_6 
REMARK    5  A    between atoms: C_8  and  C_22 
REMARK    6  A    between atoms: C_25  and  O_32 
REMARK    7  A    between atoms: C_26  and  O_28 
REMARK    8  A    between atoms: O_28  and  C_29 
REMARK    9  A    between atoms: C_29  and  C_30 
REMARK   10  A    between atoms: C_29  and  C_31 
REMARK   11  A    between atoms: O_32  and  C_33 
ROOT
ATOM      1  C   LIG d   1       4.913  -4.294  -6.158  0.00  0.00     0.207 C 
ATOM      2  H   LIG d   1       4.200  -4.974  -6.624  0.00  0.00     0.086 H 
ATOM      3  C   LIG d   1       5.283  -3.139  -7.120  0.00  0.00     0.067 C 
ATOM      4  H   LIG d   1       6.231  -3.337  -7.620  0.00  0.00     0.044 H 
ATOM      5  C   LIG d   1       5.406  -1.968  -6.165  0.00  0.00     0.091 A 
ATOM      6  C   LIG d   1       4.821  -2.343  -4.988  0.00  0.00     0.143 A 
ATOM      7  C   LIG d   1       4.827  -1.363  -3.886  0.00  0.00     0.059 A 
ATOM      8  C   LIG d   1       4.255  -1.672  -2.651  0.00  0.00    -0.048 A 
ATOM      9  C   LIG d   1       4.275  -0.737  -1.639  0.00  0.00    -0.061 A 
ATOM     10  C   LIG d   1       4.862   0.503  -1.844  0.00  0.00    -0.058 A 
ATOM     11  C   LIG d   1       5.429   0.820  -3.060  0.00  0.00    -0.018 A 
ATOM     12  C   LIG d   1       5.419  -0.109  -4.094  0.00  0.00     0.143 A 
ATOM     13  O   LIG d   1       5.971   0.189  -5.290  0.00  0.00    -0.422 OA
ATOM     14  C   LIG d   1       5.973  -0.696  -6.301  0.00  0.00     0.345 A 
ATOM     15  O   LIG d   1       6.481  -0.382  -7.363  0.00  0.00    -0.245 OA
ATOM     16  O   LIG d   1       4.308  -3.598  -5.053  0.00  0.00    -0.475 OA
ATOM     17  H   LIG d   1       3.798  -2.637  -2.489  0.00  0.00     0.063 H 
ATOM     18  H   LIG d   1       3.834  -0.971  -0.681  0.00  0.00     0.062 H 
ATOM     19  H   LIG d   1       4.873   1.228  -1.044  0.00  0.00     0.062 H 
ATOM     20  H   LIG d   1       5.883   1.788  -3.209  0.00  0.00     0.065 H 
ENDROOT
BRANCH   3  21
ATOM     21  C   LIG d   1       4.186  -2.903  -8.126  0.00  0.00    -0.032 A 
ATOM     22  C   LIG d   1       3.773  -1.614  -8.405  0.00  0.00    -0.012 A 
ATOM     23  C   LIG d   1       2.767  -1.393  -9.333  0.00  0.00     0.163 A 
ATOM     24  H   LIG d   1       4.236  -0.778  -7.903  0.00  0.00     0.066 H 
ATOM     25  C   LIG d   1       2.168  -2.474  -9.974  0.00  0.00     0.162 A 
ATOM     26  C   LIG d   1       2.583  -3.764  -9.686  0.00  0.00    -0.016 A 
ATOM     27  C   LIG d   1       3.591  -3.976  -8.763  0.00  0.00    -0.054 A 
ATOM     28  H   LIG d   1       2.121  -4.604 -10.183  0.00  0.00     0.066 H 
ATOM     29  H   LIG d   1       3.913  -4.982  -8.539  0.00  0.00     0.062 H 
BRANCH  23  30
ATOM     30  O   LIG d   1       2.363  -0.126  -9.612  0.00  0.00    -0.486 OA
BRANCH  30  31
ATOM     31  C   LIG d   1       3.330   0.914  -9.451  0.00  0.00     0.095 C 
ATOM     32  H   LIG d   1       4.168   0.542  -8.862  0.00  0.00     0.073 H 
BRANCH  31  33
ATOM     33  C   LIG d   1       3.833   1.361 -10.826  0.00  0.00    -0.028 C 
ATOM     34  H   LIG d   1       4.756   1.928 -10.708  0.00  0.00     0.026 H 
ATOM     35  H   LIG d   1       4.020   0.485 -11.446  0.00  0.00     0.026 H 
ATOM     36  H   LIG d   1       3.079   1.988 -11.302  0.00  0.00     0.026 H 
ENDBRANCH  31  33
BRANCH  31  37
ATOM     37  C   LIG d   1       2.687   2.102  -8.732  0.00  0.00    -0.028 C 
ATOM     38  H   LIG d   1       2.931   3.022  -9.262  0.00  0.00     0.026 H 
ATOM     39  H   LIG d   1       1.605   1.971  -8.710  0.00  0.00     0.026 H 
ATOM     40  H   LIG d   1       3.067   2.158  -7.712  0.00  0.00     0.026 H 
ENDBRANCH  31  37
ENDBRANCH  30  31
ENDBRANCH  23  30
BRANCH  25  41
ATOM     41  O   LIG d   1       1.178  -2.263 -10.882  0.00  0.00    -0.491 OA
BRANCH  41  42
ATOM     42  C   LIG d   1       0.567  -3.421 -11.456  0.00  0.00     0.079 C 
ATOM     43  H   LIG d   1       1.177  -3.782 -12.283  0.00  0.00     0.066 H 
ATOM     44  H   LIG d   1       0.483  -4.200 -10.698  0.00  0.00     0.066 H 
ATOM     45  H   LIG d   1      -0.427  -3.164 -11.822  0.00  0.00     0.066 H 
ENDBRANCH  41  42
ENDBRANCH  25  41
ENDBRANCH   3  21
BRANCH   1  46
ATOM     46  C   LIG d   1       6.147  -5.036  -5.713  0.00  0.00     0.349 C 
ATOM     47  O   LIG d   1       6.055  -6.169  -5.304  0.00  0.00    -0.247 OA
BRANCH  46  48
ATOM     48  O   LIG d   1       7.347  -4.439  -5.774  0.00  0.00    -0.462 OA
BRANCH  48  49
ATOM     49  C   LIG d   1       8.161  -4.500  -4.601  0.00  0.00     0.090 C 
ATOM     50  H   LIG d   1       9.180  -4.770  -4.880  0.00  0.00     0.069 H 
ATOM     51  H   LIG d   1       7.761  -5.250  -3.919  0.00  0.00     0.069 H 
BRANCH  49  52
ATOM     52  C   LIG d   1       8.165  -3.134  -3.912  0.00  0.00    -0.031 C 
ATOM     53  H   LIG d   1       8.568  -3.237  -2.905  0.00  0.00     0.026 H 
ATOM     54  H   LIG d   1       8.784  -2.440  -4.481  0.00  0.00     0.026 H 
ATOM     55  H   LIG d   1       7.146  -2.752  -3.859  0.00  0.00     0.026 H 
ENDBRANCH  49  52
ENDBRANCH  48  49
ENDBRANCH  46  48
ENDBRANCH   1  46
TORSDOF 11
ENDMDL
MODEL 2
REMARK VINA RESULT:      -6.5      3.030      5.162
REMARK  11 active torsions:
REMARK  status: ('A' for Active; 'I' for Inactive)
REMARK    1  A    between atoms: C_1  and  C_2 
REMARK    2  A    between atoms: C_2  and  O_3 
REMARK    3  A    between atoms: O_3  and  C_4 
REMARK    4  A    between atoms: C_4  and  C_6 
REMARK    5  A    between atoms: C_8  and  C_22 
REMARK    6  A    between atoms: C_25  and  O_32 
REMARK    7  A    between atoms: C_26  and  O_28 
REMARK    8  A    between atoms: O_28  and  C_29 
REMARK    9  A    between atoms: C_29  and  C_30 
REMARK   10  A    between atoms: C_29  and  C_31 
REMARK   11  A    between atoms: O_32  and  C_33 
ROOT
ATOM      1  C   LIG d   1       8.039  -1.109  -6.384  0.00  0.00     0.207 C 
ATOM      2  H   LIG d   1       8.217  -1.166  -7.458  0.00  0.00     0.086 H 
ATOM      3  C   LIG d   1       8.495   0.259  -5.822  0.00  0.00     0.067 C 
ATOM      4  H   LIG d   1       9.482   0.185  -5.367  0.00  0.00     0.044 H 
ATOM      5  C   LIG d   1       7.433   0.533  -4.775  0.00  0.00     0.091 A 
ATOM      6  C   LIG d   1       6.397  -0.326  -5.016  0.00  0.00     0.143 A 
ATOM      7  C   LIG d   1       5.236  -0.258  -4.109  0.00  0.00     0.059 A 
ATOM      8  C   LIG d   1       4.141  -1.105  -4.284  0.00  0.00    -0.048 A 
ATOM      9  C   LIG d   1       3.070  -1.020  -3.422  0.00  0.00    -0.061 A 
ATOM     10  C   LIG d   1       3.079  -0.101  -2.383  0.00  0.00    -0.058 A 
ATOM     11  C   LIG d   1       4.155   0.742  -2.200  0.00  0.00    -0.018 A 
ATOM     12  C   LIG d   1       5.245   0.672  -3.060  0.00  0.00     0.143 A 
ATOM     13  O   LIG d   1       6.305   1.493  -2.892  0.00  0.00    -0.422 OA
ATOM     14  C   LIG d   1       7.369   1.439  -3.710  0.00  0.00     0.345 A 
ATOM     15  O   LIG d   1       8.302   2.200  -3.522  0.00  0.00    -0.245 OA
ATOM     16  O   LIG d   1       6.629  -1.111  -6.099  0.00  0.00    -0.475 OA
ATOM     17  H   LIG d   1       4.131  -1.822  -5.092  0.00  0.00     0.063 H 
ATOM     18  H   LIG d   1       2.220  -1.674  -3.553  0.00  0.00     0.062 H 
ATOM     19  H   LIG d   1       2.236  -0.043  -1.712  0.00  0.00     0.062 H 
ATOM     20  H   LIG d   1       4.152   1.454  -1.389  0.00  0.00     0.065 H 
ENDROOT
BRANCH   3  21
ATOM     21  C   LIG d   1       8.478   1.315  -6.896  0.00  0.00    -0.032 A 
ATOM     22  C   LIG d   1       7.361   1.467  -7.697  0.00  0.00    -0.012 A 
ATOM     23  C   LIG d   1       7.340   2.441  -8.683  0.00  0.00     0.163 A 
ATOM     24  H   LIG d   1       6.502   0.827  -7.552  0.00  0.00     0.066 H 
ATOM     25  C   LIG d   1       8.451   3.258  -8.870  0.00  0.00     0.162 A 
ATOM     26  C   LIG d   1       9.569   3.099  -8.069  0.00  0.00    -0.016 A 
ATOM     27  C   LIG d   1       9.580   2.128  -7.083  0.00  0.00    -0.054 A 
ATOM     28  H   LIG d   1      10.432   3.732  -8.212  0.00  0.00     0.066 H 
ATOM     29  H   LIG d   1      10.453   2.005  -6.459  0.00  0.00     0.062 H 
BRANCH  23  30
ATOM     30  O   LIG d   1       6.241   2.594  -9.468  0.00  0.00    -0.486 OA
BRANCH  30  31
ATOM     31  C   LIG d   1       5.140   1.715  -9.221  0.00  0.00     0.095 C 
ATOM     32  H   LIG d   1       5.316   1.165  -8.297  0.00  0.00     0.073 H 
BRANCH  31  33
ATOM     33  C   LIG d   1       3.854   2.534  -9.091  0.00  0.00    -0.028 C 
ATOM     34  H   LIG d   1       3.145   2.222  -9.858  0.00  0.00     0.026 H 
ATOM     35  H   LIG d   1       3.418   2.371  -8.105  0.00  0.00     0.026 H 
ATOM     36  H   LIG d   1       4.083   3.592  -9.215  0.00  0.00     0.026 H 
ENDBRANCH  31  33
BRANCH  31  37
ATOM     37  C   LIG d   1       5.003   0.731 -10.384  0.00  0.00    -0.028 C 
ATOM     38  H   LIG d   1       5.784  -0.026 -10.314  0.00  0.00     0.026 H 
ATOM     39  H   LIG d   1       4.025   0.250 -10.340  0.00  0.00     0.026 H 
ATOM     40  H   LIG d   1       5.100   1.267 -11.328  0.00  0.00     0.026 H 
ENDBRANCH  31  37
ENDBRANCH  30  31
ENDBRANCH  23  30
BRANCH  25  41
ATOM     41  O   LIG d   1       8.437   4.213  -9.839  0.00  0.00    -0.491 OA
BRANCH  41  42
ATOM     42  C   LIG d   1       8.850   5.527  -9.460  0.00  0.00     0.079 C 
ATOM     43  H   LIG d   1       9.938   5.577  -9.447  0.00  0.00     0.066 H 
ATOM     44  H   LIG d   1       8.461   6.251 -10.177  0.00  0.00     0.066 H 
ATOM     45  H   LIG d   1       8.465   5.758  -8.467  0.00  0.00     0.066 H 
ENDBRANCH  41  42
ENDBRANCH  25  41
ENDBRANCH   3  21
BRANCH   1  46
ATOM     46  C   LIG d   1       8.732  -2.239  -5.667  0.00  0.00     0.349 C 
ATOM     47  O   LIG d   1       9.666  -2.008  -4.937  0.00  0.00    -0.247 OA
BRANCH  46  48
ATOM     48  O   LIG d   1       8.310  -3.502  -5.838  0.00  0.00    -0.462 OA
BRANCH  48  49
ATOM     49  C   LIG d   1       7.590  -4.098  -4.757  0.00  0.00     0.090 C 
ATOM     50  H   LIG d   1       7.623  -3.436  -3.891  0.00  0.00     0.069 H 
ATOM     51  H   LIG d   1       8.045  -5.054  -4.500  0.00  0.00     0.069 H 
BRANCH  49  52
ATOM     52  C   LIG d   1       6.135  -4.321  -5.174  0.00  0.00    -0.031 C 
ATOM     53  H   LIG d   1       6.024  -4.105  -6.236  0.00  0.00     0.026 H 
ATOM     54  H   LIG d   1       5.857  -5.358  -4.983  0.00  0.00     0.026 H 
ATOM     55  H   LIG d   1       5.487  -3.660  -4.598  0.00  0.00     0.026 H 
ENDBRANCH  49  52
ENDBRANCH  48  49
ENDBRANCH  46  48
ENDBRANCH   1  46
TORSDOF 11
ENDMDL
MODEL 3
REMARK VINA RESULT:      -6.2      2.059      5.372
REMARK  11 active torsions:
REMARK  status: ('A' for Active; 'I' for Inactive)
REMARK    1  A    between atoms: C_1  and  C_2 
REMARK    2  A    between atoms: C_2  and  O_3 
REMARK    3  A    between atoms: O_3  and  C_4 
REMARK    4  A    between atoms: C_4  and  C_6 
REMARK    5  A    between atoms: C_8  and  C_22 
REMARK    6  A    between atoms: C_25  and  O_32 
REMARK    7  A    between atoms: C_26  and  O_28 
REMARK    8  A    between atoms: O_28  and  C_29 
REMARK    9  A    between atoms: C_29  and  C_30 
REMARK   10  A    between atoms: C_29  and  C_31 
REMARK   11  A    between atoms: O_32  and  C_33 
ROOT
ATOM      1  C   LIG d   1       4.889  -1.542  -4.838  0.00  0.00     0.207 C 
ATOM      2  H   LIG d   1       4.376  -2.258  -4.195  0.00  0.00     0.086 H 
ATOM      3  C   LIG d   1       5.801  -2.270  -5.854  0.00  0.00     0.067 C 
ATOM      4  H   LIG d   1       6.836  -2.276  -5.515  0.00  0.00     0.044 H 
ATOM      5  C   LIG d   1       5.639  -1.406  -7.090  0.00  0.00     0.091 A 
ATOM      6  C   LIG d   1       4.545  -0.612  -6.887  0.00  0.00     0.143 A 
ATOM      7  C   LIG d   1       4.189   0.336  -7.959  0.00  0.00     0.059 A 
ATOM      8  C   LIG d   1       3.089   1.186  -7.826  0.00  0.00    -0.048 A 
ATOM      9  C   LIG d   1       2.780   2.062  -8.843  0.00  0.00    -0.061 A 
ATOM     10  C   LIG d   1       3.556   2.103  -9.991  0.00  0.00    -0.058 A 
ATOM     11  C   LIG d   1       4.645   1.268 -10.135  0.00  0.00    -0.018 A 
ATOM     12  C   LIG d   1       4.973   0.377  -9.121  0.00  0.00     0.143 A 
ATOM     13  O   LIG d   1       6.036  -0.447  -9.249  0.00  0.00    -0.422 OA
ATOM     14  C   LIG d   1       6.372  -1.314  -8.279  0.00  0.00     0.345 A 
ATOM     15  O   LIG d   1       7.338  -2.039  -8.439  0.00  0.00    -0.245 OA
ATOM     16  O   LIG d   1       3.953  -0.859  -5.691  0.00  0.00    -0.475 OA
ATOM     17  H   LIG d   1       2.483   1.156  -6.932  0.00  0.00     0.063 H 
ATOM     18  H   LIG d   1       1.930   2.722  -8.745  0.00  0.00     0.062 H 
ATOM     19  H   LIG d   1       3.306   2.794 -10.782  0.00  0.00     0.062 H 
ATOM     20  H   LIG d   1       5.242   1.308 -11.033  0.00  0.00     0.065 H 
ENDROOT
BRANCH   3  21
ATOM     21  C   LIG d   1       5.312  -3.673  -6.109  0.00  0.00    -0.032 A 
ATOM     22  C   LIG d   1       4.346  -3.902  -7.071  0.00  0.00    -0.012 A 
ATOM     23  C   LIG d   1       3.898  -5.192  -7.311  0.00  0.00     0.163 A 
ATOM     24  H   LIG d   1       3.943  -3.076  -7.639  0.00  0.00     0.066 H 
ATOM     25  C   LIG d   1       4.416  -6.252  -6.573  0.00  0.00     0.162 A 
ATOM     26  C   LIG d   1       5.380  -6.016  -5.607  0.00  0.00    -0.016 A 
ATOM     27  C   LIG d   1       5.826  -4.727  -5.377  0.00  0.00    -0.054 A 
ATOM     28  H   LIG d   1       5.784  -6.837  -5.034  0.00  0.00     0.066 H 
ATOM     29  H   LIG d   1       6.577  -4.544  -4.623  0.00  0.00     0.062 H 
BRANCH  23  30
ATOM     30  O   LIG d   1       2.952  -5.419  -8.260  0.00  0.00    -0.486 OA
BRANCH  30  31
ATOM     31  C   LIG d   1       3.196  -4.883  -9.562  0.00  0.00     0.095 C 
ATOM     32  H   LIG d   1       3.670  -3.906  -9.469  0.00  0.00     0.073 H 
BRANCH  31  33
ATOM     33  C   LIG d   1       4.119  -5.826 -10.338  0.00  0.00    -0.028 C 
ATOM     34  H   LIG d   1       4.623  -6.495  -9.640  0.00  0.00     0.026 H 
ATOM     35  H   LIG d   1       3.530  -6.411 -11.044  0.00  0.00     0.026 H 
ATOM     36  H   LIG d   1       4.861  -5.241 -10.881  0.00  0.00     0.026 H 
ENDBRANCH  31  33
BRANCH  31  37
ATOM     37  C   LIG d   1       1.870  -4.737 -10.311  0.00  0.00    -0.028 C 
ATOM     38  H   LIG d   1       2.055  -4.758 -11.385  0.00  0.00     0.026 H 
ATOM     39  H   LIG d   1       1.207  -5.559 -10.040  0.00  0.00     0.026 H 
ATOM     40  H   LIG d   1       1.402  -3.790 -10.041  0.00  0.00     0.026 H 
ENDBRANCH  31  37
ENDBRANCH  30  31
ENDBRANCH  23  30
BRANCH  25  41
ATOM     41  O   LIG d   1       3.977  -7.519  -6.802  0.00  0.00    -0.491 OA
BRANCH  41  42
ATOM     42  C   LIG d   1       4.742  -8.583  -6.232  0.00  0.00     0.079 C 
ATOM     43  H   LIG d   1       5.611  -8.173  -5.720  0.00  0.00     0.066 H 
ATOM     44  H   LIG d   1       4.126  -9.133  -5.520  0.00  0.00     0.066 H 
ATOM     45  H   LIG d   1       5.071  -9.258  -7.023  0.00  0.00     0.066 H 
ENDBRANCH  41  42
ENDBRANCH  25  41
ENDBRANCH   3  21
BRANCH   1  46
ATOM     46  C   LIG d   1       5.682  -0.559  -4.016  0.00  0.00     0.349 C 
ATOM     47  O   LIG d   1       6.644  -0.934  -3.390  0.00  0.00    -0.247 OA
BRANCH  46  48
ATOM     48  O   LIG d   1       5.319   0.733  -3.982  0.00  0.00    -0.462 OA
BRANCH  48  49
ATOM     49  C   LIG d   1       5.057   1.299  -2.696  0.00  0.00     0.090 C 
ATOM     50  H   LIG d   1       5.254   2.371  -2.724  0.00  0.00     0.069 H 
ATOM     51  H   LIG d   1       5.703   0.831  -1.954  0.00  0.00     0.069 H 
BRANCH  49  52
ATOM     52  C   LIG d   1       3.594   1.058  -2.322  0.00  0.00    -0.031 C 
ATOM     53  H   LIG d   1       3.191   1.947  -1.837  0.00  0.00     0.026 H 
ATOM     54  H   LIG d   1       3.018   0.844  -3.223  0.00  0.00     0.026 H 
ATOM     55  H   LIG d   1       3.528   0.210  -1.640  0.00  0.00     0.026 H 
ENDBRANCH  49  52
ENDBRANCH  48  49
ENDBRANCH  46  48
ENDBRANCH   1  46
TORSDOF 11
ENDMDL
MODEL 4
REMARK VINA RESULT:      -6.2      3.356      7.551
REMARK  11 active torsions:
REMARK  status: ('A' for Active; 'I' for Inactive)
REMARK    1  A    between atoms: C_1  and  C_2 
REMARK    2  A    between atoms: C_2  and  O_3 
REMARK    3  A    between atoms: O_3  and  C_4 
REMARK    4  A    between atoms: C_4  and  C_6 
REMARK    5  A    between atoms: C_8  and  C_22 
REMARK    6  A    between atoms: C_25  and  O_32 
REMARK    7  A    between atoms: C_26  and  O_28 
REMARK    8  A    between atoms: O_28  and  C_29 
REMARK    9  A    between atoms: C_29  and  C_30 
REMARK   10  A    between atoms: C_29  and  C_31 
REMARK   11  A    between atoms: O_32  and  C_33 
ROOT
ATOM      1  C   LIG d   1       8.557  -2.032  -5.338  0.00  0.00     0.207 C 
ATOM      2  H   LIG d   1       9.607  -2.224  -5.118  0.00  0.00     0.086 H 
ATOM      3  C   LIG d   1       7.730  -3.338  -5.259  0.00  0.00     0.067 C 
ATOM      4  H   LIG d   1       7.568  -3.758  -6.252  0.00  0.00     0.044 H 
ATOM      5  C   LIG d   1       6.428  -2.844  -4.659  0.00  0.00     0.091 A 
ATOM      6  C   LIG d   1       6.666  -1.599  -4.147  0.00  0.00     0.143 A 
ATOM      7  C   LIG d   1       5.533  -0.899  -3.514  0.00  0.00     0.059 A 
ATOM      8  C   LIG d   1       5.693   0.378  -2.973  0.00  0.00    -0.048 A 
ATOM      9  C   LIG d   1       4.616   1.008  -2.388  0.00  0.00    -0.061 A 
ATOM     10  C   LIG d   1       3.380   0.380  -2.338  0.00  0.00    -0.058 A 
ATOM     11  C   LIG d   1       3.211  -0.881  -2.867  0.00  0.00    -0.018 A 
ATOM     12  C   LIG d   1       4.284  -1.535  -3.461  0.00  0.00     0.143 A 
ATOM     13  O   LIG d   1       4.131  -2.771  -3.984  0.00  0.00    -0.422 OA
ATOM     14  C   LIG d   1       5.155  -3.418  -4.564  0.00  0.00     0.345 A 
ATOM     15  O   LIG d   1       4.971  -4.533  -5.021  0.00  0.00    -0.245 OA
ATOM     16  O   LIG d   1       7.959  -1.221  -4.311  0.00  0.00    -0.475 OA
ATOM     17  H   LIG d   1       6.653   0.869  -3.012  0.00  0.00     0.063 H 
ATOM     18  H   LIG d   1       4.735   1.997  -1.968  0.00  0.00     0.062 H 
ATOM     19  H   LIG d   1       2.544   0.883  -1.877  0.00  0.00     0.062 H 
ATOM     20  H   LIG d   1       2.244  -1.361  -2.822  0.00  0.00     0.065 H 
ENDROOT
BRANCH   3  21
ATOM     21  C   LIG d   1       8.395  -4.343  -4.354  0.00  0.00    -0.032 A 
ATOM     22  C   LIG d   1       8.331  -5.691  -4.655  0.00  0.00    -0.012 A 
ATOM     23  C   LIG d   1       8.946  -6.617  -3.826  0.00  0.00     0.163 A 
ATOM     24  H   LIG d   1       7.804  -6.022  -5.538  0.00  0.00     0.066 H 
ATOM     25  C   LIG d   1       9.617  -6.186  -2.686  0.00  0.00     0.162 A 
ATOM     26  C   LIG d   1       9.674  -4.834  -2.387  0.00  0.00    -0.016 A 
ATOM     27  C   LIG d   1       9.062  -3.916  -3.221  0.00  0.00    -0.054 A 
ATOM     28  H   LIG d   1      10.195  -4.497  -1.504  0.00  0.00     0.066 H 
ATOM     29  H   LIG d   1       9.107  -2.863  -2.987  0.00  0.00     0.062 H 
BRANCH  23  30
ATOM     30  O   LIG d   1       8.888  -7.942  -4.123  0.00  0.00    -0.486 OA
BRANCH  30  31
ATOM     31  C   LIG d   1       7.613  -8.578  -4.005  0.00  0.00     0.095 C 
ATOM     32  H   LIG d   1       6.827  -7.824  -4.031  0.00  0.00     0.073 H 
BRANCH  31  33
ATOM     33  C   LIG d   1       7.421  -9.556  -5.167  0.00  0.00    -0.028 C 
ATOM     34  H   LIG d   1       6.429 -10.004  -5.104  0.00  0.00     0.026 H 
ATOM     35  H   LIG d   1       7.520  -9.021  -6.111  0.00  0.00     0.026 H 
ATOM     36  H   LIG d   1       8.178 -10.338  -5.112  0.00  0.00     0.026 H 
ENDBRANCH  31  33
BRANCH  31  37
ATOM     37  C   LIG d   1       7.545  -9.341  -2.680  0.00  0.00    -0.028 C 
ATOM     38  H   LIG d   1       7.256  -8.657  -1.882  0.00  0.00     0.026 H 
ATOM     39  H   LIG d   1       6.809 -10.140  -2.759  0.00  0.00     0.026 H 
ATOM     40  H   LIG d   1       8.522  -9.768  -2.456  0.00  0.00     0.026 H 
ENDBRANCH  31  37
ENDBRANCH  30  31
ENDBRANCH  23  30
BRANCH  25  41
ATOM     41  O   LIG d   1      10.219  -7.090  -1.868  0.00  0.00    -0.491 OA
BRANCH  41  42
ATOM     42  C   LIG d   1      11.603  -7.358  -2.103  0.00  0.00     0.079 C 
ATOM     43  H   LIG d   1      12.194  -6.981  -1.270  0.00  0.00     0.066 H 
ATOM     44  H   LIG d   1      11.753  -8.434  -2.198  0.00  0.00     0.066 H 
ATOM     45  H   LIG d   1      11.918  -6.866  -3.024  0.00  0.00     0.066 H 
ENDBRANCH  41  42
ENDBRANCH  25  41
ENDBRANCH   3  21
BRANCH   1  46
ATOM     46  C   LIG d   1       8.405  -1.384  -6.690  0.00  0.00     0.349 C 
ATOM     47  O   LIG d   1       8.647  -2.014  -7.692  0.00  0.00    -0.247 OA
BRANCH  46  48
ATOM     48  O   LIG d   1       8.000  -0.108  -6.781  0.00  0.00    -0.462 OA
BRANCH  48  49
ATOM     49  C   LIG d   1       6.991   0.185  -7.749  0.00  0.00     0.090 C 
ATOM     50  H   LIG d   1       7.182  -0.388  -8.657  0.00  0.00     0.069 H 
ATOM     51  H   LIG d   1       7.009   1.250  -7.983  0.00  0.00     0.069 H 
BRANCH  49  52
ATOM     52  C   LIG d   1       5.619  -0.190  -7.187  0.00  0.00    -0.031 C 
ATOM     53  H   LIG d   1       5.150   0.692  -6.753  0.00  0.00     0.026 H 
ATOM     54  H   LIG d   1       4.991  -0.579  -7.989  0.00  0.00     0.026 H 
ATOM     55  H   LIG d   1       5.739  -0.954  -6.418  0.00  0.00     0.026 H 
ENDBRANCH  49  52
ENDBRANCH  48  49
ENDBRANCH  46  48
ENDBRANCH   1  46
TORSDOF 11
ENDMDL
MODEL 5
REMARK VINA RESULT:      -6.1      2.461      6.626
REMARK  11 active torsions:
REMARK  status: ('A' for Active; 'I' for Inactive)
REMARK    1  A    between atoms: C_1  and  C_2 
REMARK    2  A    between atoms: C_2  and  O_3 
REMARK    3  A    between atoms: O_3  and  C_4 
REMARK    4  A    between atoms: C_4  and  C_6 
REMARK    5  A    between atoms: C_8  and  C_22 
REMARK    6  A    between atoms: C_25  and  O_32 
REMARK    7  A    between atoms: C_26  and  O_28 
REMARK    8  A    between atoms: O_28  and  C_29 
REMARK    9  A    between atoms: C_29  and  C_30 
REMARK   10  A    between atoms: C_29  and  C_31 
REMARK   11  A    between atoms: O_32  and  C_33 
ROOT
ATOM      1  C   LIG d   1       4.175  -2.141  -4.012  0.00  0.00     0.207 C 
ATOM      2  H   LIG d   1       3.976  -3.166  -3.696  0.00  0.00     0.086 H 
ATOM      3  C   LIG d   1       5.681  -1.937  -4.302  0.00  0.00     0.067 C 
ATOM      4  H   LIG d   1       6.182  -1.472  -3.454  0.00  0.00     0.044 H 
ATOM      5  C   LIG d   1       5.643  -1.000  -5.493  0.00  0.00     0.091 A 
ATOM      6  C   LIG d   1       4.368  -1.025  -5.986  0.00  0.00     0.143 A 
ATOM      7  C   LIG d   1       4.077  -0.172  -7.153  0.00  0.00     0.059 A 
ATOM      8  C   LIG d   1       2.798  -0.137  -7.712  0.00  0.00    -0.048 A 
ATOM      9  C   LIG d   1       2.554   0.669  -8.802  0.00  0.00    -0.061 A 
ATOM     10  C   LIG d   1       3.570   1.444  -9.341  0.00  0.00    -0.058 A 
ATOM     11  C   LIG d   1       4.838   1.418  -8.798  0.00  0.00    -0.018 A 
ATOM     12  C   LIG d   1       5.105   0.610  -7.699  0.00  0.00     0.143 A 
ATOM     13  O   LIG d   1       6.342   0.575  -7.158  0.00  0.00    -0.422 OA
ATOM     14  C   LIG d   1       6.620  -0.197  -6.094  0.00  0.00     0.345 A 
ATOM     15  O   LIG d   1       7.751  -0.199  -5.640  0.00  0.00    -0.245 OA
ATOM     16  O   LIG d   1       3.571  -1.876  -5.291  0.00  0.00    -0.475 OA
ATOM     17  H   LIG d   1       2.005  -0.739  -7.295  0.00  0.00     0.063 H 
ATOM     18  H   LIG d   1       1.566   0.700  -9.239  0.00  0.00     0.062 H 
ATOM     19  H   LIG d   1       3.368   2.073 -10.195  0.00  0.00     0.062 H 
ATOM     20  H   LIG d   1       5.622   2.025  -9.226  0.00  0.00     0.065 H 
ENDROOT
BRANCH   3  21
ATOM     21  C   LIG d   1       6.342  -3.243  -4.665  0.00  0.00    -0.032 A 
ATOM     22  C   LIG d   1       7.667  -3.459  -4.337  0.00  0.00    -0.012 A 
ATOM     23  C   LIG d   1       8.276  -4.661  -4.665  0.00  0.00     0.163 A 
ATOM     24  H   LIG d   1       8.228  -2.693  -3.822  0.00  0.00     0.066 H 
ATOM     25  C   LIG d   1       7.551  -5.643  -5.334  0.00  0.00     0.162 A 
ATOM     26  C   LIG d   1       6.225  -5.418  -5.664  0.00  0.00    -0.016 A 
ATOM     27  C   LIG d   1       5.623  -4.219  -5.329  0.00  0.00    -0.054 A 
ATOM     28  H   LIG d   1       5.660  -6.179  -6.182  0.00  0.00     0.066 H 
ATOM     29  H   LIG d   1       4.589  -4.045  -5.587  0.00  0.00     0.062 H 
BRANCH  23  30
ATOM     30  O   LIG d   1       9.578  -4.877  -4.339  0.00  0.00    -0.486 OA
BRANCH  30  31
ATOM     31  C   LIG d   1      10.048  -4.292  -3.123  0.00  0.00     0.095 C 
ATOM     32  H   LIG d   1       9.478  -3.388  -2.910  0.00  0.00     0.073 H 
BRANCH  31  33
ATOM     33  C   LIG d   1       9.870  -5.289  -1.975  0.00  0.00    -0.028 C 
ATOM     34  H   LIG d   1      10.751  -5.927  -1.908  0.00  0.00     0.026 H 
ATOM     35  H   LIG d   1       9.740  -4.746  -1.039  0.00  0.00     0.026 H 
ATOM     36  H   LIG d   1       8.989  -5.904  -2.162  0.00  0.00     0.026 H 
ENDBRANCH  31  33
BRANCH  31  37
ATOM     37  C   LIG d   1      11.530  -3.939  -3.266  0.00  0.00    -0.028 C 
ATOM     38  H   LIG d   1      12.132  -4.837  -3.129  0.00  0.00     0.026 H 
ATOM     39  H   LIG d   1      11.711  -3.527  -4.258  0.00  0.00     0.026 H 
ATOM     40  H   LIG d   1      11.802  -3.201  -2.511  0.00  0.00     0.026 H 
ENDBRANCH  31  37
ENDBRANCH  30  31
ENDBRANCH  23  30
BRANCH  25  41
ATOM     41  O   LIG d   1       8.145  -6.822  -5.661  0.00  0.00    -0.491 OA
BRANCH  41  42
ATOM     42  C   LIG d   1       8.269  -7.121  -7.053  0.00  0.00     0.079 C 
ATOM     43  H   LIG d   1       8.579  -8.158  -7.176  0.00  0.00     0.066 H 
ATOM     44  H   LIG d   1       7.307  -6.969  -7.544  0.00  0.00     0.066 H 
ATOM     45  H   LIG d   1       9.014  -6.464  -7.502  0.00  0.00     0.066 H 
ENDBRANCH  41  42
ENDBRANCH  25  41
ENDBRANCH   3  21
BRANCH   1  46
ATOM     46  C   LIG d   1       3.692  -1.160  -2.976  0.00  0.00     0.349 C 
ATOM     47  O   LIG d   1       2.561  -0.736  -3.027  0.00  0.00    -0.247 OA
BRANCH  46  48
ATOM     48  O   LIG d   1       4.517  -0.757  -1.997  0.00  0.00    -0.462 OA
BRANCH  48  49
ATOM     49  C   LIG d   1       4.531   0.640  -1.695  0.00  0.00     0.090 C 
ATOM     50  H   LIG d   1       4.973   0.793  -0.710  0.00  0.00     0.069 H 
ATOM     51  H   LIG d   1       3.511   1.023  -1.699  0.00  0.00     0.069 H 
BRANCH  49  52
ATOM     52  C   LIG d   1       5.358   1.381  -2.746  0.00  0.00    -0.031 C 
ATOM     53  H   LIG d   1       5.252   2.455  -2.602  0.00  0.00     0.026 H 
ATOM     54  H   LIG d   1       6.408   1.103  -2.646  0.00  0.00     0.026 H 
ATOM     55  H   LIG d   1       5.006   1.111  -3.742  0.00  0.00     0.026 H 
ENDBRANCH  49  52
ENDBRANCH  48  49
ENDBRANCH  46  48
ENDBRANCH   1  46
TORSDOF 11
ENDMDL
MODEL 6
REMARK VINA RESULT:      -6.1      2.331      6.453
REMARK  11 active torsions:
REMARK  status: ('A' for Active; 'I' for Inactive)
REMARK    1  A    between atoms: C_1  and  C_2 
REMARK    2  A    between atoms: C_2  and  O_3 
REMARK    3  A    between atoms: O_3  and  C_4 
REMARK    4  A    between atoms: C_4  and  C_6 
REMARK    5  A    between atoms: C_8  and  C_22 
REMARK    6  A    between atoms: C_25  and  O_32 
REMARK    7  A    between atoms: C_26  and  O_28 
REMARK    8  A    between atoms: O_28  and  C_29 
REMARK    9  A    between atoms: C_29  and  C_30 
REMARK   10  A    between atoms: C_29  and  C_31 
REMARK   11  A    between atoms: O_32  and  C_33 
ROOT
ATOM      1  C   LIG d   1       4.427  -2.167  -3.876  0.00  0.00     0.207 C 
ATOM      2  H   LIG d   1       4.346  -3.192  -3.514  0.00  0.00     0.086 H 
ATOM      3  C   LIG d   1       5.906  -1.788  -4.129  0.00  0.00     0.067 C 
ATOM      4  H   LIG d   1       6.314  -1.224  -3.290  0.00  0.00     0.044 H 
ATOM      5  C   LIG d   1       5.795  -0.919  -5.367  0.00  0.00     0.091 A 
ATOM      6  C   LIG d   1       4.552  -1.128  -5.897  0.00  0.00     0.143 A 
ATOM      7  C   LIG d   1       4.200  -0.373  -7.114  0.00  0.00     0.059 A 
ATOM      8  C   LIG d   1       2.949  -0.526  -7.713  0.00  0.00    -0.048 A 
ATOM      9  C   LIG d   1       2.647   0.192  -8.849  0.00  0.00    -0.061 A 
ATOM     10  C   LIG d   1       3.578   1.063  -9.395  0.00  0.00    -0.058 A 
ATOM     11  C   LIG d   1       4.818   1.222  -8.813  0.00  0.00    -0.018 A 
ATOM     12  C   LIG d   1       5.142   0.506  -7.666  0.00  0.00     0.143 A 
ATOM     13  O   LIG d   1       6.354   0.652  -7.086  0.00  0.00    -0.422 OA
ATOM     14  C   LIG d   1       6.686  -0.028  -5.977  0.00  0.00     0.345 A 
ATOM     15  O   LIG d   1       7.791   0.135  -5.489  0.00  0.00    -0.245 OA
ATOM     16  O   LIG d   1       3.842  -2.039  -5.184  0.00  0.00    -0.475 OA
ATOM     17  H   LIG d   1       2.222  -1.204  -7.290  0.00  0.00     0.063 H 
ATOM     18  H   LIG d   1       1.679   0.077  -9.317  0.00  0.00     0.062 H 
ATOM     19  H   LIG d   1       3.330   1.621 -10.285  0.00  0.00     0.062 H 
ATOM     20  H   LIG d   1       5.535   1.902  -9.246  0.00  0.00     0.065 H 
ENDROOT
BRANCH   3  21
ATOM     21  C   LIG d   1       6.737  -3.015  -4.404  0.00  0.00    -0.032 A 
ATOM     22  C   LIG d   1       6.217  -4.043  -5.168  0.00  0.00    -0.012 A 
ATOM     23  C   LIG d   1       6.981  -5.170  -5.428  0.00  0.00     0.163 A 
ATOM     24  H   LIG d   1       5.216  -3.966  -5.567  0.00  0.00     0.066 H 
ATOM     25  C   LIG d   1       8.268  -5.267  -4.907  0.00  0.00     0.162 A 
ATOM     26  C   LIG d   1       8.782  -4.236  -4.138  0.00  0.00    -0.016 A 
ATOM     27  C   LIG d   1       8.016  -3.112  -3.888  0.00  0.00    -0.054 A 
ATOM     28  H   LIG d   1       9.781  -4.309  -3.734  0.00  0.00     0.066 H 
ATOM     29  H   LIG d   1       8.418  -2.309  -3.288  0.00  0.00     0.062 H 
BRANCH  23  30
ATOM     30  O   LIG d   1       6.473  -6.180  -6.182  0.00  0.00    -0.486 OA
BRANCH  30  31
ATOM     31  C   LIG d   1       5.110  -6.542  -5.948  0.00  0.00     0.095 C 
ATOM     32  H   LIG d   1       4.656  -5.825  -5.264  0.00  0.00     0.073 H 
BRANCH  31  33
ATOM     33  C   LIG d   1       4.345  -6.537  -7.273  0.00  0.00    -0.028 C 
ATOM     34  H   LIG d   1       3.404  -6.002  -7.148  0.00  0.00     0.026 H 
ATOM     35  H   LIG d   1       4.946  -6.045  -8.037  0.00  0.00     0.026 H 
ATOM     36  H   LIG d   1       4.141  -7.564  -7.579  0.00  0.00     0.026 H 
ENDBRANCH  31  33
BRANCH  31  37
ATOM     37  C   LIG d   1       5.054  -7.942  -5.331  0.00  0.00    -0.028 C 
ATOM     38  H   LIG d   1       6.030  -8.196  -4.919  0.00  0.00     0.026 H 
ATOM     39  H   LIG d   1       4.307  -7.959  -4.538  0.00  0.00     0.026 H 
ATOM     40  H   LIG d   1       4.784  -8.666  -6.099  0.00  0.00     0.026 H 
ENDBRANCH  31  37
ENDBRANCH  30  31
ENDBRANCH  23  30
BRANCH  25  41
ATOM     41  O   LIG d   1       9.020  -6.373  -5.155  0.00  0.00    -0.491 OA
BRANCH  41  42
ATOM     42  C   LIG d   1       9.288  -7.237  -4.048  0.00  0.00     0.079 C 
ATOM     43  H   LIG d   1      10.326  -7.565  -4.086  0.00  0.00     0.066 H 
ATOM     44  H   LIG d   1       9.110  -6.699  -3.117  0.00  0.00     0.066 H 
ATOM     45  H   LIG d   1       8.631  -8.105  -4.097  0.00  0.00     0.066 H 
ENDBRANCH  41  42
ENDBRANCH  25  41
ENDBRANCH   3  21
BRANCH   1  46
ATOM     46  C   LIG d   1       3.788  -1.207  -2.906  0.00  0.00     0.349 C 
ATOM     47  O   LIG d   1       2.632  -0.885  -3.049  0.00  0.00    -0.247 OA
BRANCH  46  48
ATOM     48  O   LIG d   1       4.502  -0.710  -1.884  0.00  0.00    -0.462 OA
BRANCH  48  49
ATOM     49  C   LIG d   1       4.433   0.701  -1.670  0.00  0.00     0.090 C 
ATOM     50  H   LIG d   1       4.860   0.942  -0.696  0.00  0.00     0.069 H 
ATOM     51  H   LIG d   1       3.392   1.023  -1.699  0.00  0.00     0.069 H 
BRANCH  49  52
ATOM     52  C   LIG d   1       5.220   1.422  -2.765  0.00  0.00    -0.031 C 
ATOM     53  H   LIG d   1       5.558   2.389  -2.394  0.00  0.00     0.026 H 
ATOM     54  H   LIG d   1       6.083   0.820  -3.050  0.00  0.00     0.026 H 
ATOM     55  H   LIG d   1       4.579   1.571  -3.635  0.00  0.00     0.026 H 
ENDBRANCH  49  52
ENDBRANCH  48  49
ENDBRANCH  46  48
ENDBRANCH   1  46
TORSDOF 11
ENDMDL
MODEL 7
REMARK VINA RESULT:      -6.0      2.375      6.137
REMARK  11 active torsions:
REMARK  status: ('A' for Active; 'I' for Inactive)
REMARK    1  A    between atoms: C_1  and  C_2 
REMARK    2  A    between atoms: C_2  and  O_3 
REMARK    3  A    between atoms: O_3  and  C_4 
REMARK    4  A    between atoms: C_4  and  C_6 
REMARK    5  A    between atoms: C_8  and  C_22 
REMARK    6  A    between atoms: C_25  and  O_32 
REMARK    7  A    between atoms: C_26  and  O_28 
REMARK    8  A    between atoms: O_28  and  C_29 
REMARK    9  A    between atoms: C_29  and  C_30 
REMARK   10  A    between atoms: C_29  and  C_31 
REMARK   11  A    between atoms: O_32  and  C_33 
ROOT
ATOM      1  C   LIG d   1       4.995  -1.545  -4.897  0.00  0.00     0.207 C 
ATOM      2  H   LIG d   1       4.494  -2.255  -4.238  0.00  0.00     0.086 H 
ATOM      3  C   LIG d   1       5.868  -2.283  -5.940  0.00  0.00     0.067 C 
ATOM      4  H   LIG d   1       6.913  -2.301  -5.632  0.00  0.00     0.044 H 
ATOM      5  C   LIG d   1       5.677  -1.418  -7.171  0.00  0.00     0.091 A 
ATOM      6  C   LIG d   1       4.599  -0.612  -6.935  0.00  0.00     0.143 A 
ATOM      7  C   LIG d   1       4.221   0.340  -7.995  0.00  0.00     0.059 A 
ATOM      8  C   LIG d   1       3.135   1.201  -7.829  0.00  0.00    -0.048 A 
ATOM      9  C   LIG d   1       2.804   2.081  -8.837  0.00  0.00    -0.061 A 
ATOM     10  C   LIG d   1       3.545   2.113 -10.009  0.00  0.00    -0.058 A 
ATOM     11  C   LIG d   1       4.619   1.266 -10.185  0.00  0.00    -0.018 A 
ATOM     12  C   LIG d   1       4.969   0.371  -9.181  0.00  0.00     0.143 A 
ATOM     13  O   LIG d   1       6.019  -0.464  -9.341  0.00  0.00    -0.422 OA
ATOM     14  C   LIG d   1       6.374  -1.334  -8.382  0.00  0.00     0.345 A 
ATOM     15  O   LIG d   1       7.327  -2.070  -8.571  0.00  0.00    -0.245 OA
ATOM     16  O   LIG d   1       4.040  -0.852  -5.721  0.00  0.00    -0.475 OA
ATOM     17  H   LIG d   1       2.556   1.179  -6.918  0.00  0.00     0.063 H 
ATOM     18  H   LIG d   1       1.965   2.750  -8.713  0.00  0.00     0.062 H 
ATOM     19  H   LIG d   1       3.278   2.807 -10.792  0.00  0.00     0.062 H 
ATOM     20  H   LIG d   1       5.189   1.299 -11.102  0.00  0.00     0.065 H 
ENDROOT
BRANCH   3  21
ATOM     21  C   LIG d   1       5.356  -3.681  -6.179  0.00  0.00    -0.032 A 
ATOM     22  C   LIG d   1       5.972  -4.755  -5.566  0.00  0.00    -0.012 A 
ATOM     23  C   LIG d   1       5.500  -6.041  -5.779  0.00  0.00     0.163 A 
ATOM     24  H   LIG d   1       6.821  -4.593  -4.917  0.00  0.00     0.066 H 
ATOM     25  C   LIG d   1       4.411  -6.246  -6.621  0.00  0.00     0.162 A 
ATOM     26  C   LIG d   1       3.800  -5.166  -7.237  0.00  0.00    -0.016 A 
ATOM     27  C   LIG d   1       4.273  -3.886  -7.014  0.00  0.00    -0.054 A 
ATOM     28  H   LIG d   1       2.954  -5.323  -7.889  0.00  0.00     0.066 H 
ATOM     29  H   LIG d   1       3.797  -3.045  -7.495  0.00  0.00     0.062 H 
BRANCH  23  30
ATOM     30  O   LIG d   1       6.103  -7.098  -5.174  0.00  0.00    -0.486 OA
BRANCH  30  31
ATOM     31  C   LIG d   1       7.509  -7.248  -5.378  0.00  0.00     0.095 C 
ATOM     32  H   LIG d   1       7.981  -6.265  -5.389  0.00  0.00     0.073 H 
BRANCH  31  33
ATOM     33  C   LIG d   1       8.104  -8.085  -4.243  0.00  0.00    -0.028 C 
ATOM     34  H   LIG d   1       7.609  -9.056  -4.211  0.00  0.00     0.026 H 
ATOM     35  H   LIG d   1       9.170  -8.226  -4.416  0.00  0.00     0.026 H 
ATOM     36  H   LIG d   1       7.955  -7.569  -3.295  0.00  0.00     0.026 H 
ENDBRANCH  31  33
BRANCH  31  37
ATOM     37  C   LIG d   1       7.759  -7.949  -6.715  0.00  0.00    -0.028 C 
ATOM     38  H   LIG d   1       7.934  -9.011  -6.541  0.00  0.00     0.026 H 
ATOM     39  H   LIG d   1       6.889  -7.824  -7.359  0.00  0.00     0.026 H 
ATOM     40  H   LIG d   1       8.633  -7.511  -7.197  0.00  0.00     0.026 H 
ENDBRANCH  31  37
ENDBRANCH  30  31
ENDBRANCH  23  30
BRANCH  25  41
ATOM     41  O   LIG d   1       3.946  -7.506  -6.837  0.00  0.00    -0.491 OA
BRANCH  41  42
ATOM     42  C   LIG d   1       4.042  -8.013  -8.170  0.00  0.00     0.079 C 
ATOM     43  H   LIG d   1       3.434  -8.912  -8.262  0.00  0.00     0.066 H 
ATOM     44  H   LIG d   1       3.686  -7.259  -8.872  0.00  0.00     0.066 H 
ATOM     45  H   LIG d   1       5.082  -8.254  -8.394  0.00  0.00     0.066 H 
ENDBRANCH  41  42
ENDBRANCH  25  41
ENDBRANCH   3  21
BRANCH   1  46
ATOM     46  C   LIG d   1       5.823  -0.570  -4.100  0.00  0.00     0.349 C 
ATOM     47  O   LIG d   1       6.848  -0.937  -3.575  0.00  0.00    -0.247 OA
BRANCH  46  48
ATOM     48  O   LIG d   1       5.424   0.705  -3.975  0.00  0.00    -0.462 OA
BRANCH  48  49
ATOM     49  C   LIG d   1       5.110   1.160  -2.658  0.00  0.00     0.090 C 
ATOM     50  H   LIG d   1       5.349   2.221  -2.573  0.00  0.00     0.069 H 
ATOM     51  H   LIG d   1       5.694   0.598  -1.930  0.00  0.00     0.069 H 
BRANCH  49  52
ATOM     52  C   LIG d   1       3.619   0.950  -2.387  0.00  0.00    -0.031 C 
ATOM     53  H   LIG d   1       3.096   0.800  -3.330  0.00  0.00     0.026 H 
ATOM     54  H   LIG d   1       3.485   0.072  -1.753  0.00  0.00     0.026 H 
ATOM     55  H   LIG d   1       3.215   1.827  -1.881  0.00  0.00     0.026 H 
ENDBRANCH  49  52
ENDBRANCH  48  49
ENDBRANCH  46  48
ENDBRANCH   1  46
TORSDOF 11
ENDMDL
MODEL 8
REMARK VINA RESULT:      -5.9      4.303      8.196
REMARK  11 active torsions:
REMARK  status: ('A' for Active; 'I' for Inactive)
REMARK    1  A    between atoms: C_1  and  C_2 
REMARK    2  A    between atoms: C_2  and  O_3 
REMARK    3  A    between atoms: O_3  and  C_4 
REMARK    4  A    between atoms: C_4  and  C_6 
REMARK    5  A    between atoms: C_8  and  C_22 
REMARK    6  A    between atoms: C_25  and  O_32 
REMARK    7  A    between atoms: C_26  and  O_28 
REMARK    8  A    between atoms: O_28  and  C_29 
REMARK    9  A    between atoms: C_29  and  C_30 
REMARK   10  A    between atoms: C_29  and  C_31 
REMARK   11  A    between atoms: O_32  and  C_33 
ROOT
ATOM      1  C   LIG d   1       8.468   1.431  -6.138  0.00  0.00     0.207 C 
ATOM      2  H   LIG d   1       9.222   2.213  -6.232  0.00  0.00     0.086 H 
ATOM      3  C   LIG d   1       9.125   0.072  -5.792  0.00  0.00     0.067 C 
ATOM      4  H   LIG d   1       9.242  -0.543  -6.684  0.00  0.00     0.044 H 
ATOM      5  C   LIG d   1       8.105  -0.531  -4.845  0.00  0.00     0.091 A 
ATOM      6  C   LIG d   1       7.271   0.478  -4.453  0.00  0.00     0.143 A 
ATOM      7  C   LIG d   1       6.176   0.130  -3.529  0.00  0.00     0.059 A 
ATOM      8  C   LIG d   1       5.277   1.102  -3.086  0.00  0.00    -0.048 A 
ATOM      9  C   LIG d   1       4.263   0.749  -2.224  0.00  0.00    -0.061 A 
ATOM     10  C   LIG d   1       4.132  -0.565  -1.799  0.00  0.00    -0.058 A 
ATOM     11  C   LIG d   1       5.014  -1.534  -2.228  0.00  0.00    -0.018 A 
ATOM     12  C   LIG d   1       6.044  -1.198  -3.098  0.00  0.00     0.143 A 
ATOM     13  O   LIG d   1       6.915  -2.138  -3.526  0.00  0.00    -0.422 OA
ATOM     14  C   LIG d   1       7.916  -1.834  -4.369  0.00  0.00     0.345 A 
ATOM     15  O   LIG d   1       8.679  -2.714  -4.727  0.00  0.00    -0.245 OA
ATOM     16  O   LIG d   1       7.624   1.670  -4.998  0.00  0.00    -0.475 OA
ATOM     17  H   LIG d   1       5.376   2.126  -3.416  0.00  0.00     0.063 H 
ATOM     18  H   LIG d   1       3.565   1.498  -1.878  0.00  0.00     0.062 H 
ATOM     19  H   LIG d   1       3.333  -0.831  -1.123  0.00  0.00     0.062 H 
ATOM     20  H   LIG d   1       4.903  -2.554  -1.890  0.00  0.00     0.065 H 
ENDROOT
BRANCH   3  21
ATOM     21  C   LIG d   1      10.449   0.274  -5.101  0.00  0.00    -0.032 A 
ATOM     22  C   LIG d   1      10.741   1.490  -4.512  0.00  0.00    -0.012 A 
ATOM     23  C   LIG d   1      11.956   1.677  -3.872  0.00  0.00     0.163 A 
ATOM     24  H   LIG d   1      10.020   2.294  -4.548  0.00  0.00     0.066 H 
ATOM     25  C   LIG d   1      12.884   0.641  -3.833  0.00  0.00     0.162 A 
ATOM     26  C   LIG d   1      12.588  -0.574  -4.430  0.00  0.00    -0.016 A 
ATOM     27  C   LIG d   1      11.371  -0.755  -5.062  0.00  0.00    -0.054 A 
ATOM     28  H   LIG d   1      13.306  -1.380  -4.400  0.00  0.00     0.066 H 
ATOM     29  H   LIG d   1      11.142  -1.702  -5.527  0.00  0.00     0.062 H 
BRANCH  23  30
ATOM     30  O   LIG d   1      12.243   2.871  -3.288  0.00  0.00    -0.486 OA
BRANCH  30  31
ATOM     31  C   LIG d   1      11.402   3.977  -3.625  0.00  0.00     0.095 C 
ATOM     32  H   LIG d   1      10.670   3.662  -4.369  0.00  0.00     0.073 H 
BRANCH  31  33
ATOM     33  C   LIG d   1      10.675   4.466  -2.370  0.00  0.00    -0.028 C 
ATOM     34  H   LIG d   1      11.175   4.073  -1.485  0.00  0.00     0.026 H 
ATOM     35  H   LIG d   1      10.689   5.555  -2.344  0.00  0.00     0.026 H 
ATOM     36  H   LIG d   1       9.643   4.117  -2.390  0.00  0.00     0.026 H 
ENDBRANCH  31  33
BRANCH  31  37
ATOM     37  C   LIG d   1      12.255   5.111  -4.195  0.00  0.00    -0.028 C 
ATOM     38  H   LIG d   1      12.097   6.015  -3.607  0.00  0.00     0.026 H 
ATOM     39  H   LIG d   1      13.308   4.830  -4.156  0.00  0.00     0.026 H 
ATOM     40  H   LIG d   1      11.968   5.297  -5.230  0.00  0.00     0.026 H 
ENDBRANCH  31  37
ENDBRANCH  30  31
ENDBRANCH  23  30
BRANCH  25  41
ATOM     41  O   LIG d   1      14.079   0.820  -3.210  0.00  0.00    -0.491 OA
BRANCH  41  42
ATOM     42  C   LIG d   1      14.795  -0.357  -2.829  0.00  0.00     0.079 C 
ATOM     43  H   LIG d   1      14.531  -1.176  -3.496  0.00  0.00     0.066 H 
ATOM     44  H   LIG d   1      15.867  -0.167  -2.893  0.00  0.00     0.066 H 
ATOM     45  H   LIG d   1      14.536  -0.625  -1.805  0.00  0.00     0.066 H 
ENDBRANCH  41  42
ENDBRANCH  25  41
ENDBRANCH   3  21
BRANCH   1  46
ATOM     46  C   LIG d   1       7.650   1.323  -7.399  0.00  0.00     0.349 C 
ATOM     47  O   LIG d   1       8.200   1.289  -8.474  0.00  0.00    -0.247 OA
BRANCH  46  48
ATOM     48  O   LIG d   1       6.311   1.264  -7.326  0.00  0.00    -0.462 OA
BRANCH  48  49
ATOM     49  C   LIG d   1       5.682   0.105  -7.878  0.00  0.00     0.090 C 
ATOM     50  H   LIG d   1       6.431  -0.671  -8.041  0.00  0.00     0.069 H 
ATOM     51  H   LIG d   1       5.213   0.362  -8.827  0.00  0.00     0.069 H 
BRANCH  49  52
ATOM     52  C   LIG d   1       4.618  -0.409  -6.906  0.00  0.00    -0.031 C 
ATOM     53  H   LIG d   1       4.010  -1.166  -7.400  0.00  0.00     0.026 H 
ATOM     54  H   LIG d   1       5.103  -0.845  -6.033  0.00  0.00     0.026 H 
ATOM     55  H   LIG d   1       3.983   0.420  -6.592  0.00  0.00     0.026 H 
ENDBRANCH  49  52
ENDBRANCH  48  49
ENDBRANCH  46  48
ENDBRANCH   1  46
TORSDOF 11
ENDMDL
MODEL 9
REMARK VINA RESULT:      -5.8      3.761      7.733
REMARK  11 active torsions:
REMARK  status: ('A' for Active; 'I' for Inactive)
REMARK    1  A    between atoms: C_1  and  C_2 
REMARK    2  A    between atoms: C_2  and  O_3 
REMARK    3  A    between atoms: O_3  and  C_4 
REMARK    4  A    between atoms: C_4  and  C_6 
REMARK    5  A    between atoms: C_8  and  C_22 
REMARK    6  A    between atoms: C_25  and  O_32 
REMARK    7  A    between atoms: C_26  and  O_28 
REMARK    8  A    between atoms: O_28  and  C_29 
REMARK    9  A    between atoms: C_29  and  C_30 
REMARK   10  A    between atoms: C_29  and  C_31 
REMARK   11  A    between atoms: O_32  and  C_33 
ROOT
ATOM      1  C   LIG d   1       6.288   0.311  -2.948  0.00  0.00     0.207 C 
ATOM      2  H   LIG d   1       7.006   0.530  -2.157  0.00  0.00     0.086 H 
ATOM      3  C   LIG d   1       6.747   0.924  -4.293  0.00  0.00     0.067 C 
ATOM      4  H   LIG d   1       6.241   1.870  -4.485  0.00  0.00     0.044 H 
ATOM      5  C   LIG d   1       6.309  -0.138  -5.283  0.00  0.00     0.091 A 
ATOM      6  C   LIG d   1       6.036  -1.270  -4.566  0.00  0.00     0.143 A 
ATOM      7  C   LIG d   1       5.572  -2.451  -5.317  0.00  0.00     0.059 A 
ATOM      8  C   LIG d   1       5.267  -3.643  -4.657  0.00  0.00    -0.048 A 
ATOM      9  C   LIG d   1       4.835  -4.731  -5.384  0.00  0.00    -0.061 A 
ATOM     10  C   LIG d   1       4.702  -4.644  -6.762  0.00  0.00    -0.058 A 
ATOM     11  C   LIG d   1       5.002  -3.473  -7.425  0.00  0.00    -0.018 A 
ATOM     12  C   LIG d   1       5.439  -2.364  -6.710  0.00  0.00     0.143 A 
ATOM     13  O   LIG d   1       5.737  -1.210  -7.347  0.00  0.00    -0.422 OA
ATOM     14  C   LIG d   1       6.158  -0.127  -6.674  0.00  0.00     0.345 A 
ATOM     15  O   LIG d   1       6.416   0.892  -7.291  0.00  0.00    -0.245 OA
ATOM     16  O   LIG d   1       6.261  -1.098  -3.238  0.00  0.00    -0.475 OA
ATOM     17  H   LIG d   1       5.369  -3.714  -3.585  0.00  0.00     0.063 H 
ATOM     18  H   LIG d   1       4.598  -5.656  -4.878  0.00  0.00     0.062 H 
ATOM     19  H   LIG d   1       4.363  -5.503  -7.322  0.00  0.00     0.062 H 
ATOM     20  H   LIG d   1       4.896  -3.416  -8.498  0.00  0.00     0.065 H 
ENDROOT
BRANCH   3  21
ATOM     21  C   LIG d   1       8.244   1.102  -4.321  0.00  0.00    -0.032 A 
ATOM     22  C   LIG d   1       8.831   2.120  -3.593  0.00  0.00    -0.012 A 
ATOM     23  C   LIG d   1      10.207   2.283  -3.613  0.00  0.00     0.163 A 
ATOM     24  H   LIG d   1       8.217   2.786  -3.005  0.00  0.00     0.066 H 
ATOM     25  C   LIG d   1      10.994   1.425  -4.376  0.00  0.00     0.162 A 
ATOM     26  C   LIG d   1      10.400   0.410  -5.108  0.00  0.00    -0.016 A 
ATOM     27  C   LIG d   1       9.026   0.251  -5.079  0.00  0.00    -0.054 A 
ATOM     28  H   LIG d   1      11.008  -0.257  -5.700  0.00  0.00     0.066 H 
ATOM     29  H   LIG d   1       8.564  -0.541  -5.650  0.00  0.00     0.062 H 
BRANCH  23  30
ATOM     30  O   LIG d   1      10.786   3.280  -2.893  0.00  0.00    -0.486 OA
BRANCH  30  31
ATOM     31  C   LIG d   1      10.122   4.545  -2.887  0.00  0.00     0.095 C 
ATOM     32  H   LIG d   1       9.044   4.389  -2.873  0.00  0.00     0.073 H 
BRANCH  31  33
ATOM     33  C   LIG d   1      10.539   5.335  -1.644  0.00  0.00    -0.028 C 
ATOM     34  H   LIG d   1       9.755   6.047  -1.386  0.00  0.00     0.026 H 
ATOM     35  H   LIG d   1      10.695   4.647  -0.813  0.00  0.00     0.026 H 
ATOM     36  H   LIG d   1      11.465   5.871  -1.848  0.00  0.00     0.026 H 
ENDBRANCH  31  33
BRANCH  31  37
ATOM     37  C   LIG d   1      10.507   5.331  -4.143  0.00  0.00    -0.028 C 
ATOM     38  H   LIG d   1       9.967   6.277  -4.159  0.00  0.00     0.026 H 
ATOM     39  H   LIG d   1      11.580   5.524  -4.135  0.00  0.00     0.026 H 
ATOM     40  H   LIG d   1      10.250   4.749  -5.028  0.00  0.00     0.026 H 
ENDBRANCH  31  37
ENDBRANCH  30  31
ENDBRANCH  23  30
BRANCH  25  41
ATOM     41  O   LIG d   1      12.344   1.583  -4.402  0.00  0.00    -0.491 OA
BRANCH  41  42
ATOM     42  C   LIG d   1      12.898   2.246  -5.541  0.00  0.00     0.079 C 
ATOM     43  H   LIG d   1      12.391   3.198  -5.690  0.00  0.00     0.066 H 
ATOM     44  H   LIG d   1      13.961   2.422  -5.377  0.00  0.00     0.066 H 
ATOM     45  H   LIG d   1      12.767   1.622  -6.425  0.00  0.00     0.066 H 
ENDBRANCH  41  42
ENDBRANCH  25  41
ENDBRANCH   3  21
BRANCH   1  46
ATOM     46  C   LIG d   1       4.915   0.808  -2.575  0.00  0.00     0.349 C 
ATOM     47  O   LIG d   1       4.576   0.833  -1.416  0.00  0.00    -0.247 OA
BRANCH  46  48
ATOM     48  O   LIG d   1       4.070   1.225  -3.532  0.00  0.00    -0.462 OA
BRANCH  48  49
ATOM     49  C   LIG d   1       2.932   0.401  -3.795  0.00  0.00     0.090 C 
ATOM     50  H   LIG d   1       2.067   0.794  -3.261  0.00  0.00     0.069 H 
ATOM     51  H   LIG d   1       3.134  -0.617  -3.459  0.00  0.00     0.069 H 
BRANCH  49  52
ATOM     52  C   LIG d   1       2.645   0.393  -5.297  0.00  0.00    -0.031 C 
ATOM     53  H   LIG d   1       1.603   0.662  -5.469  0.00  0.00     0.026 H 
ATOM     54  H   LIG d   1       3.293   1.114  -5.796  0.00  0.00     0.026 H 
ATOM     55  H   LIG d   1       2.835  -0.603  -5.698  0.00  0.00     0.026 H 
ENDBRANCH  49  52
ENDBRANCH  48  49
ENDBRANCH  46  48
ENDBRANCH   1  46
TORSDOF 11
ENDMDL
MODEL 10
REMARK VINA RESULT:      -5.7      2.425      6.576
REMARK  11 active torsions:
REMARK  status: ('A' for Active; 'I' for Inactive)
REMARK    1  A    between atoms: C_1  and  C_2 
REMARK    2  A    between atoms: C_2  and  O_3 
REMARK    3  A    between atoms: O_3  and  C_4 
REMARK    4  A    between atoms: C_4  and  C_6 
REMARK    5  A    between atoms: C_8  and  C_22 
REMARK    6  A    between atoms: C_25  and  O_32 
REMARK    7  A    between atoms: C_26  and  O_28 
REMARK    8  A    between atoms: O_28  and  C_29 
REMARK    9  A    between atoms: C_29  and  C_30 
REMARK   10  A    between atoms: C_29  and  C_31 
REMARK   11  A    between atoms: O_32  and  C_33 
ROOT
ATOM      1  C   LIG d   1       6.551  -1.040  -7.480  0.00  0.00     0.207 C 
ATOM      2  H   LIG d   1       7.510  -1.040  -7.999  0.00  0.00     0.086 H 
ATOM      3  C   LIG d   1       6.124  -2.482  -7.113  0.00  0.00     0.067 C 
ATOM      4  H   LIG d   1       5.411  -2.874  -7.837  0.00  0.00     0.044 H 
ATOM      5  C   LIG d   1       5.470  -2.276  -5.760  0.00  0.00     0.091 A 
ATOM      6  C   LIG d   1       5.838  -1.036  -5.318  0.00  0.00     0.143 A 
ATOM      7  C   LIG d   1       5.309  -0.598  -4.014  0.00  0.00     0.059 A 
ATOM      8  C   LIG d   1       5.633   0.657  -3.495  0.00  0.00    -0.048 A 
ATOM      9  C   LIG d   1       5.124   1.040  -2.273  0.00  0.00    -0.061 A 
ATOM     10  C   LIG d   1       4.293   0.187  -1.563  0.00  0.00    -0.058 A 
ATOM     11  C   LIG d   1       3.967  -1.056  -2.064  0.00  0.00    -0.018 A 
ATOM     12  C   LIG d   1       4.470  -1.462  -3.294  0.00  0.00     0.143 A 
ATOM     13  O   LIG d   1       4.158  -2.676  -3.797  0.00  0.00    -0.422 OA
ATOM     14  C   LIG d   1       4.633  -3.086  -4.985  0.00  0.00     0.345 A 
ATOM     15  O   LIG d   1       4.326  -4.191  -5.397  0.00  0.00    -0.245 OA
ATOM     16  O   LIG d   1       6.669  -0.411  -6.191  0.00  0.00    -0.475 OA
ATOM     17  H   LIG d   1       6.280   1.323  -4.046  0.00  0.00     0.063 H 
ATOM     18  H   LIG d   1       5.372   2.010  -1.867  0.00  0.00     0.062 H 
ATOM     19  H   LIG d   1       3.899   0.497  -0.607  0.00  0.00     0.062 H 
ATOM     20  H   LIG d   1       3.319  -1.712  -1.502  0.00  0.00     0.065 H 
ENDROOT
BRANCH   3  21
ATOM     21  C   LIG d   1       7.325  -3.387  -6.999  0.00  0.00    -0.032 A 
ATOM     22  C   LIG d   1       7.817  -3.726  -5.753  0.00  0.00    -0.012 A 
ATOM     23  C   LIG d   1       8.918  -4.562  -5.645  0.00  0.00     0.163 A 
ATOM     24  H   LIG d   1       7.342  -3.342  -4.862  0.00  0.00     0.066 H 
ATOM     25  C   LIG d   1       9.531  -5.049  -6.796  0.00  0.00     0.162 A 
ATOM     26  C   LIG d   1       9.036  -4.702  -8.042  0.00  0.00    -0.016 A 
ATOM     27  C   LIG d   1       7.934  -3.872  -8.141  0.00  0.00    -0.054 A 
ATOM     28  H   LIG d   1       9.509  -5.080  -8.936  0.00  0.00     0.066 H 
ATOM     29  H   LIG d   1       7.549  -3.601  -9.114  0.00  0.00     0.062 H 
BRANCH  23  30
ATOM     30  O   LIG d   1       9.400  -4.899  -4.420  0.00  0.00    -0.486 OA
BRANCH  30  31
ATOM     31  C   LIG d   1       9.755  -3.827  -3.545  0.00  0.00     0.095 C 
ATOM     32  H   LIG d   1       9.129  -2.961  -3.759  0.00  0.00     0.073 H 
BRANCH  31  33
ATOM     33  C   LIG d   1       9.543  -4.263  -2.093  0.00  0.00    -0.028 C 
ATOM     34  H   LIG d   1       8.682  -4.928  -2.036  0.00  0.00     0.026 H 
ATOM     35  H   LIG d   1      10.431  -4.784  -1.737  0.00  0.00     0.026 H 
ATOM     36  H   LIG d   1       9.365  -3.384  -1.473  0.00  0.00     0.026 H 
ENDBRANCH  31  33
BRANCH  31  37
ATOM     37  C   LIG d   1      11.226  -3.460  -3.757  0.00  0.00    -0.028 C 
ATOM     38  H   LIG d   1      11.839  -4.357  -3.674  0.00  0.00     0.026 H 
ATOM     39  H   LIG d   1      11.351  -3.023  -4.748  0.00  0.00     0.026 H 
ATOM     40  H   LIG d   1      11.532  -2.738  -3.001  0.00  0.00     0.026 H 
ENDBRANCH  31  37
ENDBRANCH  30  31
ENDBRANCH  23  30
BRANCH  25  41
ATOM     41  O   LIG d   1      10.613  -5.866  -6.696  0.00  0.00    -0.491 OA
BRANCH  41  42
ATOM     42  C   LIG d   1      11.891  -5.285  -6.964  0.00  0.00     0.079 C 
ATOM     43  H   LIG d   1      11.874  -4.229  -6.698  0.00  0.00     0.066 H 
ATOM     44  H   LIG d   1      12.653  -5.796  -6.374  0.00  0.00     0.066 H 
ATOM     45  H   LIG d   1      12.124  -5.389  -8.024  0.00  0.00     0.066 H 
ENDBRANCH  41  42
ENDBRANCH  25  41
ENDBRANCH   3  21
BRANCH   1  46
ATOM     46  C   LIG d   1       5.492  -0.365  -8.312  0.00  0.00     0.349 C 
ATOM     47  O   LIG d   1       4.962  -0.965  -9.218  0.00  0.00    -0.247 OA
BRANCH  46  48
ATOM     48  O   LIG d   1       5.137   0.902  -8.048  0.00  0.00    -0.462 OA
BRANCH  48  49
ATOM     49  C   LIG d   1       5.274   1.849  -9.109  0.00  0.00     0.090 C 
ATOM     50  H   LIG d   1       5.608   1.337 -10.012  0.00  0.00     0.069 H 
ATOM     51  H   LIG d   1       6.006   2.607  -8.829  0.00  0.00     0.069 H 
BRANCH  49  52
ATOM     52  C   LIG d   1       3.923   2.518  -9.372  0.00  0.00    -0.031 C 
ATOM     53  H   LIG d   1       3.132   1.937  -8.902  0.00  0.00     0.026 H 
ATOM     54  H   LIG d   1       3.929   3.526  -8.958  0.00  0.00     0.026 H 
ATOM     55  H   LIG d   1       3.747   2.569 -10.447  0.00  0.00     0.026 H 
ENDBRANCH  49  52
ENDBRANCH  48  49
ENDBRANCH  46  48
ENDBRANCH   1  46
TORSDOF 11
ENDMDL
