MODEL 1
REMARK VINA RESULT:      -3.1      0.000      0.000
REMARK  1 active torsions:
REMARK  status: ('A' for Active; 'I' for Inactive)
REMARK    1  A    between atoms: C_2  and  C_5 
ROOT
ATOM      1  C   LIG d   1       3.900  -1.972  -2.353  0.00  0.00     0.080 A 
ATOM      2  C   LIG d   1       2.907  -0.949  -2.908  0.00  0.00     0.121 A 
ATOM      3  H   LIG d   1       1.855  -1.066  -2.646  0.00  0.00     0.068 H 
ATOM      4  O   LIG d   1       3.506  -1.956  -3.726  0.00  0.00    -0.366 OA
ATOM      5  H   LIG d   1       3.507  -2.768  -1.721  0.00  0.00     0.059 H 
ATOM      6  H   LIG d   1       4.903  -1.624  -2.108  0.00  0.00     0.059 H 
ENDROOT
BRANCH   2   7
ATOM      7  C   LIG d   1       3.384   0.470  -3.080  0.00  0.00     0.073 C 
ATOM      8  O   LIG d   1       3.717   0.868  -4.171  0.00  0.00    -0.547 OA
ATOM      9  O   LIG d   1       3.438   1.294  -2.021  0.00  0.00    -0.547 OA
ENDBRANCH   2   7
TORSDOF 1
ENDMDL
MODEL 2
REMARK VINA RESULT:      -3.1      1.471      1.715
REMARK  1 active torsions:
REMARK  status: ('A' for Active; 'I' for Inactive)
REMARK    1  A    between atoms: C_2  and  C_5 
ROOT
ATOM      1  C   LIG d   1       4.417  -1.598  -3.263  0.00  0.00     0.080 A 
ATOM      2  C   LIG d   1       4.340  -0.783  -1.969  0.00  0.00     0.121 A 
ATOM      3  H   LIG d   1       4.801  -1.204  -1.076  0.00  0.00     0.068 H 
ATOM      4  O   LIG d   1       3.206  -1.461  -2.516  0.00  0.00    -0.366 OA
ATOM      5  H   LIG d   1       4.930  -2.558  -3.228  0.00  0.00     0.059 H 
ATOM      6  H   LIG d   1       4.498  -1.051  -4.202  0.00  0.00     0.059 H 
ENDROOT
BRANCH   2   7
ATOM      7  C   LIG d   1       4.382   0.719  -2.082  0.00  0.00     0.073 C 
ATOM      8  O   LIG d   1       3.359   1.359  -2.007  0.00  0.00    -0.547 OA
ATOM      9  O   LIG d   1       5.554   1.347  -2.263  0.00  0.00    -0.547 OA
ENDBRANCH   2   7
TORSDOF 1
ENDMDL
MODEL 3
REMARK VINA RESULT:      -3.0      1.614      2.470
REMARK  1 active torsions:
REMARK  status: ('A' for Active; 'I' for Inactive)
REMARK    1  A    between atoms: C_2  and  C_5 
ROOT
ATOM      1  C   LIG d   1       3.490   0.010  -4.483  0.00  0.00     0.080 A 
ATOM      2  C   LIG d   1       3.133   0.265  -3.018  0.00  0.00     0.121 A 
ATOM      3  H   LIG d   1       2.124   0.017  -2.689  0.00  0.00     0.068 H 
ATOM      4  O   LIG d   1       3.284   1.325  -3.965  0.00  0.00    -0.366 OA
ATOM      5  H   LIG d   1       2.718  -0.410  -5.128  0.00  0.00     0.059 H 
ATOM      6  H   LIG d   1       4.513  -0.292  -4.711  0.00  0.00     0.059 H 
ENDROOT
BRANCH   2   7
ATOM      7  C   LIG d   1       4.219   0.084  -1.989  0.00  0.00     0.073 C 
ATOM      8  O   LIG d   1       4.438  -1.011  -1.528  0.00  0.00    -0.547 OA
ATOM      9  O   LIG d   1       4.945   1.139  -1.586  0.00  0.00    -0.547 OA
ENDBRANCH   2   7
TORSDOF 1
ENDMDL
MODEL 4
REMARK VINA RESULT:      -2.9      1.714      2.502
REMARK  1 active torsions:
REMARK  status: ('A' for Active; 'I' for Inactive)
REMARK    1  A    between atoms: C_2  and  C_5 
ROOT
ATOM      1  C   LIG d   1       5.399   1.038  -2.605  0.00  0.00     0.080 A 
ATOM      2  C   LIG d   1       3.901   1.341  -2.675  0.00  0.00     0.121 A 
ATOM      3  H   LIG d   1       3.582   2.370  -2.510  0.00  0.00     0.068 H 
ATOM      4  O   LIG d   1       4.490   0.643  -1.576  0.00  0.00    -0.366 OA
ATOM      5  H   LIG d   1       6.075   1.867  -2.395  0.00  0.00     0.059 H 
ATOM      6  H   LIG d   1       5.791   0.262  -3.262  0.00  0.00     0.059 H 
ENDROOT
BRANCH   2   7
ATOM      7  C   LIG d   1       3.069   0.545  -3.647  0.00  0.00     0.073 C 
ATOM      8  O   LIG d   1       2.883   0.963  -4.766  0.00  0.00    -0.547 OA
ATOM      9  O   LIG d   1       2.536  -0.628  -3.271  0.00  0.00    -0.547 OA
ENDBRANCH   2   7
TORSDOF 1
ENDMDL
MODEL 5
REMARK VINA RESULT:      -2.9      1.739      3.141
REMARK  1 active torsions:
REMARK  status: ('A' for Active; 'I' for Inactive)
REMARK    1  A    between atoms: C_2  and  C_5 
ROOT
ATOM      1  C   LIG d   1       4.007   1.412  -2.635  0.00  0.00     0.080 A 
ATOM      2  C   LIG d   1       4.510   0.278  -1.741  0.00  0.00     0.121 A 
ATOM      3  H   LIG d   1       4.263   0.318  -0.680  0.00  0.00     0.068 H 
ATOM      4  O   LIG d   1       5.380   1.286  -2.261  0.00  0.00    -0.366 OA
ATOM      5  H   LIG d   1       3.424   2.206  -2.168  0.00  0.00     0.059 H 
ATOM      6  H   LIG d   1       3.735   1.166  -3.662  0.00  0.00     0.059 H 
ENDROOT
BRANCH   2   7
ATOM      7  C   LIG d   1       4.598  -1.102  -2.339  0.00  0.00     0.073 C 
ATOM      8  O   LIG d   1       5.651  -1.506  -2.775  0.00  0.00    -0.547 OA
ATOM      9  O   LIG d   1       3.508  -1.884  -2.387  0.00  0.00    -0.547 OA
ENDBRANCH   2   7
TORSDOF 1
ENDMDL
MODEL 6
REMARK VINA RESULT:      -2.9      2.713      3.180
REMARK  1 active torsions:
REMARK  status: ('A' for Active; 'I' for Inactive)
REMARK    1  A    between atoms: C_2  and  C_5 
ROOT
ATOM      1  C   LIG d   1       7.298   1.290  -3.734  0.00  0.00     0.080 A 
ATOM      2  C   LIG d   1       6.063   0.496  -3.303  0.00  0.00     0.121 A 
ATOM      3  H   LIG d   1       6.209  -0.535  -2.979  0.00  0.00     0.068 H 
ATOM      4  O   LIG d   1       6.333   0.808  -4.671  0.00  0.00    -0.366 OA
ATOM      5  H   LIG d   1       8.264   0.787  -3.696  0.00  0.00     0.059 H 
ATOM      6  H   LIG d   1       7.312   2.360  -3.524  0.00  0.00     0.059 H 
ENDROOT
BRANCH   2   7
ATOM      7  C   LIG d   1       4.950   1.245  -2.617  0.00  0.00     0.073 C 
ATOM      8  O   LIG d   1       4.188   1.922  -3.267  0.00  0.00    -0.547 OA
ATOM      9  O   LIG d   1       4.804   1.161  -1.286  0.00  0.00    -0.547 OA
ENDBRANCH   2   7
TORSDOF 1
ENDMDL
MODEL 7
REMARK VINA RESULT:      -2.8      2.039      2.148
REMARK  1 active torsions:
REMARK  status: ('A' for Active; 'I' for Inactive)
REMARK    1  A    between atoms: C_2  and  C_5 
ROOT
ATOM      1  C   LIG d   1       3.965  -0.446  -5.225  0.00  0.00     0.080 A 
ATOM      2  C   LIG d   1       2.999   0.174  -4.212  0.00  0.00     0.121 A 
ATOM      3  H   LIG d   1       2.121  -0.406  -3.927  0.00  0.00     0.068 H 
ATOM      4  O   LIG d   1       3.087   0.628  -5.564  0.00  0.00    -0.366 OA
ATOM      5  H   LIG d   1       3.729  -1.437  -5.610  0.00  0.00     0.059 H 
ATOM      6  H   LIG d   1       5.026  -0.220  -5.117  0.00  0.00     0.059 H 
ENDROOT
BRANCH   2   7
ATOM      7  C   LIG d   1       3.580   1.055  -3.136  0.00  0.00     0.073 C 
ATOM      8  O   LIG d   1       3.684   2.244  -3.321  0.00  0.00    -0.547 OA
ATOM      9  O   LIG d   1       3.979   0.519  -1.972  0.00  0.00    -0.547 OA
ENDBRANCH   2   7
TORSDOF 1
ENDMDL
MODEL 8
REMARK VINA RESULT:      -2.7      9.363     10.044
REMARK  1 active torsions:
REMARK  status: ('A' for Active; 'I' for Inactive)
REMARK    1  A    between atoms: C_2  and  C_5 
ROOT
ATOM      1  C   LIG d   1       5.852 -10.412  -2.080  0.00  0.00     0.080 A 
ATOM      2  C   LIG d   1       4.714 -10.930  -2.962  0.00  0.00     0.121 A 
ATOM      3  H   LIG d   1       4.279 -11.898  -2.715  0.00  0.00     0.068 H 
ATOM      4  O   LIG d   1       6.073 -10.902  -3.403  0.00  0.00    -0.366 OA
ATOM      5  H   LIG d   1       6.172 -11.036  -1.246  0.00  0.00     0.059 H 
ATOM      6  H   LIG d   1       5.920  -9.336  -1.918  0.00  0.00     0.059 H 
ENDROOT
BRANCH   2   7
ATOM      7  C   LIG d   1       3.765  -9.917  -3.550  0.00  0.00     0.073 C 
ATOM      8  O   LIG d   1       2.667  -9.768  -3.068  0.00  0.00    -0.547 OA
ATOM      9  O   LIG d   1       4.140  -9.179  -4.606  0.00  0.00    -0.547 OA
ENDBRANCH   2   7
TORSDOF 1
ENDMDL
MODEL 9
REMARK VINA RESULT:      -2.6      2.220      2.770
REMARK  1 active torsions:
REMARK  status: ('A' for Active; 'I' for Inactive)
REMARK    1  A    between atoms: C_2  and  C_5 
ROOT
ATOM      1  C   LIG d   1       5.417  -0.573  -4.963  0.00  0.00     0.080 A 
ATOM      2  C   LIG d   1       3.963  -0.572  -5.438  0.00  0.00     0.121 A 
ATOM      3  H   LIG d   1       3.595  -1.461  -5.952  0.00  0.00     0.068 H 
ATOM      4  O   LIG d   1       4.980   0.197  -6.084  0.00  0.00    -0.366 OA
ATOM      5  H   LIG d   1       6.015  -1.462  -5.159  0.00  0.00     0.059 H 
ATOM      6  H   LIG d   1       5.649  -0.040  -4.040  0.00  0.00     0.059 H 
ENDROOT
BRANCH   2   7
ATOM      7  C   LIG d   1       2.950   0.165  -4.601  0.00  0.00     0.073 C 
ATOM      8  O   LIG d   1       2.404  -0.397  -3.680  0.00  0.00    -0.547 OA
ATOM      9  O   LIG d   1       2.656   1.446  -4.874  0.00  0.00    -0.547 OA
ENDBRANCH   2   7
TORSDOF 1
ENDMDL
MODEL 10
REMARK VINA RESULT:      -2.5     10.108     10.904
REMARK  1 active torsions:
REMARK  status: ('A' for Active; 'I' for Inactive)
REMARK    1  A    between atoms: C_2  and  C_5 
ROOT
ATOM      1  C   LIG d   1      10.362   8.050  -1.192  0.00  0.00     0.080 A 
ATOM      2  C   LIG d   1      10.451   6.565  -0.831  0.00  0.00     0.121 A 
ATOM      3  H   LIG d   1      10.487   5.844  -1.648  0.00  0.00     0.068 H 
ATOM      4  O   LIG d   1       9.252   7.324  -0.663  0.00  0.00    -0.366 OA
ATOM      5  H   LIG d   1      10.340   8.314  -2.249  0.00  0.00     0.059 H 
ATOM      6  H   LIG d   1      10.862   8.762  -0.536  0.00  0.00     0.059 H 
ENDROOT
BRANCH   2   7
ATOM      7  C   LIG d   1      11.223   6.190   0.407  0.00  0.00     0.073 C 
ATOM      8  O   LIG d   1      10.634   5.872   1.414  0.00  0.00    -0.547 OA
ATOM      9  O   LIG d   1      12.565   6.205   0.393  0.00  0.00    -0.547 OA
ENDBRANCH   2   7
TORSDOF 1
ENDMDL
