MODEL 1
REMARK VINA RESULT:      -8.1      0.000      0.000
REMARK  5 active torsions:
REMARK  status: ('A' for Active; 'I' for Inactive)
REMARK    1  A    between atoms: C_5  and  C_7 
REMARK    2  A    between atoms: C_7  and  N_8 
REMARK    3  A    between atoms: C_13  and  C_30 
REMARK    4  A    between atoms: C_30  and  C_31 
REMARK    5  A    between atoms: C_31  and  C_32 
ROOT
ATOM      1  N   LIG d   1       3.755  -1.552  -7.690  0.00  0.00    -0.237 N 
ATOM      2  C   LIG d   1       4.175  -2.809  -7.875  0.00  0.00     0.228 A 
ATOM      3  O   LIG d   1       3.683  -3.606  -8.644  0.00  0.00    -0.275 OA
ATOM      4  C   LIG d   1       5.358  -3.080  -6.975  0.00  0.00     0.065 A 
ATOM      5  H   LIG d   1       6.248  -3.380  -7.529  0.00  0.00     0.042 H 
ATOM      6  C   LIG d   1       4.955  -4.110  -5.898  0.00  0.00     0.021 C 
ATOM      7  H   LIG d   1       5.833  -4.653  -5.546  0.00  0.00     0.047 H 
ATOM      8  N   LIG d   1       4.370  -3.302  -4.796  0.00  0.00    -0.295 N 
ATOM      9  C   LIG d   1       5.217  -2.097  -4.744  0.00  0.00     0.136 A 
ATOM     10  C   LIG d   1       5.547  -1.738  -6.214  0.00  0.00     0.080 A 
ATOM     11  H   LIG d   1       6.544  -1.316  -6.339  0.00  0.00     0.043 H 
ATOM     12  C   LIG d   1       4.458  -0.859  -6.787  0.00  0.00     0.229 A 
ATOM     13  O   LIG d   1       4.251   0.294  -6.474  0.00  0.00    -0.275 OA
ATOM     14  C   LIG d   1       4.525  -0.965  -4.037  0.00  0.00     0.003 A 
ATOM     15  C   LIG d   1       3.351  -0.282  -4.264  0.00  0.00    -0.055 A 
ATOM     16  C   LIG d   1       2.969   0.739  -3.413  0.00  0.00    -0.061 A 
ATOM     17  C   LIG d   1       3.768   1.072  -2.334  0.00  0.00    -0.060 A 
ATOM     18  C   LIG d   1       4.945   0.391  -2.104  0.00  0.00    -0.040 A 
ATOM     19  C   LIG d   1       5.338  -0.638  -2.957  0.00  0.00     0.039 A 
ATOM     20  N   LIG d   1       6.467  -1.460  -2.935  0.00  0.00    -0.283 N 
ATOM     21  C   LIG d   1       6.472  -2.343  -3.952  0.00  0.00     0.243 A 
ATOM     22  O   LIG d   1       7.322  -3.176  -4.184  0.00  0.00    -0.273 OA
ATOM     23  H   LIG d   1       3.410  -3.061  -4.995  0.00  0.00     0.123 HD
ATOM     24  H   LIG d   1       2.729  -0.543  -5.107  0.00  0.00     0.062 H 
ATOM     25  H   LIG d   1       2.048   1.275  -3.590  0.00  0.00     0.062 H 
ATOM     26  H   LIG d   1       3.469   1.869  -1.669  0.00  0.00     0.062 H 
ATOM     27  H   LIG d   1       5.564   0.657  -1.260  0.00  0.00     0.064 H 
ATOM     28  H   LIG d   1       7.166  -1.401  -2.265  0.00  0.00     0.155 HD
ENDROOT
BRANCH   1  29
ATOM     29  C   LIG d   1       2.623  -0.980  -8.423  0.00  0.00     0.049 C 
ATOM     30  H   LIG d   1       2.299  -0.062  -7.932  0.00  0.00     0.052 H 
ATOM     31  H   LIG d   1       1.800  -1.695  -8.437  0.00  0.00     0.052 H 
BRANCH  29  32
ATOM     32  C   LIG d   1       3.044  -0.671  -9.837  0.00  0.00    -0.011 A 
ATOM     33  C   LIG d   1       2.436  -1.321 -10.897  0.00  0.00     0.046 A 
ATOM     34  C   LIG d   1       2.822  -1.036 -12.194  0.00  0.00    -0.043 A 
ATOM     35 CL   LIG d   1       1.190  -2.491 -10.599  0.00  0.00    -0.083 Cl
ATOM     36  C   LIG d   1       3.816  -0.105 -12.432  0.00  0.00    -0.060 A 
ATOM     37  H   LIG d   1       2.349  -1.543 -13.022  0.00  0.00     0.063 H 
ATOM     38  C   LIG d   1       4.421   0.544 -11.372  0.00  0.00    -0.061 A 
ATOM     39  H   LIG d   1       4.116   0.117 -13.444  0.00  0.00     0.062 H 
ATOM     40  C   LIG d   1       4.036   0.261 -10.075  0.00  0.00    -0.056 A 
ATOM     41  H   LIG d   1       5.200   1.270 -11.557  0.00  0.00     0.062 H 
ATOM     42  H   LIG d   1       4.511   0.768  -9.248  0.00  0.00     0.062 H 
ENDBRANCH  29  32
ENDBRANCH   1  29
BRANCH   6  43
ATOM     43  C   LIG d   1       3.918  -5.086  -6.456  0.00  0.00    -0.032 C 
ATOM     44  H   LIG d   1       3.200  -5.339  -5.675  0.00  0.00     0.028 H 
ATOM     45  H   LIG d   1       3.394  -4.621  -7.292  0.00  0.00     0.028 H 
BRANCH  43  46
ATOM     46  C   LIG d   1       4.619  -6.358  -6.935  0.00  0.00    -0.012 C 
ATOM     47  H   LIG d   1       3.909  -6.981  -7.479  0.00  0.00     0.033 H 
ATOM     48  H   LIG d   1       5.446  -6.091  -7.592  0.00  0.00     0.033 H 
BRANCH  46  49
ATOM     49  C   LIG d   1       5.147  -7.119  -5.747  0.00  0.00     0.042 C 
ATOM     50  O   LIG d   1       4.374  -7.681  -4.990  0.00  0.00    -0.550 OA
ATOM     51  O   LIG d   1       6.348  -7.173  -5.542  0.00  0.00    -0.550 OA
ENDBRANCH  46  49
ENDBRANCH  43  46
ENDBRANCH   6  43
TORSDOF 5
ENDMDL
MODEL 2
REMARK VINA RESULT:      -7.8      3.493      7.215
REMARK  5 active torsions:
REMARK  status: ('A' for Active; 'I' for Inactive)
REMARK    1  A    between atoms: C_5  and  C_7 
REMARK    2  A    between atoms: C_7  and  N_8 
REMARK    3  A    between atoms: C_13  and  C_30 
REMARK    4  A    between atoms: C_30  and  C_31 
REMARK    5  A    between atoms: C_31  and  C_32 
ROOT
ATOM      1  N   LIG d   1       7.268  -1.555  -5.245  0.00  0.00    -0.237 N 
ATOM      2  C   LIG d   1       8.469  -1.013  -5.478  0.00  0.00     0.228 A 
ATOM      3  O   LIG d   1       9.314  -0.795  -4.637  0.00  0.00    -0.275 OA
ATOM      4  C   LIG d   1       8.607  -0.715  -6.953  0.00  0.00     0.065 A 
ATOM      5  H   LIG d   1       9.459  -1.223  -7.406  0.00  0.00     0.042 H 
ATOM      6  C   LIG d   1       8.648   0.814  -7.163  0.00  0.00     0.021 C 
ATOM      7  H   LIG d   1       9.182   1.056  -8.083  0.00  0.00     0.047 H 
ATOM      8  N   LIG d   1       7.223   1.224  -7.268  0.00  0.00    -0.295 N 
ATOM      9  C   LIG d   1       6.591   0.136  -8.037  0.00  0.00     0.136 A 
ATOM     10  C   LIG d   1       7.246  -1.177  -7.543  0.00  0.00     0.080 A 
ATOM     11  H   LIG d   1       7.357  -1.924  -8.330  0.00  0.00     0.043 H 
ATOM     12  C   LIG d   1       6.504  -1.700  -6.334  0.00  0.00     0.229 A 
ATOM     13  O   LIG d   1       5.388  -2.174  -6.347  0.00  0.00    -0.275 OA
ATOM     14  C   LIG d   1       5.101   0.120  -7.849  0.00  0.00     0.003 A 
ATOM     15  C   LIG d   1       4.285  -0.018  -6.748  0.00  0.00    -0.055 A 
ATOM     16  C   LIG d   1       2.911   0.011  -6.897  0.00  0.00    -0.061 A 
ATOM     17  C   LIG d   1       2.357   0.178  -8.153  0.00  0.00    -0.060 A 
ATOM     18  C   LIG d   1       3.169   0.315  -9.258  0.00  0.00    -0.040 A 
ATOM     19  C   LIG d   1       4.555   0.286  -9.118  0.00  0.00     0.039 A 
ATOM     20  N   LIG d   1       5.571   0.400 -10.069  0.00  0.00    -0.283 N 
ATOM     21  C   LIG d   1       6.797   0.321  -9.516  0.00  0.00     0.243 A 
ATOM     22  O   LIG d   1       7.859   0.386 -10.097  0.00  0.00    -0.273 OA
ATOM     23  H   LIG d   1       6.803   1.311  -6.354  0.00  0.00     0.123 HD
ATOM     24  H   LIG d   1       4.720  -0.149  -5.767  0.00  0.00     0.062 H 
ATOM     25  H   LIG d   1       2.270  -0.097  -6.033  0.00  0.00     0.062 H 
ATOM     26  H   LIG d   1       1.283   0.201  -8.268  0.00  0.00     0.062 H 
ATOM     27  H   LIG d   1       2.730   0.444 -10.237  0.00  0.00     0.064 H 
ATOM     28  H   LIG d   1       5.412   0.521 -11.019  0.00  0.00     0.155 HD
ENDROOT
BRANCH   1  29
ATOM     29  C   LIG d   1       6.829  -1.963  -3.908  0.00  0.00     0.049 C 
ATOM     30  H   LIG d   1       7.698  -2.075  -3.259  0.00  0.00     0.052 H 
ATOM     31  H   LIG d   1       6.299  -2.913  -3.973  0.00  0.00     0.052 H 
BRANCH  29  32
ATOM     32  C   LIG d   1       5.910  -0.913  -3.339  0.00  0.00    -0.011 A 
ATOM     33  C   LIG d   1       4.644  -1.263  -2.904  0.00  0.00     0.046 A 
ATOM     34  C   LIG d   1       3.802  -0.298  -2.381  0.00  0.00    -0.043 A 
ATOM     35 CL   LIG d   1       4.114  -2.912  -3.014  0.00  0.00    -0.083 Cl
ATOM     36  C   LIG d   1       4.224   1.015  -2.295  0.00  0.00    -0.060 A 
ATOM     37  H   LIG d   1       2.813  -0.571  -2.042  0.00  0.00     0.063 H 
ATOM     38  C   LIG d   1       5.489   1.364  -2.729  0.00  0.00    -0.061 A 
ATOM     39  H   LIG d   1       3.566   1.767  -1.886  0.00  0.00     0.062 H 
ATOM     40  C   LIG d   1       6.332   0.401  -3.251  0.00  0.00    -0.056 A 
ATOM     41  H   LIG d   1       5.817   2.391  -2.664  0.00  0.00     0.062 H 
ATOM     42  H   LIG d   1       7.320   0.675  -3.590  0.00  0.00     0.062 H 
ENDBRANCH  29  32
ENDBRANCH   1  29
BRANCH   6  43
ATOM     43  C   LIG d   1       9.315   1.498  -5.968  0.00  0.00    -0.032 C 
ATOM     44  H   LIG d   1       9.502   0.761  -5.186  0.00  0.00     0.028 H 
ATOM     45  H   LIG d   1      10.260   1.941  -6.283  0.00  0.00     0.028 H 
BRANCH  43  46
ATOM     46  C   LIG d   1       8.394   2.593  -5.427  0.00  0.00    -0.012 C 
ATOM     47  H   LIG d   1       8.220   3.338  -6.203  0.00  0.00     0.033 H 
ATOM     48  H   LIG d   1       7.443   2.152  -5.127  0.00  0.00     0.033 H 
BRANCH  46  49
ATOM     49  C   LIG d   1       9.040   3.251  -4.235  0.00  0.00     0.042 C 
ATOM     50  O   LIG d   1       9.491   4.380  -4.332  0.00  0.00    -0.550 OA
ATOM     51  O   LIG d   1       9.112   2.655  -3.174  0.00  0.00    -0.550 OA
ENDBRANCH  46  49
ENDBRANCH  43  46
ENDBRANCH   6  43
TORSDOF 5
ENDMDL
MODEL 3
REMARK VINA RESULT:      -7.7      3.499      5.528
REMARK  5 active torsions:
REMARK  status: ('A' for Active; 'I' for Inactive)
REMARK    1  A    between atoms: C_5  and  C_7 
REMARK    2  A    between atoms: C_7  and  N_8 
REMARK    3  A    between atoms: C_13  and  C_30 
REMARK    4  A    between atoms: C_30  and  C_31 
REMARK    5  A    between atoms: C_31  and  C_32 
ROOT
ATOM      1  N   LIG d   1       5.995  -2.391  -5.929  0.00  0.00    -0.237 N 
ATOM      2  C   LIG d   1       6.643  -3.562  -5.942  0.00  0.00     0.228 A 
ATOM      3  O   LIG d   1       6.146  -4.640  -5.698  0.00  0.00    -0.275 OA
ATOM      4  C   LIG d   1       8.090  -3.331  -6.309  0.00  0.00     0.065 A 
ATOM      5  H   LIG d   1       8.391  -3.882  -7.201  0.00  0.00     0.042 H 
ATOM      6  C   LIG d   1       8.983  -3.643  -5.089  0.00  0.00     0.021 C 
ATOM      7  H   LIG d   1       9.984  -3.928  -5.415  0.00  0.00     0.047 H 
ATOM      8  N   LIG d   1       9.031  -2.374  -4.317  0.00  0.00    -0.295 N 
ATOM      9  C   LIG d   1       9.101  -1.325  -5.351  0.00  0.00     0.136 A 
ATOM     10  C   LIG d   1       8.172  -1.791  -6.499  0.00  0.00     0.080 A 
ATOM     11  H   LIG d   1       8.534  -1.504  -7.487  0.00  0.00     0.043 H 
ATOM     12  C   LIG d   1       6.755  -1.333  -6.234  0.00  0.00     0.229 A 
ATOM     13  O   LIG d   1       6.368  -0.185  -6.286  0.00  0.00    -0.275 OA
ATOM     14  C   LIG d   1       8.686   0.014  -4.808  0.00  0.00     0.003 A 
ATOM     15  C   LIG d   1       7.529   0.486  -4.230  0.00  0.00    -0.055 A 
ATOM     16  C   LIG d   1       7.449   1.804  -3.819  0.00  0.00    -0.061 A 
ATOM     17  C   LIG d   1       8.532   2.647  -3.990  0.00  0.00    -0.060 A 
ATOM     18  C   LIG d   1       9.693   2.178  -4.569  0.00  0.00    -0.040 A 
ATOM     19  C   LIG d   1       9.782   0.852  -4.987  0.00  0.00     0.039 A 
ATOM     20  N   LIG d   1      10.830   0.155  -5.592  0.00  0.00    -0.283 N 
ATOM     21  C   LIG d   1      10.510  -1.130  -5.839  0.00  0.00     0.243 A 
ATOM     22  O   LIG d   1      11.220  -1.967  -6.355  0.00  0.00    -0.273 OA
ATOM     23  H   LIG d   1       8.205  -2.265  -3.747  0.00  0.00     0.123 HD
ATOM     24  H   LIG d   1       6.683  -0.173  -4.099  0.00  0.00     0.062 H 
ATOM     25  H   LIG d   1       6.541   2.175  -3.365  0.00  0.00     0.062 H 
ATOM     26  H   LIG d   1       8.469   3.675  -3.668  0.00  0.00     0.062 H 
ATOM     27  H   LIG d   1      10.535   2.842  -4.700  0.00  0.00     0.064 H 
ATOM     28  H   LIG d   1      11.689   0.551  -5.809  0.00  0.00     0.155 HD
ENDROOT
BRANCH   1  29
ATOM     29  C   LIG d   1       4.569  -2.279  -5.612  0.00  0.00     0.049 C 
ATOM     30  H   LIG d   1       4.138  -3.277  -5.520  0.00  0.00     0.052 H 
ATOM     31  H   LIG d   1       4.061  -1.735  -6.409  0.00  0.00     0.052 H 
BRANCH  29  32
ATOM     32  C   LIG d   1       4.400  -1.538  -4.311  0.00  0.00    -0.011 A 
ATOM     33  C   LIG d   1       3.668  -0.364  -4.274  0.00  0.00     0.046 A 
ATOM     34  C   LIG d   1       3.513   0.315  -3.079  0.00  0.00    -0.043 A 
ATOM     35 CL   LIG d   1       2.945   0.254  -5.725  0.00  0.00    -0.083 Cl
ATOM     36  C   LIG d   1       4.090  -0.177  -1.923  0.00  0.00    -0.060 A 
ATOM     37  H   LIG d   1       2.942   1.231  -3.049  0.00  0.00     0.063 H 
ATOM     38  C   LIG d   1       4.820  -1.350  -1.962  0.00  0.00    -0.061 A 
ATOM     39  H   LIG d   1       3.968   0.353  -0.991  0.00  0.00     0.062 H 
ATOM     40  C   LIG d   1       4.976  -2.030  -3.155  0.00  0.00    -0.056 A 
ATOM     41  H   LIG d   1       5.274  -1.733  -1.059  0.00  0.00     0.062 H 
ATOM     42  H   LIG d   1       5.547  -2.946  -3.183  0.00  0.00     0.062 H 
ENDBRANCH  29  32
ENDBRANCH   1  29
BRANCH   6  43
ATOM     43  C   LIG d   1       8.362  -4.759  -4.247  0.00  0.00    -0.032 C 
ATOM     44  H   LIG d   1       7.782  -4.320  -3.434  0.00  0.00     0.028 H 
ATOM     45  H   LIG d   1       7.708  -5.366  -4.873  0.00  0.00     0.028 H 
BRANCH  43  46
ATOM     46  C   LIG d   1       9.472  -5.637  -3.665  0.00  0.00    -0.012 C 
ATOM     47  H   LIG d   1       9.187  -6.685  -3.750  0.00  0.00     0.033 H 
ATOM     48  H   LIG d   1      10.396  -5.465  -4.216  0.00  0.00     0.033 H 
BRANCH  46  49
ATOM     49  C   LIG d   1       9.679  -5.288  -2.214  0.00  0.00     0.042 C 
ATOM     50  O   LIG d   1       9.556  -4.134  -1.840  0.00  0.00    -0.550 OA
ATOM     51  O   LIG d   1       9.969  -6.160  -1.413  0.00  0.00    -0.550 OA
ENDBRANCH  46  49
ENDBRANCH  43  46
ENDBRANCH   6  43
TORSDOF 5
ENDMDL
MODEL 4
REMARK VINA RESULT:      -7.5      3.695      5.594
REMARK  5 active torsions:
REMARK  status: ('A' for Active; 'I' for Inactive)
REMARK    1  A    between atoms: C_5  and  C_7 
REMARK    2  A    between atoms: C_7  and  N_8 
REMARK    3  A    between atoms: C_13  and  C_30 
REMARK    4  A    between atoms: C_30  and  C_31 
REMARK    5  A    between atoms: C_31  and  C_32 
ROOT
ATOM      1  N   LIG d   1       6.895   0.069  -7.108  0.00  0.00    -0.237 N 
ATOM      2  C   LIG d   1       6.377  -0.720  -8.056  0.00  0.00     0.228 A 
ATOM      3  O   LIG d   1       6.300  -0.442  -9.233  0.00  0.00    -0.275 OA
ATOM      4  C   LIG d   1       5.900  -2.010  -7.430  0.00  0.00     0.065 A 
ATOM      5  H   LIG d   1       6.381  -2.888  -7.861  0.00  0.00     0.042 H 
ATOM      6  C   LIG d   1       4.360  -2.078  -7.509  0.00  0.00     0.021 C 
ATOM      7  H   LIG d   1       4.026  -3.116  -7.502  0.00  0.00     0.047 H 
ATOM      8  N   LIG d   1       3.884  -1.373  -6.289  0.00  0.00    -0.295 N 
ATOM      9  C   LIG d   1       4.840  -1.778  -5.242  0.00  0.00     0.136 A 
ATOM     10  C   LIG d   1       6.230  -1.822  -5.923  0.00  0.00     0.080 A 
ATOM     11  H   LIG d   1       6.876  -2.608  -5.529  0.00  0.00     0.043 H 
ATOM     12  C   LIG d   1       6.872  -0.453  -5.876  0.00  0.00     0.229 A 
ATOM     13  O   LIG d   1       7.295   0.088  -4.878  0.00  0.00    -0.275 OA
ATOM     14  C   LIG d   1       4.820  -0.827  -4.079  0.00  0.00     0.003 A 
ATOM     15  C   LIG d   1       5.063   0.522  -3.953  0.00  0.00    -0.055 A 
ATOM     16  C   LIG d   1       4.961   1.131  -2.715  0.00  0.00    -0.061 A 
ATOM     17  C   LIG d   1       4.615   0.382  -1.605  0.00  0.00    -0.060 A 
ATOM     18  C   LIG d   1       4.372  -0.970  -1.726  0.00  0.00    -0.040 A 
ATOM     19  C   LIG d   1       4.474  -1.591  -2.969  0.00  0.00     0.039 A 
ATOM     20  N   LIG d   1       4.282  -2.924  -3.341  0.00  0.00    -0.283 N 
ATOM     21  C   LIG d   1       4.479  -3.117  -4.660  0.00  0.00     0.243 A 
ATOM     22  O   LIG d   1       4.383  -4.166  -5.260  0.00  0.00    -0.273 OA
ATOM     23  H   LIG d   1       3.896  -0.372  -6.422  0.00  0.00     0.123 HD
ATOM     24  H   LIG d   1       5.334   1.106  -4.820  0.00  0.00     0.062 H 
ATOM     25  H   LIG d   1       5.151   2.190  -2.615  0.00  0.00     0.062 H 
ATOM     26  H   LIG d   1       4.535   0.858  -0.639  0.00  0.00     0.062 H 
ATOM     27  H   LIG d   1       4.103  -1.549  -0.855  0.00  0.00     0.064 H 
ATOM     28  H   LIG d   1       4.035  -3.629  -2.721  0.00  0.00     0.155 HD
ENDROOT
BRANCH   1  29
ATOM     29  C   LIG d   1       7.450   1.394  -7.396  0.00  0.00     0.049 C 
ATOM     30  H   LIG d   1       7.127   2.098  -6.629  0.00  0.00     0.052 H 
ATOM     31  H   LIG d   1       7.099   1.731  -8.371  0.00  0.00     0.052 H 
BRANCH  29  32
ATOM     32  C   LIG d   1       8.955   1.318  -7.404  0.00  0.00    -0.011 A 
ATOM     33  C   LIG d   1       9.689   2.042  -6.481  0.00  0.00     0.046 A 
ATOM     34  C   LIG d   1      11.071   1.970  -6.488  0.00  0.00    -0.043 A 
ATOM     35 CL   LIG d   1       8.877   3.039  -5.316  0.00  0.00    -0.083 Cl
ATOM     36  C   LIG d   1      11.718   1.177  -7.417  0.00  0.00    -0.060 A 
ATOM     37  H   LIG d   1      11.644   2.535  -5.768  0.00  0.00     0.063 H 
ATOM     38  C   LIG d   1      10.983   0.453  -8.337  0.00  0.00    -0.061 A 
ATOM     39  H   LIG d   1      12.796   1.121  -7.421  0.00  0.00     0.062 H 
ATOM     40  C   LIG d   1       9.603   0.523  -8.332  0.00  0.00    -0.056 A 
ATOM     41  H   LIG d   1      11.489  -0.165  -9.065  0.00  0.00     0.062 H 
ATOM     42  H   LIG d   1       9.031  -0.042  -9.052  0.00  0.00     0.062 H 
ENDBRANCH  29  32
ENDBRANCH   1  29
BRANCH   6  43
ATOM     43  C   LIG d   1       3.859  -1.367  -8.767  0.00  0.00    -0.032 C 
ATOM     44  H   LIG d   1       4.642  -0.710  -9.149  0.00  0.00     0.028 H 
ATOM     45  H   LIG d   1       3.606  -2.108  -9.527  0.00  0.00     0.028 H 
BRANCH  43  46
ATOM     46  C   LIG d   1       2.619  -0.539  -8.427  0.00  0.00    -0.012 C 
ATOM     47  H   LIG d   1       1.844  -0.723  -9.171  0.00  0.00     0.033 H 
ATOM     48  H   LIG d   1       2.252  -0.824  -7.441  0.00  0.00     0.033 H 
BRANCH  46  49
ATOM     49  C   LIG d   1       2.977   0.925  -8.426  0.00  0.00     0.042 C 
ATOM     50  O   LIG d   1       2.597   1.645  -9.333  0.00  0.00    -0.550 OA
ATOM     51  O   LIG d   1       3.645   1.389  -7.518  0.00  0.00    -0.550 OA
ENDBRANCH  46  49
ENDBRANCH  43  46
ENDBRANCH   6  43
TORSDOF 5
ENDMDL
MODEL 5
REMARK VINA RESULT:      -7.5      1.927      2.387
REMARK  5 active torsions:
REMARK  status: ('A' for Active; 'I' for Inactive)
REMARK    1  A    between atoms: C_5  and  C_7 
REMARK    2  A    between atoms: C_7  and  N_8 
REMARK    3  A    between atoms: C_13  and  C_30 
REMARK    4  A    between atoms: C_30  and  C_31 
REMARK    5  A    between atoms: C_31  and  C_32 
ROOT
ATOM      1  N   LIG d   1       6.402  -1.125  -8.229  0.00  0.00    -0.237 N 
ATOM      2  C   LIG d   1       7.048  -2.289  -8.089  0.00  0.00     0.228 A 
ATOM      3  O   LIG d   1       7.283  -3.071  -8.985  0.00  0.00    -0.275 OA
ATOM      4  C   LIG d   1       7.436  -2.477  -6.641  0.00  0.00     0.065 A 
ATOM      5  H   LIG d   1       8.511  -2.597  -6.507  0.00  0.00     0.042 H 
ATOM      6  C   LIG d   1       6.628  -3.649  -6.043  0.00  0.00     0.021 C 
ATOM      7  H   LIG d   1       7.170  -4.095  -5.209  0.00  0.00     0.047 H 
ATOM      8  N   LIG d   1       5.360  -3.036  -5.568  0.00  0.00    -0.295 N 
ATOM      9  C   LIG d   1       5.775  -1.735  -5.012  0.00  0.00     0.136 A 
ATOM     10  C   LIG d   1       6.883  -1.198  -5.951  0.00  0.00     0.080 A 
ATOM     11  H   LIG d   1       7.654  -0.633  -5.427  0.00  0.00     0.043 H 
ATOM     12  C   LIG d   1       6.261  -0.428  -7.095  0.00  0.00     0.229 A 
ATOM     13  O   LIG d   1       5.717   0.650  -6.999  0.00  0.00    -0.275 OA
ATOM     14  C   LIG d   1       4.618  -0.781  -4.915  0.00  0.00     0.003 A 
ATOM     15  C   LIG d   1       3.748  -0.248  -5.840  0.00  0.00    -0.055 A 
ATOM     16  C   LIG d   1       2.756   0.626  -5.435  0.00  0.00    -0.061 A 
ATOM     17  C   LIG d   1       2.640   0.964  -4.099  0.00  0.00    -0.060 A 
ATOM     18  C   LIG d   1       3.509   0.434  -3.169  0.00  0.00    -0.040 A 
ATOM     19  C   LIG d   1       4.512  -0.447  -3.569  0.00  0.00     0.039 A 
ATOM     20  N   LIG d   1       5.498  -1.103  -2.829  0.00  0.00    -0.283 N 
ATOM     21  C   LIG d   1       6.282  -1.879  -3.603  0.00  0.00     0.243 A 
ATOM     22  O   LIG d   1       7.215  -2.560  -3.235  0.00  0.00    -0.273 OA
ATOM     23  H   LIG d   1       4.710  -2.912  -6.330  0.00  0.00     0.123 HD
ATOM     24  H   LIG d   1       3.841  -0.513  -6.884  0.00  0.00     0.062 H 
ATOM     25  H   LIG d   1       2.073   1.044  -6.160  0.00  0.00     0.062 H 
ATOM     26  H   LIG d   1       1.864   1.646  -3.782  0.00  0.00     0.062 H 
ATOM     27  H   LIG d   1       3.413   0.703  -2.127  0.00  0.00     0.064 H 
ATOM     28  H   LIG d   1       5.605  -1.011  -1.869  0.00  0.00     0.155 HD
ENDROOT
BRANCH   1  29
ATOM     29  C   LIG d   1       5.898  -0.649  -9.519  0.00  0.00     0.049 C 
ATOM     30  H   LIG d   1       6.308  -1.266 -10.320  0.00  0.00     0.052 H 
ATOM     31  H   LIG d   1       6.200   0.388  -9.668  0.00  0.00     0.052 H 
BRANCH  29  32
ATOM     32  C   LIG d   1       4.394  -0.740  -9.536  0.00  0.00    -0.011 A 
ATOM     33  C   LIG d   1       3.633   0.404  -9.692  0.00  0.00     0.046 A 
ATOM     34  C   LIG d   1       2.252   0.319  -9.708  0.00  0.00    -0.043 A 
ATOM     35 CL   LIG d   1       4.410   1.946  -9.870  0.00  0.00    -0.083 Cl
ATOM     36  C   LIG d   1       1.633  -0.909  -9.566  0.00  0.00    -0.060 A 
ATOM     37  H   LIG d   1       1.657   1.212  -9.830  0.00  0.00     0.063 H 
ATOM     38  C   LIG d   1       2.395  -2.051  -9.410  0.00  0.00    -0.061 A 
ATOM     39  H   LIG d   1       0.556  -0.974  -9.578  0.00  0.00     0.062 H 
ATOM     40  C   LIG d   1       3.774  -1.968  -9.394  0.00  0.00    -0.056 A 
ATOM     41  H   LIG d   1       1.911  -3.011  -9.295  0.00  0.00     0.062 H 
ATOM     42  H   LIG d   1       4.368  -2.862  -9.272  0.00  0.00     0.062 H 
ENDBRANCH  29  32
ENDBRANCH   1  29
BRANCH   6  43
ATOM     43  C   LIG d   1       6.345  -4.702  -7.116  0.00  0.00    -0.032 C 
ATOM     44  H   LIG d   1       6.809  -4.397  -8.055  0.00  0.00     0.028 H 
ATOM     45  H   LIG d   1       6.757  -5.661  -6.802  0.00  0.00     0.028 H 
BRANCH  43  46
ATOM     46  C   LIG d   1       4.834  -4.835  -7.314  0.00  0.00    -0.012 C 
ATOM     47  H   LIG d   1       4.340  -3.932  -6.957  0.00  0.00     0.033 H 
ATOM     48  H   LIG d   1       4.617  -4.973  -8.373  0.00  0.00     0.033 H 
BRANCH  46  49
ATOM     49  C   LIG d   1       4.328  -6.024  -6.539  0.00  0.00     0.042 C 
ATOM     50  O   LIG d   1       4.170  -7.095  -7.100  0.00  0.00    -0.550 OA
ATOM     51  O   LIG d   1       4.078  -5.916  -5.351  0.00  0.00    -0.550 OA
ENDBRANCH  46  49
ENDBRANCH  43  46
ENDBRANCH   6  43
TORSDOF 5
ENDMDL
MODEL 6
REMARK VINA RESULT:      -7.4      4.363      6.785
REMARK  5 active torsions:
REMARK  status: ('A' for Active; 'I' for Inactive)
REMARK    1  A    between atoms: C_5  and  C_7 
REMARK    2  A    between atoms: C_7  and  N_8 
REMARK    3  A    between atoms: C_13  and  C_30 
REMARK    4  A    between atoms: C_30  and  C_31 
REMARK    5  A    between atoms: C_31  and  C_32 
ROOT
ATOM      1  N   LIG d   1       7.870   1.223  -5.916  0.00  0.00    -0.237 N 
ATOM      2  C   LIG d   1       7.591   1.191  -7.225  0.00  0.00     0.228 A 
ATOM      3  O   LIG d   1       7.856   2.067  -8.019  0.00  0.00    -0.275 OA
ATOM      4  C   LIG d   1       6.895  -0.108  -7.558  0.00  0.00     0.065 A 
ATOM      5  H   LIG d   1       7.430  -0.691  -8.309  0.00  0.00     0.042 H 
ATOM      6  C   LIG d   1       5.435   0.184  -7.963  0.00  0.00     0.021 C 
ATOM      7  H   LIG d   1       5.059  -0.603  -8.617  0.00  0.00     0.047 H 
ATOM      8  N   LIG d   1       4.679   0.199  -6.683  0.00  0.00    -0.295 N 
ATOM      9  C   LIG d   1       5.288  -0.886  -5.892  0.00  0.00     0.136 A 
ATOM     10  C   LIG d   1       6.808  -0.832  -6.186  0.00  0.00     0.080 A 
ATOM     11  H   LIG d   1       7.278  -1.815  -6.194  0.00  0.00     0.043 H 
ATOM     12  C   LIG d   1       7.481   0.136  -5.239  0.00  0.00     0.229 A 
ATOM     13  O   LIG d   1       7.641  -0.042  -4.051  0.00  0.00    -0.275 OA
ATOM     14  C   LIG d   1       4.998  -0.731  -4.426  0.00  0.00     0.003 A 
ATOM     15  C   LIG d   1       5.266   0.258  -3.506  0.00  0.00    -0.055 A 
ATOM     16  C   LIG d   1       4.860   0.110  -2.192  0.00  0.00    -0.061 A 
ATOM     17  C   LIG d   1       4.183  -1.032  -1.805  0.00  0.00    -0.060 A 
ATOM     18  C   LIG d   1       3.914  -2.026  -2.723  0.00  0.00    -0.040 A 
ATOM     19  C   LIG d   1       4.321  -1.885  -4.048  0.00  0.00     0.039 A 
ATOM     20  N   LIG d   1       4.170  -2.738  -5.144  0.00  0.00    -0.283 N 
ATOM     21  C   LIG d   1       4.712  -2.225  -6.265  0.00  0.00     0.243 A 
ATOM     22  O   LIG d   1       4.731  -2.741  -7.362  0.00  0.00    -0.273 OA
ATOM     23  H   LIG d   1       4.778   1.087  -6.215  0.00  0.00     0.123 HD
ATOM     24  H   LIG d   1       5.795   1.150  -3.810  0.00  0.00     0.062 H 
ATOM     25  H   LIG d   1       5.069   0.886  -1.470  0.00  0.00     0.062 H 
ATOM     26  H   LIG d   1       3.865  -1.147  -0.780  0.00  0.00     0.062 H 
ATOM     27  H   LIG d   1       3.386  -2.916  -2.413  0.00  0.00     0.064 H 
ATOM     28  H   LIG d   1       3.726  -3.600  -5.101  0.00  0.00     0.155 HD
ENDROOT
BRANCH   1  29
ATOM     29  C   LIG d   1       8.550   2.353  -5.279  0.00  0.00     0.049 C 
ATOM     30  H   LIG d   1       8.384   2.317  -4.202  0.00  0.00     0.052 H 
ATOM     31  H   LIG d   1       8.155   3.288  -5.677  0.00  0.00     0.052 H 
BRANCH  29  32
ATOM     32  C   LIG d   1      10.028   2.273  -5.561  0.00  0.00    -0.011 A 
ATOM     33  C   LIG d   1      10.660   3.301  -6.239  0.00  0.00     0.046 A 
ATOM     34  C   LIG d   1      12.017   3.227  -6.497  0.00  0.00    -0.043 A 
ATOM     35 CL   LIG d   1       9.750   4.682  -6.764  0.00  0.00    -0.083 Cl
ATOM     36  C   LIG d   1      12.742   2.127  -6.079  0.00  0.00    -0.060 A 
ATOM     37  H   LIG d   1      12.511   4.029  -7.026  0.00  0.00     0.063 H 
ATOM     38  C   LIG d   1      12.110   1.101  -5.402  0.00  0.00    -0.061 A 
ATOM     39  H   LIG d   1      13.801   2.070  -6.280  0.00  0.00     0.062 H 
ATOM     40  C   LIG d   1      10.754   1.173  -5.143  0.00  0.00    -0.056 A 
ATOM     41  H   LIG d   1      12.675   0.239  -5.078  0.00  0.00     0.062 H 
ATOM     42  H   LIG d   1      10.262   0.371  -4.614  0.00  0.00     0.062 H 
ENDBRANCH  29  32
ENDBRANCH   1  29
BRANCH   6  43
ATOM     43  C   LIG d   1       5.337   1.543  -8.658  0.00  0.00    -0.032 C 
ATOM     44  H   LIG d   1       5.752   2.314  -8.008  0.00  0.00     0.028 H 
ATOM     45  H   LIG d   1       5.899   1.515  -9.592  0.00  0.00     0.028 H 
BRANCH  43  46
ATOM     46  C   LIG d   1       3.870   1.861  -8.954  0.00  0.00    -0.012 C 
ATOM     47  H   LIG d   1       3.264   1.623  -8.081  0.00  0.00     0.033 H 
ATOM     48  H   LIG d   1       3.768   2.920  -9.191  0.00  0.00     0.033 H 
BRANCH  46  49
ATOM     49  C   LIG d   1       3.404   1.037 -10.127  0.00  0.00     0.042 C 
ATOM     50  O   LIG d   1       2.501   0.230  -9.985  0.00  0.00    -0.550 OA
ATOM     51  O   LIG d   1       3.929   1.178 -11.219  0.00  0.00    -0.550 OA
ENDBRANCH  46  49
ENDBRANCH  43  46
ENDBRANCH   6  43
TORSDOF 5
ENDMDL
MODEL 7
REMARK VINA RESULT:      -7.3      3.139      6.249
REMARK  5 active torsions:
REMARK  status: ('A' for Active; 'I' for Inactive)
REMARK    1  A    between atoms: C_5  and  C_7 
REMARK    2  A    between atoms: C_7  and  N_8 
REMARK    3  A    between atoms: C_13  and  C_30 
REMARK    4  A    between atoms: C_30  and  C_31 
REMARK    5  A    between atoms: C_31  and  C_32 
ROOT
ATOM      1  N   LIG d   1       6.014  -3.036  -7.743  0.00  0.00    -0.237 N 
ATOM      2  C   LIG d   1       6.213  -2.088  -8.666  0.00  0.00     0.228 A 
ATOM      3  O   LIG d   1       7.154  -2.038  -9.427  0.00  0.00    -0.275 OA
ATOM      4  C   LIG d   1       5.082  -1.087  -8.609  0.00  0.00     0.065 A 
ATOM      5  H   LIG d   1       4.551  -0.999  -9.557  0.00  0.00     0.042 H 
ATOM      6  C   LIG d   1       5.623   0.267  -8.104  0.00  0.00     0.021 C 
ATOM      7  H   LIG d   1       4.998   1.084  -8.467  0.00  0.00     0.047 H 
ATOM      8  N   LIG d   1       5.549   0.180  -6.621  0.00  0.00    -0.295 N 
ATOM      9  C   LIG d   1       4.287  -0.539  -6.365  0.00  0.00     0.136 A 
ATOM     10  C   LIG d   1       4.181  -1.627  -7.463  0.00  0.00     0.080 A 
ATOM     11  H   LIG d   1       3.156  -1.815  -7.783  0.00  0.00     0.043 H 
ATOM     12  C   LIG d   1       4.900  -2.881  -7.018  0.00  0.00     0.229 A 
ATOM     13  O   LIG d   1       4.528  -3.626  -6.137  0.00  0.00    -0.275 OA
ATOM     14  C   LIG d   1       4.261  -1.136  -4.987  0.00  0.00     0.003 A 
ATOM     15  C   LIG d   1       5.058  -2.049  -4.333  0.00  0.00    -0.055 A 
ATOM     16  C   LIG d   1       4.773  -2.408  -3.028  0.00  0.00    -0.061 A 
ATOM     17  C   LIG d   1       3.686  -1.848  -2.382  0.00  0.00    -0.060 A 
ATOM     18  C   LIG d   1       2.884  -0.935  -3.033  0.00  0.00    -0.040 A 
ATOM     19  C   LIG d   1       3.164  -0.568  -4.347  0.00  0.00     0.039 A 
ATOM     20  N   LIG d   1       2.511   0.319  -5.205  0.00  0.00    -0.283 N 
ATOM     21  C   LIG d   1       3.107   0.393  -6.411  0.00  0.00     0.243 A 
ATOM     22  O   LIG d   1       2.761   1.077  -7.350  0.00  0.00    -0.273 OA
ATOM     23  H   LIG d   1       6.337  -0.330  -6.249  0.00  0.00     0.123 HD
ATOM     24  H   LIG d   1       5.907  -2.485  -4.840  0.00  0.00     0.062 H 
ATOM     25  H   LIG d   1       5.398  -3.124  -2.515  0.00  0.00     0.062 H 
ATOM     26  H   LIG d   1       3.464  -2.128  -1.363  0.00  0.00     0.062 H 
ATOM     27  H   LIG d   1       2.037  -0.502  -2.522  0.00  0.00     0.064 H 
ATOM     28  H   LIG d   1       1.719   0.824  -4.961  0.00  0.00     0.155 HD
ENDROOT
BRANCH   1  29
ATOM     29  C   LIG d   1       6.936  -4.158  -7.549  0.00  0.00     0.049 C 
ATOM     30  H   LIG d   1       7.611  -4.225  -8.404  0.00  0.00     0.052 H 
ATOM     31  H   LIG d   1       6.369  -5.084  -7.459  0.00  0.00     0.052 H 
BRANCH  29  32
ATOM     32  C   LIG d   1       7.739  -3.936  -6.293  0.00  0.00    -0.011 A 
ATOM     33  C   LIG d   1       7.746  -4.898  -5.298  0.00  0.00     0.046 A 
ATOM     34  C   LIG d   1       8.484  -4.695  -4.146  0.00  0.00    -0.043 A 
ATOM     35 CL   LIG d   1       6.831  -6.360  -5.497  0.00  0.00    -0.083 Cl
ATOM     36  C   LIG d   1       9.212  -3.530  -3.987  0.00  0.00    -0.060 A 
ATOM     37  H   LIG d   1       8.490  -5.445  -3.369  0.00  0.00     0.063 H 
ATOM     38  C   LIG d   1       9.204  -2.570  -4.982  0.00  0.00    -0.061 A 
ATOM     39  H   LIG d   1       9.787  -3.372  -3.088  0.00  0.00     0.062 H 
ATOM     40  C   LIG d   1       8.468  -2.773  -6.134  0.00  0.00    -0.056 A 
ATOM     41  H   LIG d   1       9.770  -1.659  -4.857  0.00  0.00     0.062 H 
ATOM     42  H   LIG d   1       8.463  -2.022  -6.910  0.00  0.00     0.062 H 
ENDBRANCH  29  32
ENDBRANCH   1  29
BRANCH   6  43
ATOM     43  C   LIG d   1       7.071   0.465  -8.556  0.00  0.00    -0.032 C 
ATOM     44  H   LIG d   1       7.736  -0.094  -7.898  0.00  0.00     0.028 H 
ATOM     45  H   LIG d   1       7.185   0.103  -9.579  0.00  0.00     0.028 H 
BRANCH  43  46
ATOM     46  C   LIG d   1       7.425   1.952  -8.498  0.00  0.00    -0.012 C 
ATOM     47  H   LIG d   1       7.843   2.263  -9.455  0.00  0.00     0.033 H 
ATOM     48  H   LIG d   1       6.527   2.531  -8.287  0.00  0.00     0.033 H 
BRANCH  46  49
ATOM     49  C   LIG d   1       8.440   2.184  -7.408  0.00  0.00     0.042 C 
ATOM     50  O   LIG d   1       8.321   1.619  -6.335  0.00  0.00    -0.550 OA
ATOM     51  O   LIG d   1       9.380   2.936  -7.600  0.00  0.00    -0.550 OA
ENDBRANCH  46  49
ENDBRANCH  43  46
ENDBRANCH   6  43
TORSDOF 5
ENDMDL
MODEL 8
REMARK VINA RESULT:      -7.2      3.373      5.383
REMARK  5 active torsions:
REMARK  status: ('A' for Active; 'I' for Inactive)
REMARK    1  A    between atoms: C_5  and  C_7 
REMARK    2  A    between atoms: C_7  and  N_8 
REMARK    3  A    between atoms: C_13  and  C_30 
REMARK    4  A    between atoms: C_30  and  C_31 
REMARK    5  A    between atoms: C_31  and  C_32 
ROOT
ATOM      1  N   LIG d   1       6.851  -1.919  -7.376  0.00  0.00    -0.237 N 
ATOM      2  C   LIG d   1       8.079  -1.395  -7.458  0.00  0.00     0.228 A 
ATOM      3  O   LIG d   1       8.985  -1.834  -8.133  0.00  0.00    -0.275 OA
ATOM      4  C   LIG d   1       8.161  -0.169  -6.578  0.00  0.00     0.065 A 
ATOM      5  H   LIG d   1       8.434   0.729  -7.133  0.00  0.00     0.042 H 
ATOM      6  C   LIG d   1       9.115  -0.451  -5.398  0.00  0.00     0.021 C 
ATOM      7  H   LIG d   1       9.544   0.481  -5.028  0.00  0.00     0.047 H 
ATOM      8  N   LIG d   1       8.259  -1.076  -4.356  0.00  0.00    -0.295 N 
ATOM      9  C   LIG d   1       6.986  -0.338  -4.444  0.00  0.00     0.136 A 
ATOM     10  C   LIG d   1       6.742  -0.080  -5.952  0.00  0.00     0.080 A 
ATOM     11  H   LIG d   1       6.250   0.872  -6.150  0.00  0.00     0.043 H 
ATOM     12  C   LIG d   1       6.017  -1.257  -6.566  0.00  0.00     0.229 A 
ATOM     13  O   LIG d   1       4.862  -1.557  -6.353  0.00  0.00    -0.275 OA
ATOM     14  C   LIG d   1       5.856  -1.109  -3.821  0.00  0.00     0.003 A 
ATOM     15  C   LIG d   1       5.300  -2.344  -4.070  0.00  0.00    -0.055 A 
ATOM     16  C   LIG d   1       4.240  -2.792  -3.304  0.00  0.00    -0.061 A 
ATOM     17  C   LIG d   1       3.738  -1.998  -2.289  0.00  0.00    -0.060 A 
ATOM     18  C   LIG d   1       4.291  -0.759  -2.037  0.00  0.00    -0.040 A 
ATOM     19  C   LIG d   1       5.359  -0.300  -2.805  0.00  0.00     0.039 A 
ATOM     20  N   LIG d   1       6.075   0.898  -2.746  0.00  0.00    -0.283 N 
ATOM     21  C   LIG d   1       7.048   0.954  -3.677  0.00  0.00     0.243 A 
ATOM     22  O   LIG d   1       7.822   1.869  -3.860  0.00  0.00    -0.273 OA
ATOM     23  H   LIG d   1       8.121  -2.058  -4.543  0.00  0.00     0.123 HD
ATOM     24  H   LIG d   1       5.693  -2.963  -4.863  0.00  0.00     0.062 H 
ATOM     25  H   LIG d   1       3.803  -3.761  -3.498  0.00  0.00     0.062 H 
ATOM     26  H   LIG d   1       2.911  -2.349  -1.690  0.00  0.00     0.062 H 
ATOM     27  H   LIG d   1       3.894  -0.144  -1.243  0.00  0.00     0.064 H 
ATOM     28  H   LIG d   1       5.893   1.607  -2.109  0.00  0.00     0.155 HD
ENDROOT
BRANCH   1  29
ATOM     29  C   LIG d   1       6.450  -3.117  -8.119  0.00  0.00     0.049 C 
ATOM     30  H   LIG d   1       7.206  -3.348  -8.871  0.00  0.00     0.052 H 
ATOM     31  H   LIG d   1       5.493  -2.938  -8.608  0.00  0.00     0.052 H 
BRANCH  29  32
ATOM     32  C   LIG d   1       6.319  -4.278  -7.167  0.00  0.00    -0.011 A 
ATOM     33  C   LIG d   1       5.101  -4.919  -7.022  0.00  0.00     0.046 A 
ATOM     34  C   LIG d   1       4.981  -5.985  -6.149  0.00  0.00    -0.043 A 
ATOM     35 CL   LIG d   1       3.725  -4.386  -7.936  0.00  0.00    -0.083 Cl
ATOM     36  C   LIG d   1       6.077  -6.409  -5.420  0.00  0.00    -0.060 A 
ATOM     37  H   LIG d   1       4.031  -6.485  -6.035  0.00  0.00     0.063 H 
ATOM     38  C   LIG d   1       7.293  -5.768  -5.567  0.00  0.00    -0.061 A 
ATOM     39  H   LIG d   1       5.983  -7.241  -4.740  0.00  0.00     0.062 H 
ATOM     40  C   LIG d   1       7.414  -4.703  -6.439  0.00  0.00    -0.056 A 
ATOM     41  H   LIG d   1       8.149  -6.097  -4.996  0.00  0.00     0.062 H 
ATOM     42  H   LIG d   1       8.365  -4.203  -6.553  0.00  0.00     0.062 H 
ENDBRANCH  29  32
ENDBRANCH   1  29
BRANCH   6  43
ATOM     43  C   LIG d   1      10.224  -1.412  -5.828  0.00  0.00    -0.032 C 
ATOM     44  H   LIG d   1      10.025  -1.768  -6.839  0.00  0.00     0.028 H 
ATOM     45  H   LIG d   1      11.183  -0.894  -5.809  0.00  0.00     0.028 H 
BRANCH  43  46
ATOM     46  C   LIG d   1      10.268  -2.602  -4.868  0.00  0.00    -0.012 C 
ATOM     47  H   LIG d   1       9.456  -2.518  -4.147  0.00  0.00     0.033 H 
ATOM     48  H   LIG d   1      10.158  -3.528  -5.432  0.00  0.00     0.033 H 
BRANCH  46  49
ATOM     49  C   LIG d   1      11.587  -2.612  -4.139  0.00  0.00     0.042 C 
ATOM     50  O   LIG d   1      11.940  -3.609  -3.531  0.00  0.00    -0.550 OA
ATOM     51  O   LIG d   1      12.302  -1.625  -4.158  0.00  0.00    -0.550 OA
ENDBRANCH  46  49
ENDBRANCH  43  46
ENDBRANCH   6  43
TORSDOF 5
ENDMDL
MODEL 9
REMARK VINA RESULT:      -7.0      2.892      4.709
REMARK  5 active torsions:
REMARK  status: ('A' for Active; 'I' for Inactive)
REMARK    1  A    between atoms: C_5  and  C_7 
REMARK    2  A    between atoms: C_7  and  N_8 
REMARK    3  A    between atoms: C_13  and  C_30 
REMARK    4  A    between atoms: C_30  and  C_31 
REMARK    5  A    between atoms: C_31  and  C_32 
ROOT
ATOM      1  N   LIG d   1       4.494   0.202  -7.753  0.00  0.00    -0.237 N 
ATOM      2  C   LIG d   1       3.724  -0.227  -6.746  0.00  0.00     0.228 A 
ATOM      3  O   LIG d   1       2.554   0.049  -6.592  0.00  0.00    -0.275 OA
ATOM      4  C   LIG d   1       4.542  -1.106  -5.828  0.00  0.00     0.065 A 
ATOM      5  H   LIG d   1       4.125  -2.109  -5.727  0.00  0.00     0.042 H 
ATOM      6  C   LIG d   1       4.722  -0.398  -4.469  0.00  0.00     0.021 C 
ATOM      7  H   LIG d   1       4.884  -1.132  -3.678  0.00  0.00     0.047 H 
ATOM      8  N   LIG d   1       5.929   0.454  -4.639  0.00  0.00    -0.295 N 
ATOM      9  C   LIG d   1       6.840  -0.370  -5.454  0.00  0.00     0.136 A 
ATOM     10  C   LIG d   1       5.949  -1.103  -6.487  0.00  0.00     0.080 A 
ATOM     11  H   LIG d   1       6.307  -2.105  -6.728  0.00  0.00     0.043 H 
ATOM     12  C   LIG d   1       5.758  -0.235  -7.711  0.00  0.00     0.229 A 
ATOM     13  O   LIG d   1       6.616   0.026  -8.526  0.00  0.00    -0.275 OA
ATOM     14  C   LIG d   1       7.893   0.468  -6.123  0.00  0.00     0.003 A 
ATOM     15  C   LIG d   1       7.846   1.518  -7.013  0.00  0.00    -0.055 A 
ATOM     16  C   LIG d   1       9.019   2.100  -7.459  0.00  0.00    -0.061 A 
ATOM     17  C   LIG d   1      10.238   1.626  -7.009  0.00  0.00    -0.060 A 
ATOM     18  C   LIG d   1      10.290   0.574  -6.118  0.00  0.00    -0.040 A 
ATOM     19  C   LIG d   1       9.113  -0.019  -5.665  0.00  0.00     0.039 A 
ATOM     20  N   LIG d   1       8.909  -1.080  -4.780  0.00  0.00    -0.283 N 
ATOM     21  C   LIG d   1       7.601  -1.349  -4.603  0.00  0.00     0.243 A 
ATOM     22  O   LIG d   1       7.129  -2.213  -3.896  0.00  0.00    -0.273 OA
ATOM     23  H   LIG d   1       5.699   1.316  -5.113  0.00  0.00     0.123 HD
ATOM     24  H   LIG d   1       6.893   1.886  -7.364  0.00  0.00     0.062 H 
ATOM     25  H   LIG d   1       8.983   2.924  -8.156  0.00  0.00     0.062 H 
ATOM     26  H   LIG d   1      11.153   2.082  -7.356  0.00  0.00     0.062 H 
ATOM     27  H   LIG d   1      11.245   0.209  -5.772  0.00  0.00     0.064 H 
ATOM     28  H   LIG d   1       9.626  -1.566  -4.343  0.00  0.00     0.155 HD
ENDROOT
BRANCH   1  29
ATOM     29  C   LIG d   1       3.991   1.074  -8.818  0.00  0.00     0.049 C 
ATOM     30  H   LIG d   1       4.830   1.573  -9.305  0.00  0.00     0.052 H 
ATOM     31  H   LIG d   1       3.321   1.820  -8.392  0.00  0.00     0.052 H 
BRANCH  29  32
ATOM     32  C   LIG d   1       3.243   0.247  -9.832  0.00  0.00    -0.011 A 
ATOM     33  C   LIG d   1       3.876  -0.166 -10.990  0.00  0.00     0.046 A 
ATOM     34  C   LIG d   1       3.188  -0.925 -11.920  0.00  0.00    -0.043 A 
ATOM     35 CL   LIG d   1       5.532   0.267 -11.277  0.00  0.00    -0.083 Cl
ATOM     36  C   LIG d   1       1.869  -1.270 -11.692  0.00  0.00    -0.060 A 
ATOM     37  H   LIG d   1       3.682  -1.248 -12.825  0.00  0.00     0.063 H 
ATOM     38  C   LIG d   1       1.238  -0.857 -10.534  0.00  0.00    -0.061 A 
ATOM     39  H   LIG d   1       1.333  -1.863 -12.418  0.00  0.00     0.062 H 
ATOM     40  C   LIG d   1       1.923  -0.098  -9.604  0.00  0.00    -0.056 A 
ATOM     41  H   LIG d   1       0.205  -1.123 -10.358  0.00  0.00     0.062 H 
ATOM     42  H   LIG d   1       1.429   0.224  -8.700  0.00  0.00     0.062 H 
ENDBRANCH  29  32
ENDBRANCH   1  29
BRANCH   6  43
ATOM     43  C   LIG d   1       3.499   0.463  -4.150  0.00  0.00    -0.032 C 
ATOM     44  H   LIG d   1       3.760   1.517  -4.253  0.00  0.00     0.028 H 
ATOM     45  H   LIG d   1       2.693   0.221  -4.843  0.00  0.00     0.028 H 
BRANCH  43  46
ATOM     46  C   LIG d   1       3.041   0.189  -2.717  0.00  0.00    -0.012 C 
ATOM     47  H   LIG d   1       2.396   1.000  -2.380  0.00  0.00     0.033 H 
ATOM     48  H   LIG d   1       2.490  -0.751  -2.685  0.00  0.00     0.033 H 
BRANCH  46  49
ATOM     49  C   LIG d   1       4.244   0.096  -1.814  0.00  0.00     0.042 C 
ATOM     50  O   LIG d   1       4.569  -0.979  -1.341  0.00  0.00    -0.550 OA
ATOM     51  O   LIG d   1       4.893   1.096  -1.557  0.00  0.00    -0.550 OA
ENDBRANCH  46  49
ENDBRANCH  43  46
ENDBRANCH   6  43
TORSDOF 5
ENDMDL
