MODEL 1
REMARK VINA RESULT:      -7.1      0.000      0.000
REMARK  2 active torsions:
REMARK  status: ('A' for Active; 'I' for Inactive)
REMARK    1  A    between atoms: C_8  and  C_14 
REMARK    2  A    between atoms: C_11  and  O_13 
ROOT
ATOM      1  C   LIG d   1       4.943  -1.965  -2.959  0.00  0.00    -0.061 A 
ATOM      2  C   LIG d   1       4.301  -1.062  -2.133  0.00  0.00    -0.061 A 
ATOM      3  C   LIG d   1       3.531  -0.055  -2.679  0.00  0.00    -0.053 A 
ATOM      4  C   LIG d   1       3.398   0.056  -4.055  0.00  0.00     0.011 A 
ATOM      5  C   LIG d   1       4.041  -0.844  -4.880  0.00  0.00    -0.037 A 
ATOM      6  C   LIG d   1       4.812  -1.855  -4.330  0.00  0.00    -0.058 A 
ATOM      7  C   LIG d   1       3.931  -0.749  -6.380  0.00  0.00    -0.001 C 
ATOM      8  C   LIG d   1       2.742   0.136  -6.757  0.00  0.00     0.069 C 
ATOM      9  H   LIG d   1       1.810  -0.380  -6.524  0.00  0.00     0.060 H 
ATOM     10  O   LIG d   1       2.822   1.350  -6.002  0.00  0.00    -0.344 OA
ATOM     11  C   LIG d   1       2.547   1.166  -4.614  0.00  0.00     0.183 C 
ATOM     12  H   LIG d   1       1.494   0.914  -4.484  0.00  0.00     0.096 H 
ATOM     13  H   LIG d   1       5.545  -2.755  -2.534  0.00  0.00     0.062 H 
ATOM     14  H   LIG d   1       4.401  -1.144  -1.061  0.00  0.00     0.062 H 
ATOM     15  H   LIG d   1       3.030   0.650  -2.033  0.00  0.00     0.062 H 
ATOM     16  H   LIG d   1       5.313  -2.561  -4.975  0.00  0.00     0.062 H 
ATOM     17  H   LIG d   1       3.788  -1.745  -6.797  0.00  0.00     0.034 H 
ATOM     18  H   LIG d   1       4.847  -0.316  -6.784  0.00  0.00     0.034 H 
ENDROOT
BRANCH   8  19
ATOM     19  C   LIG d   1       2.792   0.456  -8.252  0.00  0.00    -0.014 C 
ATOM     20  C   LIG d   1       3.531  -0.662  -8.989  0.00  0.00    -0.048 C 
ATOM     21  C   LIG d   1       3.581  -0.341 -10.485  0.00  0.00    -0.053 C 
ATOM     22  H   LIG d   1       3.007  -1.605  -8.837  0.00  0.00     0.027 H 
ATOM     23  H   LIG d   1       4.546  -0.744  -8.601  0.00  0.00     0.027 H 
ATOM     24  C   LIG d   1       4.317   0.984 -10.697  0.00  0.00    -0.053 C 
ATOM     25  H   LIG d   1       2.566  -0.259 -10.872  0.00  0.00     0.026 H 
ATOM     26  H   LIG d   1       4.108  -1.138 -11.010  0.00  0.00     0.026 H 
ATOM     27  C   LIG d   1       3.578   2.103  -9.960  0.00  0.00    -0.053 C 
ATOM     28  H   LIG d   1       4.352   1.212 -11.762  0.00  0.00     0.026 H 
ATOM     29  H   LIG d   1       5.332   0.902 -10.309  0.00  0.00     0.026 H 
ATOM     30  C   LIG d   1       3.527   1.780  -8.465  0.00  0.00    -0.048 C 
ATOM     31  H   LIG d   1       4.102   3.046 -10.112  0.00  0.00     0.026 H 
ATOM     32  H   LIG d   1       2.562   2.184 -10.349  0.00  0.00     0.026 H 
ATOM     33  H   LIG d   1       4.542   1.699  -8.077  0.00  0.00     0.027 H 
ATOM     34  H   LIG d   1       3.000   2.577  -7.940  0.00  0.00     0.027 H 
ATOM     35  H   LIG d   1       1.776   0.538  -8.640  0.00  0.00     0.033 H 
ENDBRANCH   8  19
BRANCH  11  36
ATOM     36  O   LIG d   1       2.832   2.377  -3.910  0.00  0.00    -0.363 OA
ATOM     37  H   LIG d   1       3.047   3.124  -4.485  0.00  0.00     0.213 HD
ENDBRANCH  11  36
TORSDOF 2
ENDMDL
MODEL 2
REMARK VINA RESULT:      -6.9      1.653      6.147
REMARK  2 active torsions:
REMARK  status: ('A' for Active; 'I' for Inactive)
REMARK    1  A    between atoms: C_8  and  C_14 
REMARK    2  A    between atoms: C_11  and  O_13 
ROOT
ATOM      1  C   LIG d   1       2.961   1.062 -10.290  0.00  0.00    -0.061 A 
ATOM      2  C   LIG d   1       4.306   1.157 -10.595  0.00  0.00    -0.061 A 
ATOM      3  C   LIG d   1       5.252   0.907  -9.622  0.00  0.00    -0.053 A 
ATOM      4  C   LIG d   1       4.860   0.562  -8.338  0.00  0.00     0.011 A 
ATOM      5  C   LIG d   1       3.518   0.470  -8.033  0.00  0.00    -0.037 A 
ATOM      6  C   LIG d   1       2.570   0.718  -9.011  0.00  0.00    -0.058 A 
ATOM      7  C   LIG d   1       3.053   0.109  -6.645  0.00  0.00    -0.001 C 
ATOM      8  C   LIG d   1       4.206  -0.517  -5.859  0.00  0.00     0.069 C 
ATOM      9  H   LIG d   1       4.428  -1.508  -6.256  0.00  0.00     0.060 H 
ATOM     10  O   LIG d   1       5.356   0.324  -5.994  0.00  0.00    -0.344 OA
ATOM     11  C   LIG d   1       5.923   0.295  -7.303  0.00  0.00     0.183 C 
ATOM     12  H   LIG d   1       6.363  -0.686  -7.484  0.00  0.00     0.096 H 
ATOM     13  H   LIG d   1       2.218   1.254 -11.050  0.00  0.00     0.062 H 
ATOM     14  H   LIG d   1       4.616   1.426 -11.594  0.00  0.00     0.062 H 
ATOM     15  H   LIG d   1       6.303   0.982  -9.862  0.00  0.00     0.062 H 
ATOM     16  H   LIG d   1       1.519   0.644  -8.773  0.00  0.00     0.062 H 
ATOM     17  H   LIG d   1       2.231  -0.603  -6.712  0.00  0.00     0.034 H 
ATOM     18  H   LIG d   1       2.711   1.008  -6.132  0.00  0.00     0.034 H 
ENDROOT
BRANCH   8  19
ATOM     19  C   LIG d   1       3.821  -0.629  -4.382  0.00  0.00    -0.014 C 
ATOM     20  C   LIG d   1       4.570   0.434  -3.578  0.00  0.00    -0.048 C 
ATOM     21  C   LIG d   1       4.185   0.322  -2.101  0.00  0.00    -0.053 C 
ATOM     22  H   LIG d   1       4.305   1.424  -3.949  0.00  0.00     0.027 H 
ATOM     23  H   LIG d   1       5.644   0.282  -3.686  0.00  0.00     0.027 H 
ATOM     24  C   LIG d   1       4.558  -1.068  -1.581  0.00  0.00    -0.053 C 
ATOM     25  H   LIG d   1       3.112   0.474  -1.993  0.00  0.00     0.026 H 
ATOM     26  H   LIG d   1       4.720   1.080  -1.528  0.00  0.00     0.026 H 
ATOM     27  C   LIG d   1       3.808  -2.132  -2.386  0.00  0.00    -0.053 C 
ATOM     28  H   LIG d   1       4.284  -1.148  -0.530  0.00  0.00     0.026 H 
ATOM     29  H   LIG d   1       5.632  -1.221  -1.689  0.00  0.00     0.026 H 
ATOM     30  C   LIG d   1       4.193  -2.019  -3.863  0.00  0.00    -0.048 C 
ATOM     31  H   LIG d   1       4.074  -3.122  -2.015  0.00  0.00     0.026 H 
ATOM     32  H   LIG d   1       2.735  -1.979  -2.277  0.00  0.00     0.026 H 
ATOM     33  H   LIG d   1       5.267  -2.172  -3.971  0.00  0.00     0.027 H 
ATOM     34  H   LIG d   1       3.659  -2.777  -4.436  0.00  0.00     0.027 H 
ATOM     35  H   LIG d   1       2.747  -0.477  -4.275  0.00  0.00     0.033 H 
ENDBRANCH   8  19
BRANCH  11  36
ATOM     36  O   LIG d   1       6.938   1.295  -7.403  0.00  0.00    -0.363 OA
ATOM     37  H   LIG d   1       7.519   1.191  -8.170  0.00  0.00     0.213 HD
ENDBRANCH  11  36
TORSDOF 2
ENDMDL
MODEL 3
REMARK VINA RESULT:      -6.8      2.166      3.163
REMARK  2 active torsions:
REMARK  status: ('A' for Active; 'I' for Inactive)
REMARK    1  A    between atoms: C_8  and  C_14 
REMARK    2  A    between atoms: C_11  and  O_13 
ROOT
ATOM      1  C   LIG d   1       3.707   0.661  -2.226  0.00  0.00    -0.061 A 
ATOM      2  C   LIG d   1       4.371  -0.459  -1.762  0.00  0.00    -0.061 A 
ATOM      3  C   LIG d   1       4.735  -1.457  -2.642  0.00  0.00    -0.053 A 
ATOM      4  C   LIG d   1       4.437  -1.343  -3.991  0.00  0.00     0.011 A 
ATOM      5  C   LIG d   1       3.772  -0.227  -4.454  0.00  0.00    -0.037 A 
ATOM      6  C   LIG d   1       3.409   0.776  -3.570  0.00  0.00    -0.058 A 
ATOM      7  C   LIG d   1       3.420  -0.072  -5.912  0.00  0.00    -0.001 C 
ATOM      8  C   LIG d   1       4.250  -1.044  -6.751  0.00  0.00     0.069 C 
ATOM      9  H   LIG d   1       5.292  -0.724  -6.765  0.00  0.00     0.060 H 
ATOM     10  O   LIG d   1       4.156  -2.346  -6.162  0.00  0.00    -0.344 OA
ATOM     11  C   LIG d   1       4.853  -2.453  -4.922  0.00  0.00     0.183 C 
ATOM     12  H   LIG d   1       5.927  -2.387  -5.103  0.00  0.00     0.096 H 
ATOM     13  H   LIG d   1       3.422   1.446  -1.540  0.00  0.00     0.062 H 
ATOM     14  H   LIG d   1       4.605  -0.552  -0.711  0.00  0.00     0.062 H 
ATOM     15  H   LIG d   1       5.254  -2.332  -2.278  0.00  0.00     0.062 H 
ATOM     16  H   LIG d   1       2.891   1.651  -3.932  0.00  0.00     0.062 H 
ATOM     17  H   LIG d   1       3.629   0.950  -6.228  0.00  0.00     0.034 H 
ATOM     18  H   LIG d   1       2.361  -0.285  -6.053  0.00  0.00     0.034 H 
ENDROOT
BRANCH   8  19
ATOM     19  C   LIG d   1       3.706  -1.086  -8.180  0.00  0.00    -0.014 C 
ATOM     20  C   LIG d   1       2.404  -0.286  -8.253  0.00  0.00    -0.048 C 
ATOM     21  C   LIG d   1       1.859  -0.328  -9.683  0.00  0.00    -0.053 C 
ATOM     22  H   LIG d   1       2.597   0.748  -7.968  0.00  0.00     0.027 H 
ATOM     23  H   LIG d   1       1.672  -0.721  -7.572  0.00  0.00     0.027 H 
ATOM     24  C   LIG d   1       1.589  -1.780 -10.083  0.00  0.00    -0.053 C 
ATOM     25  H   LIG d   1       2.591   0.106 -10.363  0.00  0.00     0.026 H 
ATOM     26  H   LIG d   1       0.932   0.242  -9.735  0.00  0.00     0.026 H 
ATOM     27  C   LIG d   1       2.892  -2.581 -10.010  0.00  0.00    -0.053 C 
ATOM     28  H   LIG d   1       1.202  -1.810 -11.101  0.00  0.00     0.026 H 
ATOM     29  H   LIG d   1       0.857  -2.215  -9.402  0.00  0.00     0.026 H 
ATOM     30  C   LIG d   1       3.436  -2.537  -8.580  0.00  0.00    -0.048 C 
ATOM     31  H   LIG d   1       2.699  -3.615 -10.295  0.00  0.00     0.026 H 
ATOM     32  H   LIG d   1       3.623  -2.146 -10.690  0.00  0.00     0.026 H 
ATOM     33  H   LIG d   1       2.704  -2.972  -7.900  0.00  0.00     0.027 H 
ATOM     34  H   LIG d   1       4.364  -3.107  -8.528  0.00  0.00     0.027 H 
ATOM     35  H   LIG d   1       4.438  -0.651  -8.860  0.00  0.00     0.033 H 
ENDBRANCH   8  19
BRANCH  11  36
ATOM     36  O   LIG d   1       4.553  -3.712  -4.316  0.00  0.00    -0.363 OA
ATOM     37  H   LIG d   1       3.840  -4.198  -4.752  0.00  0.00     0.213 HD
ENDBRANCH  11  36
TORSDOF 2
ENDMDL
MODEL 4
REMARK VINA RESULT:      -6.4      3.820      6.203
REMARK  2 active torsions:
REMARK  status: ('A' for Active; 'I' for Inactive)
REMARK    1  A    between atoms: C_8  and  C_14 
REMARK    2  A    between atoms: C_11  and  O_13 
ROOT
ATOM      1  C   LIG d   1       8.977  -4.998  -5.280  0.00  0.00    -0.061 A 
ATOM      2  C   LIG d   1       8.207  -5.962  -5.904  0.00  0.00    -0.061 A 
ATOM      3  C   LIG d   1       6.834  -5.830  -5.938  0.00  0.00    -0.053 A 
ATOM      4  C   LIG d   1       6.221  -4.736  -5.348  0.00  0.00     0.011 A 
ATOM      5  C   LIG d   1       6.989  -3.775  -4.722  0.00  0.00    -0.037 A 
ATOM      6  C   LIG d   1       8.368  -3.907  -4.692  0.00  0.00    -0.058 A 
ATOM      7  C   LIG d   1       6.359  -2.577  -4.059  0.00  0.00    -0.001 C 
ATOM      8  C   LIG d   1       4.923  -2.406  -4.556  0.00  0.00     0.069 C 
ATOM      9  H   LIG d   1       4.928  -2.076  -5.594  0.00  0.00     0.060 H 
ATOM     10  O   LIG d   1       4.255  -3.669  -4.456  0.00  0.00    -0.344 OA
ATOM     11  C   LIG d   1       4.719  -4.626  -5.408  0.00  0.00     0.183 C 
ATOM     12  H   LIG d   1       4.421  -4.314  -6.409  0.00  0.00     0.096 H 
ATOM     13  H   LIG d   1      10.052  -5.097  -5.254  0.00  0.00     0.062 H 
ATOM     14  H   LIG d   1       8.680  -6.817  -6.365  0.00  0.00     0.062 H 
ATOM     15  H   LIG d   1       6.233  -6.584  -6.425  0.00  0.00     0.062 H 
ATOM     16  H   LIG d   1       8.969  -3.154  -4.204  0.00  0.00     0.062 H 
ATOM     17  H   LIG d   1       6.935  -1.684  -4.301  0.00  0.00     0.034 H 
ATOM     18  H   LIG d   1       6.354  -2.722  -2.979  0.00  0.00     0.034 H 
ENDROOT
BRANCH   8  19
ATOM     19  C   LIG d   1       4.199  -1.372  -3.691  0.00  0.00    -0.014 C 
ATOM     20  C   LIG d   1       3.789  -0.180  -4.557  0.00  0.00    -0.048 C 
ATOM     21  C   LIG d   1       3.064   0.854  -3.691  0.00  0.00    -0.053 C 
ATOM     22  H   LIG d   1       3.123  -0.519  -5.351  0.00  0.00     0.027 H 
ATOM     23  H   LIG d   1       4.678   0.273  -4.996  0.00  0.00     0.027 H 
ATOM     24  C   LIG d   1       3.999   1.330  -2.576  0.00  0.00    -0.053 C 
ATOM     25  H   LIG d   1       2.176   0.401  -3.251  0.00  0.00     0.026 H 
ATOM     26  H   LIG d   1       2.772   1.703  -4.308  0.00  0.00     0.026 H 
ATOM     27  C   LIG d   1       4.409   0.137  -1.710  0.00  0.00    -0.053 C 
ATOM     28  H   LIG d   1       3.483   2.065  -1.960  0.00  0.00     0.026 H 
ATOM     29  H   LIG d   1       4.888   1.783  -3.016  0.00  0.00     0.026 H 
ATOM     30  C   LIG d   1       5.132  -0.897  -2.577  0.00  0.00    -0.048 C 
ATOM     31  H   LIG d   1       5.074   0.476  -0.916  0.00  0.00     0.026 H 
ATOM     32  H   LIG d   1       3.520  -0.316  -1.271  0.00  0.00     0.026 H 
ATOM     33  H   LIG d   1       6.021  -0.444  -3.015  0.00  0.00     0.027 H 
ATOM     34  H   LIG d   1       5.424  -1.747  -1.959  0.00  0.00     0.027 H 
ATOM     35  H   LIG d   1       3.310  -1.826  -3.252  0.00  0.00     0.033 H 
ENDBRANCH   8  19
BRANCH  11  36
ATOM     36  O   LIG d   1       4.143  -5.900  -5.118  0.00  0.00    -0.363 OA
ATOM     37  H   LIG d   1       3.861  -6.392  -5.902  0.00  0.00     0.213 HD
ENDBRANCH  11  36
TORSDOF 2
ENDMDL
MODEL 5
REMARK VINA RESULT:      -6.3      2.841      5.127
REMARK  2 active torsions:
REMARK  status: ('A' for Active; 'I' for Inactive)
REMARK    1  A    between atoms: C_8  and  C_14 
REMARK    2  A    between atoms: C_11  and  O_13 
ROOT
ATOM      1  C   LIG d   1       4.372   0.591  -1.609  0.00  0.00    -0.061 A 
ATOM      2  C   LIG d   1       3.621   1.365  -2.472  0.00  0.00    -0.061 A 
ATOM      3  C   LIG d   1       3.415   0.946  -3.771  0.00  0.00    -0.053 A 
ATOM      4  C   LIG d   1       3.959  -0.249  -4.215  0.00  0.00     0.011 A 
ATOM      5  C   LIG d   1       4.712  -1.021  -3.355  0.00  0.00    -0.037 A 
ATOM      6  C   LIG d   1       4.916  -0.600  -2.050  0.00  0.00    -0.058 A 
ATOM      7  C   LIG d   1       5.331  -2.320  -3.804  0.00  0.00    -0.001 C 
ATOM      8  C   LIG d   1       4.659  -2.795  -5.093  0.00  0.00     0.069 C 
ATOM      9  H   LIG d   1       3.642  -3.124  -4.880  0.00  0.00     0.060 H 
ATOM     10  O   LIG d   1       4.627  -1.701  -6.017  0.00  0.00    -0.344 OA
ATOM     11  C   LIG d   1       3.710  -0.675  -5.639  0.00  0.00     0.183 C 
ATOM     12  H   LIG d   1       2.690  -1.049  -5.730  0.00  0.00     0.096 H 
ATOM     13  H   LIG d   1       4.534   0.915  -0.591  0.00  0.00     0.062 H 
ATOM     14  H   LIG d   1       3.195   2.297  -2.131  0.00  0.00     0.062 H 
ATOM     15  H   LIG d   1       2.827   1.552  -4.445  0.00  0.00     0.062 H 
ATOM     16  H   LIG d   1       5.503  -1.205  -1.376  0.00  0.00     0.062 H 
ATOM     17  H   LIG d   1       5.196  -3.073  -3.027  0.00  0.00     0.034 H 
ATOM     18  H   LIG d   1       6.395  -2.172  -3.983  0.00  0.00     0.034 H 
ENDROOT
BRANCH   8  19
ATOM     19  C   LIG d   1       5.459  -3.951  -5.695  0.00  0.00    -0.014 C 
ATOM     20  C   LIG d   1       4.724  -5.267  -5.439  0.00  0.00    -0.048 C 
ATOM     21  C   LIG d   1       5.525  -6.425  -6.041  0.00  0.00    -0.053 C 
ATOM     22  H   LIG d   1       3.738  -5.229  -5.902  0.00  0.00     0.027 H 
ATOM     23  H   LIG d   1       4.615  -5.421  -4.365  0.00  0.00     0.027 H 
ATOM     24  C   LIG d   1       6.909  -6.479  -5.391  0.00  0.00    -0.053 C 
ATOM     25  H   LIG d   1       5.634  -6.271  -7.114  0.00  0.00     0.026 H 
ATOM     26  H   LIG d   1       5.001  -7.363  -5.859  0.00  0.00     0.026 H 
ATOM     27  C   LIG d   1       7.645  -5.162  -5.646  0.00  0.00    -0.053 C 
ATOM     28  H   LIG d   1       7.479  -7.302  -5.819  0.00  0.00     0.026 H 
ATOM     29  H   LIG d   1       6.801  -6.633  -4.317  0.00  0.00     0.026 H 
ATOM     30  C   LIG d   1       6.843  -4.006  -5.045  0.00  0.00    -0.048 C 
ATOM     31  H   LIG d   1       8.631  -5.201  -5.183  0.00  0.00     0.026 H 
ATOM     32  H   LIG d   1       7.753  -5.009  -6.720  0.00  0.00     0.026 H 
ATOM     33  H   LIG d   1       6.735  -4.158  -3.971  0.00  0.00     0.027 H 
ATOM     34  H   LIG d   1       7.368  -3.067  -5.227  0.00  0.00     0.027 H 
ATOM     35  H   LIG d   1       5.568  -3.798  -6.768  0.00  0.00     0.033 H 
ENDBRANCH   8  19
BRANCH  11  36
ATOM     36  O   LIG d   1       3.878   0.452  -6.502  0.00  0.00    -0.363 OA
ATOM     37  H   LIG d   1       4.608   1.034  -6.252  0.00  0.00     0.213 HD
ENDBRANCH  11  36
TORSDOF 2
ENDMDL
MODEL 6
REMARK VINA RESULT:      -6.1      1.324      5.785
REMARK  2 active torsions:
REMARK  status: ('A' for Active; 'I' for Inactive)
REMARK    1  A    between atoms: C_8  and  C_14 
REMARK    2  A    between atoms: C_11  and  O_13 
ROOT
ATOM      1  C   LIG d   1       2.691  -2.107 -10.860  0.00  0.00    -0.061 A 
ATOM      2  C   LIG d   1       2.643  -0.815 -11.346  0.00  0.00    -0.061 A 
ATOM      3  C   LIG d   1       2.922   0.247 -10.509  0.00  0.00    -0.053 A 
ATOM      4  C   LIG d   1       3.249   0.022  -9.181  0.00  0.00     0.011 A 
ATOM      5  C   LIG d   1       3.293  -1.268  -8.694  0.00  0.00    -0.037 A 
ATOM      6  C   LIG d   1       3.015  -2.332  -9.536  0.00  0.00    -0.058 A 
ATOM      7  C   LIG d   1       3.632  -1.551  -7.253  0.00  0.00    -0.001 C 
ATOM      8  C   LIG d   1       4.295  -0.324  -6.626  0.00  0.00     0.069 C 
ATOM      9  H   LIG d   1       5.294  -0.192  -7.041  0.00  0.00     0.060 H 
ATOM     10  O   LIG d   1       3.495   0.826  -6.924  0.00  0.00    -0.344 OA
ATOM     11  C   LIG d   1       3.549   1.206  -8.298  0.00  0.00     0.183 C 
ATOM     12  H   LIG d   1       4.545   1.584  -8.530  0.00  0.00     0.096 H 
ATOM     13  H   LIG d   1       2.475  -2.941 -11.513  0.00  0.00     0.062 H 
ATOM     14  H   LIG d   1       2.389  -0.635 -12.381  0.00  0.00     0.062 H 
ATOM     15  H   LIG d   1       2.885   1.256 -10.890  0.00  0.00     0.062 H 
ATOM     16  H   LIG d   1       3.052  -3.342  -9.156  0.00  0.00     0.062 H 
ATOM     17  H   LIG d   1       4.315  -2.398  -7.201  0.00  0.00     0.034 H 
ATOM     18  H   LIG d   1       2.720  -1.789  -6.706  0.00  0.00     0.034 H 
ENDROOT
BRANCH   8  19
ATOM     19  C   LIG d   1       4.388  -0.507  -5.110  0.00  0.00    -0.014 C 
ATOM     20  C   LIG d   1       4.593  -1.987  -4.787  0.00  0.00    -0.048 C 
ATOM     21  C   LIG d   1       4.685  -2.170  -3.270  0.00  0.00    -0.053 C 
ATOM     22  H   LIG d   1       5.515  -2.336  -5.251  0.00  0.00     0.027 H 
ATOM     23  H   LIG d   1       3.751  -2.563  -5.171  0.00  0.00     0.027 H 
ATOM     24  C   LIG d   1       3.391  -1.679  -2.617  0.00  0.00    -0.053 C 
ATOM     25  H   LIG d   1       5.526  -1.593  -2.885  0.00  0.00     0.026 H 
ATOM     26  H   LIG d   1       4.832  -3.225  -3.039  0.00  0.00     0.026 H 
ATOM     27  C   LIG d   1       3.185  -0.198  -2.941  0.00  0.00    -0.053 C 
ATOM     28  H   LIG d   1       3.457  -1.809  -1.538  0.00  0.00     0.026 H 
ATOM     29  H   LIG d   1       2.549  -2.256  -3.002  0.00  0.00     0.026 H 
ATOM     30  C   LIG d   1       3.094  -0.016  -4.458  0.00  0.00    -0.048 C 
ATOM     31  H   LIG d   1       2.263   0.151  -2.477  0.00  0.00     0.026 H 
ATOM     32  H   LIG d   1       4.027   0.378  -2.556  0.00  0.00     0.026 H 
ATOM     33  H   LIG d   1       2.252  -0.592  -4.842  0.00  0.00     0.027 H 
ATOM     34  H   LIG d   1       2.948   1.039  -4.689  0.00  0.00     0.027 H 
ATOM     35  H   LIG d   1       5.229   0.070  -4.726  0.00  0.00     0.033 H 
ENDBRANCH   8  19
BRANCH  11  36
ATOM     36  O   LIG d   1       2.586   2.233  -8.544  0.00  0.00    -0.363 OA
ATOM     37  H   LIG d   1       2.972   3.079  -8.809  0.00  0.00     0.213 HD
ENDBRANCH  11  36
TORSDOF 2
ENDMDL
MODEL 7
REMARK VINA RESULT:      -6.0      3.867      5.962
REMARK  2 active torsions:
REMARK  status: ('A' for Active; 'I' for Inactive)
REMARK    1  A    between atoms: C_8  and  C_14 
REMARK    2  A    between atoms: C_11  and  O_13 
ROOT
ATOM      1  C   LIG d   1       6.621  -5.912  -6.176  0.00  0.00    -0.061 A 
ATOM      2  C   LIG d   1       7.939  -5.686  -5.830  0.00  0.00    -0.061 A 
ATOM      3  C   LIG d   1       8.268  -4.604  -5.040  0.00  0.00    -0.053 A 
ATOM      4  C   LIG d   1       7.281  -3.740  -4.591  0.00  0.00     0.011 A 
ATOM      5  C   LIG d   1       5.965  -3.964  -4.938  0.00  0.00    -0.037 A 
ATOM      6  C   LIG d   1       5.636  -5.052  -5.730  0.00  0.00    -0.058 A 
ATOM      7  C   LIG d   1       4.865  -3.040  -4.480  0.00  0.00    -0.001 C 
ATOM      8  C   LIG d   1       5.361  -2.183  -3.314  0.00  0.00     0.069 C 
ATOM      9  H   LIG d   1       5.481  -2.803  -2.426  0.00  0.00     0.060 H 
ATOM     10  O   LIG d   1       6.623  -1.612  -3.676  0.00  0.00    -0.344 OA
ATOM     11  C   LIG d   1       7.679  -2.571  -3.727  0.00  0.00     0.183 C 
ATOM     12  H   LIG d   1       7.896  -2.925  -2.719  0.00  0.00     0.096 H 
ATOM     13  H   LIG d   1       6.359  -6.760  -6.793  0.00  0.00     0.062 H 
ATOM     14  H   LIG d   1       8.712  -6.356  -6.178  0.00  0.00     0.062 H 
ATOM     15  H   LIG d   1       9.299  -4.428  -4.770  0.00  0.00     0.062 H 
ATOM     16  H   LIG d   1       4.606  -5.229  -6.000  0.00  0.00     0.062 H 
ATOM     17  H   LIG d   1       4.008  -3.630  -4.157  0.00  0.00     0.034 H 
ATOM     18  H   LIG d   1       4.568  -2.393  -5.305  0.00  0.00     0.034 H 
ENDROOT
BRANCH   8  19
ATOM     19  C   LIG d   1       4.354  -1.067  -3.031  0.00  0.00    -0.014 C 
ATOM     20  C   LIG d   1       3.867  -0.473  -4.353  0.00  0.00    -0.048 C 
ATOM     21  C   LIG d   1       2.859   0.644  -4.069  0.00  0.00    -0.053 C 
ATOM     22  H   LIG d   1       3.388  -1.251  -4.947  0.00  0.00     0.027 H 
ATOM     23  H   LIG d   1       4.715  -0.065  -4.903  0.00  0.00     0.027 H 
ATOM     24  C   LIG d   1       3.531   1.737  -3.235  0.00  0.00    -0.053 C 
ATOM     25  H   LIG d   1       2.011   0.237  -3.519  0.00  0.00     0.026 H 
ATOM     26  H   LIG d   1       2.512   1.068  -5.012  0.00  0.00     0.026 H 
ATOM     27  C   LIG d   1       4.019   1.142  -1.912  0.00  0.00    -0.053 C 
ATOM     28  H   LIG d   1       2.814   2.532  -3.033  0.00  0.00     0.026 H 
ATOM     29  H   LIG d   1       4.379   2.145  -3.785  0.00  0.00     0.026 H 
ATOM     30  C   LIG d   1       5.025   0.025  -2.197  0.00  0.00    -0.048 C 
ATOM     31  H   LIG d   1       4.497   1.921  -1.318  0.00  0.00     0.026 H 
ATOM     32  H   LIG d   1       3.170   0.735  -1.363  0.00  0.00     0.026 H 
ATOM     33  H   LIG d   1       5.874   0.432  -2.746  0.00  0.00     0.027 H 
ATOM     34  H   LIG d   1       5.372  -0.399  -1.254  0.00  0.00     0.027 H 
ATOM     35  H   LIG d   1       3.506  -1.475  -2.481  0.00  0.00     0.033 H 
ENDBRANCH   8  19
BRANCH  11  36
ATOM     36  O   LIG d   1       8.849  -1.959  -4.274  0.00  0.00    -0.363 OA
ATOM     37  H   LIG d   1       8.683  -1.440  -5.074  0.00  0.00     0.213 HD
ENDBRANCH  11  36
TORSDOF 2
ENDMDL
MODEL 8
REMARK VINA RESULT:      -5.8      5.156      7.093
REMARK  2 active torsions:
REMARK  status: ('A' for Active; 'I' for Inactive)
REMARK    1  A    between atoms: C_8  and  C_14 
REMARK    2  A    between atoms: C_11  and  O_13 
ROOT
ATOM      1  C   LIG d   1      10.619   3.696  -4.106  0.00  0.00    -0.061 A 
ATOM      2  C   LIG d   1      11.456   2.809  -4.756  0.00  0.00    -0.061 A 
ATOM      3  C   LIG d   1      11.001   1.549  -5.086  0.00  0.00    -0.053 A 
ATOM      4  C   LIG d   1       9.707   1.166  -4.767  0.00  0.00     0.011 A 
ATOM      5  C   LIG d   1       8.873   2.049  -4.114  0.00  0.00    -0.037 A 
ATOM      6  C   LIG d   1       9.330   3.315  -3.786  0.00  0.00    -0.058 A 
ATOM      7  C   LIG d   1       7.464   1.666  -3.740  0.00  0.00    -0.001 C 
ATOM      8  C   LIG d   1       7.033   0.434  -4.537  0.00  0.00     0.069 C 
ATOM      9  H   LIG d   1       6.892   0.702  -5.584  0.00  0.00     0.060 H 
ATOM     10  O   LIG d   1       8.061  -0.558  -4.429  0.00  0.00    -0.344 OA
ATOM     11  C   LIG d   1       9.246  -0.218  -5.146  0.00  0.00     0.183 C 
ATOM     12  H   LIG d   1       9.043  -0.249  -6.216  0.00  0.00     0.096 H 
ATOM     13  H   LIG d   1      10.971   4.684  -3.848  0.00  0.00     0.062 H 
ATOM     14  H   LIG d   1      12.465   3.103  -5.007  0.00  0.00     0.062 H 
ATOM     15  H   LIG d   1      11.656   0.857  -5.595  0.00  0.00     0.062 H 
ATOM     16  H   LIG d   1       8.676   4.008  -3.278  0.00  0.00     0.062 H 
ATOM     17  H   LIG d   1       6.792   2.495  -3.962  0.00  0.00     0.034 H 
ATOM     18  H   LIG d   1       7.421   1.442  -2.674  0.00  0.00     0.034 H 
ENDROOT
BRANCH   8  19
ATOM     19  C   LIG d   1       5.725  -0.117  -3.966  0.00  0.00    -0.014 C 
ATOM     20  C   LIG d   1       5.434   0.551  -2.622  0.00  0.00    -0.048 C 
ATOM     21  C   LIG d   1       4.125  -0.000  -2.051  0.00  0.00    -0.053 C 
ATOM     22  H   LIG d   1       5.343   1.628  -2.763  0.00  0.00     0.027 H 
ATOM     23  H   LIG d   1       6.249   0.343  -1.928  0.00  0.00     0.027 H 
ATOM     24  C   LIG d   1       4.252  -1.512  -1.853  0.00  0.00    -0.053 C 
ATOM     25  H   LIG d   1       3.311   0.208  -2.744  0.00  0.00     0.026 H 
ATOM     26  H   LIG d   1       3.918   0.476  -1.092  0.00  0.00     0.026 H 
ATOM     27  C   LIG d   1       4.544  -2.181  -3.198  0.00  0.00    -0.053 C 
ATOM     28  H   LIG d   1       3.321  -1.905  -1.447  0.00  0.00     0.026 H 
ATOM     29  H   LIG d   1       5.067  -1.721  -1.159  0.00  0.00     0.026 H 
ATOM     30  C   LIG d   1       5.852  -1.628  -3.768  0.00  0.00    -0.048 C 
ATOM     31  H   LIG d   1       4.634  -3.258  -3.057  0.00  0.00     0.026 H 
ATOM     32  H   LIG d   1       3.729  -1.972  -3.891  0.00  0.00     0.026 H 
ATOM     33  H   LIG d   1       6.667  -1.837  -3.076  0.00  0.00     0.027 H 
ATOM     34  H   LIG d   1       6.059  -2.104  -4.727  0.00  0.00     0.027 H 
ATOM     35  H   LIG d   1       4.910   0.092  -4.660  0.00  0.00     0.033 H 
ENDBRANCH   8  19
BRANCH  11  36
ATOM     36  O   LIG d   1      10.276  -1.158  -4.833  0.00  0.00    -0.363 OA
ATOM     37  H   LIG d   1      10.153  -1.608  -3.985  0.00  0.00     0.213 HD
ENDBRANCH  11  36
TORSDOF 2
ENDMDL
MODEL 9
REMARK VINA RESULT:      -5.7      4.104      6.640
REMARK  2 active torsions:
REMARK  status: ('A' for Active; 'I' for Inactive)
REMARK    1  A    between atoms: C_8  and  C_14 
REMARK    2  A    between atoms: C_11  and  O_13 
ROOT
ATOM      1  C   LIG d   1       8.287   1.368  -8.858  0.00  0.00    -0.061 A 
ATOM      2  C   LIG d   1       9.186   2.353  -8.496  0.00  0.00    -0.061 A 
ATOM      3  C   LIG d   1       9.343   2.686  -7.166  0.00  0.00    -0.053 A 
ATOM      4  C   LIG d   1       8.602   2.038  -6.190  0.00  0.00     0.011 A 
ATOM      5  C   LIG d   1       7.702   1.058  -6.552  0.00  0.00    -0.037 A 
ATOM      6  C   LIG d   1       7.547   0.722  -7.887  0.00  0.00    -0.058 A 
ATOM      7  C   LIG d   1       6.869   0.339  -5.521  0.00  0.00    -0.001 C 
ATOM      8  C   LIG d   1       7.474   0.546  -4.131  0.00  0.00     0.069 C 
ATOM      9  H   LIG d   1       8.409  -0.008  -4.049  0.00  0.00     0.060 H 
ATOM     10  O   LIG d   1       7.726   1.944  -3.950  0.00  0.00    -0.344 OA
ATOM     11  C   LIG d   1       8.804   2.428  -4.749  0.00  0.00     0.183 C 
ATOM     12  H   LIG d   1       9.741   2.003  -4.388  0.00  0.00     0.096 H 
ATOM     13  H   LIG d   1       8.162   1.103  -9.898  0.00  0.00     0.062 H 
ATOM     14  H   LIG d   1       9.766   2.860  -9.253  0.00  0.00     0.062 H 
ATOM     15  H   LIG d   1      10.046   3.456  -6.884  0.00  0.00     0.062 H 
ATOM     16  H   LIG d   1       6.844  -0.048  -8.170  0.00  0.00     0.062 H 
ATOM     17  H   LIG d   1       6.847  -0.726  -5.751  0.00  0.00     0.034 H 
ATOM     18  H   LIG d   1       5.854   0.734  -5.536  0.00  0.00     0.034 H 
ENDROOT
BRANCH   8  19
ATOM     19  C   LIG d   1       6.492   0.057  -3.065  0.00  0.00    -0.014 C 
ATOM     20  C   LIG d   1       5.801  -1.217  -3.552  0.00  0.00    -0.048 C 
ATOM     21  C   LIG d   1       4.819  -1.705  -2.485  0.00  0.00    -0.053 C 
ATOM     22  H   LIG d   1       6.549  -1.988  -3.737  0.00  0.00     0.027 H 
ATOM     23  H   LIG d   1       5.260  -1.006  -4.475  0.00  0.00     0.027 H 
ATOM     24  C   LIG d   1       3.769  -0.622  -2.225  0.00  0.00    -0.053 C 
ATOM     25  H   LIG d   1       5.360  -1.915  -1.563  0.00  0.00     0.026 H 
ATOM     26  H   LIG d   1       4.326  -2.613  -2.833  0.00  0.00     0.026 H 
ATOM     27  C   LIG d   1       4.460   0.653  -1.737  0.00  0.00    -0.053 C 
ATOM     28  H   LIG d   1       3.070  -0.970  -1.466  0.00  0.00     0.026 H 
ATOM     29  H   LIG d   1       3.228  -0.412  -3.148  0.00  0.00     0.026 H 
ATOM     30  C   LIG d   1       5.443   1.140  -2.804  0.00  0.00    -0.048 C 
ATOM     31  H   LIG d   1       3.712   1.423  -1.552  0.00  0.00     0.026 H 
ATOM     32  H   LIG d   1       5.001   0.441  -0.815  0.00  0.00     0.026 H 
ATOM     33  H   LIG d   1       4.902   1.351  -3.727  0.00  0.00     0.027 H 
ATOM     34  H   LIG d   1       5.935   2.048  -2.457  0.00  0.00     0.027 H 
ATOM     35  H   LIG d   1       7.034  -0.153  -2.142  0.00  0.00     0.033 H 
ENDBRANCH   8  19
BRANCH  11  36
ATOM     36  O   LIG d   1       8.863   3.853  -4.651  0.00  0.00    -0.363 OA
ATOM     37  H   LIG d   1       9.301   4.174  -3.851  0.00  0.00     0.213 HD
ENDBRANCH  11  36
TORSDOF 2
ENDMDL
MODEL 10
REMARK VINA RESULT:      -5.6      4.984      7.083
REMARK  2 active torsions:
REMARK  status: ('A' for Active; 'I' for Inactive)
REMARK    1  A    between atoms: C_8  and  C_14 
REMARK    2  A    between atoms: C_11  and  O_13 
ROOT
ATOM      1  C   LIG d   1      10.255   4.644  -5.594  0.00  0.00    -0.061 A 
ATOM      2  C   LIG d   1      10.334   4.082  -6.855  0.00  0.00    -0.061 A 
ATOM      3  C   LIG d   1       9.642   2.921  -7.135  0.00  0.00    -0.053 A 
ATOM      4  C   LIG d   1       8.868   2.315  -6.158  0.00  0.00     0.011 A 
ATOM      5  C   LIG d   1       8.792   2.874  -4.899  0.00  0.00    -0.037 A 
ATOM      6  C   LIG d   1       9.485   4.040  -4.620  0.00  0.00    -0.058 A 
ATOM      7  C   LIG d   1       7.971   2.237  -3.807  0.00  0.00    -0.001 C 
ATOM      8  C   LIG d   1       6.986   1.238  -4.415  0.00  0.00     0.069 C 
ATOM      9  H   LIG d   1       6.208   1.772  -4.960  0.00  0.00     0.060 H 
ATOM     10  O   LIG d   1       7.703   0.384  -5.314  0.00  0.00    -0.344 OA
ATOM     11  C   LIG d   1       8.126   1.050  -6.503  0.00  0.00     0.183 C 
ATOM     12  H   LIG d   1       7.253   1.298  -7.108  0.00  0.00     0.096 H 
ATOM     13  H   LIG d   1      10.794   5.554  -5.372  0.00  0.00     0.062 H 
ATOM     14  H   LIG d   1      10.936   4.551  -7.619  0.00  0.00     0.062 H 
ATOM     15  H   LIG d   1       9.704   2.483  -8.120  0.00  0.00     0.062 H 
ATOM     16  H   LIG d   1       9.424   4.480  -3.635  0.00  0.00     0.062 H 
ATOM     17  H   LIG d   1       7.420   3.010  -3.271  0.00  0.00     0.034 H 
ATOM     18  H   LIG d   1       8.632   1.718  -3.113  0.00  0.00     0.034 H 
ENDROOT
BRANCH   8  19
ATOM     19  C   LIG d   1       6.352   0.399  -3.304  0.00  0.00    -0.014 C 
ATOM     20  C   LIG d   1       5.872  -0.933  -3.882  0.00  0.00    -0.048 C 
ATOM     21  C   LIG d   1       5.238  -1.772  -2.770  0.00  0.00    -0.053 C 
ATOM     22  H   LIG d   1       6.719  -1.472  -4.306  0.00  0.00     0.027 H 
ATOM     23  H   LIG d   1       5.133  -0.746  -4.662  0.00  0.00     0.027 H 
ATOM     24  C   LIG d   1       4.049  -1.015  -2.175  0.00  0.00    -0.053 C 
ATOM     25  H   LIG d   1       5.976  -1.959  -1.991  0.00  0.00     0.026 H 
ATOM     26  H   LIG d   1       4.895  -2.722  -3.182  0.00  0.00     0.026 H 
ATOM     27  C   LIG d   1       4.529   0.317  -1.596  0.00  0.00    -0.053 C 
ATOM     28  H   LIG d   1       3.598  -1.613  -1.383  0.00  0.00     0.026 H 
ATOM     29  H   LIG d   1       3.310  -0.828  -2.954  0.00  0.00     0.026 H 
ATOM     30  C   LIG d   1       5.164   1.156  -2.709  0.00  0.00    -0.048 C 
ATOM     31  H   LIG d   1       3.682   0.856  -1.173  0.00  0.00     0.026 H 
ATOM     32  H   LIG d   1       5.268   0.129  -0.817  0.00  0.00     0.026 H 
ATOM     33  H   LIG d   1       4.425   1.344  -3.488  0.00  0.00     0.027 H 
ATOM     34  H   LIG d   1       5.506   2.105  -2.296  0.00  0.00     0.027 H 
ATOM     35  H   LIG d   1       7.091   0.212  -2.524  0.00  0.00     0.033 H 
ENDBRANCH   8  19
BRANCH  11  36
ATOM     36  O   LIG d   1       8.987   0.187  -7.248  0.00  0.00    -0.363 OA
ATOM     37  H   LIG d   1       8.543  -0.291  -7.961  0.00  0.00     0.213 HD
ENDBRANCH  11  36
TORSDOF 2
ENDMDL
