MODEL 1
REMARK VINA RESULT:      -7.4      0.000      0.000
REMARK  4 active torsions:
REMARK  status: ('A' for Active; 'I' for Inactive)
REMARK    1  A    between atoms: C_7  and  N_8 
REMARK       I    between atoms: N_8  and  C_9 
REMARK    2  A    between atoms: C_9  and  C_11 
REMARK    3  A    between atoms: C_25  and  C_26 
REMARK    4  A    between atoms: C_25  and  N_60 
ROOT
ATOM      1  C   LIG d   1       4.680  -2.444  -6.555  0.00  0.00    -0.034 C 
ATOM      2  C   LIG d   1       5.100  -2.444  -5.220  0.00  0.00    -0.040 C 
ATOM      3  C   LIG d   1       4.691  -1.467  -4.369  0.00  0.00     0.030 C 
ATOM      4  N   LIG d   1       3.816  -0.516  -4.777  0.00  0.00    -0.310 N 
ATOM      5  C   LIG d   1       3.466  -0.436  -6.084  0.00  0.00     0.273 C 
ATOM      6  O   LIG d   1       2.791   0.503  -6.473  0.00  0.00    -0.266 OA
ATOM      7  C   LIG d   1       3.875  -1.429  -6.995  0.00  0.00     0.099 C 
ATOM      8  C   LIG d   1       3.171   0.421  -3.857  0.00  0.00     0.034 C 
ATOM      9  C   LIG d   1       3.940   0.572  -2.554  0.00  0.00     0.018 C 
ATOM     10  H   LIG d   1       3.294   1.066  -1.828  0.00  0.00     0.037 H 
ATOM     11  C   LIG d   1       4.293  -0.814  -2.008  0.00  0.00    -0.031 C 
ATOM     12  C   LIG d   1       5.289  -1.456  -2.980  0.00  0.00     0.040 C 
ATOM     13  H   LIG d   1       5.543  -2.469  -2.665  0.00  0.00     0.042 H 
ATOM     14  C   LIG d   1       6.547  -0.575  -3.024  0.00  0.00    -0.024 C 
ATOM     15  C   LIG d   1       5.195   1.415  -2.735  0.00  0.00    -0.027 C 
ATOM     16  H   LIG d   1       4.990  -3.230  -7.228  0.00  0.00     0.064 H 
ATOM     17  H   LIG d   1       5.750  -3.228  -4.862  0.00  0.00     0.064 H 
ATOM     18  H   LIG d   1       3.098   1.396  -4.338  0.00  0.00     0.050 H 
ATOM     19  H   LIG d   1       2.166   0.063  -3.634  0.00  0.00     0.050 H 
ATOM     20  H   LIG d   1       3.393  -1.426  -1.943  0.00  0.00     0.028 H 
ATOM     21  H   LIG d   1       4.748  -0.718  -1.022  0.00  0.00     0.028 H 
ATOM     22  H   LIG d   1       6.939  -0.440  -2.016  0.00  0.00     0.082 H 
ATOM     23  H   LIG d   1       7.304  -1.043  -3.653  0.00  0.00     0.082 H 
ATOM     24  H   LIG d   1       5.643   1.603  -1.758  0.00  0.00     0.082 H 
ATOM     25  H   LIG d   1       4.924   2.366  -3.192  0.00  0.00     0.082 H 
ATOM     26  N   LIG d   1       6.159   0.725  -3.616  0.00  0.00     0.236 N 
ATOM     27  H   LIG d   1       5.716   0.558  -4.527  0.00  0.00     0.203 HD
ENDROOT
BRANCH  26  28
ATOM     28  C   LIG d   1       7.355   1.569  -3.812  0.00  0.00    -0.029 C 
ATOM     29  H   LIG d   1       7.036   2.582  -4.061  0.00  0.00     0.082 H 
ATOM     30  H   LIG d   1       7.930   1.587  -2.886  0.00  0.00     0.082 H 
BRANCH  28  31
ATOM     31  C   LIG d   1       8.225   1.017  -4.942  0.00  0.00    -0.001 C 
ATOM     32  C   LIG d   1       7.332   0.580  -6.105  0.00  0.00    -0.045 C 
ATOM     33  C   LIG d   1       8.202   0.026  -7.236  0.00  0.00    -0.053 C 
ATOM     34  H   LIG d   1       6.644  -0.194  -5.764  0.00  0.00     0.027 H 
ATOM     35  H   LIG d   1       6.765   1.436  -6.469  0.00  0.00     0.027 H 
ATOM     36  C   LIG d   1       9.167   1.113  -7.715  0.00  0.00    -0.053 C 
ATOM     37  H   LIG d   1       8.770  -0.830  -6.872  0.00  0.00     0.026 H 
ATOM     38  H   LIG d   1       7.566  -0.285  -8.065  0.00  0.00     0.026 H 
ATOM     39  C   LIG d   1      10.061   1.549  -6.551  0.00  0.00    -0.053 C 
ATOM     40  H   LIG d   1       9.788   0.718  -8.520  0.00  0.00     0.026 H 
ATOM     41  H   LIG d   1       8.600   1.968  -8.078  0.00  0.00     0.026 H 
ATOM     42  C   LIG d   1       9.191   2.102  -5.420  0.00  0.00    -0.045 C 
ATOM     43  H   LIG d   1      10.628   0.693  -6.188  0.00  0.00     0.026 H 
ATOM     44  H   LIG d   1      10.748   2.323  -6.893  0.00  0.00     0.026 H 
ATOM     45  H   LIG d   1       8.622   2.958  -5.785  0.00  0.00     0.027 H 
ATOM     46  H   LIG d   1       9.827   2.414  -4.592  0.00  0.00     0.027 H 
ATOM     47  H   LIG d   1       8.792   0.161  -4.578  0.00  0.00     0.035 H 
ENDBRANCH  28  31
ENDBRANCH  26  28
BRANCH   7  48
ATOM     48  N   LIG d   1       3.459  -1.381  -8.332  0.00  0.00    -0.277 N 
ATOM     49  C   LIG d   1       4.283  -0.885  -9.277  0.00  0.00     0.248 C 
ATOM     50  O   LIG d   1       5.346  -0.392  -8.958  0.00  0.00    -0.270 OA
ATOM     51  H   LIG d   1       2.580  -1.708  -8.578  0.00  0.00     0.155 HD
BRANCH  49  52
ATOM     52  C   LIG d   1       3.892  -0.942 -10.704  0.00  0.00     0.040 A 
ATOM     53  C   LIG d   1       4.706  -0.385 -11.696  0.00  0.00    -0.032 A 
ATOM     54  C   LIG d   1       4.302  -0.460 -13.014  0.00  0.00     0.028 A 
ATOM     55  H   LIG d   1       5.636   0.098 -11.433  0.00  0.00     0.064 H 
ATOM     56  N   LIG d   1       3.168  -1.047 -13.342  0.00  0.00    -0.263 NA
ATOM     57  H   LIG d   1       4.924  -0.032 -13.787  0.00  0.00     0.083 H 
ATOM     58  C   LIG d   1       2.372  -1.585 -12.440  0.00  0.00     0.028 A 
ATOM     59  C   LIG d   1       2.701  -1.560 -11.099  0.00  0.00    -0.032 A 
ATOM     60  H   LIG d   1       1.452  -2.056 -12.755  0.00  0.00     0.083 H 
ATOM     61  H   LIG d   1       2.046  -2.007 -10.365  0.00  0.00     0.064 H 
ENDBRANCH  49  52
ENDBRANCH   7  48
TORSDOF 4
ENDMDL
MODEL 2
REMARK VINA RESULT:      -7.4      4.712      9.747
REMARK  4 active torsions:
REMARK  status: ('A' for Active; 'I' for Inactive)
REMARK    1  A    between atoms: C_7  and  N_8 
REMARK       I    between atoms: N_8  and  C_9 
REMARK    2  A    between atoms: C_9  and  C_11 
REMARK    3  A    between atoms: C_25  and  C_26 
REMARK    4  A    between atoms: C_25  and  N_60 
ROOT
ATOM      1  C   LIG d   1      11.804   1.697  -3.380  0.00  0.00    -0.034 C 
ATOM      2  C   LIG d   1      11.582   0.817  -4.446  0.00  0.00    -0.040 C 
ATOM      3  C   LIG d   1      10.502   0.972  -5.255  0.00  0.00     0.030 C 
ATOM      4  N   LIG d   1       9.659   2.020  -5.089  0.00  0.00    -0.310 N 
ATOM      5  C   LIG d   1       9.795   2.833  -4.012  0.00  0.00     0.273 C 
ATOM      6  O   LIG d   1       8.953   3.688  -3.789  0.00  0.00    -0.266 OA
ATOM      7  C   LIG d   1      10.900   2.698  -3.150  0.00  0.00     0.099 C 
ATOM      8  C   LIG d   1       8.616   2.365  -6.056  0.00  0.00     0.034 C 
ATOM      9  C   LIG d   1       8.238   1.189  -6.941  0.00  0.00     0.018 C 
ATOM     10  H   LIG d   1       7.662   1.565  -7.786  0.00  0.00     0.037 H 
ATOM     11  C   LIG d   1       9.508   0.533  -7.486  0.00  0.00    -0.031 C 
ATOM     12  C   LIG d   1      10.255  -0.091  -6.302  0.00  0.00     0.040 C 
ATOM     13  H   LIG d   1      11.196  -0.536  -6.625  0.00  0.00     0.042 H 
ATOM     14  C   LIG d   1       9.343  -1.157  -5.672  0.00  0.00    -0.024 C 
ATOM     15  C   LIG d   1       7.386   0.173  -6.192  0.00  0.00    -0.027 C 
ATOM     16  H   LIG d   1      12.672   1.585  -2.748  0.00  0.00     0.064 H 
ATOM     17  H   LIG d   1      12.276   0.012  -4.630  0.00  0.00     0.064 H 
ATOM     18  H   LIG d   1       7.730   2.701  -5.516  0.00  0.00     0.050 H 
ATOM     19  H   LIG d   1       8.973   3.180  -6.685  0.00  0.00     0.050 H 
ATOM     20  H   LIG d   1      10.136   1.284  -7.965  0.00  0.00     0.028 H 
ATOM     21  H   LIG d   1       9.245  -0.243  -8.206  0.00  0.00     0.028 H 
ATOM     22  H   LIG d   1       9.040  -1.877  -6.431  0.00  0.00     0.082 H 
ATOM     23  H   LIG d   1       9.874  -1.669  -4.870  0.00  0.00     0.082 H 
ATOM     24  H   LIG d   1       7.032  -0.584  -6.894  0.00  0.00     0.082 H 
ATOM     25  H   LIG d   1       6.527   0.680  -5.753  0.00  0.00     0.082 H 
ATOM     26  N   LIG d   1       8.166  -0.459  -5.108  0.00  0.00     0.236 N 
ATOM     27  H   LIG d   1       8.489   0.271  -4.462  0.00  0.00     0.203 HD
ENDROOT
BRANCH  26  28
ATOM     28  C   LIG d   1       7.317  -1.415  -4.369  0.00  0.00    -0.029 C 
ATOM     29  H   LIG d   1       7.038  -2.230  -5.037  0.00  0.00     0.082 H 
ATOM     30  H   LIG d   1       7.885  -1.813  -3.528  0.00  0.00     0.082 H 
BRANCH  28  31
ATOM     31  C   LIG d   1       6.055  -0.725  -3.850  0.00  0.00    -0.001 C 
ATOM     32  C   LIG d   1       5.372  -1.622  -2.815  0.00  0.00    -0.045 C 
ATOM     33  C   LIG d   1       4.109  -0.933  -2.297  0.00  0.00    -0.053 C 
ATOM     34  H   LIG d   1       5.104  -2.571  -3.279  0.00  0.00     0.027 H 
ATOM     35  H   LIG d   1       6.054  -1.802  -1.985  0.00  0.00     0.027 H 
ATOM     36  C   LIG d   1       4.485   0.401  -1.647  0.00  0.00    -0.053 C 
ATOM     37  H   LIG d   1       3.426  -0.752  -3.127  0.00  0.00     0.026 H 
ATOM     38  H   LIG d   1       3.622  -1.571  -1.559  0.00  0.00     0.026 H 
ATOM     39  C   LIG d   1       5.168   1.298  -2.682  0.00  0.00    -0.053 C 
ATOM     40  H   LIG d   1       3.585   0.892  -1.278  0.00  0.00     0.026 H 
ATOM     41  H   LIG d   1       5.167   0.220  -0.817  0.00  0.00     0.026 H 
ATOM     42  C   LIG d   1       6.431   0.608  -3.201  0.00  0.00    -0.045 C 
ATOM     43  H   LIG d   1       4.486   1.478  -3.512  0.00  0.00     0.026 H 
ATOM     44  H   LIG d   1       5.436   2.247  -2.218  0.00  0.00     0.026 H 
ATOM     45  H   LIG d   1       7.113   0.427  -2.370  0.00  0.00     0.027 H 
ATOM     46  H   LIG d   1       6.918   1.247  -3.938  0.00  0.00     0.027 H 
ATOM     47  H   LIG d   1       5.373  -0.544  -4.680  0.00  0.00     0.035 H 
ENDBRANCH  28  31
ENDBRANCH  26  28
BRANCH   7  48
ATOM     48  N   LIG d   1      11.074   3.579  -2.076  0.00  0.00    -0.277 N 
ATOM     49  C   LIG d   1      11.772   4.720  -2.246  0.00  0.00     0.248 C 
ATOM     50  O   LIG d   1      12.330   4.938  -3.302  0.00  0.00    -0.270 OA
ATOM     51  H   LIG d   1      10.690   3.370  -1.210  0.00  0.00     0.155 HD
BRANCH  49  52
ATOM     52  C   LIG d   1      11.857   5.707  -1.145  0.00  0.00     0.040 A 
ATOM     53  C   LIG d   1      11.048   5.589  -0.010  0.00  0.00    -0.032 A 
ATOM     54  C   LIG d   1      11.161   6.531   0.993  0.00  0.00     0.028 A 
ATOM     55  H   LIG d   1      10.348   4.772   0.081  0.00  0.00     0.064 H 
ATOM     56  N   LIG d   1      12.014   7.532   0.890  0.00  0.00    -0.263 NA
ATOM     57  H   LIG d   1      10.541   6.449   1.873  0.00  0.00     0.083 H 
ATOM     58  C   LIG d   1      12.794   7.680  -0.162  0.00  0.00     0.028 A 
ATOM     59  C   LIG d   1      12.752   6.780  -1.209  0.00  0.00    -0.032 A 
ATOM     60  H   LIG d   1      13.478   8.515  -0.204  0.00  0.00     0.083 H 
ATOM     61  H   LIG d   1      13.397   6.905  -2.066  0.00  0.00     0.064 H 
ENDBRANCH  49  52
ENDBRANCH   7  48
TORSDOF 4
ENDMDL
MODEL 3
REMARK VINA RESULT:      -7.3      3.935      8.137
REMARK  4 active torsions:
REMARK  status: ('A' for Active; 'I' for Inactive)
REMARK    1  A    between atoms: C_7  and  N_8 
REMARK       I    between atoms: N_8  and  C_9 
REMARK    2  A    between atoms: C_9  and  C_11 
REMARK    3  A    between atoms: C_25  and  C_26 
REMARK    4  A    between atoms: C_25  and  N_60 
ROOT
ATOM      1  C   LIG d   1      11.030   0.922  -4.761  0.00  0.00    -0.034 C 
ATOM      2  C   LIG d   1      10.933  -0.448  -5.033  0.00  0.00    -0.040 C 
ATOM      3  C   LIG d   1       9.946  -0.924  -5.835  0.00  0.00     0.030 C 
ATOM      4  N   LIG d   1       9.080  -0.077  -6.443  0.00  0.00    -0.310 N 
ATOM      5  C   LIG d   1       9.090   1.241  -6.127  0.00  0.00     0.273 C 
ATOM      6  O   LIG d   1       8.221   1.976  -6.568  0.00  0.00    -0.266 OA
ATOM      7  C   LIG d   1      10.097   1.769  -5.295  0.00  0.00     0.099 C 
ATOM      8  C   LIG d   1       8.145  -0.504  -7.485  0.00  0.00     0.034 C 
ATOM      9  C   LIG d   1       7.877  -2.000  -7.440  0.00  0.00     0.018 C 
ATOM     10  H   LIG d   1       7.393  -2.291  -8.373  0.00  0.00     0.037 H 
ATOM     11  C   LIG d   1       9.205  -2.753  -7.340  0.00  0.00    -0.031 C 
ATOM     12  C   LIG d   1       9.824  -2.425  -5.977  0.00  0.00     0.040 C 
ATOM     13  H   LIG d   1      10.800  -2.900  -5.867  0.00  0.00     0.042 H 
ATOM     14  C   LIG d   1       8.860  -2.915  -4.885  0.00  0.00    -0.024 C 
ATOM     15  C   LIG d   1       6.958  -2.372  -6.285  0.00  0.00    -0.027 C 
ATOM     16  H   LIG d   1      11.825   1.303  -4.138  0.00  0.00     0.064 H 
ATOM     17  H   LIG d   1      11.651  -1.131  -4.605  0.00  0.00     0.064 H 
ATOM     18  H   LIG d   1       7.203   0.028  -7.355  0.00  0.00     0.050 H 
ATOM     19  H   LIG d   1       8.561  -0.249  -8.459  0.00  0.00     0.050 H 
ATOM     20  H   LIG d   1       9.874  -2.430  -8.137  0.00  0.00     0.028 H 
ATOM     21  H   LIG d   1       9.029  -3.827  -7.417  0.00  0.00     0.028 H 
ATOM     22  H   LIG d   1       8.648  -3.975  -5.030  0.00  0.00     0.082 H 
ATOM     23  H   LIG d   1       9.305  -2.760  -3.903  0.00  0.00     0.082 H 
ATOM     24  H   LIG d   1       6.690  -3.426  -6.366  0.00  0.00     0.082 H 
ATOM     25  H   LIG d   1       6.052  -1.769  -6.339  0.00  0.00     0.082 H 
ATOM     26  N   LIG d   1       7.621  -2.112  -4.991  0.00  0.00     0.236 N 
ATOM     27  H   LIG d   1       7.865  -1.116  -4.937  0.00  0.00     0.203 HD
ENDROOT
BRANCH  26  28
ATOM     28  C   LIG d   1       6.707  -2.443  -3.880  0.00  0.00    -0.029 C 
ATOM     29  H   LIG d   1       6.127  -3.325  -4.152  0.00  0.00     0.082 H 
ATOM     30  H   LIG d   1       7.296  -2.656  -2.989  0.00  0.00     0.082 H 
BRANCH  28  31
ATOM     31  C   LIG d   1       5.759  -1.276  -3.597  0.00  0.00    -0.001 C 
ATOM     32  C   LIG d   1       4.856  -1.630  -2.413  0.00  0.00    -0.045 C 
ATOM     33  C   LIG d   1       3.906  -0.464  -2.130  0.00  0.00    -0.053 C 
ATOM     34  H   LIG d   1       4.275  -2.521  -2.653  0.00  0.00     0.027 H 
ATOM     35  H   LIG d   1       5.469  -1.822  -1.533  0.00  0.00     0.027 H 
ATOM     36  C   LIG d   1       4.722   0.787  -1.793  0.00  0.00    -0.053 C 
ATOM     37  H   LIG d   1       3.293  -0.272  -3.010  0.00  0.00     0.026 H 
ATOM     38  H   LIG d   1       3.263  -0.715  -1.286  0.00  0.00     0.026 H 
ATOM     39  C   LIG d   1       5.625   1.140  -2.977  0.00  0.00    -0.053 C 
ATOM     40  H   LIG d   1       4.046   1.618  -1.592  0.00  0.00     0.026 H 
ATOM     41  H   LIG d   1       5.335   0.595  -0.913  0.00  0.00     0.026 H 
ATOM     42  C   LIG d   1       6.574  -0.026  -3.261  0.00  0.00    -0.045 C 
ATOM     43  H   LIG d   1       5.012   1.332  -3.857  0.00  0.00     0.026 H 
ATOM     44  H   LIG d   1       6.206   2.031  -2.737  0.00  0.00     0.026 H 
ATOM     45  H   LIG d   1       7.186  -0.218  -2.380  0.00  0.00     0.027 H 
ATOM     46  H   LIG d   1       7.217   0.225  -4.104  0.00  0.00     0.027 H 
ATOM     47  H   LIG d   1       5.146  -1.085  -4.477  0.00  0.00     0.035 H 
ENDBRANCH  28  31
ENDBRANCH  26  28
BRANCH   7  48
ATOM     48  N   LIG d   1      10.145   3.141  -5.021  0.00  0.00    -0.277 N 
ATOM     49  C   LIG d   1       9.625   3.618  -3.872  0.00  0.00     0.248 C 
ATOM     50  O   LIG d   1       9.031   2.873  -3.119  0.00  0.00    -0.270 OA
ATOM     51  H   LIG d   1      10.556   3.748  -5.657  0.00  0.00     0.155 HD
BRANCH  49  52
ATOM     52  C   LIG d   1       9.780   5.051  -3.528  0.00  0.00     0.040 A 
ATOM     53  C   LIG d   1      10.071   5.448  -2.219  0.00  0.00    -0.032 A 
ATOM     54  C   LIG d   1      10.207   6.795  -1.943  0.00  0.00     0.028 A 
ATOM     55  H   LIG d   1      10.187   4.713  -1.437  0.00  0.00     0.064 H 
ATOM     56  N   LIG d   1      10.065   7.698  -2.893  0.00  0.00    -0.263 NA
ATOM     57  H   LIG d   1      10.430   7.112  -0.935  0.00  0.00     0.083 H 
ATOM     58  C   LIG d   1       9.793   7.367  -4.138  0.00  0.00     0.028 A 
ATOM     59  C   LIG d   1       9.645   6.043  -4.505  0.00  0.00    -0.032 A 
ATOM     60  H   LIG d   1       9.685   8.141  -4.885  0.00  0.00     0.083 H 
ATOM     61  H   LIG d   1       9.426   5.778  -5.528  0.00  0.00     0.064 H 
ENDBRANCH  49  52
ENDBRANCH   7  48
TORSDOF 4
ENDMDL
MODEL 4
REMARK VINA RESULT:      -7.3      4.431      7.426
REMARK  4 active torsions:
REMARK  status: ('A' for Active; 'I' for Inactive)
REMARK    1  A    between atoms: C_7  and  N_8 
REMARK       I    between atoms: N_8  and  C_9 
REMARK    2  A    between atoms: C_9  and  C_11 
REMARK    3  A    between atoms: C_25  and  C_26 
REMARK    4  A    between atoms: C_25  and  N_60 
ROOT
ATOM      1  C   LIG d   1       3.779  -5.223  -7.228  0.00  0.00    -0.034 C 
ATOM      2  C   LIG d   1       3.753  -4.103  -8.066  0.00  0.00    -0.040 C 
ATOM      3  C   LIG d   1       4.643  -3.092  -7.895  0.00  0.00     0.030 C 
ATOM      4  N   LIG d   1       5.617  -3.179  -6.956  0.00  0.00    -0.310 N 
ATOM      5  C   LIG d   1       5.611  -4.206  -6.071  0.00  0.00     0.273 C 
ATOM      6  O   LIG d   1       6.402  -4.209  -5.142  0.00  0.00    -0.266 OA
ATOM      7  C   LIG d   1       4.699  -5.270  -6.216  0.00  0.00     0.099 C 
ATOM      8  C   LIG d   1       6.731  -2.235  -6.872  0.00  0.00     0.034 C 
ATOM      9  C   LIG d   1       6.419  -0.913  -7.555  0.00  0.00     0.018 C 
ATOM     10  H   LIG d   1       7.351  -0.363  -7.683  0.00  0.00     0.037 H 
ATOM     11  C   LIG d   1       5.833  -1.183  -8.943  0.00  0.00    -0.031 C 
ATOM     12  C   LIG d   1       4.470  -1.856  -8.750  0.00  0.00     0.040 C 
ATOM     13  H   LIG d   1       4.023  -2.115  -9.710  0.00  0.00     0.042 H 
ATOM     14  C   LIG d   1       3.564  -0.883  -7.978  0.00  0.00    -0.024 C 
ATOM     15  C   LIG d   1       5.468  -0.061  -6.725  0.00  0.00    -0.027 C 
ATOM     16  H   LIG d   1       3.084  -6.036  -7.376  0.00  0.00     0.064 H 
ATOM     17  H   LIG d   1       3.022  -4.043  -8.858  0.00  0.00     0.064 H 
ATOM     18  H   LIG d   1       6.956  -2.046  -5.822  0.00  0.00     0.050 H 
ATOM     19  H   LIG d   1       7.607  -2.678  -7.344  0.00  0.00     0.050 H 
ATOM     20  H   LIG d   1       6.496  -1.844  -9.502  0.00  0.00     0.028 H 
ATOM     21  H   LIG d   1       5.709  -0.243  -9.481  0.00  0.00     0.028 H 
ATOM     22  H   LIG d   1       3.515   0.070  -8.504  0.00  0.00     0.082 H 
ATOM     23  H   LIG d   1       2.563  -1.305  -7.887  0.00  0.00     0.082 H 
ATOM     24  H   LIG d   1       5.374   0.923  -7.187  0.00  0.00     0.082 H 
ATOM     25  H   LIG d   1       5.874   0.054  -5.721  0.00  0.00     0.082 H 
ATOM     26  N   LIG d   1       4.144  -0.709  -6.628  0.00  0.00     0.236 N 
ATOM     27  H   LIG d   1       4.257  -1.632  -6.192  0.00  0.00     0.203 HD
ENDROOT
BRANCH  26  28
ATOM     28  C   LIG d   1       3.243   0.109  -5.791  0.00  0.00    -0.029 C 
ATOM     29  H   LIG d   1       3.583   1.145  -5.816  0.00  0.00     0.082 H 
ATOM     30  H   LIG d   1       2.233   0.049  -6.197  0.00  0.00     0.082 H 
BRANCH  28  31
ATOM     31  C   LIG d   1       3.244  -0.394  -4.347  0.00  0.00    -0.001 C 
ATOM     32  C   LIG d   1       3.970  -1.740  -4.278  0.00  0.00    -0.045 C 
ATOM     33  C   LIG d   1       3.970  -2.245  -2.833  0.00  0.00    -0.053 C 
ATOM     34  H   LIG d   1       3.457  -2.462  -4.914  0.00  0.00     0.027 H 
ATOM     35  H   LIG d   1       4.996  -1.617  -4.620  0.00  0.00     0.027 H 
ATOM     36  C   LIG d   1       4.689  -1.231  -1.939  0.00  0.00    -0.053 C 
ATOM     37  H   LIG d   1       2.943  -2.367  -2.490  0.00  0.00     0.026 H 
ATOM     38  H   LIG d   1       4.487  -3.203  -2.783  0.00  0.00     0.026 H 
ATOM     39  C   LIG d   1       3.964   0.114  -2.009  0.00  0.00    -0.053 C 
ATOM     40  H   LIG d   1       4.689  -1.590  -0.910  0.00  0.00     0.026 H 
ATOM     41  H   LIG d   1       5.716  -1.109  -2.282  0.00  0.00     0.026 H 
ATOM     42  C   LIG d   1       3.963   0.619  -3.454  0.00  0.00    -0.045 C 
ATOM     43  H   LIG d   1       2.937  -0.008  -1.666  0.00  0.00     0.026 H 
ATOM     44  H   LIG d   1       4.476   0.836  -1.373  0.00  0.00     0.026 H 
ATOM     45  H   LIG d   1       4.990   0.740  -3.797  0.00  0.00     0.027 H 
ATOM     46  H   LIG d   1       3.447   1.578  -3.504  0.00  0.00     0.027 H 
ATOM     47  H   LIG d   1       2.218  -0.517  -4.005  0.00  0.00     0.035 H 
ENDBRANCH  28  31
ENDBRANCH  26  28
BRANCH   7  48
ATOM     48  N   LIG d   1       4.736  -6.362  -5.340  0.00  0.00    -0.277 N 
ATOM     49  C   LIG d   1       5.357  -7.500  -5.709  0.00  0.00     0.248 C 
ATOM     50  O   LIG d   1       5.798  -7.614  -6.835  0.00  0.00    -0.270 OA
ATOM     51  H   LIG d   1       4.320  -6.297  -4.466  0.00  0.00     0.155 HD
BRANCH  49  52
ATOM     52  C   LIG d   1       5.499  -8.613  -4.741  0.00  0.00     0.040 A 
ATOM     53  C   LIG d   1       6.742  -8.922  -4.179  0.00  0.00    -0.032 A 
ATOM     54  C   LIG d   1       6.830  -9.967  -3.281  0.00  0.00     0.028 A 
ATOM     55  H   LIG d   1       7.620  -8.351  -4.444  0.00  0.00     0.064 H 
ATOM     56  N   LIG d   1       5.763 -10.669  -2.953  0.00  0.00    -0.263 NA
ATOM     57  H   LIG d   1       7.785 -10.213  -2.842  0.00  0.00     0.083 H 
ATOM     58  C   LIG d   1       4.574 -10.411  -3.458  0.00  0.00     0.028 A 
ATOM     59  C   LIG d   1       4.393  -9.380  -4.359  0.00  0.00    -0.032 A 
ATOM     60  H   LIG d   1       3.727 -11.012  -3.160  0.00  0.00     0.083 H 
ATOM     61  H   LIG d   1       3.415  -9.171  -4.766  0.00  0.00     0.064 H 
ENDBRANCH  49  52
ENDBRANCH   7  48
TORSDOF 4
ENDMDL
MODEL 5
REMARK VINA RESULT:      -7.2      2.904      6.881
REMARK  4 active torsions:
REMARK  status: ('A' for Active; 'I' for Inactive)
REMARK    1  A    between atoms: C_7  and  N_8 
REMARK       I    between atoms: N_8  and  C_9 
REMARK    2  A    between atoms: C_9  and  C_11 
REMARK    3  A    between atoms: C_25  and  C_26 
REMARK    4  A    between atoms: C_25  and  N_60 
ROOT
ATOM      1  C   LIG d   1       6.839   1.533  -3.404  0.00  0.00    -0.034 C 
ATOM      2  C   LIG d   1       5.607   0.887  -3.246  0.00  0.00    -0.040 C 
ATOM      3  C   LIG d   1       5.471  -0.427  -3.562  0.00  0.00     0.030 C 
ATOM      4  N   LIG d   1       6.540  -1.155  -3.969  0.00  0.00    -0.310 N 
ATOM      5  C   LIG d   1       7.721  -0.537  -4.220  0.00  0.00     0.273 C 
ATOM      6  O   LIG d   1       8.639  -1.168  -4.719  0.00  0.00    -0.266 OA
ATOM      7  C   LIG d   1       7.896   0.825  -3.909  0.00  0.00     0.099 C 
ATOM      8  C   LIG d   1       6.507  -2.611  -4.107  0.00  0.00     0.034 C 
ATOM      9  C   LIG d   1       5.092  -3.143  -4.264  0.00  0.00     0.018 C 
ATOM     10  H   LIG d   1       5.110  -4.221  -4.106  0.00  0.00     0.037 H 
ATOM     11  C   LIG d   1       4.192  -2.521  -3.194  0.00  0.00    -0.031 C 
ATOM     12  C   LIG d   1       4.083  -1.022  -3.492  0.00  0.00     0.040 C 
ATOM     13  H   LIG d   1       3.487  -0.516  -2.731  0.00  0.00     0.042 H 
ATOM     14  C   LIG d   1       3.438  -0.858  -4.878  0.00  0.00    -0.024 C 
ATOM     15  C   LIG d   1       4.539  -2.871  -5.657  0.00  0.00    -0.027 C 
ATOM     16  H   LIG d   1       6.952   2.572  -3.136  0.00  0.00     0.064 H 
ATOM     17  H   LIG d   1       4.759   1.436  -2.867  0.00  0.00     0.064 H 
ATOM     18  H   LIG d   1       7.092  -2.896  -4.982  0.00  0.00     0.050 H 
ATOM     19  H   LIG d   1       6.957  -3.060  -3.223  0.00  0.00     0.050 H 
ATOM     20  H   LIG d   1       4.633  -2.671  -2.208  0.00  0.00     0.028 H 
ATOM     21  H   LIG d   1       3.203  -2.979  -3.230  0.00  0.00     0.028 H 
ATOM     22  H   LIG d   1       2.484  -1.385  -4.905  0.00  0.00     0.082 H 
ATOM     23  H   LIG d   1       3.281   0.199  -5.089  0.00  0.00     0.082 H 
ATOM     24  H   LIG d   1       3.580  -3.379  -5.766  0.00  0.00     0.082 H 
ATOM     25  H   LIG d   1       5.235  -3.259  -6.400  0.00  0.00     0.082 H 
ATOM     26  N   LIG d   1       4.378  -1.419  -5.875  0.00  0.00     0.236 N 
ATOM     27  H   LIG d   1       5.291  -0.963  -5.766  0.00  0.00     0.203 HD
ENDROOT
BRANCH  26  28
ATOM     28  C   LIG d   1       3.876  -1.168  -7.241  0.00  0.00    -0.029 C 
ATOM     29  H   LIG d   1       4.439  -1.783  -7.942  0.00  0.00     0.082 H 
ATOM     30  H   LIG d   1       2.821  -1.439  -7.284  0.00  0.00     0.082 H 
BRANCH  28  31
ATOM     31  C   LIG d   1       4.038   0.307  -7.611  0.00  0.00    -0.001 C 
ATOM     32  C   LIG d   1       5.164   0.453  -8.638  0.00  0.00    -0.045 C 
ATOM     33  C   LIG d   1       5.328   1.929  -9.009  0.00  0.00    -0.053 C 
ATOM     34  H   LIG d   1       6.095   0.081  -8.211  0.00  0.00     0.027 H 
ATOM     35  H   LIG d   1       4.918  -0.121  -9.530  0.00  0.00     0.027 H 
ATOM     36  C   LIG d   1       4.020   2.452  -9.608  0.00  0.00    -0.053 C 
ATOM     37  H   LIG d   1       5.574   2.503  -8.116  0.00  0.00     0.026 H 
ATOM     38  H   LIG d   1       6.129   2.033  -9.740  0.00  0.00     0.026 H 
ATOM     39  C   LIG d   1       2.895   2.306  -8.581  0.00  0.00    -0.053 C 
ATOM     40  H   LIG d   1       4.137   3.503  -9.871  0.00  0.00     0.026 H 
ATOM     41  H   LIG d   1       3.774   1.878 -10.501  0.00  0.00     0.026 H 
ATOM     42  C   LIG d   1       2.732   0.830  -8.210  0.00  0.00    -0.045 C 
ATOM     43  H   LIG d   1       3.141   2.880  -7.689  0.00  0.00     0.026 H 
ATOM     44  H   LIG d   1       1.964   2.678  -9.009  0.00  0.00     0.026 H 
ATOM     45  H   LIG d   1       2.486   0.256  -9.104  0.00  0.00     0.027 H 
ATOM     46  H   LIG d   1       1.929   0.726  -7.479  0.00  0.00     0.027 H 
ATOM     47  H   LIG d   1       4.284   0.881  -6.719  0.00  0.00     0.035 H 
ENDBRANCH  28  31
ENDBRANCH  26  28
BRANCH   7  48
ATOM     48  N   LIG d   1       9.135   1.445  -4.107  0.00  0.00    -0.277 N 
ATOM     49  C   LIG d   1       9.364   2.148  -5.235  0.00  0.00     0.248 C 
ATOM     50  O   LIG d   1       8.533   2.163  -6.121  0.00  0.00    -0.270 OA
ATOM     51  H   LIG d   1       9.828   1.373  -3.432  0.00  0.00     0.155 HD
BRANCH  49  52
ATOM     52  C   LIG d   1      10.630   2.901  -5.394  0.00  0.00     0.040 A 
ATOM     53  C   LIG d   1      10.716   3.985  -6.274  0.00  0.00    -0.032 A 
ATOM     54  C   LIG d   1      11.915   4.659  -6.391  0.00  0.00     0.028 A 
ATOM     55  H   LIG d   1       9.857   4.290  -6.852  0.00  0.00     0.064 H 
ATOM     56  N   LIG d   1      12.969   4.292  -5.688  0.00  0.00    -0.263 NA
ATOM     57  H   LIG d   1      11.992   5.497  -7.067  0.00  0.00     0.083 H 
ATOM     58  C   LIG d   1      12.931   3.278  -4.848  0.00  0.00     0.028 A 
ATOM     59  C   LIG d   1      11.771   2.551  -4.664  0.00  0.00    -0.032 A 
ATOM     60  H   LIG d   1      13.819   3.012  -4.292  0.00  0.00     0.083 H 
ATOM     61  H   LIG d   1      11.746   1.724  -3.971  0.00  0.00     0.064 H 
ENDBRANCH  49  52
ENDBRANCH   7  48
TORSDOF 4
ENDMDL
MODEL 6
REMARK VINA RESULT:      -7.2      2.811      5.445
REMARK  4 active torsions:
REMARK  status: ('A' for Active; 'I' for Inactive)
REMARK    1  A    between atoms: C_7  and  N_8 
REMARK       I    between atoms: N_8  and  C_9 
REMARK    2  A    between atoms: C_9  and  C_11 
REMARK    3  A    between atoms: C_25  and  C_26 
REMARK    4  A    between atoms: C_25  and  N_60 
ROOT
ATOM      1  C   LIG d   1       7.940   1.211  -4.360  0.00  0.00    -0.034 C 
ATOM      2  C   LIG d   1       6.891   1.384  -3.450  0.00  0.00    -0.040 C 
ATOM      3  C   LIG d   1       6.032   0.365  -3.185  0.00  0.00     0.030 C 
ATOM      4  N   LIG d   1       6.215  -0.857  -3.743  0.00  0.00    -0.310 N 
ATOM      5  C   LIG d   1       7.164  -1.028  -4.696  0.00  0.00     0.273 C 
ATOM      6  O   LIG d   1       7.234  -2.089  -5.296  0.00  0.00    -0.266 OA
ATOM      7  C   LIG d   1       8.069   0.008  -4.999  0.00  0.00     0.099 C 
ATOM      8  C   LIG d   1       5.465  -2.042  -3.328  0.00  0.00     0.034 C 
ATOM      9  C   LIG d   1       4.161  -1.687  -2.635  0.00  0.00     0.018 C 
ATOM     10  H   LIG d   1       3.783  -2.577  -2.132  0.00  0.00     0.037 H 
ATOM     11  C   LIG d   1       4.425  -0.618  -1.571  0.00  0.00    -0.031 C 
ATOM     12  C   LIG d   1       4.847   0.665  -2.295  0.00  0.00     0.040 C 
ATOM     13  H   LIG d   1       5.093   1.452  -1.582  0.00  0.00     0.042 H 
ATOM     14  C   LIG d   1       3.686   1.104  -3.202  0.00  0.00    -0.024 C 
ATOM     15  C   LIG d   1       3.107  -1.210  -3.626  0.00  0.00    -0.027 C 
ATOM     16  H   LIG d   1       8.634   2.014  -4.557  0.00  0.00     0.064 H 
ATOM     17  H   LIG d   1       6.765   2.333  -2.951  0.00  0.00     0.064 H 
ATOM     18  H   LIG d   1       5.245  -2.647  -4.209  0.00  0.00     0.050 H 
ATOM     19  H   LIG d   1       6.080  -2.629  -2.646  0.00  0.00     0.050 H 
ATOM     20  H   LIG d   1       5.223  -0.948  -0.906  0.00  0.00     0.028 H 
ATOM     21  H   LIG d   1       3.516  -0.436  -0.996  0.00  0.00     0.028 H 
ATOM     22  H   LIG d   1       2.776   1.209  -2.611  0.00  0.00     0.082 H 
ATOM     23  H   LIG d   1       3.928   2.054  -3.677  0.00  0.00     0.082 H 
ATOM     24  H   LIG d   1       2.156  -1.090  -3.107  0.00  0.00     0.082 H 
ATOM     25  H   LIG d   1       2.993  -1.957  -4.412  0.00  0.00     0.082 H 
ATOM     26  N   LIG d   1       3.518   0.067  -4.244  0.00  0.00     0.236 N 
ATOM     27  H   LIG d   1       4.415  -0.070  -4.725  0.00  0.00     0.203 HD
ENDROOT
BRANCH  26  28
ATOM     28  C   LIG d   1       2.506   0.498  -5.229  0.00  0.00    -0.029 C 
ATOM     29  H   LIG d   1       1.560   0.007  -5.001  0.00  0.00     0.082 H 
ATOM     30  H   LIG d   1       2.381   1.578  -5.157  0.00  0.00     0.082 H 
BRANCH  28  31
ATOM     31  C   LIG d   1       2.944   0.129  -6.648  0.00  0.00    -0.001 C 
ATOM     32  C   LIG d   1       2.793   1.348  -7.560  0.00  0.00    -0.045 C 
ATOM     33  C   LIG d   1       3.229   0.980  -8.980  0.00  0.00    -0.053 C 
ATOM     34  H   LIG d   1       1.750   1.665  -7.572  0.00  0.00     0.027 H 
ATOM     35  H   LIG d   1       3.416   2.160  -7.188  0.00  0.00     0.027 H 
ATOM     36  C   LIG d   1       4.693   0.534  -8.963  0.00  0.00    -0.053 C 
ATOM     37  H   LIG d   1       2.606   0.167  -9.353  0.00  0.00     0.026 H 
ATOM     38  H   LIG d   1       3.122   1.848  -9.630  0.00  0.00     0.026 H 
ATOM     39  C   LIG d   1       4.844  -0.685  -8.050  0.00  0.00    -0.053 C 
ATOM     40  H   LIG d   1       5.004   0.271  -9.974  0.00  0.00     0.026 H 
ATOM     41  H   LIG d   1       5.316   1.346  -8.590  0.00  0.00     0.026 H 
ATOM     42  C   LIG d   1       4.407  -0.317  -6.631  0.00  0.00    -0.045 C 
ATOM     43  H   LIG d   1       4.221  -1.497  -8.423  0.00  0.00     0.026 H 
ATOM     44  H   LIG d   1       5.887  -1.003  -8.038  0.00  0.00     0.026 H 
ATOM     45  H   LIG d   1       5.030   0.496  -6.259  0.00  0.00     0.027 H 
ATOM     46  H   LIG d   1       4.515  -1.185  -5.981  0.00  0.00     0.027 H 
ATOM     47  H   LIG d   1       2.321  -0.683  -7.020  0.00  0.00     0.035 H 
ENDBRANCH  28  31
ENDBRANCH  26  28
BRANCH   7  48
ATOM     48  N   LIG d   1       9.089  -0.193  -5.937  0.00  0.00    -0.277 N 
ATOM     49  C   LIG d   1       8.965   0.305  -7.184  0.00  0.00     0.248 C 
ATOM     50  O   LIG d   1       7.930   0.841  -7.524  0.00  0.00    -0.270 OA
ATOM     51  H   LIG d   1       9.887  -0.685  -5.689  0.00  0.00     0.155 HD
BRANCH  49  52
ATOM     52  C   LIG d   1      10.091   0.195  -8.140  0.00  0.00     0.040 A 
ATOM     53  C   LIG d   1       9.860   0.123  -9.518  0.00  0.00    -0.032 A 
ATOM     54  C   LIG d   1      10.939   0.022 -10.373  0.00  0.00     0.028 A 
ATOM     55  H   LIG d   1       8.853   0.145  -9.906  0.00  0.00     0.064 H 
ATOM     56  N   LIG d   1      12.173  -0.007  -9.907  0.00  0.00    -0.263 NA
ATOM     57  H   LIG d   1      10.771  -0.035 -11.439  0.00  0.00     0.083 H 
ATOM     58  C   LIG d   1      12.434   0.060  -8.617  0.00  0.00     0.028 A 
ATOM     59  C   LIG d   1      11.415   0.169  -7.691  0.00  0.00    -0.032 A 
ATOM     60  H   LIG d   1      13.460   0.034  -8.279  0.00  0.00     0.083 H 
ATOM     61  H   LIG d   1      11.637   0.227  -6.636  0.00  0.00     0.064 H 
ENDBRANCH  49  52
ENDBRANCH   7  48
TORSDOF 4
ENDMDL
MODEL 7
REMARK VINA RESULT:      -7.1      2.782      7.301
REMARK  4 active torsions:
REMARK  status: ('A' for Active; 'I' for Inactive)
REMARK    1  A    between atoms: C_7  and  N_8 
REMARK       I    between atoms: N_8  and  C_9 
REMARK    2  A    between atoms: C_9  and  C_11 
REMARK    3  A    between atoms: C_25  and  C_26 
REMARK    4  A    between atoms: C_25  and  N_60 
ROOT
ATOM      1  C   LIG d   1       7.663  -1.357  -7.752  0.00  0.00    -0.034 C 
ATOM      2  C   LIG d   1       6.399  -1.550  -8.322  0.00  0.00    -0.040 C 
ATOM      3  C   LIG d   1       5.612  -0.488  -8.631  0.00  0.00     0.030 C 
ATOM      4  N   LIG d   1       6.061   0.780  -8.458  0.00  0.00    -0.310 N 
ATOM      5  C   LIG d   1       7.239   0.998  -7.824  0.00  0.00     0.273 C 
ATOM      6  O   LIG d   1       7.574   2.137  -7.545  0.00  0.00    -0.266 OA
ATOM      7  C   LIG d   1       8.079  -0.081  -7.485  0.00  0.00     0.099 C 
ATOM      8  C   LIG d   1       5.356   1.953  -8.975  0.00  0.00     0.034 C 
ATOM      9  C   LIG d   1       3.885   1.673  -9.237  0.00  0.00     0.018 C 
ATOM     10  H   LIG d   1       3.483   2.482  -9.847  0.00  0.00     0.037 H 
ATOM     11  C   LIG d   1       3.748   0.369 -10.027  0.00  0.00    -0.031 C 
ATOM     12  C   LIG d   1       4.209  -0.776  -9.120  0.00  0.00     0.040 C 
ATOM     13  H   LIG d   1       4.177  -1.729  -9.648  0.00  0.00     0.042 H 
ATOM     14  C   LIG d   1       3.289  -0.809  -7.889  0.00  0.00    -0.024 C 
ATOM     15  C   LIG d   1       3.086   1.604  -7.943  0.00  0.00    -0.027 C 
ATOM     16  H   LIG d   1       8.296  -2.200  -7.523  0.00  0.00     0.064 H 
ATOM     17  H   LIG d   1       6.049  -2.551  -8.522  0.00  0.00     0.064 H 
ATOM     18  H   LIG d   1       5.438   2.763  -8.250  0.00  0.00     0.050 H 
ATOM     19  H   LIG d   1       5.826   2.267  -9.906  0.00  0.00     0.050 H 
ATOM     20  H   LIG d   1       4.373   0.410 -10.919  0.00  0.00     0.028 H 
ATOM     21  H   LIG d   1       2.706   0.218 -10.313  0.00  0.00     0.028 H 
ATOM     22  H   LIG d   1       2.250  -0.891  -8.209  0.00  0.00     0.082 H 
ATOM     23  H   LIG d   1       3.547  -1.659  -7.258  0.00  0.00     0.082 H 
ATOM     24  H   LIG d   1       2.024   1.531  -8.182  0.00  0.00     0.082 H 
ATOM     25  H   LIG d   1       3.260   2.513  -7.366  0.00  0.00     0.082 H 
ATOM     26  N   LIG d   1       3.510   0.444  -7.133  0.00  0.00     0.236 N 
ATOM     27  H   LIG d   1       4.510   0.533  -6.922  0.00  0.00     0.203 HD
ENDROOT
BRANCH  26  28
ATOM     28  C   LIG d   1       2.753   0.410  -5.866  0.00  0.00    -0.029 C 
ATOM     29  H   LIG d   1       2.776   1.402  -5.414  0.00  0.00     0.082 H 
ATOM     30  H   LIG d   1       1.720   0.133  -6.079  0.00  0.00     0.082 H 
BRANCH  28  31
ATOM     31  C   LIG d   1       3.365  -0.605  -4.900  0.00  0.00    -0.001 C 
ATOM     32  C   LIG d   1       4.851  -0.296  -4.710  0.00  0.00    -0.045 C 
ATOM     33  C   LIG d   1       5.465  -1.312  -3.744  0.00  0.00    -0.053 C 
ATOM     34  H   LIG d   1       5.360  -0.357  -5.672  0.00  0.00     0.027 H 
ATOM     35  H   LIG d   1       4.964   0.708  -4.302  0.00  0.00     0.027 H 
ATOM     36  C   LIG d   1       4.750  -1.227  -2.393  0.00  0.00    -0.053 C 
ATOM     37  H   LIG d   1       5.352  -2.316  -4.152  0.00  0.00     0.026 H 
ATOM     38  H   LIG d   1       6.523  -1.092  -3.608  0.00  0.00     0.026 H 
ATOM     39  C   LIG d   1       3.263  -1.536  -2.583  0.00  0.00    -0.053 C 
ATOM     40  H   LIG d   1       5.186  -1.951  -1.705  0.00  0.00     0.026 H 
ATOM     41  H   LIG d   1       4.862  -0.223  -1.985  0.00  0.00     0.026 H 
ATOM     42  C   LIG d   1       2.650  -0.520  -3.550  0.00  0.00    -0.045 C 
ATOM     43  H   LIG d   1       3.150  -2.540  -2.991  0.00  0.00     0.026 H 
ATOM     44  H   LIG d   1       2.754  -1.475  -1.621  0.00  0.00     0.026 H 
ATOM     45  H   LIG d   1       2.764   0.484  -3.141  0.00  0.00     0.027 H 
ATOM     46  H   LIG d   1       1.591  -0.740  -3.685  0.00  0.00     0.027 H 
ATOM     47  H   LIG d   1       3.252  -1.609  -5.308  0.00  0.00     0.035 H 
ENDBRANCH  28  31
ENDBRANCH  26  28
BRANCH   7  48
ATOM     48  N   LIG d   1       9.325   0.149  -6.889  0.00  0.00    -0.277 N 
ATOM     49  C   LIG d   1       9.443   0.131  -5.546  0.00  0.00     0.248 C 
ATOM     50  O   LIG d   1       8.454   0.012  -4.851  0.00  0.00    -0.270 OA
ATOM     51  H   LIG d   1      10.104   0.317  -7.442  0.00  0.00     0.155 HD
BRANCH  49  52
ATOM     52  C   LIG d   1      10.779   0.258  -4.919  0.00  0.00     0.040 A 
ATOM     53  C   LIG d   1      11.186   1.460  -4.330  0.00  0.00    -0.032 A 
ATOM     54  C   LIG d   1      12.439   1.534  -3.756  0.00  0.00     0.028 A 
ATOM     55  H   LIG d   1      10.529   2.317  -4.325  0.00  0.00     0.064 H 
ATOM     56  N   LIG d   1      13.248   0.492  -3.759  0.00  0.00    -0.263 NA
ATOM     57  H   LIG d   1      12.763   2.457  -3.300  0.00  0.00     0.083 H 
ATOM     58  C   LIG d   1      12.903  -0.659  -4.301  0.00  0.00     0.028 A 
ATOM     59  C   LIG d   1      11.666  -0.823  -4.892  0.00  0.00    -0.032 A 
ATOM     60  H   LIG d   1      13.598  -1.487  -4.280  0.00  0.00     0.083 H 
ATOM     61  H   LIG d   1      11.389  -1.770  -5.331  0.00  0.00     0.064 H 
ENDBRANCH  49  52
ENDBRANCH   7  48
TORSDOF 4
ENDMDL
MODEL 8
REMARK VINA RESULT:      -6.7      3.209      5.792
REMARK  4 active torsions:
REMARK  status: ('A' for Active; 'I' for Inactive)
REMARK    1  A    between atoms: C_7  and  N_8 
REMARK       I    between atoms: N_8  and  C_9 
REMARK    2  A    between atoms: C_9  and  C_11 
REMARK    3  A    between atoms: C_25  and  C_26 
REMARK    4  A    between atoms: C_25  and  N_60 
ROOT
ATOM      1  C   LIG d   1       1.338  -1.665 -10.570  0.00  0.00    -0.034 C 
ATOM      2  C   LIG d   1       1.499  -0.535  -9.760  0.00  0.00    -0.040 C 
ATOM      3  C   LIG d   1       2.735  -0.024  -9.526  0.00  0.00     0.030 C 
ATOM      4  N   LIG d   1       3.828  -0.555 -10.126  0.00  0.00    -0.310 N 
ATOM      5  C   LIG d   1       3.716  -1.703 -10.838  0.00  0.00     0.273 C 
ATOM      6  O   LIG d   1       4.720  -2.255 -11.259  0.00  0.00    -0.266 OA
ATOM      7  C   LIG d   1       2.450  -2.263 -11.098  0.00  0.00     0.099 C 
ATOM      8  C   LIG d   1       5.145   0.081 -10.091  0.00  0.00     0.034 C 
ATOM      9  C   LIG d   1       5.285   1.056  -8.933  0.00  0.00     0.018 C 
ATOM     10  H   LIG d   1       6.166   1.673  -9.107  0.00  0.00     0.037 H 
ATOM     11  C   LIG d   1       4.062   1.975  -8.893  0.00  0.00    -0.031 C 
ATOM     12  C   LIG d   1       2.845   1.115  -8.537  0.00  0.00     0.040 C 
ATOM     13  H   LIG d   1       1.932   1.711  -8.538  0.00  0.00     0.042 H 
ATOM     14  C   LIG d   1       3.085   0.501  -7.148  0.00  0.00    -0.024 C 
ATOM     15  C   LIG d   1       5.458   0.332  -7.605  0.00  0.00    -0.027 C 
ATOM     16  H   LIG d   1       0.354  -2.060 -10.772  0.00  0.00     0.064 H 
ATOM     17  H   LIG d   1       0.633  -0.062  -9.322  0.00  0.00     0.064 H 
ATOM     18  H   LIG d   1       5.909  -0.692  -9.997  0.00  0.00     0.050 H 
ATOM     19  H   LIG d   1       5.303   0.618 -11.026  0.00  0.00     0.050 H 
ATOM     20  H   LIG d   1       3.915   2.439  -9.868  0.00  0.00     0.028 H 
ATOM     21  H   LIG d   1       4.204   2.746  -8.134  0.00  0.00     0.028 H 
ATOM     22  H   LIG d   1       3.293   1.291  -6.427  0.00  0.00     0.082 H 
ATOM     23  H   LIG d   1       2.205  -0.060  -6.836  0.00  0.00     0.082 H 
ATOM     24  H   LIG d   1       5.682   1.062  -6.827  0.00  0.00     0.082 H 
ATOM     25  H   LIG d   1       6.289  -0.369  -7.686  0.00  0.00     0.082 H 
ATOM     26  N   LIG d   1       4.236  -0.423  -7.263  0.00  0.00     0.236 N 
ATOM     27  H   LIG d   1       4.045  -1.102  -8.009  0.00  0.00     0.203 HD
ENDROOT
BRANCH  26  28
ATOM     28  C   LIG d   1       4.431  -1.149  -5.992  0.00  0.00    -0.029 C 
ATOM     29  H   LIG d   1       3.675  -1.930  -5.912  0.00  0.00     0.082 H 
ATOM     30  H   LIG d   1       5.423  -1.602  -5.993  0.00  0.00     0.082 H 
BRANCH  28  31
ATOM     31  C   LIG d   1       4.307  -0.195  -4.803  0.00  0.00    -0.001 C 
ATOM     32  C   LIG d   1       3.284  -0.750  -3.810  0.00  0.00    -0.045 C 
ATOM     33  C   LIG d   1       3.158   0.204  -2.620  0.00  0.00    -0.053 C 
ATOM     34  H   LIG d   1       2.316  -0.846  -4.301  0.00  0.00     0.027 H 
ATOM     35  H   LIG d   1       3.612  -1.728  -3.459  0.00  0.00     0.027 H 
ATOM     36  C   LIG d   1       4.518   0.339  -1.930  0.00  0.00    -0.053 C 
ATOM     37  H   LIG d   1       2.831   1.182  -2.971  0.00  0.00     0.026 H 
ATOM     38  H   LIG d   1       2.430  -0.191  -1.912  0.00  0.00     0.026 H 
ATOM     39  C   LIG d   1       5.541   0.894  -2.923  0.00  0.00    -0.053 C 
ATOM     40  H   LIG d   1       4.429   1.019  -1.083  0.00  0.00     0.026 H 
ATOM     41  H   LIG d   1       4.846  -0.639  -1.579  0.00  0.00     0.026 H 
ATOM     42  C   LIG d   1       5.665  -0.060  -4.113  0.00  0.00    -0.045 C 
ATOM     43  H   LIG d   1       5.213   1.872  -3.274  0.00  0.00     0.026 H 
ATOM     44  H   LIG d   1       6.509   0.990  -2.431  0.00  0.00     0.026 H 
ATOM     45  H   LIG d   1       5.993  -1.039  -3.761  0.00  0.00     0.027 H 
ATOM     46  H   LIG d   1       6.395   0.335  -4.821  0.00  0.00     0.027 H 
ATOM     47  H   LIG d   1       3.979   0.783  -5.154  0.00  0.00     0.035 H 
ENDBRANCH  28  31
ENDBRANCH  26  28
BRANCH   7  48
ATOM     48  N   LIG d   1       2.330  -3.412 -11.889  0.00  0.00    -0.277 N 
ATOM     49  C   LIG d   1       2.195  -4.620 -11.306  0.00  0.00     0.248 C 
ATOM     50  O   LIG d   1       2.274  -4.725 -10.099  0.00  0.00    -0.270 OA
ATOM     51  H   LIG d   1       2.340  -3.338 -12.856  0.00  0.00     0.155 HD
BRANCH  49  52
ATOM     52  C   LIG d   1       1.950  -5.821 -12.139  0.00  0.00     0.040 A 
ATOM     53  C   LIG d   1       1.757  -7.076 -11.553  0.00  0.00    -0.032 A 
ATOM     54  C   LIG d   1       1.532  -8.168 -12.367  0.00  0.00     0.028 A 
ATOM     55  H   LIG d   1       1.783  -7.188 -10.479  0.00  0.00     0.064 H 
ATOM     56  N   LIG d   1       1.499  -8.039 -13.679  0.00  0.00    -0.263 NA
ATOM     57  H   LIG d   1       1.382  -9.141 -11.923  0.00  0.00     0.083 H 
ATOM     58  C   LIG d   1       1.675  -6.876 -14.272  0.00  0.00     0.028 A 
ATOM     59  C   LIG d   1       1.900  -5.730 -13.534  0.00  0.00    -0.032 A 
ATOM     60  H   LIG d   1       1.640  -6.817 -15.350  0.00  0.00     0.083 H 
ATOM     61  H   LIG d   1       2.040  -4.779 -14.026  0.00  0.00     0.064 H 
ENDBRANCH  49  52
ENDBRANCH   7  48
TORSDOF 4
ENDMDL
MODEL 9
REMARK VINA RESULT:      -6.7      4.853      7.808
REMARK  4 active torsions:
REMARK  status: ('A' for Active; 'I' for Inactive)
REMARK    1  A    between atoms: C_7  and  N_8 
REMARK       I    between atoms: N_8  and  C_9 
REMARK    2  A    between atoms: C_9  and  C_11 
REMARK    3  A    between atoms: C_25  and  C_26 
REMARK    4  A    between atoms: C_25  and  N_60 
ROOT
ATOM      1  C   LIG d   1       5.887  -3.852  -7.073  0.00  0.00    -0.034 C 
ATOM      2  C   LIG d   1       6.496  -4.909  -7.759  0.00  0.00    -0.040 C 
ATOM      3  C   LIG d   1       6.179  -6.196  -7.464  0.00  0.00     0.030 C 
ATOM      4  N   LIG d   1       5.217  -6.480  -6.552  0.00  0.00    -0.310 N 
ATOM      5  C   LIG d   1       4.678  -5.484  -5.807  0.00  0.00     0.273 C 
ATOM      6  O   LIG d   1       3.917  -5.755  -4.893  0.00  0.00    -0.266 OA
ATOM      7  C   LIG d   1       4.988  -4.137  -6.083  0.00  0.00     0.099 C 
ATOM      8  C   LIG d   1       4.677  -7.825  -6.355  0.00  0.00     0.034 C 
ATOM      9  C   LIG d   1       5.621  -8.905  -6.858  0.00  0.00     0.018 C 
ATOM     10  H   LIG d   1       5.069  -9.843  -6.921  0.00  0.00     0.037 H 
ATOM     11  C   LIG d   1       6.103  -8.544  -8.265  0.00  0.00    -0.031 C 
ATOM     12  C   LIG d   1       6.971  -7.287  -8.150  0.00  0.00     0.040 C 
ATOM     13  H   LIG d   1       7.308  -6.954  -9.133  0.00  0.00     0.042 H 
ATOM     14  C   LIG d   1       8.174  -7.618  -7.253  0.00  0.00    -0.024 C 
ATOM     15  C   LIG d   1       6.802  -9.104  -5.918  0.00  0.00    -0.027 C 
ATOM     16  H   LIG d   1       6.126  -2.828  -7.320  0.00  0.00     0.064 H 
ATOM     17  H   LIG d   1       7.221  -4.701  -8.531  0.00  0.00     0.064 H 
ATOM     18  H   LIG d   1       4.496  -7.982  -5.291  0.00  0.00     0.050 H 
ATOM     19  H   LIG d   1       3.730  -7.908  -6.887  0.00  0.00     0.050 H 
ATOM     20  H   LIG d   1       5.247  -8.345  -8.910  0.00  0.00     0.028 H 
ATOM     21  H   LIG d   1       6.693  -9.364  -8.676  0.00  0.00     0.028 H 
ATOM     22  H   LIG d   1       8.703  -8.485  -7.650  0.00  0.00     0.082 H 
ATOM     23  H   LIG d   1       8.849  -6.764  -7.210  0.00  0.00     0.082 H 
ATOM     24  H   LIG d   1       7.380  -9.968  -6.248  0.00  0.00     0.082 H 
ATOM     25  H   LIG d   1       6.430  -9.286  -4.910  0.00  0.00     0.082 H 
ATOM     26  N   LIG d   1       7.654  -7.897  -5.896  0.00  0.00     0.236 N 
ATOM     27  H   LIG d   1       7.090  -7.098  -5.584  0.00  0.00     0.203 HD
ENDROOT
BRANCH  26  28
ATOM     28  C   LIG d   1       8.774  -8.090  -4.953  0.00  0.00    -0.029 C 
ATOM     29  H   LIG d   1       8.394  -8.550  -4.042  0.00  0.00     0.082 H 
ATOM     30  H   LIG d   1       9.512  -8.748  -5.412  0.00  0.00     0.082 H 
BRANCH  28  31
ATOM     31  C   LIG d   1       9.429  -6.749  -4.614  0.00  0.00    -0.001 C 
ATOM     32  C   LIG d   1       8.355  -5.662  -4.543  0.00  0.00    -0.045 C 
ATOM     33  C   LIG d   1       9.008  -4.320  -4.204  0.00  0.00    -0.053 C 
ATOM     34  H   LIG d   1       7.851  -5.586  -5.506  0.00  0.00     0.027 H 
ATOM     35  H   LIG d   1       7.629  -5.918  -3.772  0.00  0.00     0.027 H 
ATOM     36  C   LIG d   1       9.717  -4.426  -2.851  0.00  0.00    -0.053 C 
ATOM     37  H   LIG d   1       9.735  -4.064  -4.976  0.00  0.00     0.026 H 
ATOM     38  H   LIG d   1       8.244  -3.545  -4.153  0.00  0.00     0.026 H 
ATOM     39  C   LIG d   1      10.791  -5.514  -2.922  0.00  0.00    -0.053 C 
ATOM     40  H   LIG d   1      10.183  -3.471  -2.610  0.00  0.00     0.026 H 
ATOM     41  H   LIG d   1       8.991  -4.682  -2.080  0.00  0.00     0.026 H 
ATOM     42  C   LIG d   1      10.137  -6.855  -3.262  0.00  0.00    -0.045 C 
ATOM     43  H   LIG d   1      11.517  -5.258  -3.693  0.00  0.00     0.026 H 
ATOM     44  H   LIG d   1      11.295  -5.589  -1.959  0.00  0.00     0.026 H 
ATOM     45  H   LIG d   1       9.410  -7.110  -2.490  0.00  0.00     0.027 H 
ATOM     46  H   LIG d   1      10.902  -7.630  -3.312  0.00  0.00     0.027 H 
ATOM     47  H   LIG d   1      10.154  -6.494  -5.385  0.00  0.00     0.035 H 
ENDBRANCH  28  31
ENDBRANCH  26  28
BRANCH   7  48
ATOM     48  N   LIG d   1       4.380  -3.106  -5.356  0.00  0.00    -0.277 N 
ATOM     49  C   LIG d   1       5.049  -2.504  -4.352  0.00  0.00     0.248 C 
ATOM     50  O   LIG d   1       6.139  -2.919  -4.014  0.00  0.00    -0.270 OA
ATOM     51  H   LIG d   1       3.480  -2.822  -5.578  0.00  0.00     0.155 HD
BRANCH  49  52
ATOM     52  C   LIG d   1       4.454  -1.337  -3.661  0.00  0.00     0.040 A 
ATOM     53  C   LIG d   1       3.512  -0.525  -4.303  0.00  0.00    -0.032 A 
ATOM     54  C   LIG d   1       2.982   0.552  -3.621  0.00  0.00     0.028 A 
ATOM     55  H   LIG d   1       3.204  -0.739  -5.315  0.00  0.00     0.064 H 
ATOM     56  N   LIG d   1       3.354   0.821  -2.385  0.00  0.00    -0.263 NA
ATOM     57  H   LIG d   1       2.255   1.185  -4.108  0.00  0.00     0.083 H 
ATOM     58  C   LIG d   1       4.237   0.082  -1.744  0.00  0.00     0.028 A 
ATOM     59  C   LIG d   1       4.813  -1.019  -2.347  0.00  0.00    -0.032 A 
ATOM     60  H   LIG d   1       4.512   0.339  -0.731  0.00  0.00     0.083 H 
ATOM     61  H   LIG d   1       5.533  -1.622  -1.815  0.00  0.00     0.064 H 
ENDBRANCH  49  52
ENDBRANCH   7  48
TORSDOF 4
ENDMDL
MODEL 10
REMARK VINA RESULT:      -6.5      6.651     10.724
REMARK  4 active torsions:
REMARK  status: ('A' for Active; 'I' for Inactive)
REMARK    1  A    between atoms: C_7  and  N_8 
REMARK       I    between atoms: N_8  and  C_9 
REMARK    2  A    between atoms: C_9  and  C_11 
REMARK    3  A    between atoms: C_25  and  C_26 
REMARK    4  A    between atoms: C_25  and  N_60 
ROOT
ATOM      1  C   LIG d   1       9.170   3.491  -3.361  0.00  0.00    -0.034 C 
ATOM      2  C   LIG d   1       8.904   2.915  -4.609  0.00  0.00    -0.040 C 
ATOM      3  C   LIG d   1       9.920   2.561  -5.437  0.00  0.00     0.030 C 
ATOM      4  N   LIG d   1      11.211   2.695  -5.044  0.00  0.00    -0.310 N 
ATOM      5  C   LIG d   1      11.501   3.333  -3.883  0.00  0.00     0.273 C 
ATOM      6  O   LIG d   1      12.662   3.576  -3.600  0.00  0.00    -0.266 OA
ATOM      7  C   LIG d   1      10.471   3.718  -3.002  0.00  0.00     0.099 C 
ATOM      8  C   LIG d   1      12.334   2.130  -5.792  0.00  0.00     0.034 C 
ATOM      9  C   LIG d   1      11.983   1.863  -7.246  0.00  0.00     0.018 C 
ATOM     10  H   LIG d   1      12.753   1.221  -7.674  0.00  0.00     0.037 H 
ATOM     11  C   LIG d   1      10.649   1.117  -7.319  0.00  0.00    -0.031 C 
ATOM     12  C   LIG d   1       9.556   2.069  -6.820  0.00  0.00     0.040 C 
ATOM     13  H   LIG d   1       8.585   1.574  -6.806  0.00  0.00     0.042 H 
ATOM     14  C   LIG d   1       9.525   3.290  -7.752  0.00  0.00    -0.024 C 
ATOM     15  C   LIG d   1      11.925   3.151  -8.057  0.00  0.00    -0.027 C 
ATOM     16  H   LIG d   1       8.363   3.755  -2.695  0.00  0.00     0.064 H 
ATOM     17  H   LIG d   1       7.882   2.746  -4.914  0.00  0.00     0.064 H 
ATOM     18  H   LIG d   1      13.172   2.828  -5.752  0.00  0.00     0.050 H 
ATOM     19  H   LIG d   1      12.636   1.194  -5.324  0.00  0.00     0.050 H 
ATOM     20  H   LIG d   1      10.686   0.231  -6.685  0.00  0.00     0.028 H 
ATOM     21  H   LIG d   1      10.443   0.827  -8.350  0.00  0.00     0.028 H 
ATOM     22  H   LIG d   1       9.389   2.963  -8.783  0.00  0.00     0.082 H 
ATOM     23  H   LIG d   1       8.709   3.953  -7.466  0.00  0.00     0.082 H 
ATOM     24  H   LIG d   1      11.798   2.904  -9.112  0.00  0.00     0.082 H 
ATOM     25  H   LIG d   1      12.859   3.697  -7.928  0.00  0.00     0.082 H 
ATOM     26  N   LIG d   1      10.812   4.005  -7.594  0.00  0.00     0.236 N 
ATOM     27  H   LIG d   1      10.951   4.223  -6.600  0.00  0.00     0.203 HD
ENDROOT
BRANCH  26  28
ATOM     28  C   LIG d   1      10.790   5.264  -8.363  0.00  0.00    -0.029 C 
ATOM     29  H   LIG d   1      11.787   5.704  -8.349  0.00  0.00     0.082 H 
ATOM     30  H   LIG d   1      10.504   5.045  -9.392  0.00  0.00     0.082 H 
BRANCH  28  31
ATOM     31  C   LIG d   1       9.789   6.249  -7.756  0.00  0.00    -0.001 C 
ATOM     32  C   LIG d   1      10.170   6.528  -6.300  0.00  0.00    -0.045 C 
ATOM     33  C   LIG d   1       9.169   7.512  -5.691  0.00  0.00    -0.053 C 
ATOM     34  H   LIG d   1      10.151   5.596  -5.735  0.00  0.00     0.027 H 
ATOM     35  H   LIG d   1      11.170   6.956  -6.261  0.00  0.00     0.027 H 
ATOM     36  C   LIG d   1       9.195   8.821  -6.484  0.00  0.00    -0.053 C 
ATOM     37  H   LIG d   1       8.167   7.084  -5.729  0.00  0.00     0.026 H 
ATOM     38  H   LIG d   1       9.439   7.711  -4.654  0.00  0.00     0.026 H 
ATOM     39  C   LIG d   1       8.814   8.542  -7.940  0.00  0.00    -0.053 C 
ATOM     40  H   LIG d   1       8.481   9.522  -6.050  0.00  0.00     0.026 H 
ATOM     41  H   LIG d   1      10.195   9.250  -6.445  0.00  0.00     0.026 H 
ATOM     42  C   LIG d   1       9.815   7.557  -8.548  0.00  0.00    -0.045 C 
ATOM     43  H   LIG d   1       7.814   8.114  -7.978  0.00  0.00     0.026 H 
ATOM     44  H   LIG d   1       8.833   9.475  -8.504  0.00  0.00     0.026 H 
ATOM     45  H   LIG d   1      10.816   7.986  -8.509  0.00  0.00     0.027 H 
ATOM     46  H   LIG d   1       9.545   7.359  -9.586  0.00  0.00     0.027 H 
ATOM     47  H   LIG d   1       8.789   5.821  -7.794  0.00  0.00     0.035 H 
ENDBRANCH  28  31
ENDBRANCH  26  28
BRANCH   7  48
ATOM     48  N   LIG d   1      10.774   4.318  -1.774  0.00  0.00    -0.277 N 
ATOM     49  C   LIG d   1      10.735   5.660  -1.653  0.00  0.00     0.248 C 
ATOM     50  O   LIG d   1      10.531   6.353  -2.629  0.00  0.00    -0.270 OA
ATOM     51  H   LIG d   1      11.009   3.768  -1.010  0.00  0.00     0.155 HD
BRANCH  49  52
ATOM     52  C   LIG d   1      10.940   6.290  -0.327  0.00  0.00     0.040 A 
ATOM     53  C   LIG d   1      11.235   7.652  -0.217  0.00  0.00    -0.032 A 
ATOM     54  C   LIG d   1      11.419   8.198   1.038  0.00  0.00     0.028 A 
ATOM     55  H   LIG d   1      11.318   8.268  -1.100  0.00  0.00     0.064 H 
ATOM     56  N   LIG d   1      11.320   7.453   2.122  0.00  0.00    -0.263 NA
ATOM     57  H   LIG d   1      11.648   9.249   1.134  0.00  0.00     0.083 H 
ATOM     58  C   LIG d   1      11.043   6.166   2.062  0.00  0.00     0.028 A 
ATOM     59  C   LIG d   1      10.838   5.539   0.849  0.00  0.00    -0.032 A 
ATOM     60  H   LIG d   1      10.971   5.594   2.976  0.00  0.00     0.083 H 
ATOM     61  H   LIG d   1      10.607   4.485   0.807  0.00  0.00     0.064 H 
ENDBRANCH  49  52
ENDBRANCH   7  48
TORSDOF 4
ENDMDL
