MODEL 1
REMARK VINA RESULT:      -5.2      0.000      0.000
REMARK  2 active torsions:
REMARK  status: ('A' for Active; 'I' for Inactive)
REMARK    1  A    between atoms: C_11  and  C_12 
REMARK    2  A    between atoms: C_13  and  C_14 
ROOT
ATOM      1  C   LIG d   1       5.112   0.470  -2.690  0.00  0.00    -0.047 A 
ATOM      2  C   LIG d   1       6.109   1.338  -3.078  0.00  0.00    -0.051 A 
ATOM      3  C   LIG d   1       7.226   0.849  -3.751  0.00  0.00     0.007 A 
ATOM      4  C   LIG d   1       7.335  -0.522  -4.033  0.00  0.00     0.048 A 
ATOM      5  C   LIG d   1       6.319  -1.383  -3.633  0.00  0.00    -0.024 A 
ATOM      6  C   LIG d   1       5.217  -0.887  -2.967  0.00  0.00     0.020 A 
ATOM      7 BR   LIG d   1       3.839  -2.063  -2.428  0.00  0.00    -0.050 Br
ATOM      8  N   LIG d   1       8.528  -0.716  -4.698  0.00  0.00    -0.360 N 
ATOM      9  H   LIG d   1       8.854  -1.574  -5.012  0.00  0.00     0.165 HD
ATOM     10  C   LIG d   1       9.184   0.462  -4.847  0.00  0.00     0.010 A 
ATOM     11  C   LIG d   1       8.446   1.473  -4.297  0.00  0.00     0.000 A 
ATOM     12  H   LIG d   1       4.245   0.846  -2.168  0.00  0.00     0.063 H 
ATOM     13  H   LIG d   1       6.025   2.393  -2.860  0.00  0.00     0.062 H 
ATOM     14  H   LIG d   1       6.391  -2.440  -3.844  0.00  0.00     0.065 H 
ATOM     15  H   LIG d   1      10.142   0.582  -5.330  0.00  0.00     0.081 H 
ENDROOT
BRANCH  11  16
ATOM     16  C   LIG d   1       8.800   2.892  -4.254  0.00  0.00    -0.051 C 
ATOM     17  C   LIG d   1       9.546   3.374  -3.230  0.00  0.00    -0.039 C 
ATOM     18  H   LIG d   1       9.879   2.711  -2.444  0.00  0.00     0.064 H 
ATOM     19  H   LIG d   1       8.468   3.555  -5.039  0.00  0.00     0.062 H 
BRANCH  17  20
ATOM     20  C   LIG d   1       9.887   4.744  -3.189  0.00  0.00     0.065 C 
ATOM     21  O   LIG d   1      10.160   5.271  -2.127  0.00  0.00    -0.545 OA
ATOM     22  O   LIG d   1       9.911   5.468  -4.328  0.00  0.00    -0.545 OA
ENDBRANCH  17  20
ENDBRANCH  11  16
TORSDOF 2
ENDMDL
MODEL 2
REMARK VINA RESULT:      -5.1      5.864      7.445
REMARK  2 active torsions:
REMARK  status: ('A' for Active; 'I' for Inactive)
REMARK    1  A    between atoms: C_11  and  C_12 
REMARK    2  A    between atoms: C_13  and  C_14 
ROOT
ATOM      1  C   LIG d   1       4.180  -1.525  -3.117  0.00  0.00    -0.047 A 
ATOM      2  C   LIG d   1       4.631  -2.628  -3.810  0.00  0.00    -0.051 A 
ATOM      3  C   LIG d   1       5.979  -2.730  -4.140  0.00  0.00     0.007 A 
ATOM      4  C   LIG d   1       6.875  -1.714  -3.770  0.00  0.00     0.048 A 
ATOM      5  C   LIG d   1       6.402  -0.609  -3.072  0.00  0.00    -0.024 A 
ATOM      6  C   LIG d   1       5.063  -0.519  -2.751  0.00  0.00     0.020 A 
ATOM      7 BR   LIG d   1       4.426   0.986  -1.801  0.00  0.00    -0.050 Br
ATOM      8  N   LIG d   1       8.126  -2.079  -4.224  0.00  0.00    -0.360 N 
ATOM      9  H   LIG d   1       8.933  -1.554  -4.102  0.00  0.00     0.165 HD
ATOM     10  C   LIG d   1       8.069  -3.271  -4.867  0.00  0.00     0.010 A 
ATOM     11  C   LIG d   1       6.784  -3.740  -4.854  0.00  0.00     0.000 A 
ATOM     12  H   LIG d   1       3.134  -1.442  -2.859  0.00  0.00     0.063 H 
ATOM     13  H   LIG d   1       3.941  -3.409  -4.095  0.00  0.00     0.062 H 
ATOM     14  H   LIG d   1       7.081   0.180  -2.782  0.00  0.00     0.065 H 
ATOM     15  H   LIG d   1       8.910  -3.774  -5.319  0.00  0.00     0.081 H 
ENDROOT
BRANCH  11  16
ATOM     16  C   LIG d   1       6.304  -4.993  -5.437  0.00  0.00    -0.051 C 
ATOM     17  C   LIG d   1       4.972  -5.229  -5.534  0.00  0.00    -0.039 C 
ATOM     18  H   LIG d   1       4.265  -4.493  -5.180  0.00  0.00     0.064 H 
ATOM     19  H   LIG d   1       7.011  -5.729  -5.792  0.00  0.00     0.062 H 
BRANCH  17  20
ATOM     20  C   LIG d   1       4.510  -6.439  -6.098  0.00  0.00     0.065 C 
ATOM     21  O   LIG d   1       4.002  -6.440  -7.203  0.00  0.00    -0.545 OA
ATOM     22  O   LIG d   1       4.630  -7.594  -5.408  0.00  0.00    -0.545 OA
ENDBRANCH  17  20
ENDBRANCH  11  16
TORSDOF 2
ENDMDL
MODEL 3
REMARK VINA RESULT:      -5.0      6.413      7.707
REMARK  2 active torsions:
REMARK  status: ('A' for Active; 'I' for Inactive)
REMARK    1  A    between atoms: C_11  and  C_12 
REMARK    2  A    between atoms: C_13  and  C_14 
ROOT
ATOM      1  C   LIG d   1       2.940   0.583  -4.201  0.00  0.00    -0.047 A 
ATOM      2  C   LIG d   1       2.694   0.208  -5.504  0.00  0.00    -0.051 A 
ATOM      3  C   LIG d   1       3.702  -0.398  -6.249  0.00  0.00     0.007 A 
ATOM      4  C   LIG d   1       4.963  -0.625  -5.676  0.00  0.00     0.048 A 
ATOM      5  C   LIG d   1       5.194  -0.239  -4.360  0.00  0.00    -0.024 A 
ATOM      6  C   LIG d   1       4.187   0.360  -3.632  0.00  0.00     0.020 A 
ATOM      7 BR   LIG d   1       4.506   0.882  -1.843  0.00  0.00    -0.050 Br
ATOM      8  N   LIG d   1       5.751  -1.231  -6.633  0.00  0.00    -0.360 N 
ATOM      9  H   LIG d   1       6.674  -1.499  -6.501  0.00  0.00     0.165 HD
ATOM     10  C   LIG d   1       5.056  -1.394  -7.785  0.00  0.00     0.010 A 
ATOM     11  C   LIG d   1       3.785  -0.913  -7.629  0.00  0.00     0.000 A 
ATOM     12  H   LIG d   1       2.161   1.054  -3.620  0.00  0.00     0.063 H 
ATOM     13  H   LIG d   1       1.724   0.384  -5.945  0.00  0.00     0.062 H 
ATOM     14  H   LIG d   1       6.160  -0.409  -3.908  0.00  0.00     0.065 H 
ATOM     15  H   LIG d   1       5.446  -1.839  -8.689  0.00  0.00     0.081 H 
ENDROOT
BRANCH  11  16
ATOM     16  C   LIG d   1       2.722  -0.906  -8.634  0.00  0.00    -0.051 C 
ATOM     17  C   LIG d   1       2.536  -1.984  -9.434  0.00  0.00    -0.039 C 
ATOM     18  H   LIG d   1       3.174  -2.850  -9.330  0.00  0.00     0.064 H 
ATOM     19  H   LIG d   1       2.084  -0.040  -8.739  0.00  0.00     0.062 H 
BRANCH  17  20
ATOM     20  C   LIG d   1       1.510  -1.976 -10.404  0.00  0.00     0.065 C 
ATOM     21  O   LIG d   1       0.834  -2.971 -10.583  0.00  0.00    -0.545 OA
ATOM     22  O   LIG d   1       1.281  -0.863 -11.134  0.00  0.00    -0.545 OA
ENDBRANCH  17  20
ENDBRANCH  11  16
TORSDOF 2
ENDMDL
MODEL 4
REMARK VINA RESULT:      -4.9      7.802      8.514
REMARK  2 active torsions:
REMARK  status: ('A' for Active; 'I' for Inactive)
REMARK    1  A    between atoms: C_11  and  C_12 
REMARK    2  A    between atoms: C_13  and  C_14 
ROOT
ATOM      1  C   LIG d   1       1.346  -1.496 -10.941  0.00  0.00    -0.047 A 
ATOM      2  C   LIG d   1       1.618  -0.780  -9.796  0.00  0.00    -0.051 A 
ATOM      3  C   LIG d   1       2.676   0.125  -9.784  0.00  0.00     0.007 A 
ATOM      4  C   LIG d   1       3.462   0.306 -10.933  0.00  0.00     0.048 A 
ATOM      5  C   LIG d   1       3.174  -0.426 -12.079  0.00  0.00    -0.024 A 
ATOM      6  C   LIG d   1       2.123  -1.320 -12.079  0.00  0.00     0.020 A 
ATOM      7 BR   LIG d   1       1.735  -2.312 -13.640  0.00  0.00    -0.050 Br
ATOM      8  N   LIG d   1       4.423   1.250 -10.633  0.00  0.00    -0.360 N 
ATOM      9  H   LIG d   1       5.101   1.565 -11.251  0.00  0.00     0.165 HD
ATOM     10  C   LIG d   1       4.289   1.673  -9.352  0.00  0.00     0.010 A 
ATOM     11  C   LIG d   1       3.234   1.033  -8.764  0.00  0.00     0.000 A 
ATOM     12  H   LIG d   1       0.526  -2.200 -10.954  0.00  0.00     0.063 H 
ATOM     13  H   LIG d   1       1.013  -0.920  -8.912  0.00  0.00     0.062 H 
ATOM     14  H   LIG d   1       3.772  -0.296 -12.969  0.00  0.00     0.065 H 
ATOM     15  H   LIG d   1       4.920   2.405  -8.870  0.00  0.00     0.081 H 
ENDROOT
BRANCH  11  16
ATOM     16  C   LIG d   1       2.757   1.210  -7.392  0.00  0.00    -0.051 C 
ATOM     17  C   LIG d   1       3.073   0.299  -6.440  0.00  0.00    -0.039 C 
ATOM     18  H   LIG d   1       3.678  -0.560  -6.694  0.00  0.00     0.064 H 
ATOM     19  H   LIG d   1       2.152   2.069  -7.137  0.00  0.00     0.062 H 
BRANCH  17  20
ATOM     20  C   LIG d   1       2.612   0.471  -5.116  0.00  0.00     0.065 C 
ATOM     21  O   LIG d   1       1.548  -0.011  -4.775  0.00  0.00    -0.545 OA
ATOM     22  O   LIG d   1       3.353   1.170  -4.230  0.00  0.00    -0.545 OA
ENDBRANCH  17  20
ENDBRANCH  11  16
TORSDOF 2
ENDMDL
MODEL 5
REMARK VINA RESULT:      -4.9      6.460      7.925
REMARK  2 active torsions:
REMARK  status: ('A' for Active; 'I' for Inactive)
REMARK    1  A    between atoms: C_11  and  C_12 
REMARK    2  A    between atoms: C_13  and  C_14 
ROOT
ATOM      1  C   LIG d   1       4.983  -1.576  -2.677  0.00  0.00    -0.047 A 
ATOM      2  C   LIG d   1       5.185  -2.661  -3.501  0.00  0.00    -0.051 A 
ATOM      3  C   LIG d   1       4.865  -2.569  -4.853  0.00  0.00     0.007 A 
ATOM      4  C   LIG d   1       4.340  -1.375  -5.373  0.00  0.00     0.048 A 
ATOM      5  C   LIG d   1       4.142  -0.291  -4.526  0.00  0.00    -0.024 A 
ATOM      6  C   LIG d   1       4.462  -0.395  -3.188  0.00  0.00     0.020 A 
ATOM      7 BR   LIG d   1       4.192   1.084  -2.042  0.00  0.00    -0.050 Br
ATOM      8  N   LIG d   1       4.121  -1.572  -6.722  0.00  0.00    -0.360 N 
ATOM      9  H   LIG d   1       3.761  -0.904  -7.327  0.00  0.00     0.165 HD
ATOM     10  C   LIG d   1       4.476  -2.830  -7.081  0.00  0.00     0.010 A 
ATOM     11  C   LIG d   1       4.950  -3.504  -5.990  0.00  0.00     0.000 A 
ATOM     12  H   LIG d   1       5.229  -1.644  -1.627  0.00  0.00     0.063 H 
ATOM     13  H   LIG d   1       5.589  -3.579  -3.100  0.00  0.00     0.062 H 
ATOM     14  H   LIG d   1       3.737   0.633  -4.915  0.00  0.00     0.065 H 
ATOM     15  H   LIG d   1       4.400  -3.236  -8.079  0.00  0.00     0.081 H 
ENDROOT
BRANCH  11  16
ATOM     16  C   LIG d   1       5.437  -4.884  -5.958  0.00  0.00    -0.051 C 
ATOM     17  C   LIG d   1       4.581  -5.900  -5.688  0.00  0.00    -0.039 C 
ATOM     18  H   LIG d   1       3.539  -5.691  -5.496  0.00  0.00     0.064 H 
ATOM     19  H   LIG d   1       6.480  -5.092  -6.149  0.00  0.00     0.062 H 
BRANCH  17  20
ATOM     20  C   LIG d   1       5.053  -7.231  -5.656  0.00  0.00     0.065 C 
ATOM     21  O   LIG d   1       4.517  -8.048  -4.931  0.00  0.00    -0.545 OA
ATOM     22  O   LIG d   1       6.098  -7.595  -6.430  0.00  0.00    -0.545 OA
ENDBRANCH  17  20
ENDBRANCH  11  16
TORSDOF 2
ENDMDL
MODEL 6
REMARK VINA RESULT:      -4.8      5.513      6.407
REMARK  2 active torsions:
REMARK  status: ('A' for Active; 'I' for Inactive)
REMARK    1  A    between atoms: C_11  and  C_12 
REMARK    2  A    between atoms: C_13  and  C_14 
ROOT
ATOM      1  C   LIG d   1       2.423   0.252  -9.179  0.00  0.00    -0.047 A 
ATOM      2  C   LIG d   1       2.751   0.366  -7.846  0.00  0.00    -0.051 A 
ATOM      3  C   LIG d   1       3.527  -0.619  -7.241  0.00  0.00     0.007 A 
ATOM      4  C   LIG d   1       3.973  -1.722  -7.986  0.00  0.00     0.048 A 
ATOM      5  C   LIG d   1       3.631  -1.821  -9.330  0.00  0.00    -0.024 A 
ATOM      6  C   LIG d   1       2.861  -0.839  -9.918  0.00  0.00     0.020 A 
ATOM      7 BR   LIG d   1       2.401  -0.978 -11.746  0.00  0.00    -0.050 Br
ATOM      8  N   LIG d   1       4.710  -2.524  -7.138  0.00  0.00    -0.360 N 
ATOM      9  H   LIG d   1       5.137  -3.356  -7.396  0.00  0.00     0.165 HD
ATOM     10  C   LIG d   1       4.750  -1.988  -5.894  0.00  0.00     0.010 A 
ATOM     11  C   LIG d   1       4.052  -0.813  -5.876  0.00  0.00     0.000 A 
ATOM     12  H   LIG d   1       1.820   1.014  -9.652  0.00  0.00     0.063 H 
ATOM     13  H   LIG d   1       2.407   1.215  -7.273  0.00  0.00     0.062 H 
ATOM     14  H   LIG d   1       3.968  -2.665  -9.913  0.00  0.00     0.065 H 
ATOM     15  H   LIG d   1       5.259  -2.423  -5.046  0.00  0.00     0.081 H 
ENDROOT
BRANCH  11  16
ATOM     16  C   LIG d   1       3.858   0.073  -4.727  0.00  0.00    -0.051 C 
ATOM     17  C   LIG d   1       4.749   0.063  -3.705  0.00  0.00    -0.039 C 
ATOM     18  H   LIG d   1       5.601  -0.599  -3.738  0.00  0.00     0.064 H 
ATOM     19  H   LIG d   1       3.006   0.736  -4.694  0.00  0.00     0.062 H 
BRANCH  17  20
ATOM     20  C   LIG d   1       4.561   0.918  -2.597  0.00  0.00     0.065 C 
ATOM     21  O   LIG d   1       5.513   1.491  -2.102  0.00  0.00    -0.545 OA
ATOM     22  O   LIG d   1       3.324   1.098  -2.086  0.00  0.00    -0.545 OA
ENDBRANCH  17  20
ENDBRANCH  11  16
TORSDOF 2
ENDMDL
MODEL 7
REMARK VINA RESULT:      -4.7      8.911     10.149
REMARK  2 active torsions:
REMARK  status: ('A' for Active; 'I' for Inactive)
REMARK    1  A    between atoms: C_11  and  C_12 
REMARK    2  A    between atoms: C_13  and  C_14 
ROOT
ATOM      1  C   LIG d   1      11.199   8.109  -2.331  0.00  0.00    -0.047 A 
ATOM      2  C   LIG d   1      10.855   8.898  -3.406  0.00  0.00    -0.051 A 
ATOM      3  C   LIG d   1       9.917   9.914  -3.243  0.00  0.00     0.007 A 
ATOM      4  C   LIG d   1       9.326  10.133  -1.988  0.00  0.00     0.048 A 
ATOM      5  C   LIG d   1       9.686   9.326  -0.915  0.00  0.00    -0.024 A 
ATOM      6  C   LIG d   1      10.616   8.322  -1.089  0.00  0.00     0.020 A 
ATOM      7 BR   LIG d   1      11.101   7.229   0.374  0.00  0.00    -0.050 Br
ATOM      8  N   LIG d   1       8.449  11.190  -2.122  0.00  0.00    -0.360 N 
ATOM      9  H   LIG d   1       7.905  11.551  -1.404  0.00  0.00     0.165 HD
ATOM     10  C   LIG d   1       8.449  11.648  -3.398  0.00  0.00     0.010 A 
ATOM     11  C   LIG d   1       9.331  10.920  -4.148  0.00  0.00     0.000 A 
ATOM     12  H   LIG d   1      11.926   7.319  -2.454  0.00  0.00     0.063 H 
ATOM     13  H   LIG d   1      11.309   8.729  -4.371  0.00  0.00     0.062 H 
ATOM     14  H   LIG d   1       9.238   9.484   0.056  0.00  0.00     0.065 H 
ATOM     15  H   LIG d   1       7.847  12.466  -3.764  0.00  0.00     0.081 H 
ENDROOT
BRANCH  11  16
ATOM     16  C   LIG d   1       9.627  11.101  -5.570  0.00  0.00    -0.051 C 
ATOM     17  C   LIG d   1       9.493  12.322  -6.141  0.00  0.00    -0.039 C 
ATOM     18  H   LIG d   1       9.165  13.164  -5.547  0.00  0.00     0.064 H 
ATOM     19  H   LIG d   1       9.955  10.260  -6.163  0.00  0.00     0.062 H 
BRANCH  17  20
ATOM     20  C   LIG d   1       9.779  12.496  -7.513  0.00  0.00     0.065 C 
ATOM     21  O   LIG d   1      10.636  11.816  -8.046  0.00  0.00    -0.545 OA
ATOM     22  O   LIG d   1       9.101  13.416  -8.233  0.00  0.00    -0.545 OA
ENDBRANCH  17  20
ENDBRANCH  11  16
TORSDOF 2
ENDMDL
MODEL 8
REMARK VINA RESULT:      -4.7      4.990      6.381
REMARK  2 active torsions:
REMARK  status: ('A' for Active; 'I' for Inactive)
REMARK    1  A    between atoms: C_11  and  C_12 
REMARK    2  A    between atoms: C_13  and  C_14 
ROOT
ATOM      1  C   LIG d   1      10.057   3.051  -3.788  0.00  0.00    -0.047 A 
ATOM      2  C   LIG d   1      10.286   3.832  -2.676  0.00  0.00    -0.051 A 
ATOM      3  C   LIG d   1      10.045   5.202  -2.735  0.00  0.00     0.007 A 
ATOM      4  C   LIG d   1       9.572   5.784  -3.922  0.00  0.00     0.048 A 
ATOM      5  C   LIG d   1       9.349   4.981  -5.034  0.00  0.00    -0.024 A 
ATOM      6  C   LIG d   1       9.591   3.624  -4.964  0.00  0.00     0.020 A 
ATOM      7 BR   LIG d   1       9.283   2.537  -6.479  0.00  0.00    -0.050 Br
ATOM      8  N   LIG d   1       9.427   7.137  -3.691  0.00  0.00    -0.360 N 
ATOM      9  H   LIG d   1       9.114   7.780  -4.347  0.00  0.00     0.165 HD
ATOM     10  C   LIG d   1       9.789   7.443  -2.421  0.00  0.00     0.010 A 
ATOM     11  C   LIG d   1      10.175   6.306  -1.766  0.00  0.00     0.000 A 
ATOM     12  H   LIG d   1      10.244   1.988  -3.746  0.00  0.00     0.063 H 
ATOM     13  H   LIG d   1      10.650   3.383  -1.764  0.00  0.00     0.062 H 
ATOM     14  H   LIG d   1       8.985   5.417  -5.953  0.00  0.00     0.065 H 
ATOM     15  H   LIG d   1       9.771   8.433  -1.991  0.00  0.00     0.081 H 
ENDROOT
BRANCH  11  16
ATOM     16  C   LIG d   1      10.633   6.207  -0.379  0.00  0.00    -0.051 C 
ATOM     17  C   LIG d   1      10.805   7.330   0.360  0.00  0.00    -0.039 C 
ATOM     18  H   LIG d   1      10.604   8.299  -0.074  0.00  0.00     0.064 H 
ATOM     19  H   LIG d   1      10.833   5.238   0.055  0.00  0.00     0.062 H 
BRANCH  17  20
ATOM     20  C   LIG d   1      11.247   7.234   1.698  0.00  0.00     0.065 C 
ATOM     21  O   LIG d   1      11.731   8.204   2.250  0.00  0.00    -0.545 OA
ATOM     22  O   LIG d   1      11.133   6.064   2.364  0.00  0.00    -0.545 OA
ENDBRANCH  17  20
ENDBRANCH  11  16
TORSDOF 2
ENDMDL
MODEL 9
REMARK VINA RESULT:      -4.7      6.048      7.394
REMARK  2 active torsions:
REMARK  status: ('A' for Active; 'I' for Inactive)
REMARK    1  A    between atoms: C_11  and  C_12 
REMARK    2  A    between atoms: C_13  and  C_14 
ROOT
ATOM      1  C   LIG d   1       9.746   8.793  -5.073  0.00  0.00    -0.047 A 
ATOM      2  C   LIG d   1       9.927   8.313  -3.795  0.00  0.00    -0.051 A 
ATOM      3  C   LIG d   1       9.900   6.940  -3.564  0.00  0.00     0.007 A 
ATOM      4  C   LIG d   1       9.689   6.050  -4.629  0.00  0.00     0.048 A 
ATOM      5  C   LIG d   1       9.508   6.553  -5.912  0.00  0.00    -0.024 A 
ATOM      6  C   LIG d   1       9.537   7.915  -6.129  0.00  0.00     0.020 A 
ATOM      7 BR   LIG d   1       9.290   8.593  -7.876  0.00  0.00    -0.050 Br
ATOM      8  N   LIG d   1       9.712   4.771  -4.112  0.00  0.00    -0.360 N 
ATOM      9  H   LIG d   1       9.592   3.961  -4.632  0.00  0.00     0.165 HD
ATOM     10  C   LIG d   1       9.921   4.805  -2.772  0.00  0.00     0.010 A 
ATOM     11  C   LIG d   1      10.054   6.102  -2.360  0.00  0.00     0.000 A 
ATOM     12  H   LIG d   1       9.766   9.858  -5.256  0.00  0.00     0.063 H 
ATOM     13  H   LIG d   1      10.089   8.998  -2.976  0.00  0.00     0.062 H 
ATOM     14  H   LIG d   1       9.344   5.878  -6.740  0.00  0.00     0.065 H 
ATOM     15  H   LIG d   1       9.978   3.939  -2.130  0.00  0.00     0.081 H 
ENDROOT
BRANCH  11  16
ATOM     16  C   LIG d   1      10.293   6.566  -0.993  0.00  0.00    -0.051 C 
ATOM     17  C   LIG d   1      10.850   5.731  -0.081  0.00  0.00    -0.039 C 
ATOM     18  H   LIG d   1      11.117   4.723  -0.363  0.00  0.00     0.064 H 
ATOM     19  H   LIG d   1      10.026   7.574  -0.710  0.00  0.00     0.062 H 
BRANCH  17  20
ATOM     20  C   LIG d   1      11.080   6.179   1.238  0.00  0.00     0.065 C 
ATOM     21  O   LIG d   1      10.724   5.500   2.183  0.00  0.00    -0.545 OA
ATOM     22  O   LIG d   1      11.696   7.363   1.451  0.00  0.00    -0.545 OA
ENDBRANCH  17  20
ENDBRANCH  11  16
TORSDOF 2
ENDMDL
MODEL 10
REMARK VINA RESULT:      -4.7      4.887      6.265
REMARK  2 active torsions:
REMARK  status: ('A' for Active; 'I' for Inactive)
REMARK    1  A    between atoms: C_11  and  C_12 
REMARK    2  A    between atoms: C_13  and  C_14 
ROOT
ATOM      1  C   LIG d   1       9.221   5.084  -4.704  0.00  0.00    -0.047 A 
ATOM      2  C   LIG d   1       9.549   6.075  -3.805  0.00  0.00    -0.051 A 
ATOM      3  C   LIG d   1      10.176   5.740  -2.608  0.00  0.00     0.007 A 
ATOM      4  C   LIG d   1      10.473   4.398  -2.319  0.00  0.00     0.048 A 
ATOM      5  C   LIG d   1      10.134   3.412  -3.238  0.00  0.00    -0.024 A 
ATOM      6  C   LIG d   1       9.512   3.756  -4.421  0.00  0.00     0.020 A 
ATOM      7 BR   LIG d   1       9.054   2.410  -5.667  0.00  0.00    -0.050 Br
ATOM      8  N   LIG d   1      11.085   4.366  -1.083  0.00  0.00    -0.360 N 
ATOM      9  H   LIG d   1      11.396   3.560  -0.641  0.00  0.00     0.165 HD
ATOM     10  C   LIG d   1      11.186   5.617  -0.571  0.00  0.00     0.010 A 
ATOM     11  C   LIG d   1      10.656   6.519  -1.452  0.00  0.00     0.000 A 
ATOM     12  H   LIG d   1       8.733   5.340  -5.634  0.00  0.00     0.063 H 
ATOM     13  H   LIG d   1       9.320   7.107  -4.028  0.00  0.00     0.062 H 
ATOM     14  H   LIG d   1      10.356   2.376  -3.027  0.00  0.00     0.065 H 
ATOM     15  H   LIG d   1      11.623   5.863   0.385  0.00  0.00     0.081 H 
ENDROOT
BRANCH  11  16
ATOM     16  C   LIG d   1      10.576   7.970  -1.276  0.00  0.00    -0.051 C 
ATOM     17  C   LIG d   1       9.389   8.553  -0.979  0.00  0.00    -0.039 C 
ATOM     18  H   LIG d   1       8.501   7.946  -0.872  0.00  0.00     0.064 H 
ATOM     19  H   LIG d   1      11.464   8.576  -1.383  0.00  0.00     0.062 H 
BRANCH  17  20
ATOM     20  C   LIG d   1       9.312   9.953  -0.811  0.00  0.00     0.065 C 
ATOM     21  O   LIG d   1       9.441  10.440   0.297  0.00  0.00    -0.545 OA
ATOM     22  O   LIG d   1       9.095  10.750  -1.879  0.00  0.00    -0.545 OA
ENDBRANCH  17  20
ENDBRANCH  11  16
TORSDOF 2
ENDMDL
