MODEL 1
REMARK VINA RESULT:      -5.8      0.000      0.000
REMARK  6 active torsions:
REMARK  status: ('A' for Active; 'I' for Inactive)
REMARK    1  A    between atoms: C_1  and  C_2 
REMARK    2  A    between atoms: C_2  and  N_3 
REMARK    3  A    between atoms: N_3  and  C_4 
REMARK    4  A    between atoms: N_3  and  C_6 
REMARK    5  A    between atoms: C_4  and  C_5 
REMARK    6  A    between atoms: C_11  and  C_17 
ROOT
ATOM      1  C   LIG d   1       3.746  -0.290  -5.047  0.00  0.00     0.033 A 
ATOM      2  C   LIG d   1       2.679   0.411  -5.612  0.00  0.00    -0.040 A 
ATOM      3  C   LIG d   1       2.468   0.379  -6.958  0.00  0.00    -0.049 A 
ATOM      4  C   LIG d   1       3.327  -0.363  -7.785  0.00  0.00     0.018 A 
ATOM      5  C   LIG d   1       3.111  -0.399  -9.186  0.00  0.00    -0.036 A 
ATOM      6  C   LIG d   1       3.964  -1.130  -9.968  0.00  0.00     0.067 A 
ATOM      7  C   LIG d   1       5.070  -1.850  -9.333  0.00  0.00     0.345 A 
ATOM      8  O   LIG d   1       5.838  -2.506 -10.014  0.00  0.00    -0.244 OA
ATOM      9  O   LIG d   1       5.240  -1.790  -8.001  0.00  0.00    -0.422 OA
ATOM     10  C   LIG d   1       4.404  -1.071  -7.221  0.00  0.00     0.141 A 
ATOM     11  C   LIG d   1       4.604  -1.028  -5.849  0.00  0.00     0.002 A 
ATOM     12  H   LIG d   1       2.016   0.982  -4.978  0.00  0.00     0.064 H 
ATOM     13  H   LIG d   1       1.641   0.924  -7.389  0.00  0.00     0.062 H 
ATOM     14  H   LIG d   1       2.288   0.143  -9.628  0.00  0.00     0.063 H 
ATOM     15  H   LIG d   1       5.427  -1.568  -5.405  0.00  0.00     0.067 H 
ENDROOT
BRANCH   1  16
ATOM     16  N   LIG d   1       3.946  -0.253  -3.670  0.00  0.00    -0.330 N 
BRANCH  16  17
ATOM     17  C   LIG d   1       3.116  -1.076  -2.788  0.00  0.00     0.009 C 
ATOM     18  H   LIG d   1       2.910  -0.528  -1.868  0.00  0.00     0.046 H 
ATOM     19  H   LIG d   1       2.177  -1.313  -3.289  0.00  0.00     0.046 H 
BRANCH  17  20
ATOM     20  C   LIG d   1       3.858  -2.373  -2.454  0.00  0.00    -0.049 C 
ATOM     21  H   LIG d   1       4.792  -2.136  -1.947  0.00  0.00     0.025 H 
ATOM     22  H   LIG d   1       3.236  -2.988  -1.803  0.00  0.00     0.025 H 
ATOM     23  H   LIG d   1       4.071  -2.917  -3.374  0.00  0.00     0.025 H 
ENDBRANCH  17  20
ENDBRANCH  16  17
BRANCH  16  24
ATOM     24  C   LIG d   1       4.986   0.610  -3.104  0.00  0.00     0.009 C 
ATOM     25  H   LIG d   1       5.918   0.050  -3.024  0.00  0.00     0.046 H 
ATOM     26  H   LIG d   1       5.135   1.473  -3.753  0.00  0.00     0.046 H 
BRANCH  24  27
ATOM     27  C   LIG d   1       4.555   1.083  -1.715  0.00  0.00    -0.049 C 
ATOM     28  H   LIG d   1       5.265   0.721  -0.971  0.00  0.00     0.025 H 
ATOM     29  H   LIG d   1       4.532   2.173  -1.693  0.00  0.00     0.025 H 
ATOM     30  H   LIG d   1       3.563   0.693  -1.490  0.00  0.00     0.025 H 
ENDBRANCH  24  27
ENDBRANCH  16  24
ENDBRANCH   1  16
BRANCH   6  31
ATOM     31  C   LIG d   1       3.771  -1.192 -11.436  0.00  0.00    -0.011 A 
ATOM     32  C   LIG d   1       4.590  -0.444 -12.281  0.00  0.00    -0.053 A 
ATOM     33  C   LIG d   1       4.406  -0.506 -13.648  0.00  0.00    -0.047 A 
ATOM     34  H   LIG d   1       5.366   0.183 -11.867  0.00  0.00     0.062 H 
ATOM     35  C   LIG d   1       3.412  -1.308 -14.178  0.00  0.00     0.018 A 
ATOM     36  H   LIG d   1       5.040   0.073 -14.303  0.00  0.00     0.063 H 
ATOM     37  C   LIG d   1       2.596  -2.053 -13.344  0.00  0.00    -0.047 A 
ATOM     38 BR   LIG d   1       3.166  -1.388 -16.052  0.00  0.00    -0.050 Br
ATOM     39  C   LIG d   1       2.774  -2.003 -11.977  0.00  0.00    -0.053 A 
ATOM     40  H   LIG d   1       1.822  -2.677 -13.764  0.00  0.00     0.063 H 
ATOM     41  H   LIG d   1       2.140  -2.587 -11.327  0.00  0.00     0.062 H 
ENDBRANCH   6  31
TORSDOF 6
ENDMDL
MODEL 2
REMARK VINA RESULT:      -5.7      1.351      2.099
REMARK  6 active torsions:
REMARK  status: ('A' for Active; 'I' for Inactive)
REMARK    1  A    between atoms: C_1  and  C_2 
REMARK    2  A    between atoms: C_2  and  N_3 
REMARK    3  A    between atoms: N_3  and  C_4 
REMARK    4  A    between atoms: N_3  and  C_6 
REMARK    5  A    between atoms: C_4  and  C_5 
REMARK    6  A    between atoms: C_11  and  C_17 
ROOT
ATOM      1  C   LIG d   1       4.291  -0.370  -5.039  0.00  0.00     0.033 A 
ATOM      2  C   LIG d   1       5.503  -0.808  -5.574  0.00  0.00    -0.040 A 
ATOM      3  C   LIG d   1       5.623  -1.046  -6.910  0.00  0.00    -0.049 A 
ATOM      4  C   LIG d   1       4.521  -0.849  -7.759  0.00  0.00     0.018 A 
ATOM      5  C   LIG d   1       4.641  -1.096  -9.150  0.00  0.00    -0.036 A 
ATOM      6  C   LIG d   1       3.551  -0.895  -9.954  0.00  0.00     0.067 A 
ATOM      7  C   LIG d   1       2.298  -0.434  -9.350  0.00  0.00     0.345 A 
ATOM      8  O   LIG d   1       1.319  -0.250 -10.051  0.00  0.00    -0.244 OA
ATOM      9  O   LIG d   1       2.227  -0.213  -8.027  0.00  0.00    -0.422 OA
ATOM     10  C   LIG d   1       3.296  -0.408  -7.226  0.00  0.00     0.141 A 
ATOM     11  C   LIG d   1       3.192  -0.170  -5.863  0.00  0.00     0.002 A 
ATOM     12  H   LIG d   1       6.353  -0.961  -4.924  0.00  0.00     0.064 H 
ATOM     13  H   LIG d   1       6.564  -1.386  -7.317  0.00  0.00     0.062 H 
ATOM     14  H   LIG d   1       5.576  -1.436  -9.569  0.00  0.00     0.063 H 
ATOM     15  H   LIG d   1       2.257   0.169  -5.443  0.00  0.00     0.067 H 
ENDROOT
BRANCH   1  16
ATOM     16  N   LIG d   1       4.185  -0.126  -3.673  0.00  0.00    -0.330 N 
BRANCH  16  17
ATOM     17  C   LIG d   1       3.225  -0.882  -2.867  0.00  0.00     0.009 C 
ATOM     18  H   LIG d   1       3.017  -0.337  -1.945  0.00  0.00     0.046 H 
ATOM     19  H   LIG d   1       2.299  -1.010  -3.429  0.00  0.00     0.046 H 
BRANCH  17  20
ATOM     20  C   LIG d   1       3.811  -2.254  -2.528  0.00  0.00    -0.049 C 
ATOM     21  H   LIG d   1       3.050  -3.019  -2.673  0.00  0.00     0.025 H 
ATOM     22  H   LIG d   1       4.659  -2.457  -3.182  0.00  0.00     0.025 H 
ATOM     23  H   LIG d   1       4.142  -2.262  -1.490  0.00  0.00     0.025 H 
ENDBRANCH  17  20
ENDBRANCH  16  17
BRANCH  16  24
ATOM     24  C   LIG d   1       5.034   0.888  -3.043  0.00  0.00     0.009 C 
ATOM     25  H   LIG d   1       6.069   0.546  -3.044  0.00  0.00     0.046 H 
ATOM     26  H   LIG d   1       4.960   1.822  -3.601  0.00  0.00     0.046 H 
BRANCH  24  27
ATOM     27  C   LIG d   1       4.573   1.116  -1.603  0.00  0.00    -0.049 C 
ATOM     28  H   LIG d   1       5.080   0.412  -0.943  0.00  0.00     0.025 H 
ATOM     29  H   LIG d   1       4.815   2.135  -1.300  0.00  0.00     0.025 H 
ATOM     30  H   LIG d   1       3.496   0.963  -1.538  0.00  0.00     0.025 H 
ENDBRANCH  24  27
ENDBRANCH  16  24
ENDBRANCH   1  16
BRANCH   6  31
ATOM     31  C   LIG d   1       3.637  -1.141 -11.412  0.00  0.00    -0.011 A 
ATOM     32  C   LIG d   1       3.161  -2.337 -11.949  0.00  0.00    -0.053 A 
ATOM     33  C   LIG d   1       3.243  -2.561 -13.309  0.00  0.00    -0.047 A 
ATOM     34  H   LIG d   1       2.729  -3.087 -11.302  0.00  0.00     0.062 H 
ATOM     35  C   LIG d   1       3.796  -1.601 -14.137  0.00  0.00     0.018 A 
ATOM     36  H   LIG d   1       2.875  -3.486 -13.725  0.00  0.00     0.063 H 
ATOM     37  C   LIG d   1       4.271  -0.412 -13.610  0.00  0.00    -0.047 A 
ATOM     38 BR   LIG d   1       3.905  -1.916 -16.000  0.00  0.00    -0.050 Br
ATOM     39  C   LIG d   1       4.188  -0.175 -12.253  0.00  0.00    -0.053 A 
ATOM     40  H   LIG d   1       4.701   0.333 -14.262  0.00  0.00     0.063 H 
ATOM     41  H   LIG d   1       4.554   0.753 -11.843  0.00  0.00     0.062 H 
ENDBRANCH   6  31
TORSDOF 6
ENDMDL
MODEL 3
REMARK VINA RESULT:      -5.6      1.128      2.065
REMARK  6 active torsions:
REMARK  status: ('A' for Active; 'I' for Inactive)
REMARK    1  A    between atoms: C_1  and  C_2 
REMARK    2  A    between atoms: C_2  and  N_3 
REMARK    3  A    between atoms: N_3  and  C_4 
REMARK    4  A    between atoms: N_3  and  C_6 
REMARK    5  A    between atoms: C_4  and  C_5 
REMARK    6  A    between atoms: C_11  and  C_17 
ROOT
ATOM      1  C   LIG d   1       4.369  -0.534  -4.872  0.00  0.00     0.033 A 
ATOM      2  C   LIG d   1       3.330   0.312  -5.262  0.00  0.00    -0.040 A 
ATOM      3  C   LIG d   1       2.786   0.209  -6.508  0.00  0.00    -0.049 A 
ATOM      4  C   LIG d   1       3.273  -0.754  -7.407  0.00  0.00     0.018 A 
ATOM      5  C   LIG d   1       2.710  -0.865  -8.704  0.00  0.00    -0.036 A 
ATOM      6  C   LIG d   1       3.203  -1.812  -9.561  0.00  0.00     0.067 A 
ATOM      7  C   LIG d   1       4.294  -2.679  -9.109  0.00  0.00     0.345 A 
ATOM      8  O   LIG d   1       4.744  -3.528  -9.858  0.00  0.00    -0.244 OA
ATOM      9  O   LIG d   1       4.799  -2.542  -7.872  0.00  0.00    -0.422 OA
ATOM     10  C   LIG d   1       4.320  -1.610  -7.020  0.00  0.00     0.141 A 
ATOM     11  C   LIG d   1       4.861  -1.491  -5.748  0.00  0.00     0.002 A 
ATOM     12  H   LIG d   1       2.954   1.053  -4.573  0.00  0.00     0.064 H 
ATOM     13  H   LIG d   1       1.983   0.867  -6.804  0.00  0.00     0.062 H 
ATOM     14  H   LIG d   1       1.907  -0.212  -9.012  0.00  0.00     0.063 H 
ATOM     15  H   LIG d   1       5.665  -2.143  -5.440  0.00  0.00     0.067 H 
ENDROOT
BRANCH   1  16
ATOM     16  N   LIG d   1       4.911  -0.422  -3.595  0.00  0.00    -0.330 N 
BRANCH  16  17
ATOM     17  C   LIG d   1       5.242   0.898  -3.054  0.00  0.00     0.009 C 
ATOM     18  H   LIG d   1       6.292   0.917  -2.762  0.00  0.00     0.046 H 
ATOM     19  H   LIG d   1       5.062   1.658  -3.814  0.00  0.00     0.046 H 
BRANCH  17  20
ATOM     20  C   LIG d   1       4.367   1.182  -1.831  0.00  0.00    -0.049 C 
ATOM     21  H   LIG d   1       3.319   1.059  -2.099  0.00  0.00     0.025 H 
ATOM     22  H   LIG d   1       4.623   0.486  -1.033  0.00  0.00     0.025 H 
ATOM     23  H   LIG d   1       4.538   2.204  -1.492  0.00  0.00     0.025 H 
ENDBRANCH  17  20
ENDBRANCH  16  17
BRANCH  16  24
ATOM     24  C   LIG d   1       5.149  -1.625  -2.793  0.00  0.00     0.009 C 
ATOM     25  H   LIG d   1       5.705  -2.352  -3.385  0.00  0.00     0.046 H 
ATOM     26  H   LIG d   1       5.725  -1.361  -1.906  0.00  0.00     0.046 H 
BRANCH  24  27
ATOM     27  C   LIG d   1       3.809  -2.229  -2.370  0.00  0.00    -0.049 C 
ATOM     28  H   LIG d   1       3.613  -1.985  -1.325  0.00  0.00     0.025 H 
ATOM     29  H   LIG d   1       3.013  -1.821  -2.993  0.00  0.00     0.025 H 
ATOM     30  H   LIG d   1       3.846  -3.312  -2.488  0.00  0.00     0.025 H 
ENDBRANCH  24  27
ENDBRANCH  16  24
ENDBRANCH   1  16
BRANCH   6  31
ATOM     31  C   LIG d   1       2.641  -1.958 -10.924  0.00  0.00    -0.011 A 
ATOM     32  C   LIG d   1       1.477  -2.698 -11.125  0.00  0.00    -0.053 A 
ATOM     33  C   LIG d   1       0.957  -2.829 -12.397  0.00  0.00    -0.047 A 
ATOM     34  H   LIG d   1       0.982  -3.167 -10.287  0.00  0.00     0.062 H 
ATOM     35  C   LIG d   1       1.590  -2.229 -13.471  0.00  0.00     0.018 A 
ATOM     36  H   LIG d   1       0.055  -3.402 -12.554  0.00  0.00     0.063 H 
ATOM     37  C   LIG d   1       2.747  -1.493 -13.277  0.00  0.00    -0.047 A 
ATOM     38 BR   LIG d   1       0.872  -2.414 -15.211  0.00  0.00    -0.050 Br
ATOM     39  C   LIG d   1       3.272  -1.350 -12.009  0.00  0.00    -0.053 A 
ATOM     40  H   LIG d   1       3.236  -1.027 -14.119  0.00  0.00     0.063 H 
ATOM     41  H   LIG d   1       4.171  -0.772 -11.858  0.00  0.00     0.062 H 
ENDBRANCH   6  31
TORSDOF 6
ENDMDL
MODEL 4
REMARK VINA RESULT:      -5.6      4.162      8.384
REMARK  6 active torsions:
REMARK  status: ('A' for Active; 'I' for Inactive)
REMARK    1  A    between atoms: C_1  and  C_2 
REMARK    2  A    between atoms: C_2  and  N_3 
REMARK    3  A    between atoms: N_3  and  C_4 
REMARK    4  A    between atoms: N_3  and  C_6 
REMARK    5  A    between atoms: C_4  and  C_5 
REMARK    6  A    between atoms: C_11  and  C_17 
ROOT
ATOM      1  C   LIG d   1       2.211  -2.065 -12.252  0.00  0.00     0.033 A 
ATOM      2  C   LIG d   1       2.364  -3.182 -11.429  0.00  0.00    -0.040 A 
ATOM      3  C   LIG d   1       2.658  -3.030 -10.107  0.00  0.00    -0.049 A 
ATOM      4  C   LIG d   1       2.808  -1.742  -9.566  0.00  0.00     0.018 A 
ATOM      5  C   LIG d   1       3.114  -1.579  -8.192  0.00  0.00    -0.036 A 
ATOM      6  C   LIG d   1       3.255  -0.313  -7.690  0.00  0.00     0.067 A 
ATOM      7  C   LIG d   1       3.085   0.830  -8.591  0.00  0.00     0.345 A 
ATOM      8  O   LIG d   1       3.206   1.964  -8.161  0.00  0.00    -0.244 OA
ATOM      9  O   LIG d   1       2.796   0.632  -9.887  0.00  0.00    -0.422 OA
ATOM     10  C   LIG d   1       2.655  -0.613 -10.391  0.00  0.00     0.141 A 
ATOM     11  C   LIG d   1       2.355  -0.786 -11.735  0.00  0.00     0.002 A 
ATOM     12  H   LIG d   1       2.249  -4.173 -11.842  0.00  0.00     0.064 H 
ATOM     13  H   LIG d   1       2.776  -3.898  -9.476  0.00  0.00     0.062 H 
ATOM     14  H   LIG d   1       3.235  -2.440  -7.550  0.00  0.00     0.063 H 
ATOM     15  H   LIG d   1       2.236   0.073 -12.377  0.00  0.00     0.067 H 
ENDROOT
BRANCH   1  16
ATOM     16  N   LIG d   1       1.905  -2.235 -13.599  0.00  0.00    -0.330 N 
BRANCH  16  17
ATOM     17  C   LIG d   1       0.646  -2.874 -13.989  0.00  0.00     0.009 C 
ATOM     18  H   LIG d   1       0.574  -2.902 -15.076  0.00  0.00     0.046 H 
ATOM     19  H   LIG d   1       0.617  -3.891 -13.596  0.00  0.00     0.046 H 
BRANCH  17  20
ATOM     20  C   LIG d   1      -0.529  -2.075 -13.420  0.00  0.00    -0.049 C 
ATOM     21  H   LIG d   1      -0.233  -1.035 -13.294  0.00  0.00     0.025 H 
ATOM     22  H   LIG d   1      -1.373  -2.133 -14.107  0.00  0.00     0.025 H 
ATOM     23  H   LIG d   1      -0.818  -2.490 -12.454  0.00  0.00     0.025 H 
ENDBRANCH  17  20
ENDBRANCH  16  17
BRANCH  16  24
ATOM     24  C   LIG d   1       2.842  -1.776 -14.627  0.00  0.00     0.009 C 
ATOM     25  H   LIG d   1       3.130  -0.745 -14.421  0.00  0.00     0.046 H 
ATOM     26  H   LIG d   1       3.730  -2.409 -14.618  0.00  0.00     0.046 H 
BRANCH  24  27
ATOM     27  C   LIG d   1       2.172  -1.855 -16.000  0.00  0.00    -0.049 C 
ATOM     28  H   LIG d   1       2.434  -2.798 -16.479  0.00  0.00     0.025 H 
ATOM     29  H   LIG d   1       1.091  -1.796 -15.881  0.00  0.00     0.025 H 
ATOM     30  H   LIG d   1       2.516  -1.026 -16.620  0.00  0.00     0.025 H 
ENDBRANCH  24  27
ENDBRANCH  16  24
ENDBRANCH   1  16
BRANCH   6  31
ATOM     31  C   LIG d   1       3.574  -0.102  -6.259  0.00  0.00    -0.011 A 
ATOM     32  C   LIG d   1       4.844  -0.411  -5.773  0.00  0.00    -0.053 A 
ATOM     33  C   LIG d   1       5.137  -0.211  -4.439  0.00  0.00    -0.047 A 
ATOM     34  H   LIG d   1       5.598  -0.804  -6.439  0.00  0.00     0.062 H 
ATOM     35  C   LIG d   1       4.173   0.293  -3.585  0.00  0.00     0.018 A 
ATOM     36  H   LIG d   1       6.120  -0.450  -4.062  0.00  0.00     0.063 H 
ATOM     37  C   LIG d   1       2.910   0.601  -4.062  0.00  0.00    -0.047 A 
ATOM     38 BR   LIG d   1       4.581   0.563  -1.758  0.00  0.00    -0.050 Br
ATOM     39  C   LIG d   1       2.608   0.412  -5.395  0.00  0.00    -0.053 A 
ATOM     40  H   LIG d   1       2.162   0.995  -3.391  0.00  0.00     0.063 H 
ATOM     41  H   LIG d   1       1.625   0.656  -5.767  0.00  0.00     0.062 H 
ENDBRANCH   6  31
TORSDOF 6
ENDMDL
MODEL 5
REMARK VINA RESULT:      -5.1      1.367      2.138
REMARK  6 active torsions:
REMARK  status: ('A' for Active; 'I' for Inactive)
REMARK    1  A    between atoms: C_1  and  C_2 
REMARK    2  A    between atoms: C_2  and  N_3 
REMARK    3  A    between atoms: N_3  and  C_4 
REMARK    4  A    between atoms: N_3  and  C_6 
REMARK    5  A    between atoms: C_4  and  C_5 
REMARK    6  A    between atoms: C_11  and  C_17 
ROOT
ATOM      1  C   LIG d   1       3.608  -0.416  -6.677  0.00  0.00     0.033 A 
ATOM      2  C   LIG d   1       2.887   0.627  -7.262  0.00  0.00    -0.040 A 
ATOM      3  C   LIG d   1       2.712   0.672  -8.612  0.00  0.00    -0.049 A 
ATOM      4  C   LIG d   1       3.257  -0.336  -9.424  0.00  0.00     0.018 A 
ATOM      5  C   LIG d   1       3.077  -0.292 -10.830  0.00  0.00    -0.036 A 
ATOM      6  C   LIG d   1       3.619  -1.288 -11.598  0.00  0.00     0.067 A 
ATOM      7  C   LIG d   1       4.367  -2.363 -10.942  0.00  0.00     0.345 A 
ATOM      8  O   LIG d   1       4.856  -3.257 -11.610  0.00  0.00    -0.244 OA
ATOM      9  O   LIG d   1       4.515  -2.367  -9.606  0.00  0.00    -0.422 OA
ATOM     10  C   LIG d   1       3.984  -1.389  -8.841  0.00  0.00     0.141 A 
ATOM     11  C   LIG d   1       4.153  -1.420  -7.464  0.00  0.00     0.002 A 
ATOM     12  H   LIG d   1       2.466   1.404  -6.640  0.00  0.00     0.064 H 
ATOM     13  H   LIG d   1       2.154   1.482  -9.058  0.00  0.00     0.062 H 
ATOM     14  H   LIG d   1       2.521   0.513 -11.288  0.00  0.00     0.063 H 
ATOM     15  H   LIG d   1       4.709  -2.223  -7.006  0.00  0.00     0.067 H 
ENDROOT
BRANCH   1  16
ATOM     16  N   LIG d   1       3.774  -0.452  -5.296  0.00  0.00    -0.330 N 
BRANCH  16  17
ATOM     17  C   LIG d   1       2.771   0.158  -4.421  0.00  0.00     0.009 C 
ATOM     18  H   LIG d   1       3.067   1.182  -4.189  0.00  0.00     0.046 H 
ATOM     19  H   LIG d   1       1.805   0.166  -4.926  0.00  0.00     0.046 H 
BRANCH  17  20
ATOM     20  C   LIG d   1       2.663  -0.649  -3.126  0.00  0.00    -0.049 C 
ATOM     21  H   LIG d   1       1.750  -0.374  -2.602  0.00  0.00     0.025 H 
ATOM     22  H   LIG d   1       2.640  -1.713  -3.363  0.00  0.00     0.025 H 
ATOM     23  H   LIG d   1       3.525  -0.437  -2.492  0.00  0.00     0.025 H 
ENDBRANCH  17  20
ENDBRANCH  16  17
BRANCH  16  24
ATOM     24  C   LIG d   1       4.954  -1.102  -4.717  0.00  0.00     0.009 C 
ATOM     25  H   LIG d   1       4.701  -1.506  -3.737  0.00  0.00     0.046 H 
ATOM     26  H   LIG d   1       5.280  -1.911  -5.371  0.00  0.00     0.046 H 
BRANCH  24  27
ATOM     27  C   LIG d   1       6.080  -0.077  -4.572  0.00  0.00    -0.049 C 
ATOM     28  H   LIG d   1       5.653   0.921  -4.473  0.00  0.00     0.025 H 
ATOM     29  H   LIG d   1       6.670  -0.308  -3.685  0.00  0.00     0.025 H 
ATOM     30  H   LIG d   1       6.719  -0.112  -5.454  0.00  0.00     0.025 H 
ENDBRANCH  24  27
ENDBRANCH  16  24
ENDBRANCH   1  16
BRANCH   6  31
ATOM     31  C   LIG d   1       3.452  -1.277 -13.070  0.00  0.00    -0.011 A 
ATOM     32  C   LIG d   1       2.411  -1.993 -13.661  0.00  0.00    -0.053 A 
ATOM     33  C   LIG d   1       2.259  -1.978 -15.033  0.00  0.00    -0.047 A 
ATOM     34  H   LIG d   1       1.725  -2.557 -13.047  0.00  0.00     0.062 H 
ATOM     35  C   LIG d   1       3.138  -1.256 -15.820  0.00  0.00     0.018 A 
ATOM     36  H   LIG d   1       1.454  -2.532 -15.491  0.00  0.00     0.063 H 
ATOM     37  C   LIG d   1       4.173  -0.544 -15.239  0.00  0.00    -0.047 A 
ATOM     38 BR   LIG d   1       2.924  -1.241 -17.700  0.00  0.00    -0.050 Br
ATOM     39  C   LIG d   1       4.331  -0.546 -13.868  0.00  0.00    -0.053 A 
ATOM     40  H   LIG d   1       4.855   0.018 -15.859  0.00  0.00     0.063 H 
ATOM     41  H   LIG d   1       5.135   0.013 -13.415  0.00  0.00     0.062 H 
ENDBRANCH   6  31
TORSDOF 6
ENDMDL
MODEL 6
REMARK VINA RESULT:      -5.0     12.359     16.051
REMARK  6 active torsions:
REMARK  status: ('A' for Active; 'I' for Inactive)
REMARK    1  A    between atoms: C_1  and  C_2 
REMARK    2  A    between atoms: C_2  and  N_3 
REMARK    3  A    between atoms: N_3  and  C_4 
REMARK    4  A    between atoms: N_3  and  C_6 
REMARK    5  A    between atoms: C_4  and  C_5 
REMARK    6  A    between atoms: C_11  and  C_17 
ROOT
ATOM      1  C   LIG d   1      12.492  10.074   4.708  0.00  0.00     0.033 A 
ATOM      2  C   LIG d   1      12.612  10.846   3.551  0.00  0.00    -0.040 A 
ATOM      3  C   LIG d   1      12.302  10.318   2.333  0.00  0.00    -0.049 A 
ATOM      4  C   LIG d   1      11.859   8.989   2.238  0.00  0.00     0.018 A 
ATOM      5  C   LIG d   1      11.536   8.436   0.973  0.00  0.00    -0.036 A 
ATOM      6  C   LIG d   1      11.106   7.138   0.909  0.00  0.00     0.067 A 
ATOM      7  C   LIG d   1      10.994   6.364   2.148  0.00  0.00     0.345 A 
ATOM      8  O   LIG d   1      10.613   5.208   2.108  0.00  0.00    -0.244 OA
ATOM      9  O   LIG d   1      11.311   6.926   3.326  0.00  0.00    -0.422 OA
ATOM     10  C   LIG d   1      11.736   8.205   3.400  0.00  0.00     0.141 A 
ATOM     11  C   LIG d   1      12.055   8.759   4.632  0.00  0.00     0.002 A 
ATOM     12  H   LIG d   1      12.952  11.869   3.622  0.00  0.00     0.064 H 
ATOM     13  H   LIG d   1      12.398  10.921   1.443  0.00  0.00     0.062 H 
ATOM     14  H   LIG d   1      11.628   9.028   0.075  0.00  0.00     0.063 H 
ATOM     15  H   LIG d   1      11.965   8.167   5.530  0.00  0.00     0.067 H 
ENDROOT
BRANCH   1  16
ATOM     16  N   LIG d   1      12.806  10.628   5.945  0.00  0.00    -0.330 N 
BRANCH  16  17
ATOM     17  C   LIG d   1      13.813  11.686   6.039  0.00  0.00     0.009 C 
ATOM     18  H   LIG d   1      14.641  11.345   6.660  0.00  0.00     0.046 H 
ATOM     19  H   LIG d   1      14.182  11.926   5.042  0.00  0.00     0.046 H 
BRANCH  17  20
ATOM     20  C   LIG d   1      13.186  12.934   6.665  0.00  0.00    -0.049 C 
ATOM     21  H   LIG d   1      12.513  12.638   7.468  0.00  0.00     0.025 H 
ATOM     22  H   LIG d   1      13.972  13.573   7.065  0.00  0.00     0.025 H 
ATOM     23  H   LIG d   1      12.626  13.479   5.905  0.00  0.00     0.025 H 
ENDBRANCH  17  20
ENDBRANCH  16  17
BRANCH  16  24
ATOM     24  C   LIG d   1      12.128  10.151   7.154  0.00  0.00     0.009 C 
ATOM     25  H   LIG d   1      11.677  10.996   7.674  0.00  0.00     0.046 H 
ATOM     26  H   LIG d   1      11.351   9.438   6.877  0.00  0.00     0.046 H 
BRANCH  24  27
ATOM     27  C   LIG d   1      13.143   9.470   8.073  0.00  0.00    -0.049 C 
ATOM     28  H   LIG d   1      13.608  10.216   8.718  0.00  0.00     0.025 H 
ATOM     29  H   LIG d   1      12.637   8.724   8.685  0.00  0.00     0.025 H 
ATOM     30  H   LIG d   1      13.911   8.985   7.469  0.00  0.00     0.025 H 
ENDBRANCH  24  27
ENDBRANCH  16  24
ENDBRANCH   1  16
BRANCH   6  31
ATOM     31  C   LIG d   1      10.759   6.525  -0.395  0.00  0.00    -0.011 A 
ATOM     32  C   LIG d   1      11.400   5.359  -0.812  0.00  0.00    -0.053 A 
ATOM     33  C   LIG d   1      11.073   4.791  -2.027  0.00  0.00    -0.047 A 
ATOM     34  H   LIG d   1      12.152   4.900  -0.186  0.00  0.00     0.062 H 
ATOM     35  C   LIG d   1      10.110   5.377  -2.829  0.00  0.00     0.018 A 
ATOM     36  H   LIG d   1      11.569   3.889  -2.351  0.00  0.00     0.063 H 
ATOM     37  C   LIG d   1       9.470   6.535  -2.420  0.00  0.00    -0.047 A 
ATOM     38 BR   LIG d   1       9.667   4.593  -4.493  0.00  0.00    -0.050 Br
ATOM     39  C   LIG d   1       9.786   7.108  -1.205  0.00  0.00    -0.053 A 
ATOM     40  H   LIG d   1       8.720   6.987  -3.051  0.00  0.00     0.063 H 
ATOM     41  H   LIG d   1       9.283   8.007  -0.885  0.00  0.00     0.062 H 
ENDBRANCH   6  31
TORSDOF 6
ENDMDL
MODEL 7
REMARK VINA RESULT:      -5.0      6.614      9.002
REMARK  6 active torsions:
REMARK  status: ('A' for Active; 'I' for Inactive)
REMARK    1  A    between atoms: C_1  and  C_2 
REMARK    2  A    between atoms: C_2  and  N_3 
REMARK    3  A    between atoms: N_3  and  C_4 
REMARK    4  A    between atoms: N_3  and  C_6 
REMARK    5  A    between atoms: C_4  and  C_5 
REMARK    6  A    between atoms: C_11  and  C_17 
ROOT
ATOM      1  C   LIG d   1       5.733  -0.131  -4.186  0.00  0.00     0.033 A 
ATOM      2  C   LIG d   1       6.440  -0.960  -5.058  0.00  0.00    -0.040 A 
ATOM      3  C   LIG d   1       7.755  -0.719  -5.326  0.00  0.00    -0.049 A 
ATOM      4  C   LIG d   1       8.405   0.369  -4.721  0.00  0.00     0.018 A 
ATOM      5  C   LIG d   1       9.773   0.623  -4.997  0.00  0.00    -0.036 A 
ATOM      6  C   LIG d   1      10.382   1.690  -4.393  0.00  0.00     0.067 A 
ATOM      7  C   LIG d   1       9.602   2.533  -3.484  0.00  0.00     0.345 A 
ATOM      8  O   LIG d   1      10.128   3.487  -2.939  0.00  0.00    -0.244 OA
ATOM      9  O   LIG d   1       8.308   2.258  -3.251  0.00  0.00    -0.422 OA
ATOM     10  C   LIG d   1       7.698   1.208  -3.841  0.00  0.00     0.141 A 
ATOM     11  C   LIG d   1       6.360   0.948  -3.580  0.00  0.00     0.002 A 
ATOM     12  H   LIG d   1       5.943  -1.798  -5.525  0.00  0.00     0.064 H 
ATOM     13  H   LIG d   1       8.296  -1.364  -6.002  0.00  0.00     0.062 H 
ATOM     14  H   LIG d   1      10.325  -0.014  -5.672  0.00  0.00     0.063 H 
ATOM     15  H   LIG d   1       5.807   1.585  -2.906  0.00  0.00     0.067 H 
ENDROOT
BRANCH   1  16
ATOM     16  N   LIG d   1       4.393  -0.393  -3.917  0.00  0.00    -0.330 N 
BRANCH  16  17
ATOM     17  C   LIG d   1       3.445   0.714  -3.775  0.00  0.00     0.009 C 
ATOM     18  H   LIG d   1       2.939   0.637  -2.812  0.00  0.00     0.046 H 
ATOM     19  H   LIG d   1       3.982   1.662  -3.828  0.00  0.00     0.046 H 
BRANCH  17  20
ATOM     20  C   LIG d   1       2.412   0.650  -4.902  0.00  0.00    -0.049 C 
ATOM     21  H   LIG d   1       1.885   1.601  -4.965  0.00  0.00     0.025 H 
ATOM     22  H   LIG d   1       2.917   0.450  -5.846  0.00  0.00     0.025 H 
ATOM     23  H   LIG d   1       1.699  -0.148  -4.695  0.00  0.00     0.025 H 
ENDBRANCH  17  20
ENDBRANCH  16  17
BRANCH  16  24
ATOM     24  C   LIG d   1       3.931  -1.776  -3.777  0.00  0.00     0.009 C 
ATOM     25  H   LIG d   1       2.942  -1.875  -4.224  0.00  0.00     0.046 H 
ATOM     26  H   LIG d   1       4.627  -2.445  -4.284  0.00  0.00     0.046 H 
BRANCH  24  27
ATOM     27  C   LIG d   1       3.859  -2.142  -2.294  0.00  0.00    -0.049 C 
ATOM     28  H   LIG d   1       3.141  -2.950  -2.153  0.00  0.00     0.025 H 
ATOM     29  H   LIG d   1       4.842  -2.465  -1.950  0.00  0.00     0.025 H 
ATOM     30  H   LIG d   1       3.542  -1.270  -1.720  0.00  0.00     0.025 H 
ENDBRANCH  24  27
ENDBRANCH  16  24
ENDBRANCH   1  16
BRANCH   6  31
ATOM     31  C   LIG d   1      11.809   1.988  -4.656  0.00  0.00    -0.011 A 
ATOM     32  C   LIG d   1      12.802   1.404  -3.870  0.00  0.00    -0.053 A 
ATOM     33  C   LIG d   1      14.131   1.684  -4.120  0.00  0.00    -0.047 A 
ATOM     34  H   LIG d   1      12.533   0.734  -3.068  0.00  0.00     0.062 H 
ATOM     35  C   LIG d   1      14.477   2.543  -5.148  0.00  0.00     0.018 A 
ATOM     36  H   LIG d   1      14.899   1.232  -3.512  0.00  0.00     0.063 H 
ATOM     37  C   LIG d   1      13.495   3.126  -5.932  0.00  0.00    -0.047 A 
ATOM     38 BR   LIG d   1      16.299   2.922  -5.485  0.00  0.00    -0.050 Br
ATOM     39  C   LIG d   1      12.164   2.848  -5.695  0.00  0.00    -0.053 A 
ATOM     40  H   LIG d   1      13.772   3.795  -6.733  0.00  0.00     0.063 H 
ATOM     41  H   LIG d   1      11.400   3.299  -6.309  0.00  0.00     0.062 H 
ENDBRANCH   6  31
TORSDOF 6
ENDMDL
MODEL 8
REMARK VINA RESULT:      -5.0      4.058      8.529
REMARK  6 active torsions:
REMARK  status: ('A' for Active; 'I' for Inactive)
REMARK    1  A    between atoms: C_1  and  C_2 
REMARK    2  A    between atoms: C_2  and  N_3 
REMARK    3  A    between atoms: N_3  and  C_4 
REMARK    4  A    between atoms: N_3  and  C_6 
REMARK    5  A    between atoms: C_4  and  C_5 
REMARK    6  A    between atoms: C_11  and  C_17 
ROOT
ATOM      1  C   LIG d   1       3.564  -1.244 -13.320  0.00  0.00     0.033 A 
ATOM      2  C   LIG d   1       3.032  -2.338 -12.636  0.00  0.00    -0.040 A 
ATOM      3  C   LIG d   1       2.988  -2.345 -11.274  0.00  0.00    -0.049 A 
ATOM      4  C   LIG d   1       3.479  -1.246 -10.551  0.00  0.00     0.018 A 
ATOM      5  C   LIG d   1       3.436  -1.249  -9.134  0.00  0.00    -0.036 A 
ATOM      6  C   LIG d   1       3.921  -0.164  -8.454  0.00  0.00     0.067 A 
ATOM      7  C   LIG d   1       4.469   0.963  -9.213  0.00  0.00     0.345 A 
ATOM      8  O   LIG d   1       4.905   1.936  -8.624  0.00  0.00    -0.244 OA
ATOM      9  O   LIG d   1       4.493   0.925 -10.556  0.00  0.00    -0.422 OA
ATOM     10  C   LIG d   1       4.017  -0.140 -11.235  0.00  0.00     0.141 A 
ATOM     11  C   LIG d   1       4.054  -0.150 -12.622  0.00  0.00     0.002 A 
ATOM     12  H   LIG d   1       2.654  -3.185 -13.189  0.00  0.00     0.064 H 
ATOM     13  H   LIG d   1       2.576  -3.195 -10.750  0.00  0.00     0.062 H 
ATOM     14  H   LIG d   1       3.027  -2.093  -8.599  0.00  0.00     0.063 H 
ATOM     15  H   LIG d   1       4.463   0.693 -13.157  0.00  0.00     0.067 H 
ENDROOT
BRANCH   1  16
ATOM     16  N   LIG d   1       3.597  -1.248 -14.711  0.00  0.00    -0.330 N 
BRANCH  16  17
ATOM     17  C   LIG d   1       2.887  -2.289 -15.457  0.00  0.00     0.009 C 
ATOM     18  H   LIG d   1       3.608  -2.995 -15.870  0.00  0.00     0.046 H 
ATOM     19  H   LIG d   1       2.206  -2.815 -14.789  0.00  0.00     0.046 H 
BRANCH  17  20
ATOM     20  C   LIG d   1       2.091  -1.648 -16.596  0.00  0.00    -0.049 C 
ATOM     21  H   LIG d   1       2.311  -0.582 -16.637  0.00  0.00     0.025 H 
ATOM     22  H   LIG d   1       2.371  -2.113 -17.541  0.00  0.00     0.025 H 
ATOM     23  H   LIG d   1       1.025  -1.793 -16.421  0.00  0.00     0.025 H 
ENDBRANCH  17  20
ENDBRANCH  16  17
BRANCH  16  24
ATOM     24  C   LIG d   1       4.343  -0.211 -15.429  0.00  0.00     0.009 C 
ATOM     25  H   LIG d   1       3.782   0.094 -16.312  0.00  0.00     0.046 H 
ATOM     26  H   LIG d   1       4.489   0.650 -14.776  0.00  0.00     0.046 H 
BRANCH  24  27
ATOM     27  C   LIG d   1       5.704  -0.764 -15.855  0.00  0.00    -0.049 C 
ATOM     28  H   LIG d   1       6.066  -1.462 -15.099  0.00  0.00     0.025 H 
ATOM     29  H   LIG d   1       5.604  -1.282 -16.809  0.00  0.00     0.025 H 
ATOM     30  H   LIG d   1       6.413   0.057 -15.959  0.00  0.00     0.025 H 
ENDBRANCH  24  27
ENDBRANCH  16  24
ENDBRANCH   1  16
BRANCH   6  31
ATOM     31  C   LIG d   1       3.892  -0.131  -6.973  0.00  0.00    -0.011 A 
ATOM     32  C   LIG d   1       2.765   0.347  -6.306  0.00  0.00    -0.053 A 
ATOM     33  C   LIG d   1       2.743   0.375  -4.926  0.00  0.00    -0.047 A 
ATOM     34  H   LIG d   1       1.910   0.694  -6.867  0.00  0.00     0.062 H 
ATOM     35  C   LIG d   1       3.838  -0.070  -4.206  0.00  0.00     0.018 A 
ATOM     36  H   LIG d   1       1.870   0.744  -4.409  0.00  0.00     0.063 H 
ATOM     37  C   LIG d   1       4.960  -0.544  -4.863  0.00  0.00    -0.047 A 
ATOM     38 BR   LIG d   1       3.800  -0.028  -2.315  0.00  0.00    -0.050 Br
ATOM     39  C   LIG d   1       4.990  -0.583  -6.242  0.00  0.00    -0.053 A 
ATOM     40  H   LIG d   1       5.811  -0.890  -4.295  0.00  0.00     0.063 H 
ATOM     41  H   LIG d   1       5.864  -0.957  -6.753  0.00  0.00     0.062 H 
ENDBRANCH   6  31
TORSDOF 6
ENDMDL
MODEL 9
REMARK VINA RESULT:      -5.0     10.294     13.892
REMARK  6 active torsions:
REMARK  status: ('A' for Active; 'I' for Inactive)
REMARK    1  A    between atoms: C_1  and  C_2 
REMARK    2  A    between atoms: C_2  and  N_3 
REMARK    3  A    between atoms: N_3  and  C_4 
REMARK    4  A    between atoms: N_3  and  C_6 
REMARK    5  A    between atoms: C_4  and  C_5 
REMARK    6  A    between atoms: C_11  and  C_17 
ROOT
ATOM      1  C   LIG d   1       9.481   4.246  -4.151  0.00  0.00     0.033 A 
ATOM      2  C   LIG d   1       9.389   5.383  -4.956  0.00  0.00    -0.040 A 
ATOM      3  C   LIG d   1       9.650   6.617  -4.439  0.00  0.00    -0.049 A 
ATOM      4  C   LIG d   1      10.015   6.748  -3.089  0.00  0.00     0.018 A 
ATOM      5  C   LIG d   1      10.287   8.030  -2.547  0.00  0.00    -0.036 A 
ATOM      6  C   LIG d   1      10.640   8.129  -1.228  0.00  0.00     0.067 A 
ATOM      7  C   LIG d   1      10.725   6.909  -0.421  0.00  0.00     0.345 A 
ATOM      8  O   LIG d   1      11.038   6.980   0.754  0.00  0.00    -0.244 OA
ATOM      9  O   LIG d   1      10.458   5.714  -0.973  0.00  0.00    -0.422 OA
ATOM     10  C   LIG d   1      10.109   5.606  -2.273  0.00  0.00     0.141 A 
ATOM     11  C   LIG d   1       9.839   4.358  -2.816  0.00  0.00     0.002 A 
ATOM     12  H   LIG d   1       9.109   5.285  -5.994  0.00  0.00     0.064 H 
ATOM     13  H   LIG d   1       9.577   7.493  -5.066  0.00  0.00     0.062 H 
ATOM     14  H   LIG d   1      10.217   8.913  -3.164  0.00  0.00     0.063 H 
ATOM     15  H   LIG d   1       9.909   3.474  -2.200  0.00  0.00     0.067 H 
ENDROOT
BRANCH   1  16
ATOM     16  N   LIG d   1       9.217   2.992  -4.694  0.00  0.00    -0.330 N 
BRANCH  16  17
ATOM     17  C   LIG d   1       9.207   2.811  -6.147  0.00  0.00     0.009 C 
ATOM     18  H   LIG d   1       8.203   2.538  -6.472  0.00  0.00     0.046 H 
ATOM     19  H   LIG d   1       9.506   3.740  -6.632  0.00  0.00     0.046 H 
BRANCH  17  20
ATOM     20  C   LIG d   1      10.187   1.699  -6.529  0.00  0.00    -0.049 C 
ATOM     21  H   LIG d   1      11.208   2.045  -6.374  0.00  0.00     0.025 H 
ATOM     22  H   LIG d   1      10.002   0.823  -5.908  0.00  0.00     0.025 H 
ATOM     23  H   LIG d   1      10.047   1.436  -7.578  0.00  0.00     0.025 H 
ENDBRANCH  17  20
ENDBRANCH  16  17
BRANCH  16  24
ATOM     24  C   LIG d   1       8.949   1.853  -3.811  0.00  0.00     0.009 C 
ATOM     25  H   LIG d   1       9.491   0.979  -4.172  0.00  0.00     0.046 H 
ATOM     26  H   LIG d   1       9.278   2.093  -2.800  0.00  0.00     0.046 H 
BRANCH  24  27
ATOM     27  C   LIG d   1       7.448   1.557  -3.804  0.00  0.00    -0.049 C 
ATOM     28  H   LIG d   1       6.906   2.434  -3.452  0.00  0.00     0.025 H 
ATOM     29  H   LIG d   1       7.121   1.309  -4.814  0.00  0.00     0.025 H 
ATOM     30  H   LIG d   1       7.248   0.716  -3.139  0.00  0.00     0.025 H 
ENDBRANCH  24  27
ENDBRANCH  16  24
ENDBRANCH   1  16
BRANCH   6  31
ATOM     31  C   LIG d   1      10.933   9.451  -0.626  0.00  0.00    -0.011 A 
ATOM     32  C   LIG d   1      12.222   9.979  -0.688  0.00  0.00    -0.053 A 
ATOM     33  C   LIG d   1      12.488  11.211  -0.126  0.00  0.00    -0.047 A 
ATOM     34  H   LIG d   1      13.010   9.424  -1.175  0.00  0.00     0.062 H 
ATOM     35  C   LIG d   1      11.478  11.922   0.498  0.00  0.00     0.018 A 
ATOM     36  H   LIG d   1      13.486  11.620  -0.174  0.00  0.00     0.063 H 
ATOM     37  C   LIG d   1      10.196  11.403   0.563  0.00  0.00    -0.047 A 
ATOM     38 BR   LIG d   1      11.851  13.610   1.266  0.00  0.00    -0.050 Br
ATOM     39  C   LIG d   1       9.917  10.175  -0.000  0.00  0.00    -0.053 A 
ATOM     40  H   LIG d   1       9.413  11.962   1.051  0.00  0.00     0.063 H 
ATOM     41  H   LIG d   1       8.917   9.773   0.047  0.00  0.00     0.062 H 
ENDBRANCH   6  31
TORSDOF 6
ENDMDL
MODEL 10
REMARK VINA RESULT:      -5.0      6.215      8.084
REMARK  6 active torsions:
REMARK  status: ('A' for Active; 'I' for Inactive)
REMARK    1  A    between atoms: C_1  and  C_2 
REMARK    2  A    between atoms: C_2  and  N_3 
REMARK    3  A    between atoms: N_3  and  C_4 
REMARK    4  A    between atoms: N_3  and  C_6 
REMARK    5  A    between atoms: C_4  and  C_5 
REMARK    6  A    between atoms: C_11  and  C_17 
ROOT
ATOM      1  C   LIG d   1       5.087  -1.434  -3.988  0.00  0.00     0.033 A 
ATOM      2  C   LIG d   1       4.614  -2.352  -4.928  0.00  0.00    -0.040 A 
ATOM      3  C   LIG d   1       5.367  -3.433  -5.276  0.00  0.00    -0.049 A 
ATOM      4  C   LIG d   1       6.627  -3.629  -4.687  0.00  0.00     0.018 A 
ATOM      5  C   LIG d   1       7.413  -4.752  -5.047  0.00  0.00    -0.036 A 
ATOM      6  C   LIG d   1       8.637  -4.919  -4.457  0.00  0.00     0.067 A 
ATOM      7  C   LIG d   1       9.094  -3.932  -3.476  0.00  0.00     0.345 A 
ATOM      8  O   LIG d   1      10.181  -4.065  -2.942  0.00  0.00    -0.244 OA
ATOM      9  O   LIG d   1       8.318  -2.881  -3.164  0.00  0.00    -0.422 OA
ATOM     10  C   LIG d   1       7.109  -2.708  -3.740  0.00  0.00     0.141 A 
ATOM     11  C   LIG d   1       6.329  -1.612  -3.397  0.00  0.00     0.002 A 
ATOM     12  H   LIG d   1       3.645  -2.204  -5.382  0.00  0.00     0.064 H 
ATOM     13  H   LIG d   1       4.995  -4.139  -6.004  0.00  0.00     0.062 H 
ATOM     14  H   LIG d   1       7.053  -5.465  -5.774  0.00  0.00     0.063 H 
ATOM     15  H   LIG d   1       6.689  -0.899  -2.671  0.00  0.00     0.067 H 
ENDROOT
BRANCH   1  16
ATOM     16  N   LIG d   1       4.305  -0.338  -3.638  0.00  0.00    -0.330 N 
BRANCH  16  17
ATOM     17  C   LIG d   1       2.855  -0.378  -3.841  0.00  0.00     0.009 C 
ATOM     18  H   LIG d   1       2.563  -1.373  -4.177  0.00  0.00     0.046 H 
ATOM     19  H   LIG d   1       2.350  -0.148  -2.902  0.00  0.00     0.046 H 
BRANCH  17  20
ATOM     20  C   LIG d   1       2.459   0.655  -4.898  0.00  0.00    -0.049 C 
ATOM     21  H   LIG d   1       2.315   0.157  -5.856  0.00  0.00     0.025 H 
ATOM     22  H   LIG d   1       1.532   1.143  -4.599  0.00  0.00     0.025 H 
ATOM     23  H   LIG d   1       3.249   1.401  -4.991  0.00  0.00     0.025 H 
ENDBRANCH  17  20
ENDBRANCH  16  17
BRANCH  16  24
ATOM     24  C   LIG d   1       4.933   0.857  -3.067  0.00  0.00     0.009 C 
ATOM     25  H   LIG d   1       6.016   0.774  -3.154  0.00  0.00     0.046 H 
ATOM     26  H   LIG d   1       4.590   1.740  -3.606  0.00  0.00     0.046 H 
BRANCH  24  27
ATOM     27  C   LIG d   1       4.548   0.978  -1.591  0.00  0.00    -0.049 C 
ATOM     28  H   LIG d   1       3.830   1.789  -1.468  0.00  0.00     0.025 H 
ATOM     29  H   LIG d   1       4.102   0.043  -1.253  0.00  0.00     0.025 H 
ATOM     30  H   LIG d   1       5.439   1.191  -1.000  0.00  0.00     0.025 H 
ENDBRANCH  24  27
ENDBRANCH  16  24
ENDBRANCH   1  16
BRANCH   6  31
ATOM     31  C   LIG d   1       9.488  -6.081  -4.807  0.00  0.00    -0.011 A 
ATOM     32  C   LIG d   1      10.422  -5.979  -5.837  0.00  0.00    -0.053 A 
ATOM     33  C   LIG d   1      11.213  -7.064  -6.158  0.00  0.00    -0.047 A 
ATOM     34  H   LIG d   1      10.527  -5.053  -6.383  0.00  0.00     0.062 H 
ATOM     35  C   LIG d   1      11.079  -8.250  -5.459  0.00  0.00     0.018 A 
ATOM     36  H   LIG d   1      11.936  -6.986  -6.956  0.00  0.00     0.063 H 
ATOM     37  C   LIG d   1      10.154  -8.357  -4.435  0.00  0.00    -0.047 A 
ATOM     38 BR   LIG d   1      12.166  -9.733  -5.905  0.00  0.00    -0.050 Br
ATOM     39  C   LIG d   1       9.362  -7.277  -4.102  0.00  0.00    -0.053 A 
ATOM     40  H   LIG d   1      10.055  -9.286  -3.894  0.00  0.00     0.063 H 
ATOM     41  H   LIG d   1       8.644  -7.360  -3.301  0.00  0.00     0.062 H 
ENDBRANCH   6  31
TORSDOF 6
ENDMDL
