MODEL 1
REMARK VINA RESULT:      -7.4      0.000      0.000
REMARK  6 active torsions:
REMARK  status: ('A' for Active; 'I' for Inactive)
REMARK    1  A    between atoms: C_1  and  N_55 
REMARK    2  A    between atoms: C_2  and  N_55 
REMARK    3  A    between atoms: C_3  and  C_4 
REMARK    4  A    between atoms: C_3  and  N_55 
REMARK       I    between atoms: C_4  and  N_6 
REMARK    5  A    between atoms: N_6  and  C_7 
REMARK       I    between atoms: N_21  and  C_23 
REMARK    6  A    between atoms: C_23  and  C_25 
ROOT
ATOM      1  C   LIG d   1       3.554  -0.360  -7.092  0.00  0.00     0.099 C 
ATOM      2  C   LIG d   1       4.256  -1.533  -7.142  0.00  0.00    -0.034 C 
ATOM      3  C   LIG d   1       4.649  -2.138  -5.944  0.00  0.00    -0.040 C 
ATOM      4  C   LIG d   1       4.318  -1.586  -4.748  0.00  0.00     0.027 C 
ATOM      5  N   LIG d   1       3.543  -0.475  -4.694  0.00  0.00    -0.310 N 
ATOM      6  C   LIG d   1       3.220   0.182  -5.834  0.00  0.00     0.273 C 
ATOM      7  O   LIG d   1       2.636   1.251  -5.773  0.00  0.00    -0.266 OA
ATOM      8  C   LIG d   1       2.972   0.039  -3.448  0.00  0.00     0.031 C 
ATOM      9  C   LIG d   1       3.722  -0.450  -2.222  0.00  0.00    -0.006 C 
ATOM     10  H   LIG d   1       3.104  -0.254  -1.347  0.00  0.00     0.033 H 
ATOM     11  C   LIG d   1       3.945  -1.960  -2.318  0.00  0.00    -0.037 C 
ATOM     12  C   LIG d   1       4.872  -2.239  -3.503  0.00  0.00     0.016 C 
ATOM     13  H   LIG d   1       4.972  -3.313  -3.657  0.00  0.00     0.038 H 
ATOM     14  C   LIG d   1       6.240  -1.600  -3.208  0.00  0.00     0.023 C 
ATOM     15  N   LIG d   1       6.010  -0.156  -3.057  0.00  0.00    -0.297 N 
ATOM     16  C   LIG d   1       5.043   0.287  -2.045  0.00  0.00     0.019 C 
ATOM     17  C   LIG d   1       6.684   0.741  -3.803  0.00  0.00     0.247 C 
ATOM     18  O   LIG d   1       6.481   1.930  -3.655  0.00  0.00    -0.270 OA
ATOM     19  H   LIG d   1       4.506  -1.982  -8.093  0.00  0.00     0.064 H 
ATOM     20  H   LIG d   1       5.220  -3.055  -5.970  0.00  0.00     0.064 H 
ATOM     21  H   LIG d   1       3.004   1.129  -3.469  0.00  0.00     0.050 H 
ATOM     22  H   LIG d   1       1.933  -0.281  -3.378  0.00  0.00     0.050 H 
ATOM     23  H   LIG d   1       2.990  -2.462  -2.473  0.00  0.00     0.028 H 
ATOM     24  H   LIG d   1       4.406  -2.321  -1.399  0.00  0.00     0.028 H 
ATOM     25  H   LIG d   1       6.660  -2.027  -2.298  0.00  0.00     0.047 H 
ATOM     26  H   LIG d   1       6.917  -1.770  -4.046  0.00  0.00     0.047 H 
ATOM     27  H   LIG d   1       4.874   1.358  -2.151  0.00  0.00     0.047 H 
ATOM     28  H   LIG d   1       5.441   0.080  -1.052  0.00  0.00     0.047 H 
ENDROOT
BRANCH   1  29
ATOM     29  N   LIG d   1       3.166   0.290  -8.271  0.00  0.00    -0.277 N 
ATOM     30  C   LIG d   1       3.995   1.177  -8.857  0.00  0.00     0.263 C 
ATOM     31  O   LIG d   1       5.037   1.482  -8.315  0.00  0.00    -0.270 OA
ATOM     32  H   LIG d   1       2.300   0.102  -8.666  0.00  0.00     0.155 HD
BRANCH  30  33
ATOM     33  C   LIG d   1       3.628   1.789 -10.183  0.00  0.00     0.046 C 
ATOM     34  H   LIG d   1       2.570   2.051 -10.182  0.00  0.00     0.091 H 
ATOM     35  H   LIG d   1       4.224   2.687 -10.348  0.00  0.00     0.091 H 
BRANCH  33  36
ATOM     36  N   LIG d   1       3.918   0.814 -11.255  0.00  0.00     0.237 N 
ATOM     37  H   LIG d   1       3.953   1.308 -12.155  0.00  0.00     0.203 HD
BRANCH  36  38
ATOM     38  C   LIG d   1       5.226   0.169 -11.011  0.00  0.00    -0.043 C 
ATOM     39  H   LIG d   1       5.673  -0.155 -11.951  0.00  0.00     0.078 H 
ATOM     40  H   LIG d   1       5.886   0.882 -10.520  0.00  0.00     0.078 H 
ATOM     41  H   LIG d   1       5.077  -0.695 -10.364  0.00  0.00     0.078 H 
ENDBRANCH  36  38
BRANCH  36  42
ATOM     42  C   LIG d   1       2.853  -0.209 -11.311  0.00  0.00    -0.043 C 
ATOM     43  H   LIG d   1       2.362  -0.155 -12.283  0.00  0.00     0.078 H 
ATOM     44  H   LIG d   1       3.301  -1.195 -11.184  0.00  0.00     0.078 H 
ATOM     45  H   LIG d   1       2.119  -0.039 -10.524  0.00  0.00     0.078 H 
ENDBRANCH  36  42
ENDBRANCH  33  36
ENDBRANCH  30  33
ENDBRANCH   1  29
BRANCH  17  46
ATOM     46  C   LIG d   1       7.670   0.278  -4.803  0.00  0.00     0.037 A 
ATOM     47  C   LIG d   1       7.299   0.139  -6.141  0.00  0.00    -0.050 A 
ATOM     48  C   LIG d   1       8.224  -0.292  -7.069  0.00  0.00    -0.061 A 
ATOM     49  H   LIG d   1       6.289   0.368  -6.449  0.00  0.00     0.062 H 
ATOM     50  C   LIG d   1       9.517  -0.587  -6.676  0.00  0.00    -0.062 A 
ATOM     51  H   LIG d   1       7.939  -0.400  -8.105  0.00  0.00     0.062 H 
ATOM     52  C   LIG d   1       9.892  -0.451  -5.350  0.00  0.00    -0.061 A 
ATOM     53  H   LIG d   1      10.238  -0.925  -7.407  0.00  0.00     0.062 H 
ATOM     54  C   LIG d   1       8.978  -0.015  -4.414  0.00  0.00    -0.050 A 
ATOM     55  H   LIG d   1      10.903  -0.683  -5.050  0.00  0.00     0.062 H 
ATOM     56  H   LIG d   1       9.273   0.095  -3.381  0.00  0.00     0.062 H 
ENDBRANCH  17  46
TORSDOF 6
ENDMDL
MODEL 2
REMARK VINA RESULT:      -7.1      2.543      4.405
REMARK  6 active torsions:
REMARK  status: ('A' for Active; 'I' for Inactive)
REMARK    1  A    between atoms: C_1  and  N_55 
REMARK    2  A    between atoms: C_2  and  N_55 
REMARK    3  A    between atoms: C_3  and  C_4 
REMARK    4  A    between atoms: C_3  and  N_55 
REMARK       I    between atoms: C_4  and  N_6 
REMARK    5  A    between atoms: N_6  and  C_7 
REMARK       I    between atoms: N_21  and  C_23 
REMARK    6  A    between atoms: C_23  and  C_25 
ROOT
ATOM      1  C   LIG d   1       3.889  -1.028  -8.003  0.00  0.00     0.099 C 
ATOM      2  C   LIG d   1       4.583   0.097  -7.649  0.00  0.00    -0.034 C 
ATOM      3  C   LIG d   1       5.794  -0.044  -6.963  0.00  0.00    -0.040 C 
ATOM      4  C   LIG d   1       6.287  -1.277  -6.673  0.00  0.00     0.027 C 
ATOM      5  N   LIG d   1       5.648  -2.392  -7.104  0.00  0.00    -0.310 N 
ATOM      6  C   LIG d   1       4.432  -2.291  -7.695  0.00  0.00     0.273 C 
ATOM      7  O   LIG d   1       3.802  -3.302  -7.961  0.00  0.00    -0.266 OA
ATOM      8  C   LIG d   1       6.234  -3.730  -7.018  0.00  0.00     0.031 C 
ATOM      9  C   LIG d   1       7.335  -3.814  -5.976  0.00  0.00    -0.006 C 
ATOM     10  H   LIG d   1       7.892  -4.735  -6.145  0.00  0.00     0.033 H 
ATOM     11  C   LIG d   1       8.299  -2.639  -6.143  0.00  0.00    -0.037 C 
ATOM     12  C   LIG d   1       7.541  -1.344  -5.835  0.00  0.00     0.016 C 
ATOM     13  H   LIG d   1       8.175  -0.482  -6.039  0.00  0.00     0.038 H 
ATOM     14  C   LIG d   1       7.116  -1.373  -4.357  0.00  0.00     0.023 C 
ATOM     15  N   LIG d   1       6.239  -2.540  -4.189  0.00  0.00    -0.297 N 
ATOM     16  C   LIG d   1       6.765  -3.858  -4.565  0.00  0.00     0.019 C 
ATOM     17  C   LIG d   1       4.997  -2.413  -3.681  0.00  0.00     0.247 C 
ATOM     18  O   LIG d   1       4.292  -3.395  -3.547  0.00  0.00    -0.270 OA
ATOM     19  H   LIG d   1       4.201   1.077  -7.893  0.00  0.00     0.064 H 
ATOM     20  H   LIG d   1       6.343   0.836  -6.662  0.00  0.00     0.064 H 
ATOM     21  H   LIG d   1       5.450  -4.443  -6.761  0.00  0.00     0.050 H 
ATOM     22  H   LIG d   1       6.647  -3.997  -7.990  0.00  0.00     0.050 H 
ATOM     23  H   LIG d   1       8.670  -2.611  -7.167  0.00  0.00     0.028 H 
ATOM     24  H   LIG d   1       9.133  -2.749  -5.450  0.00  0.00     0.028 H 
ATOM     25  H   LIG d   1       7.997  -1.449  -3.719  0.00  0.00     0.047 H 
ATOM     26  H   LIG d   1       6.560  -0.467  -4.114  0.00  0.00     0.047 H 
ATOM     27  H   LIG d   1       5.961  -4.593  -4.524  0.00  0.00     0.047 H 
ATOM     28  H   LIG d   1       7.551  -4.143  -3.866  0.00  0.00     0.047 H 
ENDROOT
BRANCH   1  29
ATOM     29  N   LIG d   1       2.659  -0.926  -8.668  0.00  0.00    -0.277 N 
ATOM     30  C   LIG d   1       2.624  -0.868 -10.015  0.00  0.00     0.263 C 
ATOM     31  O   LIG d   1       3.657  -0.810 -10.647  0.00  0.00    -0.270 OA
ATOM     32  H   LIG d   1       1.834  -0.897  -8.160  0.00  0.00     0.155 HD
BRANCH  30  33
ATOM     33  C   LIG d   1       1.300  -0.875 -10.734  0.00  0.00     0.046 C 
ATOM     34  H   LIG d   1       0.490  -0.853 -10.005  0.00  0.00     0.091 H 
ATOM     35  H   LIG d   1       1.232   0.001 -11.379  0.00  0.00     0.091 H 
BRANCH  33  36
ATOM     36  N   LIG d   1       1.215  -2.094 -11.566  0.00  0.00     0.237 N 
ATOM     37  H   LIG d   1       2.117  -2.241 -12.034  0.00  0.00     0.203 HD
BRANCH  36  38
ATOM     38  C   LIG d   1       0.919  -3.266 -10.715  0.00  0.00    -0.043 C 
ATOM     39  H   LIG d   1       0.159  -3.893 -11.180  0.00  0.00     0.078 H 
ATOM     40  H   LIG d   1       1.833  -3.844 -10.578  0.00  0.00     0.078 H 
ATOM     41  H   LIG d   1       0.560  -2.918  -9.747  0.00  0.00     0.078 H 
ENDBRANCH  36  38
BRANCH  36  42
ATOM     42  C   LIG d   1       0.162  -1.934 -12.591  0.00  0.00    -0.043 C 
ATOM     43  H   LIG d   1       0.517  -1.246 -13.358  0.00  0.00     0.078 H 
ATOM     44  H   LIG d   1      -0.045  -2.906 -13.040  0.00  0.00     0.078 H 
ATOM     45  H   LIG d   1      -0.750  -1.540 -12.143  0.00  0.00     0.078 H 
ENDBRANCH  36  42
ENDBRANCH  33  36
ENDBRANCH  30  33
ENDBRANCH   1  29
BRANCH  17  46
ATOM     46  C   LIG d   1       4.491  -1.081  -3.289  0.00  0.00     0.037 A 
ATOM     47  C   LIG d   1       3.636  -0.378  -4.138  0.00  0.00    -0.050 A 
ATOM     48  C   LIG d   1       3.167   0.865  -3.766  0.00  0.00    -0.061 A 
ATOM     49  H   LIG d   1       3.343  -0.805  -5.086  0.00  0.00     0.062 H 
ATOM     50  C   LIG d   1       3.543   1.415  -2.553  0.00  0.00    -0.062 A 
ATOM     51  H   LIG d   1       2.505   1.410  -4.422  0.00  0.00     0.062 H 
ATOM     52  C   LIG d   1       4.390   0.722  -1.706  0.00  0.00    -0.061 A 
ATOM     53  H   LIG d   1       3.173   2.388  -2.266  0.00  0.00     0.062 H 
ATOM     54  C   LIG d   1       4.862  -0.523  -2.064  0.00  0.00    -0.050 A 
ATOM     55  H   LIG d   1       4.679   1.157  -0.761  0.00  0.00     0.062 H 
ATOM     56  H   LIG d   1       5.520  -1.064  -1.400  0.00  0.00     0.062 H 
ENDBRANCH  17  46
TORSDOF 6
ENDMDL
MODEL 3
REMARK VINA RESULT:      -7.1      2.491      6.159
REMARK  6 active torsions:
REMARK  status: ('A' for Active; 'I' for Inactive)
REMARK    1  A    between atoms: C_1  and  N_55 
REMARK    2  A    between atoms: C_2  and  N_55 
REMARK    3  A    between atoms: C_3  and  C_4 
REMARK    4  A    between atoms: C_3  and  N_55 
REMARK       I    between atoms: C_4  and  N_6 
REMARK    5  A    between atoms: N_6  and  C_7 
REMARK       I    between atoms: N_21  and  C_23 
REMARK    6  A    between atoms: C_23  and  C_25 
ROOT
ATOM      1  C   LIG d   1       8.193   0.827  -6.368  0.00  0.00     0.099 C 
ATOM      2  C   LIG d   1       8.394  -0.352  -5.703  0.00  0.00    -0.034 C 
ATOM      3  C   LIG d   1       7.641  -1.472  -6.070  0.00  0.00    -0.040 C 
ATOM      4  C   LIG d   1       6.744  -1.401  -7.088  0.00  0.00     0.027 C 
ATOM      5  N   LIG d   1       6.610  -0.261  -7.809  0.00  0.00    -0.310 N 
ATOM      6  C   LIG d   1       7.260   0.864  -7.424  0.00  0.00     0.273 C 
ATOM      7  O   LIG d   1       7.036   1.919  -7.995  0.00  0.00    -0.266 OA
ATOM      8  C   LIG d   1       5.829  -0.185  -9.044  0.00  0.00     0.031 C 
ATOM      9  C   LIG d   1       4.805  -1.301  -9.151  0.00  0.00    -0.006 C 
ATOM     10  H   LIG d   1       4.454  -1.341 -10.181  0.00  0.00     0.033 H 
ATOM     11  C   LIG d   1       5.462  -2.642  -8.820  0.00  0.00    -0.037 C 
ATOM     12  C   LIG d   1       5.892  -2.621  -7.351  0.00  0.00     0.016 C 
ATOM     13  H   LIG d   1       6.451  -3.525  -7.111  0.00  0.00     0.038 H 
ATOM     14  C   LIG d   1       4.631  -2.509  -6.478  0.00  0.00     0.023 C 
ATOM     15  N   LIG d   1       3.971  -1.248  -6.844  0.00  0.00    -0.297 N 
ATOM     16  C   LIG d   1       3.604  -1.044  -8.251  0.00  0.00     0.019 C 
ATOM     17  C   LIG d   1       3.685  -0.313  -5.916  0.00  0.00     0.247 C 
ATOM     18  O   LIG d   1       3.134   0.720  -6.243  0.00  0.00    -0.270 OA
ATOM     19  H   LIG d   1       9.119  -0.414  -4.905  0.00  0.00     0.064 H 
ATOM     20  H   LIG d   1       7.777  -2.404  -5.541  0.00  0.00     0.064 H 
ATOM     21  H   LIG d   1       5.311   0.773  -9.076  0.00  0.00     0.050 H 
ATOM     22  H   LIG d   1       6.508  -0.247  -9.895  0.00  0.00     0.050 H 
ATOM     23  H   LIG d   1       6.334  -2.790  -9.456  0.00  0.00     0.028 H 
ATOM     24  H   LIG d   1       4.747  -3.449  -8.980  0.00  0.00     0.028 H 
ATOM     25  H   LIG d   1       3.977  -3.361  -6.662  0.00  0.00     0.047 H 
ATOM     26  H   LIG d   1       4.911  -2.476  -5.425  0.00  0.00     0.047 H 
ATOM     27  H   LIG d   1       3.263  -0.018  -8.391  0.00  0.00     0.047 H 
ATOM     28  H   LIG d   1       2.801  -1.731  -8.516  0.00  0.00     0.047 H 
ENDROOT
BRANCH   1  29
ATOM     29  N   LIG d   1       8.909   1.978  -6.012  0.00  0.00    -0.277 N 
ATOM     30  C   LIG d   1       8.519   2.713  -4.951  0.00  0.00     0.263 C 
ATOM     31  O   LIG d   1       7.497   2.432  -4.361  0.00  0.00    -0.270 OA
ATOM     32  H   LIG d   1       9.685   2.246  -6.528  0.00  0.00     0.155 HD
BRANCH  30  33
ATOM     33  C   LIG d   1       9.353   3.883  -4.498  0.00  0.00     0.046 C 
ATOM     34  H   LIG d   1      10.268   3.926  -5.088  0.00  0.00     0.091 H 
ATOM     35  H   LIG d   1       8.789   4.806  -4.634  0.00  0.00     0.091 H 
BRANCH  33  36
ATOM     36  N   LIG d   1       9.668   3.717  -3.064  0.00  0.00     0.237 N 
ATOM     37  H   LIG d   1       8.828   3.391  -2.572  0.00  0.00     0.203 HD
BRANCH  36  38
ATOM     38  C   LIG d   1      10.741   2.714  -2.895  0.00  0.00    -0.043 C 
ATOM     39  H   LIG d   1      11.711   3.147  -3.138  0.00  0.00     0.078 H 
ATOM     40  H   LIG d   1      10.745   2.370  -1.861  0.00  0.00     0.078 H 
ATOM     41  H   LIG d   1      10.543   1.871  -3.557  0.00  0.00     0.078 H 
ENDBRANCH  36  38
BRANCH  36  42
ATOM     42  C   LIG d   1      10.091   5.010  -2.486  0.00  0.00    -0.043 C 
ATOM     43  H   LIG d   1      10.482   5.643  -3.283  0.00  0.00     0.078 H 
ATOM     44  H   LIG d   1       9.227   5.494  -2.029  0.00  0.00     0.078 H 
ATOM     45  H   LIG d   1      10.862   4.857  -1.731  0.00  0.00     0.078 H 
ENDBRANCH  36  42
ENDBRANCH  33  36
ENDBRANCH  30  33
ENDBRANCH   1  29
BRANCH  17  46
ATOM     46  C   LIG d   1       4.044  -0.544  -4.500  0.00  0.00     0.037 A 
ATOM     47  C   LIG d   1       3.264  -1.387  -3.709  0.00  0.00    -0.050 A 
ATOM     48  C   LIG d   1       3.604  -1.599  -2.388  0.00  0.00    -0.061 A 
ATOM     49  H   LIG d   1       2.395  -1.873  -4.127  0.00  0.00     0.062 H 
ATOM     50  C   LIG d   1       4.716  -0.976  -1.849  0.00  0.00    -0.062 A 
ATOM     51  H   LIG d   1       3.002  -2.251  -1.774  0.00  0.00     0.062 H 
ATOM     52  C   LIG d   1       5.494  -0.139  -2.630  0.00  0.00    -0.061 A 
ATOM     53  H   LIG d   1       4.978  -1.145  -0.815  0.00  0.00     0.062 H 
ATOM     54  C   LIG d   1       5.168   0.077  -3.952  0.00  0.00    -0.050 A 
ATOM     55  H   LIG d   1       6.360   0.344  -2.202  0.00  0.00     0.062 H 
ATOM     56  H   LIG d   1       5.778   0.727  -4.561  0.00  0.00     0.062 H 
ENDBRANCH  17  46
TORSDOF 6
ENDMDL
MODEL 4
REMARK VINA RESULT:      -6.2      3.352      6.883
REMARK  6 active torsions:
REMARK  status: ('A' for Active; 'I' for Inactive)
REMARK    1  A    between atoms: C_1  and  N_55 
REMARK    2  A    between atoms: C_2  and  N_55 
REMARK    3  A    between atoms: C_3  and  C_4 
REMARK    4  A    between atoms: C_3  and  N_55 
REMARK       I    between atoms: C_4  and  N_6 
REMARK    5  A    between atoms: N_6  and  C_7 
REMARK       I    between atoms: N_21  and  C_23 
REMARK    6  A    between atoms: C_23  and  C_25 
ROOT
ATOM      1  C   LIG d   1       6.699  -4.472  -6.520  0.00  0.00     0.099 C 
ATOM      2  C   LIG d   1       5.381  -4.784  -6.325  0.00  0.00    -0.034 C 
ATOM      3  C   LIG d   1       4.403  -4.024  -6.974  0.00  0.00    -0.040 C 
ATOM      4  C   LIG d   1       4.754  -3.009  -7.807  0.00  0.00     0.027 C 
ATOM      5  N   LIG d   1       6.059  -2.758  -8.074  0.00  0.00    -0.310 N 
ATOM      6  C   LIG d   1       7.028  -3.418  -7.395  0.00  0.00     0.273 C 
ATOM      7  O   LIG d   1       8.197  -3.097  -7.543  0.00  0.00    -0.266 OA
ATOM      8  C   LIG d   1       6.495  -1.832  -9.120  0.00  0.00     0.031 C 
ATOM      9  C   LIG d   1       5.414  -0.833  -9.497  0.00  0.00    -0.006 C 
ATOM     10  H   LIG d   1       5.702  -0.362 -10.436  0.00  0.00     0.033 H 
ATOM     11  C   LIG d   1       4.088  -1.562  -9.716  0.00  0.00    -0.037 C 
ATOM     12  C   LIG d   1       3.640  -2.166  -8.383  0.00  0.00     0.016 C 
ATOM     13  H   LIG d   1       2.748  -2.774  -8.528  0.00  0.00     0.038 H 
ATOM     14  C   LIG d   1       3.365  -1.016  -7.399  0.00  0.00     0.023 C 
ATOM     15  N   LIG d   1       4.628  -0.283  -7.239  0.00  0.00    -0.297 N 
ATOM     16  C   LIG d   1       5.271   0.257  -8.443  0.00  0.00     0.019 C 
ATOM     17  C   LIG d   1       5.172  -0.085  -6.021  0.00  0.00     0.247 C 
ATOM     18  O   LIG d   1       6.216   0.530  -5.915  0.00  0.00    -0.270 OA
ATOM     19  H   LIG d   1       5.101  -5.602  -5.677  0.00  0.00     0.064 H 
ATOM     20  H   LIG d   1       3.359  -4.248  -6.815  0.00  0.00     0.064 H 
ATOM     21  H   LIG d   1       7.371  -1.287  -8.767  0.00  0.00     0.050 H 
ATOM     22  H   LIG d   1       6.770  -2.404 -10.005  0.00  0.00     0.050 H 
ATOM     23  H   LIG d   1       4.223  -2.355 -10.452  0.00  0.00     0.028 H 
ATOM     24  H   LIG d   1       3.337  -0.856 -10.070  0.00  0.00     0.028 H 
ATOM     25  H   LIG d   1       2.583  -0.368  -7.795  0.00  0.00     0.047 H 
ATOM     26  H   LIG d   1       3.059  -1.420  -6.433  0.00  0.00     0.047 H 
ATOM     27  H   LIG d   1       6.258   0.641  -8.186  0.00  0.00     0.047 H 
ATOM     28  H   LIG d   1       4.662   1.067  -8.843  0.00  0.00     0.047 H 
ENDROOT
BRANCH   1  29
ATOM     29  N   LIG d   1       7.707  -5.194  -5.866  0.00  0.00    -0.277 N 
ATOM     30  C   LIG d   1       8.156  -4.785  -4.663  0.00  0.00     0.263 C 
ATOM     31  O   LIG d   1       7.755  -3.744  -4.187  0.00  0.00    -0.270 OA
ATOM     32  H   LIG d   1       8.082  -5.987  -6.280  0.00  0.00     0.155 HD
BRANCH  30  33
ATOM     33  C   LIG d   1       9.155  -5.622  -3.908  0.00  0.00     0.046 C 
ATOM     34  H   LIG d   1       8.679  -6.543  -3.573  0.00  0.00     0.091 H 
ATOM     35  H   LIG d   1       9.995  -5.864  -4.561  0.00  0.00     0.091 H 
BRANCH  33  36
ATOM     36  N   LIG d   1       9.652  -4.846  -2.752  0.00  0.00     0.237 N 
ATOM     37  H   LIG d   1       8.992  -4.085  -2.553  0.00  0.00     0.203 HD
BRANCH  36  38
ATOM     38  C   LIG d   1       9.749  -5.719  -1.562  0.00  0.00    -0.043 C 
ATOM     39  H   LIG d   1      10.006  -5.134  -0.679  0.00  0.00     0.078 H 
ATOM     40  H   LIG d   1       8.790  -6.212  -1.406  0.00  0.00     0.078 H 
ATOM     41  H   LIG d   1      10.519  -6.469  -1.737  0.00  0.00     0.078 H 
ENDBRANCH  36  38
BRANCH  36  42
ATOM     42  C   LIG d   1      10.975  -4.266  -3.062  0.00  0.00    -0.043 C 
ATOM     43  H   LIG d   1      10.966  -3.207  -2.805  0.00  0.00     0.078 H 
ATOM     44  H   LIG d   1      11.734  -4.778  -2.470  0.00  0.00     0.078 H 
ATOM     45  H   LIG d   1      11.204  -4.381  -4.122  0.00  0.00     0.078 H 
ENDBRANCH  36  42
ENDBRANCH  33  36
ENDBRANCH  30  33
ENDBRANCH   1  29
BRANCH  17  46
ATOM     46  C   LIG d   1       4.501  -0.618  -4.817  0.00  0.00     0.037 A 
ATOM     47  C   LIG d   1       3.415   0.060  -4.262  0.00  0.00    -0.050 A 
ATOM     48  C   LIG d   1       2.793  -0.444  -3.138  0.00  0.00    -0.061 A 
ATOM     49  H   LIG d   1       3.062   0.976  -4.711  0.00  0.00     0.062 H 
ATOM     50  C   LIG d   1       3.244  -1.617  -2.560  0.00  0.00    -0.062 A 
ATOM     51  H   LIG d   1       1.952   0.080  -2.708  0.00  0.00     0.062 H 
ATOM     52  C   LIG d   1       4.321  -2.294  -3.106  0.00  0.00    -0.061 A 
ATOM     53  H   LIG d   1       2.754  -2.006  -1.681  0.00  0.00     0.062 H 
ATOM     54  C   LIG d   1       4.949  -1.805  -4.233  0.00  0.00    -0.050 A 
ATOM     55  H   LIG d   1       4.668  -3.209  -2.650  0.00  0.00     0.062 H 
ATOM     56  H   LIG d   1       5.786  -2.336  -4.660  0.00  0.00     0.062 H 
ENDBRANCH  17  46
TORSDOF 6
ENDMDL
MODEL 5
REMARK VINA RESULT:      -6.2      2.914      5.006
REMARK  6 active torsions:
REMARK  status: ('A' for Active; 'I' for Inactive)
REMARK    1  A    between atoms: C_1  and  N_55 
REMARK    2  A    between atoms: C_2  and  N_55 
REMARK    3  A    between atoms: C_3  and  C_4 
REMARK    4  A    between atoms: C_3  and  N_55 
REMARK       I    between atoms: C_4  and  N_6 
REMARK    5  A    between atoms: N_6  and  C_7 
REMARK       I    between atoms: N_21  and  C_23 
REMARK    6  A    between atoms: C_23  and  C_25 
ROOT
ATOM      1  C   LIG d   1       4.202  -2.279  -7.997  0.00  0.00     0.099 C 
ATOM      2  C   LIG d   1       3.910  -0.954  -7.820  0.00  0.00    -0.034 C 
ATOM      3  C   LIG d   1       4.932  -0.083  -7.426  0.00  0.00    -0.040 C 
ATOM      4  C   LIG d   1       6.199  -0.538  -7.247  0.00  0.00     0.027 C 
ATOM      5  N   LIG d   1       6.510  -1.831  -7.513  0.00  0.00    -0.310 N 
ATOM      6  C   LIG d   1       5.529  -2.716  -7.811  0.00  0.00     0.273 C 
ATOM      7  O   LIG d   1       5.795  -3.902  -7.919  0.00  0.00    -0.266 OA
ATOM      8  C   LIG d   1       7.886  -2.328  -7.552  0.00  0.00     0.031 C 
ATOM      9  C   LIG d   1       8.847  -1.435  -6.788  0.00  0.00    -0.006 C 
ATOM     10  H   LIG d   1       9.862  -1.708  -7.073  0.00  0.00     0.033 H 
ATOM     11  C   LIG d   1       8.620   0.026  -7.178  0.00  0.00    -0.037 C 
ATOM     12  C   LIG d   1       7.221   0.439  -6.715  0.00  0.00     0.016 C 
ATOM     13  H   LIG d   1       6.993   1.446  -7.065  0.00  0.00     0.038 H 
ATOM     14  C   LIG d   1       7.180   0.372  -5.179  0.00  0.00     0.023 C 
ATOM     15  N   LIG d   1       7.458  -1.022  -4.808  0.00  0.00    -0.297 N 
ATOM     16  C   LIG d   1       8.709  -1.626  -5.283  0.00  0.00     0.019 C 
ATOM     17  C   LIG d   1       6.608  -1.722  -4.031  0.00  0.00     0.247 C 
ATOM     18  O   LIG d   1       6.863  -2.873  -3.733  0.00  0.00    -0.270 OA
ATOM     19  H   LIG d   1       2.906  -0.587  -7.977  0.00  0.00     0.064 H 
ATOM     20  H   LIG d   1       4.711   0.961  -7.264  0.00  0.00     0.064 H 
ATOM     21  H   LIG d   1       7.913  -3.328  -7.118  0.00  0.00     0.050 H 
ATOM     22  H   LIG d   1       8.210  -2.388  -8.591  0.00  0.00     0.050 H 
ATOM     23  H   LIG d   1       8.695   0.132  -8.260  0.00  0.00     0.028 H 
ATOM     24  H   LIG d   1       9.367   0.654  -6.694  0.00  0.00     0.028 H 
ATOM     25  H   LIG d   1       7.925   1.046  -4.759  0.00  0.00     0.047 H 
ATOM     26  H   LIG d   1       6.186   0.647  -4.823  0.00  0.00     0.047 H 
ATOM     27  H   LIG d   1       8.705  -2.692  -5.055  0.00  0.00     0.047 H 
ATOM     28  H   LIG d   1       9.551  -1.152  -4.780  0.00  0.00     0.047 H 
ENDROOT
BRANCH   1  29
ATOM     29  N   LIG d   1       3.200  -3.186  -8.366  0.00  0.00    -0.277 N 
ATOM     30  C   LIG d   1       3.005  -3.486  -9.666  0.00  0.00     0.263 C 
ATOM     31  O   LIG d   1       3.635  -2.903 -10.523  0.00  0.00    -0.270 OA
ATOM     32  H   LIG d   1       2.644  -3.598  -7.686  0.00  0.00     0.155 HD
BRANCH  30  33
ATOM     33  C   LIG d   1       2.007  -4.545 -10.053  0.00  0.00     0.046 C 
ATOM     34  H   LIG d   1       2.335  -5.036 -10.969  0.00  0.00     0.091 H 
ATOM     35  H   LIG d   1       1.928  -5.281  -9.254  0.00  0.00     0.091 H 
BRANCH  33  36
ATOM     36  N   LIG d   1       0.688  -3.907 -10.253  0.00  0.00     0.237 N 
ATOM     37  H   LIG d   1       0.509  -3.260  -9.476  0.00  0.00     0.203 HD
BRANCH  36  38
ATOM     38  C   LIG d   1       0.682  -3.146 -11.521  0.00  0.00    -0.043 C 
ATOM     39  H   LIG d   1       0.339  -3.775 -12.342  0.00  0.00     0.078 H 
ATOM     40  H   LIG d   1       0.017  -2.290 -11.416  0.00  0.00     0.078 H 
ATOM     41  H   LIG d   1       1.693  -2.798 -11.728  0.00  0.00     0.078 H 
ENDBRANCH  36  38
BRANCH  36  42
ATOM     42  C   LIG d   1      -0.373  -4.936 -10.276  0.00  0.00    -0.043 C 
ATOM     43  H   LIG d   1      -1.225  -4.577  -9.699  0.00  0.00     0.078 H 
ATOM     44  H   LIG d   1      -0.679  -5.107 -11.308  0.00  0.00     0.078 H 
ATOM     45  H   LIG d   1      -0.009  -5.869  -9.845  0.00  0.00     0.078 H 
ENDBRANCH  36  42
ENDBRANCH  33  36
ENDBRANCH  30  33
ENDBRANCH   1  29
BRANCH  17  46
ATOM     46  C   LIG d   1       5.362  -1.091  -3.544  0.00  0.00     0.037 A 
ATOM     47  C   LIG d   1       4.135  -1.437  -4.109  0.00  0.00    -0.050 A 
ATOM     48  C   LIG d   1       2.976  -0.844  -3.649  0.00  0.00    -0.061 A 
ATOM     49  H   LIG d   1       4.090  -2.165  -4.905  0.00  0.00     0.062 H 
ATOM     50  C   LIG d   1       3.031   0.090  -2.630  0.00  0.00    -0.062 A 
ATOM     51  H   LIG d   1       2.025  -1.111  -4.085  0.00  0.00     0.062 H 
ATOM     52  C   LIG d   1       4.246   0.436  -2.066  0.00  0.00    -0.061 A 
ATOM     53  H   LIG d   1       2.121   0.550  -2.274  0.00  0.00     0.062 H 
ATOM     54  C   LIG d   1       5.410  -0.152  -2.512  0.00  0.00    -0.050 A 
ATOM     55  H   LIG d   1       4.281   1.166  -1.270  0.00  0.00     0.062 H 
ATOM     56  H   LIG d   1       6.357   0.116  -2.068  0.00  0.00     0.062 H 
ENDBRANCH  17  46
TORSDOF 6
ENDMDL
MODEL 6
REMARK VINA RESULT:      -6.1     11.269     14.567
REMARK  6 active torsions:
REMARK  status: ('A' for Active; 'I' for Inactive)
REMARK    1  A    between atoms: C_1  and  N_55 
REMARK    2  A    between atoms: C_2  and  N_55 
REMARK    3  A    between atoms: C_3  and  C_4 
REMARK    4  A    between atoms: C_3  and  N_55 
REMARK       I    between atoms: C_4  and  N_6 
REMARK    5  A    between atoms: N_6  and  C_7 
REMARK       I    between atoms: N_21  and  C_23 
REMARK    6  A    between atoms: C_23  and  C_25 
ROOT
ATOM      1  C   LIG d   1      12.627  10.633   1.641  0.00  0.00     0.099 C 
ATOM      2  C   LIG d   1      13.499   9.923   0.862  0.00  0.00    -0.034 C 
ATOM      3  C   LIG d   1      13.335   9.941  -0.527  0.00  0.00    -0.040 C 
ATOM      4  C   LIG d   1      12.342  10.672  -1.098  0.00  0.00     0.027 C 
ATOM      5  N   LIG d   1      11.535  11.450  -0.335  0.00  0.00    -0.310 N 
ATOM      6  C   LIG d   1      11.613  11.387   1.017  0.00  0.00     0.273 C 
ATOM      7  O   LIG d   1      10.798  11.986   1.699  0.00  0.00    -0.266 OA
ATOM      8  C   LIG d   1      10.598  12.421  -0.900  0.00  0.00     0.031 C 
ATOM      9  C   LIG d   1      10.249  12.117  -2.346  0.00  0.00    -0.006 C 
ATOM     10  H   LIG d   1       9.774  12.999  -2.773  0.00  0.00     0.033 H 
ATOM     11  C   LIG d   1      11.526  11.834  -3.139  0.00  0.00    -0.037 C 
ATOM     12  C   LIG d   1      12.162  10.553  -2.593  0.00  0.00     0.016 C 
ATOM     13  H   LIG d   1      13.124  10.378  -3.073  0.00  0.00     0.038 H 
ATOM     14  C   LIG d   1      11.198   9.384  -2.857  0.00  0.00     0.023 C 
ATOM     15  N   LIG d   1       9.952   9.690  -2.142  0.00  0.00    -0.297 N 
ATOM     16  C   LIG d   1       9.272  10.954  -2.451  0.00  0.00     0.019 C 
ATOM     17  C   LIG d   1       9.429   8.828  -1.247  0.00  0.00     0.247 C 
ATOM     18  O   LIG d   1       8.393   9.103  -0.673  0.00  0.00    -0.270 OA
ATOM     19  H   LIG d   1      14.300   9.354   1.313  0.00  0.00     0.064 H 
ATOM     20  H   LIG d   1      14.006   9.371  -1.152  0.00  0.00     0.064 H 
ATOM     21  H   LIG d   1       9.682  12.415  -0.308  0.00  0.00     0.050 H 
ATOM     22  H   LIG d   1      11.044  13.414  -0.846  0.00  0.00     0.050 H 
ATOM     23  H   LIG d   1      12.220  12.666  -3.025  0.00  0.00     0.028 H 
ATOM     24  H   LIG d   1      11.280  11.700  -4.193  0.00  0.00     0.028 H 
ATOM     25  H   LIG d   1      11.022   9.284  -3.928  0.00  0.00     0.047 H 
ATOM     26  H   LIG d   1      11.621   8.459  -2.462  0.00  0.00     0.047 H 
ATOM     27  H   LIG d   1       8.454  11.106  -1.747  0.00  0.00     0.047 H 
ATOM     28  H   LIG d   1       8.872  10.909  -3.464  0.00  0.00     0.047 H 
ENDROOT
BRANCH   1  29
ATOM     29  N   LIG d   1      12.743  10.617   3.037  0.00  0.00    -0.277 N 
ATOM     30  C   LIG d   1      12.394   9.516   3.731  0.00  0.00     0.263 C 
ATOM     31  O   LIG d   1      11.894   8.571   3.158  0.00  0.00    -0.270 OA
ATOM     32  H   LIG d   1      13.074  11.400   3.505  0.00  0.00     0.155 HD
BRANCH  30  33
ATOM     33  C   LIG d   1      12.626   9.457   5.218  0.00  0.00     0.046 C 
ATOM     34  H   LIG d   1      13.630   9.816   5.444  0.00  0.00     0.091 H 
ATOM     35  H   LIG d   1      11.894  10.085   5.726  0.00  0.00     0.091 H 
BRANCH  33  36
ATOM     36  N   LIG d   1      12.461   8.060   5.672  0.00  0.00     0.237 N 
ATOM     37  H   LIG d   1      12.358   7.452   4.851  0.00  0.00     0.203 HD
BRANCH  36  38
ATOM     38  C   LIG d   1      13.653   7.634   6.437  0.00  0.00    -0.043 C 
ATOM     39  H   LIG d   1      14.426   8.401   6.398  0.00  0.00     0.078 H 
ATOM     40  H   LIG d   1      13.365   7.459   7.473  0.00  0.00     0.078 H 
ATOM     41  H   LIG d   1      14.037   6.709   6.005  0.00  0.00     0.078 H 
ENDBRANCH  36  38
BRANCH  36  42
ATOM     42  C   LIG d   1      11.252   7.941   6.514  0.00  0.00    -0.043 C 
ATOM     43  H   LIG d   1      11.553   7.899   7.561  0.00  0.00     0.078 H 
ATOM     44  H   LIG d   1      10.620   8.814   6.352  0.00  0.00     0.078 H 
ATOM     45  H   LIG d   1      10.697   7.038   6.258  0.00  0.00     0.078 H 
ENDBRANCH  36  42
ENDBRANCH  33  36
ENDBRANCH  30  33
ENDBRANCH   1  29
BRANCH  17  46
ATOM     46  C   LIG d   1      10.116   7.550  -0.963  0.00  0.00     0.037 A 
ATOM     47  C   LIG d   1      10.869   7.404   0.202  0.00  0.00    -0.050 A 
ATOM     48  C   LIG d   1      11.507   6.208   0.461  0.00  0.00    -0.061 A 
ATOM     49  H   LIG d   1      10.953   8.224   0.899  0.00  0.00     0.062 H 
ATOM     50  C   LIG d   1      11.402   5.157  -0.432  0.00  0.00    -0.062 A 
ATOM     51  H   LIG d   1      12.090   6.092   1.363  0.00  0.00     0.062 H 
ATOM     52  C   LIG d   1      10.657   5.296  -1.590  0.00  0.00    -0.061 A 
ATOM     53  H   LIG d   1      11.904   4.223  -0.224  0.00  0.00     0.062 H 
ATOM     54  C   LIG d   1      10.009   6.484  -1.858  0.00  0.00    -0.050 A 
ATOM     55  H   LIG d   1      10.579   4.471  -2.282  0.00  0.00     0.062 H 
ATOM     56  H   LIG d   1       9.424   6.590  -2.759  0.00  0.00     0.062 H 
ENDBRANCH  17  46
TORSDOF 6
ENDMDL
MODEL 7
REMARK VINA RESULT:      -6.1      3.213      5.636
REMARK  6 active torsions:
REMARK  status: ('A' for Active; 'I' for Inactive)
REMARK    1  A    between atoms: C_1  and  N_55 
REMARK    2  A    between atoms: C_2  and  N_55 
REMARK    3  A    between atoms: C_3  and  C_4 
REMARK    4  A    between atoms: C_3  and  N_55 
REMARK       I    between atoms: C_4  and  N_6 
REMARK    5  A    between atoms: N_6  and  C_7 
REMARK       I    between atoms: N_21  and  C_23 
REMARK    6  A    between atoms: C_23  and  C_25 
ROOT
ATOM      1  C   LIG d   1       7.371   1.442  -8.506  0.00  0.00     0.099 C 
ATOM      2  C   LIG d   1       7.783   0.149  -8.331  0.00  0.00    -0.034 C 
ATOM      3  C   LIG d   1       6.885  -0.890  -8.600  0.00  0.00    -0.040 C 
ATOM      4  C   LIG d   1       5.632  -0.623  -9.053  0.00  0.00     0.027 C 
ATOM      5  N   LIG d   1       5.253   0.652  -9.316  0.00  0.00    -0.310 N 
ATOM      6  C   LIG d   1       6.067   1.683  -8.985  0.00  0.00     0.273 C 
ATOM      7  O   LIG d   1       5.669   2.831  -9.100  0.00  0.00    -0.266 OA
ATOM      8  C   LIG d   1       4.007   0.986 -10.006  0.00  0.00     0.031 C 
ATOM      9  C   LIG d   1       2.983  -0.133  -9.930  0.00  0.00    -0.006 C 
ATOM     10  H   LIG d   1       2.207   0.068 -10.667  0.00  0.00     0.033 H 
ATOM     11  C   LIG d   1       3.644  -1.465 -10.287  0.00  0.00    -0.037 C 
ATOM     12  C   LIG d   1       4.688  -1.791  -9.215  0.00  0.00     0.016 C 
ATOM     13  H   LIG d   1       5.244  -2.686  -9.493  0.00  0.00     0.038 H 
ATOM     14  C   LIG d   1       3.959  -1.993  -7.876  0.00  0.00     0.023 C 
ATOM     15  N   LIG d   1       3.276  -0.729  -7.568  0.00  0.00    -0.297 N 
ATOM     16  C   LIG d   1       2.329  -0.198  -8.557  0.00  0.00     0.019 C 
ATOM     17  C   LIG d   1       3.488  -0.085  -6.403  0.00  0.00     0.247 C 
ATOM     18  O   LIG d   1       2.906   0.957  -6.170  0.00  0.00    -0.270 OA
ATOM     19  H   LIG d   1       8.784  -0.066  -7.987  0.00  0.00     0.064 H 
ATOM     20  H   LIG d   1       7.192  -1.914  -8.449  0.00  0.00     0.064 H 
ATOM     21  H   LIG d   1       3.582   1.883  -9.554  0.00  0.00     0.050 H 
ATOM     22  H   LIG d   1       4.227   1.192 -11.054  0.00  0.00     0.050 H 
ATOM     23  H   LIG d   1       4.130  -1.385 -11.259  0.00  0.00     0.028 H 
ATOM     24  H   LIG d   1       2.890  -2.252 -10.315  0.00  0.00     0.028 H 
ATOM     25  H   LIG d   1       3.246  -2.813  -7.962  0.00  0.00     0.047 H 
ATOM     26  H   LIG d   1       4.683  -2.211  -7.089  0.00  0.00     0.047 H 
ATOM     27  H   LIG d   1       2.018   0.803  -8.258  0.00  0.00     0.047 H 
ATOM     28  H   LIG d   1       1.456  -0.848  -8.603  0.00  0.00     0.047 H 
ENDROOT
BRANCH   1  29
ATOM     29  N   LIG d   1       8.232   2.509  -8.222  0.00  0.00    -0.277 N 
ATOM     30  C   LIG d   1       9.047   2.992  -9.181  0.00  0.00     0.263 C 
ATOM     31  O   LIG d   1       9.103   2.445 -10.262  0.00  0.00    -0.270 OA
ATOM     32  H   LIG d   1       8.243   2.900  -7.334  0.00  0.00     0.155 HD
BRANCH  30  33
ATOM     33  C   LIG d   1       9.890   4.211  -8.909  0.00  0.00     0.046 C 
ATOM     34  H   LIG d   1       9.599   4.649  -7.955  0.00  0.00     0.091 H 
ATOM     35  H   LIG d   1      10.941   3.927  -8.873  0.00  0.00     0.091 H 
BRANCH  33  36
ATOM     36  N   LIG d   1       9.691   5.182 -10.006  0.00  0.00     0.237 N 
ATOM     37  H   LIG d   1       9.651   4.675 -10.898  0.00  0.00     0.203 HD
BRANCH  36  38
ATOM     38  C   LIG d   1       8.418   5.910  -9.812  0.00  0.00    -0.043 C 
ATOM     39  H   LIG d   1       8.422   6.843 -10.375  0.00  0.00     0.078 H 
ATOM     40  H   LIG d   1       7.596   5.282 -10.153  0.00  0.00     0.078 H 
ATOM     41  H   LIG d   1       8.295   6.127  -8.751  0.00  0.00     0.078 H 
ENDBRANCH  36  38
BRANCH  36  42
ATOM     42  C   LIG d   1      10.818   6.138 -10.047  0.00  0.00    -0.043 C 
ATOM     43  H   LIG d   1      11.084   6.326 -11.087  0.00  0.00     0.078 H 
ATOM     44  H   LIG d   1      10.509   7.071  -9.576  0.00  0.00     0.078 H 
ATOM     45  H   LIG d   1      11.681   5.733  -9.518  0.00  0.00     0.078 H 
ENDBRANCH  36  42
ENDBRANCH  33  36
ENDBRANCH  30  33
ENDBRANCH   1  29
BRANCH  17  46
ATOM     46  C   LIG d   1       4.429  -0.645  -5.410  0.00  0.00     0.037 A 
ATOM     47  C   LIG d   1       5.745  -0.185  -5.356  0.00  0.00    -0.050 A 
ATOM     48  C   LIG d   1       6.619  -0.712  -4.426  0.00  0.00    -0.061 A 
ATOM     49  H   LIG d   1       6.081   0.580  -6.040  0.00  0.00     0.062 H 
ATOM     50  C   LIG d   1       6.192  -1.693  -3.549  0.00  0.00    -0.062 A 
ATOM     51  H   LIG d   1       7.638  -0.357  -4.382  0.00  0.00     0.062 H 
ATOM     52  C   LIG d   1       4.887  -2.153  -3.598  0.00  0.00    -0.061 A 
ATOM     53  H   LIG d   1       6.879  -2.102  -2.824  0.00  0.00     0.062 H 
ATOM     54  C   LIG d   1       4.003  -1.631  -4.519  0.00  0.00    -0.050 A 
ATOM     55  H   LIG d   1       4.560  -2.919  -2.911  0.00  0.00     0.062 H 
ATOM     56  H   LIG d   1       2.984  -1.987  -4.553  0.00  0.00     0.062 H 
ENDBRANCH  17  46
TORSDOF 6
ENDMDL
MODEL 8
REMARK VINA RESULT:      -6.0      2.598      6.064
REMARK  6 active torsions:
REMARK  status: ('A' for Active; 'I' for Inactive)
REMARK    1  A    between atoms: C_1  and  N_55 
REMARK    2  A    between atoms: C_2  and  N_55 
REMARK    3  A    between atoms: C_3  and  C_4 
REMARK    4  A    between atoms: C_3  and  N_55 
REMARK       I    between atoms: C_4  and  N_6 
REMARK    5  A    between atoms: N_6  and  C_7 
REMARK       I    between atoms: N_21  and  C_23 
REMARK    6  A    between atoms: C_23  and  C_25 
ROOT
ATOM      1  C   LIG d   1       8.610  -0.059  -5.031  0.00  0.00     0.099 C 
ATOM      2  C   LIG d   1       8.086   1.205  -5.048  0.00  0.00    -0.034 C 
ATOM      3  C   LIG d   1       6.882   1.447  -4.378  0.00  0.00    -0.040 C 
ATOM      4  C   LIG d   1       6.255   0.451  -3.698  0.00  0.00     0.027 C 
ATOM      5  N   LIG d   1       6.820  -0.777  -3.601  0.00  0.00    -0.310 N 
ATOM      6  C   LIG d   1       7.939  -1.066  -4.310  0.00  0.00     0.273 C 
ATOM      7  O   LIG d   1       8.369  -2.209  -4.325  0.00  0.00    -0.266 OA
ATOM      8  C   LIG d   1       6.312  -1.821  -2.710  0.00  0.00     0.031 C 
ATOM      9  C   LIG d   1       4.861  -1.596  -2.322  0.00  0.00    -0.006 C 
ATOM     10  H   LIG d   1       4.634  -2.240  -1.474  0.00  0.00     0.033 H 
ATOM     11  C   LIG d   1       4.660  -0.144  -1.886  0.00  0.00    -0.037 C 
ATOM     12  C   LIG d   1       4.907   0.764  -3.093  0.00  0.00     0.016 C 
ATOM     13  H   LIG d   1       4.866   1.810  -2.791  0.00  0.00     0.038 H 
ATOM     14  C   LIG d   1       3.836   0.460  -4.154  0.00  0.00     0.023 C 
ATOM     15  N   LIG d   1       3.995  -0.953  -4.526  0.00  0.00    -0.297 N 
ATOM     16  C   LIG d   1       3.917  -1.960  -3.461  0.00  0.00     0.019 C 
ATOM     17  C   LIG d   1       4.180  -1.322  -5.809  0.00  0.00     0.247 C 
ATOM     18  O   LIG d   1       4.304  -2.498  -6.092  0.00  0.00    -0.270 OA
ATOM     19  H   LIG d   1       8.591   2.002  -5.574  0.00  0.00     0.064 H 
ATOM     20  H   LIG d   1       6.448   2.435  -4.399  0.00  0.00     0.064 H 
ATOM     21  H   LIG d   1       6.398  -2.786  -3.211  0.00  0.00     0.050 H 
ATOM     22  H   LIG d   1       6.920  -1.839  -1.806  0.00  0.00     0.050 H 
ATOM     23  H   LIG d   1       5.365   0.101  -1.092  0.00  0.00     0.028 H 
ATOM     24  H   LIG d   1       3.639  -0.008  -1.528  0.00  0.00     0.028 H 
ATOM     25  H   LIG d   1       2.844   0.648  -3.744  0.00  0.00     0.047 H 
ATOM     26  H   LIG d   1       3.998   1.083  -5.034  0.00  0.00     0.047 H 
ATOM     27  H   LIG d   1       4.197  -2.934  -3.862  0.00  0.00     0.047 H 
ATOM     28  H   LIG d   1       2.896  -2.005  -3.082  0.00  0.00     0.047 H 
ENDROOT
BRANCH   1  29
ATOM     29  N   LIG d   1       9.800  -0.346  -5.713  0.00  0.00    -0.277 N 
ATOM     30  C   LIG d   1      10.977   0.105  -5.235  0.00  0.00     0.263 C 
ATOM     31  O   LIG d   1      10.999   0.836  -4.267  0.00  0.00    -0.270 OA
ATOM     32  H   LIG d   1       9.777  -0.868  -6.530  0.00  0.00     0.155 HD
BRANCH  30  33
ATOM     33  C   LIG d   1      12.265  -0.299  -5.904  0.00  0.00     0.046 C 
ATOM     34  H   LIG d   1      12.125  -0.316  -6.984  0.00  0.00     0.091 H 
ATOM     35  H   LIG d   1      13.047   0.417  -5.651  0.00  0.00     0.091 H 
BRANCH  33  36
ATOM     36  N   LIG d   1      12.659  -1.636  -5.412  0.00  0.00     0.237 N 
ATOM     37  H   LIG d   1      11.819  -2.139  -5.103  0.00  0.00     0.203 HD
BRANCH  36  38
ATOM     38  C   LIG d   1      13.304  -2.404  -6.499  0.00  0.00    -0.043 C 
ATOM     39  H   LIG d   1      12.580  -3.053  -6.990  0.00  0.00     0.078 H 
ATOM     40  H   LIG d   1      13.721  -1.707  -7.226  0.00  0.00     0.078 H 
ATOM     41  H   LIG d   1      14.106  -3.009  -6.075  0.00  0.00     0.078 H 
ENDBRANCH  36  38
BRANCH  36  42
ATOM     42  C   LIG d   1      13.587  -1.503  -4.269  0.00  0.00    -0.043 C 
ATOM     43  H   LIG d   1      14.510  -1.037  -4.615  0.00  0.00     0.078 H 
ATOM     44  H   LIG d   1      13.124  -0.872  -3.509  0.00  0.00     0.078 H 
ATOM     45  H   LIG d   1      13.810  -2.481  -3.842  0.00  0.00     0.078 H 
ENDBRANCH  36  42
ENDBRANCH  33  36
ENDBRANCH  30  33
ENDBRANCH   1  29
BRANCH  17  46
ATOM     46  C   LIG d   1       4.235  -0.296  -6.872  0.00  0.00     0.037 A 
ATOM     47  C   LIG d   1       3.065   0.329  -7.304  0.00  0.00    -0.050 A 
ATOM     48  C   LIG d   1       3.124   1.286  -8.297  0.00  0.00    -0.061 A 
ATOM     49  H   LIG d   1       2.115   0.064  -6.864  0.00  0.00     0.062 H 
ATOM     50  C   LIG d   1       4.339   1.625  -8.864  0.00  0.00    -0.062 A 
ATOM     51  H   LIG d   1       2.219   1.771  -8.632  0.00  0.00     0.062 H 
ATOM     52  C   LIG d   1       5.503   1.009  -8.439  0.00  0.00    -0.061 A 
ATOM     53  H   LIG d   1       4.379   2.375  -9.640  0.00  0.00     0.062 H 
ATOM     54  C   LIG d   1       5.460   0.055  -7.444  0.00  0.00    -0.050 A 
ATOM     55  H   LIG d   1       6.449   1.279  -8.886  0.00  0.00     0.062 H 
ATOM     56  H   LIG d   1       6.369  -0.422  -7.111  0.00  0.00     0.062 H 
ENDBRANCH  17  46
TORSDOF 6
ENDMDL
MODEL 9
REMARK VINA RESULT:      -5.9      8.787     10.613
REMARK  6 active torsions:
REMARK  status: ('A' for Active; 'I' for Inactive)
REMARK    1  A    between atoms: C_1  and  N_55 
REMARK    2  A    between atoms: C_2  and  N_55 
REMARK    3  A    between atoms: C_3  and  C_4 
REMARK    4  A    between atoms: C_3  and  N_55 
REMARK       I    between atoms: C_4  and  N_6 
REMARK    5  A    between atoms: N_6  and  C_7 
REMARK       I    between atoms: N_21  and  C_23 
REMARK    6  A    between atoms: C_23  and  C_25 
ROOT
ATOM      1  C   LIG d   1      11.211   7.183  -5.171  0.00  0.00     0.099 C 
ATOM      2  C   LIG d   1      12.222   8.057  -4.878  0.00  0.00    -0.034 C 
ATOM      3  C   LIG d   1      12.825   7.996  -3.618  0.00  0.00    -0.040 C 
ATOM      4  C   LIG d   1      12.432   7.068  -2.706  0.00  0.00     0.027 C 
ATOM      5  N   LIG d   1      11.496   6.141  -3.027  0.00  0.00    -0.310 N 
ATOM      6  C   LIG d   1      10.833   6.228  -4.206  0.00  0.00     0.273 C 
ATOM      7  O   LIG d   1       9.902   5.473  -4.434  0.00  0.00    -0.266 OA
ATOM      8  C   LIG d   1      11.190   4.990  -2.177  0.00  0.00     0.031 C 
ATOM      9  C   LIG d   1      11.613   5.205  -0.735  0.00  0.00    -0.006 C 
ATOM     10  H   LIG d   1      11.601   4.240  -0.231  0.00  0.00     0.033 H 
ATOM     11  C   LIG d   1      13.042   5.747  -0.689  0.00  0.00    -0.037 C 
ATOM     12  C   LIG d   1      13.054   7.137  -1.331  0.00  0.00     0.016 C 
ATOM     13  H   LIG d   1      14.076   7.509  -1.401  0.00  0.00     0.038 H 
ATOM     14  C   LIG d   1      12.189   8.074  -0.472  0.00  0.00     0.023 C 
ATOM     15  N   LIG d   1      10.830   7.515  -0.470  0.00  0.00    -0.297 N 
ATOM     16  C   LIG d   1      10.653   6.134  -0.005  0.00  0.00     0.019 C 
ATOM     17  C   LIG d   1       9.770   8.252  -0.857  0.00  0.00     0.247 C 
ATOM     18  O   LIG d   1       8.655   7.768  -0.841  0.00  0.00    -0.270 OA
ATOM     19  H   LIG d   1      12.546   8.785  -5.608  0.00  0.00     0.064 H 
ATOM     20  H   LIG d   1      13.612   8.692  -3.367  0.00  0.00     0.064 H 
ATOM     21  H   LIG d   1      10.115   4.806  -2.206  0.00  0.00     0.050 H 
ATOM     22  H   LIG d   1      11.706   4.114  -2.570  0.00  0.00     0.050 H 
ATOM     23  H   LIG d   1      13.705   5.082  -1.242  0.00  0.00     0.028 H 
ATOM     24  H   LIG d   1      13.373   5.819   0.347  0.00  0.00     0.028 H 
ATOM     25  H   LIG d   1      12.592   8.128   0.539  0.00  0.00     0.047 H 
ATOM     26  H   LIG d   1      12.167   9.070  -0.917  0.00  0.00     0.047 H 
ATOM     27  H   LIG d   1       9.628   5.816  -0.197  0.00  0.00     0.047 H 
ATOM     28  H   LIG d   1      10.850   6.087   1.066  0.00  0.00     0.047 H 
ENDROOT
BRANCH   1  29
ATOM     29  N   LIG d   1      10.564   7.231  -6.414  0.00  0.00    -0.277 N 
ATOM     30  C   LIG d   1       9.593   8.139  -6.634  0.00  0.00     0.263 C 
ATOM     31  O   LIG d   1       9.214   8.854  -5.729  0.00  0.00    -0.270 OA
ATOM     32  H   LIG d   1      10.815   6.610  -7.115  0.00  0.00     0.155 HD
BRANCH  30  33
ATOM     33  C   LIG d   1       8.978   8.268  -8.003  0.00  0.00     0.046 C 
ATOM     34  H   LIG d   1       7.932   7.965  -7.962  0.00  0.00     0.091 H 
ATOM     35  H   LIG d   1       9.044   9.303  -8.336  0.00  0.00     0.091 H 
BRANCH  33  36
ATOM     36  N   LIG d   1       9.728   7.410  -8.945  0.00  0.00     0.237 N 
ATOM     37  H   LIG d   1      10.501   6.958  -8.442  0.00  0.00     0.203 HD
BRANCH  36  38
ATOM     38  C   LIG d   1       8.838   6.364  -9.493  0.00  0.00    -0.043 C 
ATOM     39  H   LIG d   1       7.986   6.202  -8.833  0.00  0.00     0.078 H 
ATOM     40  H   LIG d   1       8.485   6.679 -10.474  0.00  0.00     0.078 H 
ATOM     41  H   LIG d   1       9.402   5.436  -9.590  0.00  0.00     0.078 H 
ENDBRANCH  36  38
BRANCH  36  42
ATOM     42  C   LIG d   1      10.282   8.228 -10.044  0.00  0.00    -0.043 C 
ATOM     43  H   LIG d   1      10.869   7.586 -10.701  0.00  0.00     0.078 H 
ATOM     44  H   LIG d   1       9.460   8.670 -10.606  0.00  0.00     0.078 H 
ATOM     45  H   LIG d   1      10.918   9.020  -9.647  0.00  0.00     0.078 H 
ENDBRANCH  36  42
ENDBRANCH  33  36
ENDBRANCH  30  33
ENDBRANCH   1  29
BRANCH  17  46
ATOM     46  C   LIG d   1       9.964   9.648  -1.303  0.00  0.00     0.037 A 
ATOM     47  C   LIG d   1       9.974   9.954  -2.664  0.00  0.00    -0.050 A 
ATOM     48  C   LIG d   1      10.155  11.259  -3.074  0.00  0.00    -0.061 A 
ATOM     49  H   LIG d   1       9.841   9.171  -3.396  0.00  0.00     0.062 H 
ATOM     50  C   LIG d   1      10.327  12.263  -2.138  0.00  0.00    -0.062 A 
ATOM     51  H   LIG d   1      10.162  11.498  -4.127  0.00  0.00     0.062 H 
ATOM     52  C   LIG d   1      10.318  11.966  -0.786  0.00  0.00    -0.061 A 
ATOM     53  H   LIG d   1      10.468  13.283  -2.464  0.00  0.00     0.062 H 
ATOM     54  C   LIG d   1      10.133  10.667  -0.363  0.00  0.00    -0.050 A 
ATOM     55  H   LIG d   1      10.453  12.755  -0.061  0.00  0.00     0.062 H 
ATOM     56  H   LIG d   1      10.122  10.437   0.692  0.00  0.00     0.062 H 
ENDBRANCH  17  46
TORSDOF 6
ENDMDL
