MODEL 1
REMARK VINA RESULT:      -6.1      0.000      0.000
REMARK  3 active torsions:
REMARK  status: ('A' for Active; 'I' for Inactive)
REMARK    1  A    between atoms: C_3  and  C_6 
REMARK       I    between atoms: C_6  and  N_8 
REMARK    2  A    between atoms: N_8  and  C_9 
REMARK    3  A    between atoms: CG_20  and  OD_27 
ROOT
ATOM      1  C   UNK d   1       3.305   0.186  -6.239  0.00  0.00     0.052 C 
ATOM      2  H   UNK d   1       3.539   1.172  -6.639  0.00  0.00     0.052 H 
ATOM      3  C   UNK d   1       2.273   0.284  -5.080  0.00  0.00    -0.016 C 
ATOM      4  C   UNK d   1       3.156   0.672  -3.872  0.00  0.00     0.017 C 
ATOM      5  N   UNK d   1       4.524   0.235  -4.181  0.00  0.00    -0.286 N 
ATOM      6  C   UNK d   1       4.522  -0.421  -5.503  0.00  0.00     0.121 C 
ATOM      7  H   UNK d   1       4.425  -1.503  -5.413  0.00  0.00     0.061 H 
ATOM      8  C   UNK d   1       5.793  -0.053  -6.226  0.00  0.00     0.239 C 
ATOM      9  O   UNK d   1       5.844  -0.066  -7.437  0.00  0.00    -0.274 OA
ATOM     10  H   UNK d   1       1.536   1.060  -5.284  0.00  0.00     0.030 H 
ATOM     11  H   UNK d   1       1.786  -0.677  -4.913  0.00  0.00     0.030 H 
ATOM     12  H   UNK d   1       3.135   1.752  -3.728  0.00  0.00     0.046 H 
ATOM     13  H   UNK d   1       2.797   0.170  -2.973  0.00  0.00     0.046 H 
ATOM     14  N   HYP d   2       6.873   0.289  -5.493  0.00  0.00    -0.286 N 
ATOM     15  CD  HYP d   2       8.111   0.904  -5.988  0.00  0.00     0.042 C 
ATOM     16  CG  HYP d   2       9.008   1.168  -4.759  0.00  0.00     0.073 C 
ATOM     17  HG  HYP d   2       9.534   2.116  -4.861  0.00  0.00     0.061 H 
ATOM     18  CB  HYP d   2       7.982   1.230  -3.592  0.00  0.00     0.002 C 
ATOM     19  CA  HYP d   2       6.972   0.142  -4.027  0.00  0.00     0.105 C 
ATOM     20  HA  HYP d   2       7.319  -0.856  -3.759  0.00  0.00     0.060 H 
ATOM     21  C   HYP d   2       5.621   0.424  -3.420  0.00  0.00     0.237 C 
ATOM     22  O   HYP d   2       5.525   0.812  -2.275  0.00  0.00    -0.274 OA
ATOM     23  HD1 HYP d   2       8.612   0.223  -6.676  0.00  0.00     0.049 H 
ATOM     24  HD2 HYP d   2       7.883   1.844  -6.492  0.00  0.00     0.049 H 
ATOM     25  HB1 HYP d   2       7.505   2.209  -3.541  0.00  0.00     0.031 H 
ATOM     26  HB2 HYP d   2       8.450   0.973  -2.643  0.00  0.00     0.031 H 
ENDROOT
BRANCH   1  27
ATOM     27  N   UNK d   1       2.827  -0.710  -7.295  0.00  0.00    -0.306 N 
ATOM     28  C   UNK d   1       2.580  -0.225  -8.529  0.00  0.00     0.251 C 
ATOM     29  O   UNK d   1       2.752   0.956  -8.764  0.00  0.00    -0.270 OA
ATOM     30  H   UNK d   1       2.689  -1.651  -7.109  0.00  0.00     0.149 HD
BRANCH  28  31
ATOM     31  C   UNK d   1       2.103  -1.121  -9.586  0.00  0.00     0.074 A 
ATOM     32  C   UNK d   1       1.293  -0.835 -10.674  0.00  0.00    -0.043 A 
ATOM     33  C   UNK d   1       0.994  -1.872 -11.522  0.00  0.00    -0.054 A 
ATOM     34  H   UNK d   1       0.913   0.161 -10.847  0.00  0.00     0.063 H 
ATOM     35  C   UNK d   1       1.497  -3.108 -11.259  0.00  0.00    -0.024 A 
ATOM     36  H   UNK d   1       0.367  -1.710 -12.386  0.00  0.00     0.062 H 
ATOM     37  S   UNK d   1       2.418  -2.862  -9.812  0.00  0.00    -0.092 SA
ATOM     38  H   UNK d   1       1.359  -4.021 -11.821  0.00  0.00     0.069 H 
ENDBRANCH  28  31
ENDBRANCH   1  27
BRANCH  16  39
ATOM     39  OD  HYP d   2       9.932   0.096  -4.562  0.00  0.00    -0.390 OA
ATOM     40  HD  HYP d   2      10.747   0.179  -5.080  0.00  0.00     0.210 HD
ENDBRANCH  16  39
TORSDOF 3
ENDMDL
MODEL 2
REMARK VINA RESULT:      -5.7      3.627      7.123
REMARK  3 active torsions:
REMARK  status: ('A' for Active; 'I' for Inactive)
REMARK    1  A    between atoms: C_3  and  C_6 
REMARK       I    between atoms: C_6  and  N_8 
REMARK    2  A    between atoms: N_8  and  C_9 
REMARK    3  A    between atoms: CG_20  and  OD_27 
ROOT
ATOM      1  C   UNK d   1       3.303   0.280  -7.750  0.00  0.00     0.052 C 
ATOM      2  H   UNK d   1       2.322  -0.190  -7.803  0.00  0.00     0.052 H 
ATOM      3  C   UNK d   1       3.253   1.741  -8.279  0.00  0.00    -0.016 C 
ATOM      4  C   UNK d   1       3.319   1.549  -9.811  0.00  0.00     0.017 C 
ATOM      5  N   UNK d   1       3.944   0.243 -10.055  0.00  0.00    -0.286 N 
ATOM      6  C   UNK d   1       4.286  -0.366  -8.754  0.00  0.00     0.121 C 
ATOM      7  H   UNK d   1       5.319  -0.161  -8.476  0.00  0.00     0.061 H 
ATOM      8  C   UNK d   1       4.034  -1.850  -8.835  0.00  0.00     0.239 C 
ATOM      9  O   UNK d   1       3.795  -2.495  -7.836  0.00  0.00    -0.274 OA
ATOM     10  H   UNK d   1       2.319   2.224  -7.991  0.00  0.00     0.030 H 
ATOM     11  H   UNK d   1       4.109   2.312  -7.921  0.00  0.00     0.030 H 
ATOM     12  H   UNK d   1       2.313   1.564 -10.232  0.00  0.00     0.046 H 
ATOM     13  H   UNK d   1       3.920   2.341 -10.259  0.00  0.00     0.046 H 
ATOM     14  N   HYP d   2       4.080  -2.444 -10.046  0.00  0.00    -0.286 N 
ATOM     15  CD  HYP d   2       3.635  -3.805 -10.373  0.00  0.00     0.042 C 
ATOM     16  CG  HYP d   2       3.827  -3.990 -11.895  0.00  0.00     0.073 C 
ATOM     17  HG  HYP d   2       3.004  -4.562 -12.322  0.00  0.00     0.061 H 
ATOM     18  CB  HYP d   2       3.813  -2.527 -12.422  0.00  0.00     0.002 C 
ATOM     19  CA  HYP d   2       4.557  -1.793 -11.282  0.00  0.00     0.105 C 
ATOM     20  HA  HYP d   2       5.638  -1.891 -11.382  0.00  0.00     0.060 H 
ATOM     21  C   HYP d   2       4.148  -0.342 -11.253  0.00  0.00     0.237 C 
ATOM     22  O   HYP d   2       4.004   0.282 -12.282  0.00  0.00    -0.274 OA
ATOM     23  HD1 HYP d   2       4.238  -4.532  -9.831  0.00  0.00     0.049 H 
ATOM     24  HD2 HYP d   2       2.582  -3.923 -10.114  0.00  0.00     0.049 H 
ATOM     25  HB1 HYP d   2       2.794  -2.157 -12.527  0.00  0.00     0.031 H 
ATOM     26  HB2 HYP d   2       4.357  -2.443 -13.363  0.00  0.00     0.031 H 
ENDROOT
BRANCH   1  27
ATOM     27  N   UNK d   1       3.836   0.231  -6.386  0.00  0.00    -0.306 N 
ATOM     28  C   UNK d   1       2.994   0.230  -5.334  0.00  0.00     0.251 C 
ATOM     29  O   UNK d   1       1.791   0.271  -5.516  0.00  0.00    -0.270 OA
ATOM     30  H   UNK d   1       4.794   0.200  -6.240  0.00  0.00     0.149 HD
BRANCH  28  31
ATOM     31  C   UNK d   1       3.526   0.181  -3.968  0.00  0.00     0.074 A 
ATOM     32  C   UNK d   1       3.742   1.220  -3.077  0.00  0.00    -0.043 A 
ATOM     33  C   UNK d   1       4.257   0.893  -1.848  0.00  0.00    -0.054 A 
ATOM     34  H   UNK d   1       3.515   2.243  -3.338  0.00  0.00     0.063 H 
ATOM     35  C   UNK d   1       4.526  -0.410  -1.567  0.00  0.00    -0.024 A 
ATOM     36  H   UNK d   1       4.447   1.660  -1.112  0.00  0.00     0.062 H 
ATOM     37  S   UNK d   1       4.059  -1.233  -3.020  0.00  0.00    -0.092 SA
ATOM     38  H   UNK d   1       4.929  -0.831  -0.657  0.00  0.00     0.069 H 
ENDBRANCH  28  31
ENDBRANCH   1  27
BRANCH  16  39
ATOM     39  OD  HYP d   2       5.079  -4.617 -12.178  0.00  0.00    -0.390 OA
ATOM     40  HD  HYP d   2       5.167  -4.924 -13.092  0.00  0.00     0.210 HD
ENDBRANCH  16  39
TORSDOF 3
ENDMDL
MODEL 3
REMARK VINA RESULT:      -5.5      5.177      7.414
REMARK  3 active torsions:
REMARK  status: ('A' for Active; 'I' for Inactive)
REMARK    1  A    between atoms: C_3  and  C_6 
REMARK       I    between atoms: C_6  and  N_8 
REMARK    2  A    between atoms: N_8  and  C_9 
REMARK    3  A    between atoms: CG_20  and  OD_27 
ROOT
ATOM      1  C   UNK d   1       8.705   2.267  -5.206  0.00  0.00     0.052 C 
ATOM      2  H   UNK d   1       9.560   1.644  -4.944  0.00  0.00     0.052 H 
ATOM      3  C   UNK d   1       8.430   2.225  -6.736  0.00  0.00    -0.016 C 
ATOM      4  C   UNK d   1       9.460   3.235  -7.293  0.00  0.00     0.017 C 
ATOM      5  N   UNK d   1       9.805   4.147  -6.196  0.00  0.00    -0.286 N 
ATOM      6  C   UNK d   1       9.024   3.766  -5.003  0.00  0.00     0.121 C 
ATOM      7  H   UNK d   1       8.109   4.353  -4.919  0.00  0.00     0.061 H 
ATOM      8  C   UNK d   1       9.891   3.945  -3.782  0.00  0.00     0.239 C 
ATOM      9  O   UNK d   1       9.682   3.304  -2.774  0.00  0.00    -0.274 OA
ATOM     10  H   UNK d   1       8.613   1.228  -7.134  0.00  0.00     0.030 H 
ATOM     11  H   UNK d   1       7.412   2.547  -6.955  0.00  0.00     0.030 H 
ATOM     12  H   UNK d   1      10.352   2.706  -7.632  0.00  0.00     0.046 H 
ATOM     13  H   UNK d   1       9.022   3.792  -8.122  0.00  0.00     0.046 H 
ATOM     14  N   HYP d   2      10.904   4.834  -3.838  0.00  0.00    -0.286 N 
ATOM     15  CD  HYP d   2      11.995   4.983  -2.867  0.00  0.00     0.042 C 
ATOM     16  CG  HYP d   2      12.937   6.081  -3.410  0.00  0.00     0.073 C 
ATOM     17  HG  HYP d   2      13.978   5.827  -3.219  0.00  0.00     0.061 H 
ATOM     18  CB  HYP d   2      12.637   6.066  -4.936  0.00  0.00     0.002 C 
ATOM     19  CA  HYP d   2      11.114   5.798  -4.936  0.00  0.00     0.105 C 
ATOM     20  HA  HYP d   2      10.547   6.713  -4.765  0.00  0.00     0.060 H 
ATOM     21  C   HYP d   2      10.708   5.148  -6.235  0.00  0.00     0.237 C 
ATOM     22  O   HYP d   2      11.184   5.516  -7.287  0.00  0.00    -0.274 OA
ATOM     23  HD1 HYP d   2      11.592   5.283  -1.900  0.00  0.00     0.049 H 
ATOM     24  HD2 HYP d   2      12.538   4.042  -2.771  0.00  0.00     0.049 H 
ATOM     25  HB1 HYP d   2      13.177   5.262  -5.433  0.00  0.00     0.031 H 
ATOM     26  HB2 HYP d   2      12.866   7.030  -5.390  0.00  0.00     0.031 H 
ENDROOT
BRANCH   1  27
ATOM     27  N   UNK d   1       7.516   1.873  -4.446  0.00  0.00    -0.306 N 
ATOM     28  C   UNK d   1       7.374   0.599  -4.030  0.00  0.00     0.251 C 
ATOM     29  O   UNK d   1       8.232  -0.224  -4.288  0.00  0.00    -0.270 OA
ATOM     30  H   UNK d   1       6.831   2.529  -4.241  0.00  0.00     0.149 HD
BRANCH  28  31
ATOM     31  C   UNK d   1       6.184   0.205  -3.269  0.00  0.00     0.074 A 
ATOM     32  C   UNK d   1       5.319   0.995  -2.529  0.00  0.00    -0.043 A 
ATOM     33  C   UNK d   1       4.271   0.362  -1.908  0.00  0.00    -0.054 A 
ATOM     34  H   UNK d   1       5.462   2.062  -2.445  0.00  0.00     0.063 H 
ATOM     35  C   UNK d   1       4.135  -0.983  -2.044  0.00  0.00    -0.024 A 
ATOM     36  H   UNK d   1       3.565   0.925  -1.317  0.00  0.00     0.062 H 
ATOM     37  S   UNK d   1       5.471  -1.417  -3.060  0.00  0.00    -0.092 SA
ATOM     38  H   UNK d   1       3.374  -1.626  -1.625  0.00  0.00     0.069 H 
ENDBRANCH  28  31
ENDBRANCH   1  27
BRANCH  16  39
ATOM     39  OD  HYP d   2      12.616   7.353  -2.844  0.00  0.00    -0.390 OA
ATOM     40  HD  HYP d   2      11.667   7.500  -2.718  0.00  0.00     0.210 HD
ENDBRANCH  16  39
TORSDOF 3
ENDMDL
MODEL 4
REMARK VINA RESULT:      -5.5      3.185      7.791
REMARK  3 active torsions:
REMARK  status: ('A' for Active; 'I' for Inactive)
REMARK    1  A    between atoms: C_3  and  C_6 
REMARK       I    between atoms: C_6  and  N_8 
REMARK    2  A    between atoms: N_8  and  C_9 
REMARK    3  A    between atoms: CG_20  and  OD_27 
ROOT
ATOM      1  C   UNK d   1       4.743  -1.992  -7.670  0.00  0.00     0.052 C 
ATOM      2  H   UNK d   1       5.070  -1.125  -8.243  0.00  0.00     0.052 H 
ATOM      3  C   UNK d   1       5.810  -3.122  -7.706  0.00  0.00    -0.016 C 
ATOM      4  C   UNK d   1       5.542  -3.800  -9.069  0.00  0.00     0.017 C 
ATOM      5  N   UNK d   1       4.152  -3.499  -9.432  0.00  0.00    -0.286 N 
ATOM      6  C   UNK d   1       3.546  -2.693  -8.354  0.00  0.00     0.121 C 
ATOM      7  H   UNK d   1       3.002  -3.317  -7.646  0.00  0.00     0.061 H 
ATOM      8  C   UNK d   1       2.635  -1.663  -8.974  0.00  0.00     0.239 C 
ATOM      9  O   UNK d   1       2.385  -0.627  -8.396  0.00  0.00    -0.274 OA
ATOM     10  H   UNK d   1       6.816  -2.704  -7.674  0.00  0.00     0.030 H 
ATOM     11  H   UNK d   1       5.658  -3.823  -6.886  0.00  0.00     0.030 H 
ATOM     12  H   UNK d   1       6.219  -3.397  -9.823  0.00  0.00     0.046 H 
ATOM     13  H   UNK d   1       5.682  -4.877  -8.982  0.00  0.00     0.046 H 
ATOM     14  N   HYP d   2       2.106  -1.922 -10.188  0.00  0.00    -0.286 N 
ATOM     15  CD  HYP d   2       1.405  -0.971 -11.060  0.00  0.00     0.042 C 
ATOM     16  CG  HYP d   2       1.056  -1.725 -12.363  0.00  0.00     0.073 C 
ATOM     17  HG  HYP d   2       1.180  -1.078 -13.230  0.00  0.00     0.061 H 
ATOM     18  CB  HYP d   2       2.100  -2.878 -12.382  0.00  0.00     0.002 C 
ATOM     19  CA  HYP d   2       2.185  -3.225 -10.877  0.00  0.00     0.105 C 
ATOM     20  HA  HYP d   2       1.369  -3.878 -10.570  0.00  0.00     0.060 H 
ATOM     21  C   HYP d   2       3.522  -3.853 -10.571  0.00  0.00     0.237 C 
ATOM     22  O   HYP d   2       4.018  -4.657 -11.332  0.00  0.00    -0.274 OA
ATOM     23  HD1 HYP d   2       0.493  -0.626 -10.574  0.00  0.00     0.049 H 
ATOM     24  HD2 HYP d   2       2.054  -0.124 -11.284  0.00  0.00     0.049 H 
ATOM     25  HB1 HYP d   2       3.061  -2.531 -12.759  0.00  0.00     0.031 H 
ATOM     26  HB2 HYP d   2       1.737  -3.727 -12.960  0.00  0.00     0.031 H 
ENDROOT
BRANCH   1  27
ATOM     27  N   UNK d   1       4.417  -1.617  -6.292  0.00  0.00    -0.306 N 
ATOM     28  C   UNK d   1       4.955  -0.507  -5.750  0.00  0.00     0.251 C 
ATOM     29  O   UNK d   1       5.713   0.183  -6.406  0.00  0.00    -0.270 OA
ATOM     30  H   UNK d   1       3.813  -2.168  -5.769  0.00  0.00     0.149 HD
BRANCH  28  31
ATOM     31  C   UNK d   1       4.629  -0.132  -4.371  0.00  0.00     0.074 A 
ATOM     32  C   UNK d   1       3.407  -0.174  -3.720  0.00  0.00    -0.043 A 
ATOM     33  C   UNK d   1       3.380   0.241  -2.412  0.00  0.00    -0.054 A 
ATOM     34  H   UNK d   1       2.513  -0.517  -4.220  0.00  0.00     0.063 H 
ATOM     35  C   UNK d   1       4.532   0.665  -1.828  0.00  0.00    -0.024 A 
ATOM     36  H   UNK d   1       2.456   0.231  -1.853  0.00  0.00     0.062 H 
ATOM     37  S   UNK d   1       5.705   0.492  -3.092  0.00  0.00    -0.092 SA
ATOM     38  H   UNK d   1       4.680   1.020  -0.817  0.00  0.00     0.069 H 
ENDBRANCH  28  31
ENDBRANCH   1  27
BRANCH  16  39
ATOM     39  OD  HYP d   2      -0.273  -2.248 -12.310  0.00  0.00    -0.390 OA
ATOM     40  HD  HYP d   2      -0.555  -2.516 -11.423  0.00  0.00     0.210 HD
ENDBRANCH  16  39
TORSDOF 3
ENDMDL
MODEL 5
REMARK VINA RESULT:      -5.4      3.491      4.070
REMARK  3 active torsions:
REMARK  status: ('A' for Active; 'I' for Inactive)
REMARK    1  A    between atoms: C_3  and  C_6 
REMARK       I    between atoms: C_6  and  N_8 
REMARK    2  A    between atoms: N_8  and  C_9 
REMARK    3  A    between atoms: CG_20  and  OD_27 
ROOT
ATOM      1  C   UNK d   1       4.585  -2.197  -4.713  0.00  0.00     0.052 C 
ATOM      2  H   UNK d   1       4.324  -1.691  -5.641  0.00  0.00     0.052 H 
ATOM      3  C   UNK d   1       3.564  -1.865  -3.588  0.00  0.00    -0.016 C 
ATOM      4  C   UNK d   1       4.049  -0.485  -3.087  0.00  0.00     0.017 C 
ATOM      5  N   UNK d   1       5.469  -0.373  -3.441  0.00  0.00    -0.286 N 
ATOM      6  C   UNK d   1       5.888  -1.620  -4.111  0.00  0.00     0.121 C 
ATOM      7  H   UNK d   1       6.337  -2.321  -3.408  0.00  0.00     0.061 H 
ATOM      8  C   UNK d   1       6.853  -1.273  -5.216  0.00  0.00     0.239 C 
ATOM      9  O   UNK d   1       6.988  -2.004  -6.174  0.00  0.00    -0.274 OA
ATOM     10  H   UNK d   1       2.554  -1.796  -3.991  0.00  0.00     0.030 H 
ATOM     11  H   UNK d   1       3.611  -2.606  -2.791  0.00  0.00     0.030 H 
ATOM     12  H   UNK d   1       3.481   0.308  -3.575  0.00  0.00     0.046 H 
ATOM     13  H   UNK d   1       3.925  -0.418  -2.006  0.00  0.00     0.046 H 
ATOM     14  N   HYP d   2       7.563  -0.130  -5.114  0.00  0.00    -0.286 N 
ATOM     15  CD  HYP d   2       8.360   0.505  -6.171  0.00  0.00     0.042 C 
ATOM     16  CG  HYP d   2       8.917   1.822  -5.587  0.00  0.00     0.073 C 
ATOM     17  HG  HYP d   2       8.905   2.613  -6.336  0.00  0.00     0.061 H 
ATOM     18  CB  HYP d   2       7.918   2.138  -4.438  0.00  0.00     0.002 C 
ATOM     19  CA  HYP d   2       7.620   0.716  -3.906  0.00  0.00     0.105 C 
ATOM     20  HA  HYP d   2       8.399   0.373  -3.226  0.00  0.00     0.060 H 
ATOM     21  C   HYP d   2       6.269   0.693  -3.235  0.00  0.00     0.237 C 
ATOM     22  O   HYP d   2       5.912   1.611  -2.528  0.00  0.00    -0.274 OA
ATOM     23  HD1 HYP d   2       9.181  -0.151  -6.460  0.00  0.00     0.049 H 
ATOM     24  HD2 HYP d   2       7.729   0.718  -7.035  0.00  0.00     0.049 H 
ATOM     25  HB1 HYP d   2       7.014   2.610  -4.823  0.00  0.00     0.031 H 
ATOM     26  HB2 HYP d   2       8.384   2.754  -3.670  0.00  0.00     0.031 H 
ENDROOT
BRANCH   1  27
ATOM     27  N   UNK d   1       4.694  -3.644  -4.915  0.00  0.00    -0.306 N 
ATOM     28  C   UNK d   1       4.448  -4.174  -6.130  0.00  0.00     0.251 C 
ATOM     29  O   UNK d   1       4.135  -3.451  -7.057  0.00  0.00    -0.270 OA
ATOM     30  H   UNK d   1       4.943  -4.220  -4.177  0.00  0.00     0.149 HD
BRANCH  28  31
ATOM     31  C   UNK d   1       4.558  -5.622  -6.333  0.00  0.00     0.074 A 
ATOM     32  C   UNK d   1       4.880  -6.611  -5.418  0.00  0.00    -0.043 A 
ATOM     33  C   UNK d   1       4.912  -7.903  -5.879  0.00  0.00    -0.054 A 
ATOM     34  H   UNK d   1       5.097  -6.375  -4.386  0.00  0.00     0.063 H 
ATOM     35  C   UNK d   1       4.632  -8.148  -7.186  0.00  0.00    -0.024 A 
ATOM     36  H   UNK d   1       5.158  -8.716  -5.212  0.00  0.00     0.062 H 
ATOM     37  S   UNK d   1       4.303  -6.570  -7.823  0.00  0.00    -0.092 SA
ATOM     38  H   UNK d   1       4.614  -9.097  -7.702  0.00  0.00     0.069 H 
ENDBRANCH  28  31
ENDBRANCH   1  27
BRANCH  16  39
ATOM     39  OD  HYP d   2      10.236   1.635  -5.072  0.00  0.00    -0.390 OA
ATOM     40  HD  HYP d   2      10.938   1.783  -5.723  0.00  0.00     0.210 HD
ENDBRANCH  16  39
TORSDOF 3
ENDMDL
MODEL 6
REMARK VINA RESULT:      -5.4      2.572      3.926
REMARK  3 active torsions:
REMARK  status: ('A' for Active; 'I' for Inactive)
REMARK    1  A    between atoms: C_3  and  C_6 
REMARK       I    between atoms: C_6  and  N_8 
REMARK    2  A    between atoms: N_8  and  C_9 
REMARK    3  A    between atoms: CG_20  and  OD_27 
ROOT
ATOM      1  C   UNK d   1       5.358  -2.366  -7.405  0.00  0.00     0.052 C 
ATOM      2  H   UNK d   1       4.477  -2.949  -7.137  0.00  0.00     0.052 H 
ATOM      3  C   UNK d   1       6.656  -3.208  -7.249  0.00  0.00    -0.016 C 
ATOM      4  C   UNK d   1       6.937  -3.119  -5.731  0.00  0.00     0.017 C 
ATOM      5  N   UNK d   1       6.269  -1.907  -5.240  0.00  0.00    -0.286 N 
ATOM      6  C   UNK d   1       5.612  -1.237  -6.379  0.00  0.00     0.121 C 
ATOM      7  H   UNK d   1       6.245  -0.458  -6.804  0.00  0.00     0.061 H 
ATOM      8  C   UNK d   1       4.297  -0.665  -5.910  0.00  0.00     0.239 C 
ATOM      9  O   UNK d   1       3.387  -0.481  -6.690  0.00  0.00    -0.274 OA
ATOM     10  H   UNK d   1       6.483  -4.241  -7.549  0.00  0.00     0.030 H 
ATOM     11  H   UNK d   1       7.472  -2.771  -7.823  0.00  0.00     0.030 H 
ATOM     12  H   UNK d   1       6.534  -3.997  -5.226  0.00  0.00     0.046 H 
ATOM     13  H   UNK d   1       8.011  -3.051  -5.557  0.00  0.00     0.046 H 
ATOM     14  N   HYP d   2       4.158  -0.365  -4.602  0.00  0.00    -0.286 N 
ATOM     15  CD  HYP d   2       2.908  -0.035  -3.906  0.00  0.00     0.042 C 
ATOM     16  CG  HYP d   2       3.258   0.158  -2.414  0.00  0.00     0.073 C 
ATOM     17  HG  HYP d   2       2.477  -0.254  -1.777  0.00  0.00     0.061 H 
ATOM     18  CB  HYP d   2       4.576  -0.654  -2.264  0.00  0.00     0.002 C 
ATOM     19  CA  HYP d   2       5.260  -0.363  -3.620  0.00  0.00     0.105 C 
ATOM     20  HA  HYP d   2       5.772   0.599  -3.611  0.00  0.00     0.060 H 
ATOM     21  C   HYP d   2       6.215  -1.478  -3.963  0.00  0.00     0.237 C 
ATOM     22  O   HYP d   2       6.917  -1.978  -3.109  0.00  0.00    -0.274 OA
ATOM     23  HD1 HYP d   2       2.490   0.886  -4.312  0.00  0.00     0.049 H 
ATOM     24  HD2 HYP d   2       2.194  -0.851  -4.018  0.00  0.00     0.049 H 
ATOM     25  HB1 HYP d   2       4.371  -1.718  -2.149  0.00  0.00     0.031 H 
ATOM     26  HB2 HYP d   2       5.175  -0.280  -1.434  0.00  0.00     0.031 H 
ENDROOT
BRANCH   1  27
ATOM     27  N   UNK d   1       5.238  -1.828  -8.762  0.00  0.00    -0.306 N 
ATOM     28  C   UNK d   1       4.221  -2.219  -9.555  0.00  0.00     0.251 C 
ATOM     29  O   UNK d   1       3.402  -3.020  -9.143  0.00  0.00    -0.270 OA
ATOM     30  H   UNK d   1       5.890  -1.190  -9.091  0.00  0.00     0.149 HD
BRANCH  28  31
ATOM     31  C   UNK d   1       4.101  -1.681 -10.913  0.00  0.00     0.074 A 
ATOM     32  C   UNK d   1       3.052  -1.803 -11.811  0.00  0.00    -0.043 A 
ATOM     33  C   UNK d   1       3.200  -1.193 -13.032  0.00  0.00    -0.054 A 
ATOM     34  H   UNK d   1       2.157  -2.353 -11.561  0.00  0.00     0.063 H 
ATOM     35  C   UNK d   1       4.346  -0.512 -13.298  0.00  0.00    -0.024 A 
ATOM     36  H   UNK d   1       2.417  -1.254 -13.773  0.00  0.00     0.062 H 
ATOM     37  S   UNK d   1       5.263  -0.694 -11.838  0.00  0.00    -0.092 SA
ATOM     38  H   UNK d   1       4.618   0.018 -14.200  0.00  0.00     0.069 H 
ENDBRANCH  28  31
ENDBRANCH   1  27
BRANCH  16  39
ATOM     39  OD  HYP d   2       3.478   1.538  -2.116  0.00  0.00    -0.390 OA
ATOM     40  HD  HYP d   2       3.973   1.690  -1.297  0.00  0.00     0.210 HD
ENDBRANCH  16  39
TORSDOF 3
ENDMDL
MODEL 7
REMARK VINA RESULT:      -5.4      4.963      8.399
REMARK  3 active torsions:
REMARK  status: ('A' for Active; 'I' for Inactive)
REMARK    1  A    between atoms: C_3  and  C_6 
REMARK       I    between atoms: C_6  and  N_8 
REMARK    2  A    between atoms: N_8  and  C_9 
REMARK    3  A    between atoms: CG_20  and  OD_27 
ROOT
ATOM      1  C   UNK d   1       8.548   1.676  -4.591  0.00  0.00     0.052 C 
ATOM      2  H   UNK d   1       7.792   2.098  -5.253  0.00  0.00     0.052 H 
ATOM      3  C   UNK d   1       9.693   1.009  -5.404  0.00  0.00    -0.016 C 
ATOM      4  C   UNK d   1       9.096  -0.371  -5.762  0.00  0.00     0.017 C 
ATOM      5  N   UNK d   1       8.051  -0.658  -4.773  0.00  0.00    -0.286 N 
ATOM      6  C   UNK d   1       7.991   0.461  -3.812  0.00  0.00     0.121 C 
ATOM      7  H   UNK d   1       8.589   0.259  -2.924  0.00  0.00     0.061 H 
ATOM      8  C   UNK d   1       6.549   0.705  -3.445  0.00  0.00     0.239 C 
ATOM      9  O   UNK d   1       6.182   1.796  -3.062  0.00  0.00    -0.274 OA
ATOM     10  H   UNK d   1       9.911   1.581  -6.305  0.00  0.00     0.030 H 
ATOM     11  H   UNK d   1      10.588   0.898  -4.792  0.00  0.00     0.030 H 
ATOM     12  H   UNK d   1       8.663  -0.340  -6.762  0.00  0.00     0.046 H 
ATOM     13  H   UNK d   1       9.873  -1.135  -5.719  0.00  0.00     0.046 H 
ATOM     14  N   HYP d   2       5.677  -0.318  -3.552  0.00  0.00    -0.286 N 
ATOM     15  CD  HYP d   2       4.213  -0.235  -3.480  0.00  0.00     0.042 C 
ATOM     16  CG  HYP d   2       3.665  -1.657  -3.731  0.00  0.00     0.073 C 
ATOM     17  HG  HYP d   2       2.760  -1.623  -4.336  0.00  0.00     0.061 H 
ATOM     18  CB  HYP d   2       4.825  -2.338  -4.512  0.00  0.00     0.002 C 
ATOM     19  CA  HYP d   2       6.058  -1.721  -3.811  0.00  0.00     0.105 C 
ATOM     20  HA  HYP d   2       6.289  -2.240  -2.881  0.00  0.00     0.060 H 
ATOM     21  C   HYP d   2       7.241  -1.736  -4.745  0.00  0.00     0.237 C 
ATOM     22  O   HYP d   2       7.457  -2.695  -5.456  0.00  0.00    -0.274 OA
ATOM     23  HD1 HYP d   2       3.909   0.112  -2.492  0.00  0.00     0.049 H 
ATOM     24  HD2 HYP d   2       3.841   0.447  -4.246  0.00  0.00     0.049 H 
ATOM     25  HB1 HYP d   2       4.799  -2.067  -5.568  0.00  0.00     0.031 H 
ATOM     26  HB2 HYP d   2       4.802  -3.420  -4.386  0.00  0.00     0.031 H 
ENDROOT
BRANCH   1  27
ATOM     27  N   UNK d   1       9.072   2.693  -3.677  0.00  0.00    -0.306 N 
ATOM     28  C   UNK d   1       9.351   3.930  -4.134  0.00  0.00     0.251 C 
ATOM     29  O   UNK d   1       9.168   4.201  -5.306  0.00  0.00    -0.270 OA
ATOM     30  H   UNK d   1       9.219   2.477  -2.743  0.00  0.00     0.149 HD
BRANCH  28  31
ATOM     31  C   UNK d   1       9.876   4.948  -3.219  0.00  0.00     0.074 A 
ATOM     32  C   UNK d   1       9.543   6.290  -3.122  0.00  0.00    -0.043 A 
ATOM     33  C   UNK d   1      10.195   7.029  -2.166  0.00  0.00    -0.054 A 
ATOM     34  H   UNK d   1       8.803   6.735  -3.770  0.00  0.00     0.063 H 
ATOM     35  C   UNK d   1      11.119   6.421  -1.375  0.00  0.00    -0.024 A 
ATOM     36  H   UNK d   1       9.978   8.079  -2.044  0.00  0.00     0.062 H 
ATOM     37  S   UNK d   1      11.105   4.782  -1.937  0.00  0.00    -0.092 SA
ATOM     38  H   UNK d   1      11.714   6.855  -0.584  0.00  0.00     0.069 H 
ENDBRANCH  28  31
ENDBRANCH   1  27
BRANCH  16  39
ATOM     39  OD  HYP d   2       3.422  -2.335  -2.497  0.00  0.00    -0.390 OA
ATOM     40  HD  HYP d   2       2.490  -2.549  -2.342  0.00  0.00     0.210 HD
ENDBRANCH  16  39
TORSDOF 3
ENDMDL
MODEL 8
REMARK VINA RESULT:      -5.4      4.420      6.855
REMARK  3 active torsions:
REMARK  status: ('A' for Active; 'I' for Inactive)
REMARK    1  A    between atoms: C_3  and  C_6 
REMARK       I    between atoms: C_6  and  N_8 
REMARK    2  A    between atoms: N_8  and  C_9 
REMARK    3  A    between atoms: CG_20  and  OD_27 
ROOT
ATOM      1  C   UNK d   1       4.536  -3.115  -5.643  0.00  0.00     0.052 C 
ATOM      2  H   UNK d   1       3.517  -3.492  -5.564  0.00  0.00     0.052 H 
ATOM      3  C   UNK d   1       4.845  -2.096  -4.509  0.00  0.00    -0.016 C 
ATOM      4  C   UNK d   1       4.215  -0.790  -5.046  0.00  0.00     0.017 C 
ATOM      5  N   UNK d   1       4.136  -0.919  -6.506  0.00  0.00    -0.286 N 
ATOM      6  C   UNK d   1       4.706  -2.224  -6.896  0.00  0.00     0.121 C 
ATOM      7  H   UNK d   1       5.756  -2.136  -7.173  0.00  0.00     0.061 H 
ATOM      8  C   UNK d   1       3.893  -2.784  -8.036  0.00  0.00     0.239 C 
ATOM      9  O   UNK d   1       3.845  -3.979  -8.235  0.00  0.00    -0.274 OA
ATOM     10  H   UNK d   1       4.368  -2.400  -3.577  0.00  0.00     0.030 H 
ATOM     11  H   UNK d   1       5.920  -1.982  -4.373  0.00  0.00     0.030 H 
ATOM     12  H   UNK d   1       3.215  -0.662  -4.629  0.00  0.00     0.046 H 
ATOM     13  H   UNK d   1       4.841   0.061  -4.777  0.00  0.00     0.046 H 
ATOM     14  N   HYP d   2       3.221  -1.924  -8.828  0.00  0.00    -0.286 N 
ATOM     15  CD  HYP d   2       2.196  -2.265  -9.823  0.00  0.00     0.042 C 
ATOM     16  CG  HYP d   2       1.678  -0.935 -10.414  0.00  0.00     0.073 C 
ATOM     17  HG  HYP d   2       0.603  -0.980 -10.583  0.00  0.00     0.061 H 
ATOM     18  CB  HYP d   2       2.019   0.091  -9.296  0.00  0.00     0.002 C 
ATOM     19  CA  HYP d   2       3.374  -0.456  -8.793  0.00  0.00     0.105 C 
ATOM     20  HA  HYP d   2       4.197  -0.136  -9.433  0.00  0.00     0.060 H 
ATOM     21  C   HYP d   2       3.603  -0.028  -7.366  0.00  0.00     0.237 C 
ATOM     22  O   HYP d   2       3.313   1.092  -7.000  0.00  0.00    -0.274 OA
ATOM     23  HD1 HYP d   2       2.635  -2.877 -10.612  0.00  0.00     0.049 H 
ATOM     24  HD2 HYP d   2       1.377  -2.804  -9.344  0.00  0.00     0.049 H 
ATOM     25  HB1 HYP d   2       1.270   0.072  -8.505  0.00  0.00     0.031 H 
ATOM     26  HB2 HYP d   2       2.128   1.095  -9.706  0.00  0.00     0.031 H 
ENDROOT
BRANCH   1  27
ATOM     27  N   UNK d   1       5.505  -4.213  -5.642  0.00  0.00    -0.306 N 
ATOM     28  C   UNK d   1       5.083  -5.484  -5.486  0.00  0.00     0.251 C 
ATOM     29  O   UNK d   1       3.898  -5.718  -5.344  0.00  0.00    -0.270 OA
ATOM     30  H   UNK d   1       6.450  -4.028  -5.754  0.00  0.00     0.149 HD
BRANCH  28  31
ATOM     31  C   UNK d   1       6.052  -6.584  -5.486  0.00  0.00     0.074 A 
ATOM     32  C   UNK d   1       7.436  -6.529  -5.535  0.00  0.00    -0.043 A 
ATOM     33  C   UNK d   1       8.111  -7.724  -5.522  0.00  0.00    -0.054 A 
ATOM     34  H   UNK d   1       7.962  -5.586  -5.582  0.00  0.00     0.063 H 
ATOM     35  C   UNK d   1       7.403  -8.884  -5.464  0.00  0.00    -0.024 A 
ATOM     36  H   UNK d   1       9.190  -7.745  -5.560  0.00  0.00     0.062 H 
ATOM     37  S   UNK d   1       5.757  -8.342  -5.416  0.00  0.00    -0.092 SA
ATOM     38  H   UNK d   1       7.777  -9.897  -5.446  0.00  0.00     0.069 H 
ENDBRANCH  28  31
ENDBRANCH   1  27
BRANCH  16  39
ATOM     39  OD  HYP d   2       2.366  -0.612 -11.624  0.00  0.00    -0.390 OA
ATOM     40  HD  HYP d   2       2.522   0.336 -11.747  0.00  0.00     0.210 HD
ENDBRANCH  16  39
TORSDOF 3
ENDMDL
MODEL 9
REMARK VINA RESULT:      -5.4      4.363      6.910
REMARK  3 active torsions:
REMARK  status: ('A' for Active; 'I' for Inactive)
REMARK    1  A    between atoms: C_3  and  C_6 
REMARK       I    between atoms: C_6  and  N_8 
REMARK    2  A    between atoms: N_8  and  C_9 
REMARK    3  A    between atoms: CG_20  and  OD_27 
ROOT
ATOM      1  C   UNK d   1       6.746   0.867  -3.735  0.00  0.00     0.052 C 
ATOM      2  H   UNK d   1       7.538   0.281  -3.270  0.00  0.00     0.052 H 
ATOM      3  C   UNK d   1       5.685   1.306  -2.687  0.00  0.00    -0.016 C 
ATOM      4  C   UNK d   1       4.803   0.044  -2.547  0.00  0.00     0.017 C 
ATOM      5  N   UNK d   1       4.970  -0.736  -3.779  0.00  0.00    -0.286 N 
ATOM      6  C   UNK d   1       5.887  -0.008  -4.678  0.00  0.00     0.121 C 
ATOM      7  H   UNK d   1       5.342   0.607  -5.394  0.00  0.00     0.061 H 
ATOM      8  C   UNK d   1       6.763  -1.010  -5.387  0.00  0.00     0.239 C 
ATOM      9  O   UNK d   1       7.856  -0.691  -5.806  0.00  0.00    -0.274 OA
ATOM     10  H   UNK d   1       6.159   1.553  -1.738  0.00  0.00     0.030 H 
ATOM     11  H   UNK d   1       5.101   2.149  -3.057  0.00  0.00     0.030 H 
ATOM     12  H   UNK d   1       5.130  -0.543  -1.688  0.00  0.00     0.046 H 
ATOM     13  H   UNK d   1       3.759   0.332  -2.423  0.00  0.00     0.046 H 
ATOM     14  N   HYP d   2       6.302  -2.268  -5.545  0.00  0.00    -0.286 N 
ATOM     15  CD  HYP d   2       7.076  -3.437  -5.981  0.00  0.00     0.042 C 
ATOM     16  CG  HYP d   2       6.124  -4.653  -5.934  0.00  0.00     0.073 C 
ATOM     17  HG  HYP d   2       6.645  -5.539  -5.576  0.00  0.00     0.061 H 
ATOM     18  CB  HYP d   2       5.041  -4.200  -4.913  0.00  0.00     0.002 C 
ATOM     19  CA  HYP d   2       4.920  -2.697  -5.255  0.00  0.00     0.105 C 
ATOM     20  HA  HYP d   2       4.273  -2.534  -6.117  0.00  0.00     0.060 H 
ATOM     21  C   HYP d   2       4.419  -1.936  -4.054  0.00  0.00     0.237 C 
ATOM     22  O   HYP d   2       3.544  -2.394  -3.351  0.00  0.00    -0.274 OA
ATOM     23  HD1 HYP d   2       7.436  -3.285  -6.998  0.00  0.00     0.049 H 
ATOM     24  HD2 HYP d   2       7.918  -3.598  -5.306  0.00  0.00     0.049 H 
ATOM     25  HB1 HYP d   2       5.384  -4.343  -3.889  0.00  0.00     0.031 H 
ATOM     26  HB2 HYP d   2       4.098  -4.719  -5.085  0.00  0.00     0.031 H 
ENDROOT
BRANCH   1  27
ATOM     27  N   UNK d   1       7.296   2.024  -4.446  0.00  0.00    -0.306 N 
ATOM     28  C   UNK d   1       8.570   2.406  -4.226  0.00  0.00     0.251 C 
ATOM     29  O   UNK d   1       9.262   1.790  -3.437  0.00  0.00    -0.270 OA
ATOM     30  H   UNK d   1       6.745   2.515  -5.074  0.00  0.00     0.149 HD
BRANCH  28  31
ATOM     31  C   UNK d   1       9.121   3.563  -4.937  0.00  0.00     0.074 A 
ATOM     32  C   UNK d   1       9.168   4.890  -4.542  0.00  0.00    -0.043 A 
ATOM     33  C   UNK d   1       9.748   5.782  -5.409  0.00  0.00    -0.054 A 
ATOM     34  H   UNK d   1       8.765   5.210  -3.591  0.00  0.00     0.063 H 
ATOM     35  C   UNK d   1      10.239   5.330  -6.594  0.00  0.00    -0.024 A 
ATOM     36  H   UNK d   1       9.812   6.830  -5.156  0.00  0.00     0.062 H 
ATOM     37  S   UNK d   1       9.913   3.629  -6.534  0.00  0.00    -0.092 SA
ATOM     38  H   UNK d   1      10.720   5.895  -7.379  0.00  0.00     0.069 H 
ENDBRANCH  28  31
ENDBRANCH   1  27
BRANCH  16  39
ATOM     39  OD  HYP d   2       5.540  -4.893  -7.216  0.00  0.00    -0.390 OA
ATOM     40  HD  HYP d   2       4.820  -4.286  -7.441  0.00  0.00     0.210 HD
ENDBRANCH  16  39
TORSDOF 3
ENDMDL
