MODEL 1
REMARK VINA RESULT:      -5.8      0.000      0.000
REMARK  4 active torsions:
REMARK  status: ('A' for Active; 'I' for Inactive)
REMARK    1  A    between atoms: N_4  and  C_6 
REMARK    2  A    between atoms: C_6  and  C_7 
REMARK    3  A    between atoms: C_8  and  C_9 
REMARK    4  A    between atoms: C_9  and  N_10 
ROOT
ATOM      1  C   LIG d   1       4.206  -0.974  -8.102  0.00  0.00     0.031 C 
ATOM      2  H   LIG d   1       3.595  -1.751  -8.561  0.00  0.00     0.096 H 
ATOM      3  H   LIG d   1       5.169  -1.393  -7.811  0.00  0.00     0.096 H 
ENDROOT
BRANCH   1   4
ATOM      4  N   LIG d   1       4.419   0.115  -9.066  0.00  0.00     0.244 N 
ATOM      5  C   LIG d   1       5.356   1.121  -8.503  0.00  0.00    -0.031 C 
ATOM      6  C   LIG d   1       5.040   2.397  -9.324  0.00  0.00    -0.008 C 
ATOM      7  H   LIG d   1       6.390   0.812  -8.655  0.00  0.00     0.082 H 
ATOM      8  H   LIG d   1       5.153   1.285  -7.445  0.00  0.00     0.082 H 
ATOM      9  C   LIG d   1       3.506   2.322  -9.504  0.00  0.00    -0.008 C 
ATOM     10  H   LIG d   1       5.543   2.368 -10.291  0.00  0.00     0.032 H 
ATOM     11  H   LIG d   1       5.319   3.292  -8.768  0.00  0.00     0.032 H 
ATOM     12  C   LIG d   1       3.151   0.836  -9.310  0.00  0.00    -0.031 C 
ATOM     13  H   LIG d   1       3.006   2.931  -8.752  0.00  0.00     0.032 H 
ATOM     14  H   LIG d   1       3.226   2.650 -10.505  0.00  0.00     0.032 H 
ATOM     15  H   LIG d   1       2.488   0.721  -8.453  0.00  0.00     0.082 H 
ATOM     16  H   LIG d   1       2.670   0.448 -10.208  0.00  0.00     0.082 H 
ATOM     17  H   LIG d   1       4.782  -0.253  -9.933  0.00  0.00     0.204 HD
ENDBRANCH   1   4
BRANCH   1  18
ATOM     18  C   LIG d   1       3.519  -0.447  -6.912  0.00  0.00    -0.051 C 
ATOM     19  C   LIG d   1       2.970  -0.027  -5.963  0.00  0.00    -0.078 C 
BRANCH  19  20
ATOM     20  C   LIG d   1       2.283   0.500  -4.773  0.00  0.00     0.076 C 
ATOM     21  H   LIG d   1       2.182   1.583  -4.859  0.00  0.00     0.060 H 
ATOM     22  H   LIG d   1       1.295   0.049  -4.693  0.00  0.00     0.060 H 
BRANCH  20  23
ATOM     23  N   LIG d   1       3.065   0.178  -3.576  0.00  0.00    -0.290 N 
ATOM     24  C   LIG d   1       3.862   1.049  -2.933  0.00  0.00     0.216 C 
ATOM     25  C   LIG d   1       4.518   0.376  -1.747  0.00  0.00     0.026 C 
ATOM     26  O   LIG d   1       4.030   2.205  -3.255  0.00  0.00    -0.276 OA
ATOM     27  C   LIG d   1       4.331  -1.135  -2.018  0.00  0.00    -0.029 C 
ATOM     28  H   LIG d   1       4.021   0.661  -0.820  0.00  0.00     0.036 H 
ATOM     29  H   LIG d   1       5.577   0.628  -1.706  0.00  0.00     0.036 H 
ATOM     30  C   LIG d   1       3.083  -1.139  -2.929  0.00  0.00     0.016 C 
ATOM     31  H   LIG d   1       4.141  -1.677  -1.093  0.00  0.00     0.029 H 
ATOM     32  H   LIG d   1       5.196  -1.547  -2.540  0.00  0.00     0.029 H 
ATOM     33  H   LIG d   1       2.181  -1.278  -2.331  0.00  0.00     0.046 H 
ATOM     34  H   LIG d   1       3.165  -1.926  -3.677  0.00  0.00     0.046 H 
ENDBRANCH  20  23
ENDBRANCH  19  20
ENDBRANCH   1  18
TORSDOF 4
ENDMDL
MODEL 2
REMARK VINA RESULT:      -5.5      1.518      1.700
REMARK  4 active torsions:
REMARK  status: ('A' for Active; 'I' for Inactive)
REMARK    1  A    between atoms: N_4  and  C_6 
REMARK    2  A    between atoms: C_6  and  C_7 
REMARK    3  A    between atoms: C_8  and  C_9 
REMARK    4  A    between atoms: C_9  and  N_10 
ROOT
ATOM      1  C   LIG d   1       2.407  -0.400  -7.997  0.00  0.00     0.031 C 
ATOM      2  H   LIG d   1       1.483  -0.165  -7.469  0.00  0.00     0.096 H 
ATOM      3  H   LIG d   1       2.329  -1.392  -8.441  0.00  0.00     0.096 H 
ENDROOT
BRANCH   1   4
ATOM      4  N   LIG d   1       2.631   0.594  -9.057  0.00  0.00     0.244 N 
ATOM      5  C   LIG d   1       3.849   0.248  -9.833  0.00  0.00    -0.031 C 
ATOM      6  C   LIG d   1       4.255   1.599 -10.475  0.00  0.00    -0.008 C 
ATOM      7  H   LIG d   1       3.618  -0.489 -10.602  0.00  0.00     0.082 H 
ATOM      8  H   LIG d   1       4.636  -0.116  -9.173  0.00  0.00     0.082 H 
ATOM      9  C   LIG d   1       3.931   2.622  -9.362  0.00  0.00    -0.008 C 
ATOM     10  H   LIG d   1       3.659   1.797 -11.366  0.00  0.00     0.032 H 
ATOM     11  H   LIG d   1       5.320   1.609 -10.710  0.00  0.00     0.032 H 
ATOM     12  C   LIG d   1       2.895   1.922  -8.462  0.00  0.00    -0.031 C 
ATOM     13  H   LIG d   1       4.829   2.858  -8.791  0.00  0.00     0.032 H 
ATOM     14  H   LIG d   1       3.506   3.528  -9.793  0.00  0.00     0.032 H 
ATOM     15  H   LIG d   1       3.296   1.805  -7.456  0.00  0.00     0.082 H 
ATOM     16  H   LIG d   1       1.975   2.506  -8.432  0.00  0.00     0.082 H 
ATOM     17  H   LIG d   1       1.829   0.639  -9.667  0.00  0.00     0.204 HD
ENDBRANCH   1   4
BRANCH   1  18
ATOM     18  C   LIG d   1       3.535  -0.371  -7.052  0.00  0.00    -0.051 C 
ATOM     19  C   LIG d   1       4.435  -0.348  -6.299  0.00  0.00    -0.078 C 
BRANCH  19  20
ATOM     20  C   LIG d   1       5.563  -0.319  -5.354  0.00  0.00     0.076 C 
ATOM     21  H   LIG d   1       6.198  -1.190  -5.518  0.00  0.00     0.060 H 
ATOM     22  H   LIG d   1       6.145   0.589  -5.509  0.00  0.00     0.060 H 
BRANCH  20  23
ATOM     23  N   LIG d   1       5.050  -0.341  -3.982  0.00  0.00    -0.290 N 
ATOM     24  C   LIG d   1       5.315   0.599  -3.057  0.00  0.00     0.216 C 
ATOM     25  C   LIG d   1       4.628   0.255  -1.753  0.00  0.00     0.026 C 
ATOM     26  O   LIG d   1       6.002   1.580  -3.242  0.00  0.00    -0.276 OA
ATOM     27  C   LIG d   1       4.262  -1.240  -1.903  0.00  0.00    -0.029 C 
ATOM     28  H   LIG d   1       3.729   0.855  -1.622  0.00  0.00     0.036 H 
ATOM     29  H   LIG d   1       5.310   0.399  -0.916  0.00  0.00     0.036 H 
ATOM     30  C   LIG d   1       4.185  -1.394  -3.438  0.00  0.00     0.016 C 
ATOM     31  H   LIG d   1       3.299  -1.455  -1.441  0.00  0.00     0.029 H 
ATOM     32  H   LIG d   1       5.044  -1.876  -1.486  0.00  0.00     0.029 H 
ATOM     33  H   LIG d   1       3.159  -1.254  -3.780  0.00  0.00     0.046 H 
ATOM     34  H   LIG d   1       4.552  -2.376  -3.738  0.00  0.00     0.046 H 
ENDBRANCH  20  23
ENDBRANCH  19  20
ENDBRANCH   1  18
TORSDOF 4
ENDMDL
MODEL 3
REMARK VINA RESULT:      -5.5      1.944      2.471
REMARK  4 active torsions:
REMARK  status: ('A' for Active; 'I' for Inactive)
REMARK    1  A    between atoms: N_4  and  C_6 
REMARK    2  A    between atoms: C_6  and  C_7 
REMARK    3  A    between atoms: C_8  and  C_9 
REMARK    4  A    between atoms: C_9  and  N_10 
ROOT
ATOM      1  C   LIG d   1       5.949   0.179  -8.124  0.00  0.00     0.031 C 
ATOM      2  H   LIG d   1       5.493  -0.713  -8.552  0.00  0.00     0.096 H 
ATOM      3  H   LIG d   1       6.813   0.468  -8.721  0.00  0.00     0.096 H 
ENDROOT
BRANCH   1   4
ATOM      4  N   LIG d   1       4.969   1.275  -8.120  0.00  0.00     0.244 N 
ATOM      5  C   LIG d   1       3.589   0.728  -8.083  0.00  0.00    -0.031 C 
ATOM      6  C   LIG d   1       2.732   1.892  -8.641  0.00  0.00    -0.008 C 
ATOM      7  H   LIG d   1       3.296   0.490  -7.060  0.00  0.00     0.082 H 
ATOM      8  H   LIG d   1       3.507  -0.151  -8.723  0.00  0.00     0.082 H 
ATOM      9  C   LIG d   1       3.635   2.489  -9.745  0.00  0.00    -0.008 C 
ATOM     10  H   LIG d   1       2.533   2.631  -7.864  0.00  0.00     0.032 H 
ATOM     11  H   LIG d   1       1.800   1.516  -9.066  0.00  0.00     0.032 H 
ATOM     12  C   LIG d   1       5.064   2.049  -9.377  0.00  0.00    -0.031 C 
ATOM     13  H   LIG d   1       3.356   2.089 -10.720  0.00  0.00     0.032 H 
ATOM     14  H   LIG d   1       3.563   3.576  -9.746  0.00  0.00     0.032 H 
ATOM     15  H   LIG d   1       5.475   1.422 -10.168  0.00  0.00     0.082 H 
ATOM     16  H   LIG d   1       5.696   2.924  -9.228  0.00  0.00     0.082 H 
ATOM     17  H   LIG d   1       5.126   1.879  -7.327  0.00  0.00     0.204 HD
ENDBRANCH   1   4
BRANCH   1  18
ATOM     18  C   LIG d   1       6.376  -0.100  -6.744  0.00  0.00    -0.051 C 
ATOM     19  C   LIG d   1       6.719  -0.323  -5.643  0.00  0.00    -0.078 C 
BRANCH  19  20
ATOM     20  C   LIG d   1       7.147  -0.603  -4.263  0.00  0.00     0.076 C 
ATOM     21  H   LIG d   1       7.664  -1.563  -4.229  0.00  0.00     0.060 H 
ATOM     22  H   LIG d   1       7.819   0.184  -3.923  0.00  0.00     0.060 H 
BRANCH  20  23
ATOM     23  N   LIG d   1       5.972  -0.651  -3.389  0.00  0.00    -0.290 N 
ATOM     24  C   LIG d   1       5.501   0.398  -2.691  0.00  0.00     0.216 C 
ATOM     25  C   LIG d   1       4.282  -0.012  -1.894  0.00  0.00     0.026 C 
ATOM     26  O   LIG d   1       5.982   1.511  -2.702  0.00  0.00    -0.276 OA
ATOM     27  C   LIG d   1       4.342  -1.557  -1.881  0.00  0.00    -0.029 C 
ATOM     28  H   LIG d   1       3.371   0.330  -2.381  0.00  0.00     0.036 H 
ATOM     29  H   LIG d   1       4.344   0.381  -0.879  0.00  0.00     0.036 H 
ATOM     30  C   LIG d   1       5.160  -1.851  -3.158  0.00  0.00     0.016 C 
ATOM     31  H   LIG d   1       3.343  -1.987  -1.950  0.00  0.00     0.029 H 
ATOM     32  H   LIG d   1       4.861  -1.920  -0.993  0.00  0.00     0.029 H 
ATOM     33  H   LIG d   1       4.492  -2.024  -4.002  0.00  0.00     0.046 H 
ATOM     34  H   LIG d   1       5.804  -2.717  -3.002  0.00  0.00     0.046 H 
ENDBRANCH  20  23
ENDBRANCH  19  20
ENDBRANCH   1  18
TORSDOF 4
ENDMDL
MODEL 4
REMARK VINA RESULT:      -5.5      1.509      2.117
REMARK  4 active torsions:
REMARK  status: ('A' for Active; 'I' for Inactive)
REMARK    1  A    between atoms: N_4  and  C_6 
REMARK    2  A    between atoms: C_6  and  C_7 
REMARK    3  A    between atoms: C_8  and  C_9 
REMARK    4  A    between atoms: C_9  and  N_10 
ROOT
ATOM      1  C   LIG d   1       3.916  -0.751  -8.257  0.00  0.00     0.031 C 
ATOM      2  H   LIG d   1       3.895  -1.840  -8.220  0.00  0.00     0.096 H 
ATOM      3  H   LIG d   1       4.945  -0.411  -8.365  0.00  0.00     0.096 H 
ENDROOT
BRANCH   1   4
ATOM      4  N   LIG d   1       3.124  -0.285  -9.404  0.00  0.00     0.244 N 
ATOM      5  C   LIG d   1       1.858  -1.056  -9.499  0.00  0.00    -0.031 C 
ATOM      6  C   LIG d   1       1.443  -0.874 -10.981  0.00  0.00    -0.008 C 
ATOM      7  H   LIG d   1       1.102  -0.638  -8.834  0.00  0.00     0.082 H 
ATOM      8  H   LIG d   1       2.031  -2.108  -9.275  0.00  0.00     0.082 H 
ATOM      9  C   LIG d   1       2.797  -0.913 -11.726  0.00  0.00    -0.008 C 
ATOM     10  H   LIG d   1       0.949   0.087 -11.128  0.00  0.00     0.032 H 
ATOM     11  H   LIG d   1       0.801  -1.693 -11.305  0.00  0.00     0.032 H 
ATOM     12  C   LIG d   1       3.851  -0.545 -10.665  0.00  0.00    -0.031 C 
ATOM     13  H   LIG d   1       2.986  -1.913 -12.116  0.00  0.00     0.032 H 
ATOM     14  H   LIG d   1       2.805  -0.183 -12.535  0.00  0.00     0.032 H 
ATOM     15  H   LIG d   1       4.545  -1.374 -10.529  0.00  0.00     0.082 H 
ATOM     16  H   LIG d   1       4.393   0.349 -10.973  0.00  0.00     0.082 H 
ATOM     17  H   LIG d   1       2.926   0.700  -9.314  0.00  0.00     0.204 HD
ENDBRANCH   1   4
BRANCH   1  18
ATOM     18  C   LIG d   1       3.346  -0.205  -7.014  0.00  0.00    -0.051 C 
ATOM     19  C   LIG d   1       2.891   0.228  -6.022  0.00  0.00    -0.078 C 
BRANCH  19  20
ATOM     20  C   LIG d   1       2.321   0.774  -4.780  0.00  0.00     0.076 C 
ATOM     21  H   LIG d   1       2.397   1.862  -4.791  0.00  0.00     0.060 H 
ATOM     22  H   LIG d   1       1.274   0.484  -4.702  0.00  0.00     0.060 H 
BRANCH  20  23
ATOM     23  N   LIG d   1       3.061   0.245  -3.631  0.00  0.00    -0.290 N 
ATOM     24  C   LIG d   1       3.974   0.941  -2.931  0.00  0.00     0.216 C 
ATOM     25  C   LIG d   1       4.542   0.085  -1.820  0.00  0.00     0.026 C 
ATOM     26  O   LIG d   1       4.295   2.088  -3.156  0.00  0.00    -0.276 OA
ATOM     27  C   LIG d   1       4.149  -1.357  -2.217  0.00  0.00    -0.029 C 
ATOM     28  H   LIG d   1       4.095   0.351  -0.863  0.00  0.00     0.036 H 
ATOM     29  H   LIG d   1       5.625   0.188  -1.779  0.00  0.00     0.036 H 
ATOM     30  C   LIG d   1       2.905  -1.113  -3.100  0.00  0.00     0.016 C 
ATOM     31  H   LIG d   1       3.894  -1.948  -1.338  0.00  0.00     0.029 H 
ATOM     32  H   LIG d   1       4.946  -1.834  -2.789  0.00  0.00     0.029 H 
ATOM     33  H   LIG d   1       1.997  -1.182  -2.499  0.00  0.00     0.046 H 
ATOM     34  H   LIG d   1       2.874  -1.836  -3.915  0.00  0.00     0.046 H 
ENDBRANCH  20  23
ENDBRANCH  19  20
ENDBRANCH   1  18
TORSDOF 4
ENDMDL
MODEL 5
REMARK VINA RESULT:      -5.3      2.057      6.071
REMARK  4 active torsions:
REMARK  status: ('A' for Active; 'I' for Inactive)
REMARK    1  A    between atoms: N_4  and  C_6 
REMARK    2  A    between atoms: C_6  and  C_7 
REMARK    3  A    between atoms: C_8  and  C_9 
REMARK    4  A    between atoms: C_9  and  N_10 
ROOT
ATOM      1  C   LIG d   1       6.597  -0.460  -4.738  0.00  0.00     0.031 C 
ATOM      2  H   LIG d   1       7.206   0.431  -4.891  0.00  0.00     0.096 H 
ATOM      3  H   LIG d   1       7.186  -1.347  -4.973  0.00  0.00     0.096 H 
ENDROOT
BRANCH   1   4
ATOM      4  N   LIG d   1       6.160  -0.520  -3.336  0.00  0.00     0.244 N 
ATOM      5  C   LIG d   1       5.101  -1.549  -3.174  0.00  0.00    -0.031 C 
ATOM      6  C   LIG d   1       4.381  -1.114  -1.873  0.00  0.00    -0.008 C 
ATOM      7  H   LIG d   1       5.541  -2.539  -3.058  0.00  0.00     0.082 H 
ATOM      8  H   LIG d   1       4.413  -1.528  -4.019  0.00  0.00     0.082 H 
ATOM      9  C   LIG d   1       4.391   0.429  -1.972  0.00  0.00    -0.008 C 
ATOM     10  H   LIG d   1       4.936  -1.447  -0.995  0.00  0.00     0.032 H 
ATOM     11  H   LIG d   1       3.359  -1.493  -1.852  0.00  0.00     0.032 H 
ATOM     12  C   LIG d   1       5.541   0.763  -2.940  0.00  0.00    -0.031 C 
ATOM     13  H   LIG d   1       3.443   0.789  -2.372  0.00  0.00     0.032 H 
ATOM     14  H   LIG d   1       4.581   0.870  -0.993  0.00  0.00     0.032 H 
ATOM     15  H   LIG d   1       5.150   1.273  -3.820  0.00  0.00     0.082 H 
ATOM     16  H   LIG d   1       6.277   1.392  -2.440  0.00  0.00     0.082 H 
ATOM     17  H   LIG d   1       6.944  -0.729  -2.736  0.00  0.00     0.204 HD
ENDBRANCH   1   4
BRANCH   1  18
ATOM     18  C   LIG d   1       5.418  -0.406  -5.617  0.00  0.00    -0.051 C 
ATOM     19  C   LIG d   1       4.477  -0.365  -6.318  0.00  0.00    -0.078 C 
BRANCH  19  20
ATOM     20  C   LIG d   1       3.298  -0.311  -7.197  0.00  0.00     0.076 C 
ATOM     21  H   LIG d   1       3.043  -1.318  -7.528  0.00  0.00     0.060 H 
ATOM     22  H   LIG d   1       2.456   0.115  -6.651  0.00  0.00     0.060 H 
BRANCH  20  23
ATOM     23  N   LIG d   1       3.597   0.525  -8.363  0.00  0.00    -0.290 N 
ATOM     24  C   LIG d   1       3.235   1.814  -8.485  0.00  0.00     0.216 C 
ATOM     25  C   LIG d   1       3.702   2.361  -9.817  0.00  0.00     0.026 C 
ATOM     26  O   LIG d   1       2.625   2.446  -7.651  0.00  0.00    -0.276 OA
ATOM     27  C   LIG d   1       4.023   1.100 -10.652  0.00  0.00    -0.029 C 
ATOM     28  H   LIG d   1       4.595   2.971  -9.690  0.00  0.00     0.036 H 
ATOM     29  H   LIG d   1       2.908   2.939 -10.288  0.00  0.00     0.036 H 
ATOM     30  C   LIG d   1       4.325   0.061  -9.549  0.00  0.00     0.016 C 
ATOM     31  H   LIG d   1       4.895   1.262 -11.284  0.00  0.00     0.029 H 
ATOM     32  H   LIG d   1       3.161   0.797 -11.248  0.00  0.00     0.029 H 
ATOM     33  H   LIG d   1       5.396   0.027  -9.346  0.00  0.00     0.046 H 
ATOM     34  H   LIG d   1       3.966  -0.924  -9.851  0.00  0.00     0.046 H 
ENDBRANCH  20  23
ENDBRANCH  19  20
ENDBRANCH   1  18
TORSDOF 4
ENDMDL
MODEL 6
REMARK VINA RESULT:      -5.2      2.811      6.712
REMARK  4 active torsions:
REMARK  status: ('A' for Active; 'I' for Inactive)
REMARK    1  A    between atoms: N_4  and  C_6 
REMARK    2  A    between atoms: C_6  and  C_7 
REMARK    3  A    between atoms: C_8  and  C_9 
REMARK    4  A    between atoms: C_9  and  N_10 
ROOT
ATOM      1  C   LIG d   1       4.776  -1.208  -5.821  0.00  0.00     0.031 C 
ATOM      2  H   LIG d   1       5.570  -0.607  -5.377  0.00  0.00     0.096 H 
ATOM      3  H   LIG d   1       5.208  -2.098  -6.279  0.00  0.00     0.096 H 
ENDROOT
BRANCH   1   4
ATOM      4  N   LIG d   1       3.823  -1.609  -4.777  0.00  0.00     0.244 N 
ATOM      5  C   LIG d   1       3.297  -0.409  -4.076  0.00  0.00    -0.031 C 
ATOM      6  C   LIG d   1       2.804  -0.978  -2.722  0.00  0.00    -0.008 C 
ATOM      7  H   LIG d   1       2.470   0.030  -4.634  0.00  0.00     0.082 H 
ATOM      8  H   LIG d   1       4.090   0.323  -3.920  0.00  0.00     0.082 H 
ATOM      9  C   LIG d   1       3.866  -2.051  -2.390  0.00  0.00    -0.008 C 
ATOM     10  H   LIG d   1       1.818  -1.432  -2.831  0.00  0.00     0.032 H 
ATOM     11  H   LIG d   1       2.790  -0.200  -1.959  0.00  0.00     0.032 H 
ATOM     12  C   LIG d   1       4.509  -2.413  -3.742  0.00  0.00    -0.031 C 
ATOM     13  H   LIG d   1       4.615  -1.646  -1.711  0.00  0.00     0.032 H 
ATOM     14  H   LIG d   1       3.392  -2.929  -1.950  0.00  0.00     0.032 H 
ATOM     15  H   LIG d   1       5.571  -2.168  -3.725  0.00  0.00     0.082 H 
ATOM     16  H   LIG d   1       4.373  -3.475  -3.946  0.00  0.00     0.082 H 
ATOM     17  H   LIG d   1       3.065  -2.137  -5.181  0.00  0.00     0.204 HD
ENDBRANCH   1   4
BRANCH   1  18
ATOM     18  C   LIG d   1       4.076  -0.418  -6.846  0.00  0.00    -0.051 C 
ATOM     19  C   LIG d   1       3.518   0.214  -7.664  0.00  0.00    -0.078 C 
BRANCH  19  20
ATOM     20  C   LIG d   1       2.818   1.005  -8.689  0.00  0.00     0.076 C 
ATOM     21  H   LIG d   1       1.880   1.383  -8.280  0.00  0.00     0.060 H 
ATOM     22  H   LIG d   1       3.445   1.841  -8.995  0.00  0.00     0.060 H 
BRANCH  20  23
ATOM     23  N   LIG d   1       2.536   0.156  -9.850  0.00  0.00    -0.290 N 
ATOM     24  C   LIG d   1       3.232   0.188 -11.000  0.00  0.00     0.216 C 
ATOM     25  C   LIG d   1       2.663  -0.815 -11.980  0.00  0.00     0.026 C 
ATOM     26  O   LIG d   1       4.178   0.913 -11.219  0.00  0.00    -0.276 OA
ATOM     27  C   LIG d   1       1.265  -1.150 -11.409  0.00  0.00    -0.029 C 
ATOM     28  H   LIG d   1       3.283  -1.709 -12.019  0.00  0.00     0.036 H 
ATOM     29  H   LIG d   1       2.573  -0.368 -12.970  0.00  0.00     0.036 H 
ATOM     30  C   LIG d   1       1.454  -0.833  -9.909  0.00  0.00     0.016 C 
ATOM     31  H   LIG d   1       1.024  -2.202 -11.558  0.00  0.00     0.029 H 
ATOM     32  H   LIG d   1       0.500  -0.510 -11.850  0.00  0.00     0.029 H 
ATOM     33  H   LIG d   1       1.737  -1.735  -9.366  0.00  0.00     0.046 H 
ATOM     34  H   LIG d   1       0.537  -0.415  -9.494  0.00  0.00     0.046 H 
ENDBRANCH  20  23
ENDBRANCH  19  20
ENDBRANCH   1  18
TORSDOF 4
ENDMDL
MODEL 7
REMARK VINA RESULT:      -5.2      1.690      6.215
REMARK  4 active torsions:
REMARK  status: ('A' for Active; 'I' for Inactive)
REMARK    1  A    between atoms: N_4  and  C_6 
REMARK    2  A    between atoms: C_6  and  C_7 
REMARK    3  A    between atoms: C_8  and  C_9 
REMARK    4  A    between atoms: C_9  and  N_10 
ROOT
ATOM      1  C   LIG d   1       2.101   0.060  -4.499  0.00  0.00     0.031 C 
ATOM      2  H   LIG d   1       1.340  -0.704  -4.658  0.00  0.00     0.096 H 
ATOM      3  H   LIG d   1       1.650   1.047  -4.601  0.00  0.00     0.096 H 
ENDROOT
BRANCH   1   4
ATOM      4  N   LIG d   1       2.665  -0.084  -3.150  0.00  0.00     0.244 N 
ATOM      5  C   LIG d   1       3.745   0.914  -2.938  0.00  0.00    -0.031 C 
ATOM      6  C   LIG d   1       4.577   0.296  -1.786  0.00  0.00    -0.008 C 
ATOM      7  H   LIG d   1       3.328   1.876  -2.639  0.00  0.00     0.082 H 
ATOM      8  H   LIG d   1       4.353   1.019  -3.837  0.00  0.00     0.082 H 
ATOM      9  C   LIG d   1       4.542  -1.216  -2.106  0.00  0.00    -0.008 C 
ATOM     10  H   LIG d   1       4.108   0.497  -0.822  0.00  0.00     0.032 H 
ATOM     11  H   LIG d   1       5.600   0.671  -1.805  0.00  0.00     0.032 H 
ATOM     12  C   LIG d   1       3.304  -1.409  -3.003  0.00  0.00    -0.031 C 
ATOM     13  H   LIG d   1       5.445  -1.511  -2.640  0.00  0.00     0.032 H 
ATOM     14  H   LIG d   1       4.438  -1.795  -1.189  0.00  0.00     0.032 H 
ATOM     15  H   LIG d   1       3.608  -1.785  -3.979  0.00  0.00     0.082 H 
ATOM     16  H   LIG d   1       2.610  -2.106  -2.534  0.00  0.00     0.082 H 
ATOM     17  H   LIG d   1       1.942   0.033  -2.456  0.00  0.00     0.204 HD
ENDBRANCH   1   4
BRANCH   1  18
ATOM     18  C   LIG d   1       3.171  -0.097  -5.497  0.00  0.00    -0.051 C 
ATOM     19  C   LIG d   1       4.024  -0.222  -6.295  0.00  0.00    -0.078 C 
BRANCH  19  20
ATOM     20  C   LIG d   1       5.094  -0.379  -7.292  0.00  0.00     0.076 C 
ATOM     21  H   LIG d   1       5.949   0.238  -7.010  0.00  0.00     0.060 H 
ATOM     22  H   LIG d   1       5.399  -1.424  -7.338  0.00  0.00     0.060 H 
BRANCH  20  23
ATOM     23  N   LIG d   1       4.601   0.043  -8.606  0.00  0.00    -0.290 N 
ATOM     24  C   LIG d   1       4.875   1.231  -9.174  0.00  0.00     0.216 C 
ATOM     25  C   LIG d   1       4.200   1.331 -10.524  0.00  0.00     0.026 C 
ATOM     26  O   LIG d   1       5.565   2.095  -8.677  0.00  0.00    -0.276 OA
ATOM     27  C   LIG d   1       3.137   0.207 -10.498  0.00  0.00    -0.029 C 
ATOM     28  H   LIG d   1       4.916   1.159 -11.326  0.00  0.00     0.036 H 
ATOM     29  H   LIG d   1       3.723   2.304 -10.638  0.00  0.00     0.036 H 
ATOM     30  C   LIG d   1       3.741  -0.774  -9.469  0.00  0.00     0.016 C 
ATOM     31  H   LIG d   1       3.042  -0.263 -11.476  0.00  0.00     0.029 H 
ATOM     32  H   LIG d   1       2.175   0.589 -10.155  0.00  0.00     0.029 H 
ATOM     33  H   LIG d   1       4.332  -1.537  -9.978  0.00  0.00     0.046 H 
ATOM     34  H   LIG d   1       2.950  -1.239  -8.882  0.00  0.00     0.046 H 
ENDBRANCH  20  23
ENDBRANCH  19  20
ENDBRANCH   1  18
TORSDOF 4
ENDMDL
MODEL 8
REMARK VINA RESULT:      -5.1      1.634      2.120
REMARK  4 active torsions:
REMARK  status: ('A' for Active; 'I' for Inactive)
REMARK    1  A    between atoms: N_4  and  C_6 
REMARK    2  A    between atoms: C_6  and  C_7 
REMARK    3  A    between atoms: C_8  and  C_9 
REMARK    4  A    between atoms: C_9  and  N_10 
ROOT
ATOM      1  C   LIG d   1       4.509  -1.062  -8.233  0.00  0.00     0.031 C 
ATOM      2  H   LIG d   1       3.637  -1.510  -8.707  0.00  0.00     0.096 H 
ATOM      3  H   LIG d   1       5.413  -1.416  -8.728  0.00  0.00     0.096 H 
ENDROOT
BRANCH   1   4
ATOM      4  N   LIG d   1       4.431   0.401  -8.346  0.00  0.00     0.244 N 
ATOM      5  C   LIG d   1       3.071   0.870  -7.974  0.00  0.00    -0.031 C 
ATOM      6  C   LIG d   1       2.975   2.256  -8.660  0.00  0.00    -0.008 C 
ATOM      7  H   LIG d   1       2.981   0.969  -6.892  0.00  0.00     0.082 H 
ATOM      8  H   LIG d   1       2.311   0.194  -8.366  0.00  0.00     0.082 H 
ATOM      9  C   LIG d   1       3.720   2.033  -9.997  0.00  0.00    -0.008 C 
ATOM     10  H   LIG d   1       3.477   3.018  -8.062  0.00  0.00     0.032 H 
ATOM     11  H   LIG d   1       1.935   2.527  -8.839  0.00  0.00     0.032 H 
ATOM     12  C   LIG d   1       4.631   0.816  -9.751  0.00  0.00    -0.031 C 
ATOM     13  H   LIG d   1       3.010   1.818 -10.795  0.00  0.00     0.032 H 
ATOM     14  H   LIG d   1       4.319   2.908 -10.248  0.00  0.00     0.032 H 
ATOM     15  H   LIG d   1       4.354   0.003 -10.421  0.00  0.00     0.082 H 
ATOM     16  H   LIG d   1       5.673   1.093  -9.911  0.00  0.00     0.082 H 
ATOM     17  H   LIG d   1       5.123   0.834  -7.753  0.00  0.00     0.204 HD
ENDBRANCH   1   4
BRANCH   1  18
ATOM     18  C   LIG d   1       4.546  -1.443  -6.812  0.00  0.00    -0.051 C 
ATOM     19  C   LIG d   1       4.575  -1.748  -5.678  0.00  0.00    -0.078 C 
BRANCH  19  20
ATOM     20  C   LIG d   1       4.612  -2.128  -4.257  0.00  0.00     0.076 C 
ATOM     21  H   LIG d   1       3.731  -2.724  -4.016  0.00  0.00     0.060 H 
ATOM     22  H   LIG d   1       5.510  -2.712  -4.060  0.00  0.00     0.060 H 
BRANCH  20  23
ATOM     23  N   LIG d   1       4.624  -0.920  -3.429  0.00  0.00    -0.290 N 
ATOM     24  C   LIG d   1       3.526  -0.349  -2.903  0.00  0.00     0.216 C 
ATOM     25  C   LIG d   1       3.908   0.883  -2.111  0.00  0.00     0.026 C 
ATOM     26  O   LIG d   1       2.395  -0.762  -3.041  0.00  0.00    -0.276 OA
ATOM     27  C   LIG d   1       5.342   1.209  -2.589  0.00  0.00    -0.029 C 
ATOM     28  H   LIG d   1       3.901   0.671  -1.043  0.00  0.00     0.036 H 
ATOM     29  H   LIG d   1       3.233   1.706  -2.343  0.00  0.00     0.036 H 
ATOM     30  C   LIG d   1       5.836  -0.174  -3.071  0.00  0.00     0.016 C 
ATOM     31  H   LIG d   1       5.954   1.577  -1.766  0.00  0.00     0.029 H 
ATOM     32  H   LIG d   1       5.326   1.925  -3.412  0.00  0.00     0.029 H 
ATOM     33  H   LIG d   1       6.370  -0.683  -2.268  0.00  0.00     0.046 H 
ATOM     34  H   LIG d   1       6.481  -0.061  -3.942  0.00  0.00     0.046 H 
ENDBRANCH  20  23
ENDBRANCH  19  20
ENDBRANCH   1  18
TORSDOF 4
ENDMDL
MODEL 9
REMARK VINA RESULT:      -4.8      4.569      6.542
REMARK  4 active torsions:
REMARK  status: ('A' for Active; 'I' for Inactive)
REMARK    1  A    between atoms: N_4  and  C_6 
REMARK    2  A    between atoms: C_6  and  C_7 
REMARK    3  A    between atoms: C_8  and  C_9 
REMARK    4  A    between atoms: C_9  and  N_10 
ROOT
ATOM      1  C   LIG d   1       8.423  -2.944  -4.173  0.00  0.00     0.031 C 
ATOM      2  H   LIG d   1       8.989  -2.125  -3.730  0.00  0.00     0.096 H 
ATOM      3  H   LIG d   1       8.724  -3.074  -5.212  0.00  0.00     0.096 H 
ENDROOT
BRANCH   1   4
ATOM      4  N   LIG d   1       8.690  -4.183  -3.428  0.00  0.00     0.244 N 
ATOM      5  C   LIG d   1      10.007  -4.095  -2.745  0.00  0.00    -0.031 C 
ATOM      6  C   LIG d   1      10.384  -5.580  -2.512  0.00  0.00    -0.008 C 
ATOM      7  H   LIG d   1       9.913  -3.568  -1.795  0.00  0.00     0.082 H 
ATOM      8  H   LIG d   1      10.740  -3.608  -3.387  0.00  0.00     0.082 H 
ATOM      9  C   LIG d   1       9.869  -6.273  -3.795  0.00  0.00    -0.008 C 
ATOM     10  H   LIG d   1       9.875  -5.973  -1.631  0.00  0.00     0.032 H 
ATOM     11  H   LIG d   1      11.464  -5.693  -2.419  0.00  0.00     0.032 H 
ATOM     12  C   LIG d   1       8.794  -5.326  -4.360  0.00  0.00    -0.031 C 
ATOM     13  H   LIG d   1      10.681  -6.393  -4.512  0.00  0.00     0.032 H 
ATOM     14  H   LIG d   1       9.431  -7.241  -3.553  0.00  0.00     0.032 H 
ATOM     15  H   LIG d   1       9.090  -4.974  -5.348  0.00  0.00     0.082 H 
ATOM     16  H   LIG d   1       7.837  -5.845  -4.420  0.00  0.00     0.082 H 
ATOM     17  H   LIG d   1       7.958  -4.348  -2.754  0.00  0.00     0.204 HD
ENDBRANCH   1   4
BRANCH   1  18
ATOM     18  C   LIG d   1       6.985  -2.637  -4.113  0.00  0.00    -0.051 C 
ATOM     19  C   LIG d   1       5.837  -2.393  -4.067  0.00  0.00    -0.078 C 
BRANCH  19  20
ATOM     20  C   LIG d   1       4.399  -2.086  -4.007  0.00  0.00     0.076 C 
ATOM     21  H   LIG d   1       4.004  -1.991  -5.019  0.00  0.00     0.060 H 
ATOM     22  H   LIG d   1       3.877  -2.888  -3.487  0.00  0.00     0.060 H 
BRANCH  20  23
ATOM     23  N   LIG d   1       4.199  -0.826  -3.286  0.00  0.00    -0.290 N 
ATOM     24  C   LIG d   1       3.778   0.316  -3.856  0.00  0.00     0.216 C 
ATOM     25  C   LIG d   1       3.690   1.415  -2.819  0.00  0.00     0.026 C 
ATOM     26  O   LIG d   1       3.506   0.447  -5.030  0.00  0.00    -0.276 OA
ATOM     27  C   LIG d   1       4.524   0.880  -1.631  0.00  0.00    -0.029 C 
ATOM     28  H   LIG d   1       2.656   1.576  -2.516  0.00  0.00     0.036 H 
ATOM     29  H   LIG d   1       4.124   2.336  -3.205  0.00  0.00     0.036 H 
ATOM     30  C   LIG d   1       4.438  -0.648  -1.849  0.00  0.00     0.016 C 
ATOM     31  H   LIG d   1       4.075   1.163  -0.680  0.00  0.00     0.029 H 
ATOM     32  H   LIG d   1       5.556   1.225  -1.693  0.00  0.00     0.029 H 
ATOM     33  H   LIG d   1       3.610  -1.065  -1.274  0.00  0.00     0.046 H 
ATOM     34  H   LIG d   1       5.375  -1.123  -1.561  0.00  0.00     0.046 H 
ENDBRANCH  20  23
ENDBRANCH  19  20
ENDBRANCH   1  18
TORSDOF 4
ENDMDL
MODEL 10
REMARK VINA RESULT:      -4.8      2.082      2.777
REMARK  4 active torsions:
REMARK  status: ('A' for Active; 'I' for Inactive)
REMARK    1  A    between atoms: N_4  and  C_6 
REMARK    2  A    between atoms: C_6  and  C_7 
REMARK    3  A    between atoms: C_8  and  C_9 
REMARK    4  A    between atoms: C_9  and  N_10 
ROOT
ATOM      1  C   LIG d   1       4.289  -2.344  -7.805  0.00  0.00     0.031 C 
ATOM      2  H   LIG d   1       4.115  -3.368  -8.132  0.00  0.00     0.096 H 
ATOM      3  H   LIG d   1       5.131  -1.925  -8.356  0.00  0.00     0.096 H 
ENDROOT
BRANCH   1   4
ATOM      4  N   LIG d   1       3.088  -1.536  -8.060  0.00  0.00     0.244 N 
ATOM      5  C   LIG d   1       2.564  -1.816  -9.422  0.00  0.00    -0.031 C 
ATOM      6  C   LIG d   1       1.719  -0.557  -9.741  0.00  0.00    -0.008 C 
ATOM      7  H   LIG d   1       1.938  -2.709  -9.417  0.00  0.00     0.082 H 
ATOM      8  H   LIG d   1       3.382  -1.921 -10.134  0.00  0.00     0.082 H 
ATOM      9  C   LIG d   1       2.548   0.585  -9.110  0.00  0.00    -0.008 C 
ATOM     10  H   LIG d   1       0.736  -0.624  -9.274  0.00  0.00     0.032 H 
ATOM     11  H   LIG d   1       1.627  -0.417 -10.818  0.00  0.00     0.032 H 
ATOM     12  C   LIG d   1       3.428  -0.097  -8.046  0.00  0.00    -0.031 C 
ATOM     13  H   LIG d   1       3.170   1.064  -9.865  0.00  0.00     0.032 H 
ATOM     14  H   LIG d   1       1.889   1.317  -8.642  0.00  0.00     0.032 H 
ATOM     15  H   LIG d   1       4.481   0.038  -8.294  0.00  0.00     0.082 H 
ATOM     16  H   LIG d   1       3.219   0.325  -7.063  0.00  0.00     0.082 H 
ATOM     17  H   LIG d   1       2.382  -1.734  -7.367  0.00  0.00     0.204 HD
ENDBRANCH   1   4
BRANCH   1  18
ATOM     18  C   LIG d   1       4.590  -2.332  -6.364  0.00  0.00    -0.051 C 
ATOM     19  C   LIG d   1       4.828  -2.323  -5.214  0.00  0.00    -0.078 C 
BRANCH  19  20
ATOM     20  C   LIG d   1       5.129  -2.312  -3.774  0.00  0.00     0.076 C 
ATOM     21  H   LIG d   1       4.450  -2.989  -3.254  0.00  0.00     0.060 H 
ATOM     22  H   LIG d   1       6.157  -2.634  -3.614  0.00  0.00     0.060 H 
BRANCH  20  23
ATOM     23  N   LIG d   1       4.956  -0.954  -3.250  0.00  0.00    -0.290 N 
ATOM     24  C   LIG d   1       5.944  -0.047  -3.155  0.00  0.00     0.216 C 
ATOM     25  C   LIG d   1       5.412   1.242  -2.567  0.00  0.00     0.026 C 
ATOM     26  O   LIG d   1       7.093  -0.233  -3.492  0.00  0.00    -0.276 OA
ATOM     27  C   LIG d   1       4.062   0.838  -1.931  0.00  0.00    -0.029 C 
ATOM     28  H   LIG d   1       5.258   1.986  -3.347  0.00  0.00     0.036 H 
ATOM     29  H   LIG d   1       6.093   1.621  -1.806  0.00  0.00     0.036 H 
ATOM     30  C   LIG d   1       3.685  -0.411  -2.759  0.00  0.00     0.016 C 
ATOM     31  H   LIG d   1       3.320   1.626  -2.055  0.00  0.00     0.029 H 
ATOM     32  H   LIG d   1       4.187   0.584  -0.878  0.00  0.00     0.029 H 
ATOM     33  H   LIG d   1       3.046  -0.129  -3.596  0.00  0.00     0.046 H 
ATOM     34  H   LIG d   1       3.181  -1.143  -2.129  0.00  0.00     0.046 H 
ENDBRANCH  20  23
ENDBRANCH  19  20
ENDBRANCH   1  18
TORSDOF 4
ENDMDL
