MODEL 1
REMARK VINA RESULT:      -6.2      0.000      0.000
REMARK  9 active torsions:
REMARK  status: ('A' for Active; 'I' for Inactive)
REMARK    1  A    between atoms: C_1  and  O_2 
REMARK    2  A    between atoms: O_2  and  C_3 
REMARK    3  A    between atoms: C_3  and  C_4 
REMARK    4  A    between atoms: C_4  and  N_5 
REMARK    5  A    between atoms: N_5  and  C_6 
REMARK    6  A    between atoms: C_9  and  C_12 
REMARK    7  A    between atoms: C_14  and  C_17 
REMARK    8  A    between atoms: N_22  and  C_23 
REMARK    9  A    between atoms: C_23  and  C_24 
ROOT
ATOM      1  C   LIG d   1       7.858   1.965  -4.234  0.00  0.00     0.204 A 
ATOM      2  N   LIG d   1       6.882   1.615  -3.379  0.00  0.00    -0.190 NA
ATOM      3  C   LIG d   1       6.083   0.753  -3.942  0.00  0.00     0.245 A 
ATOM      4  O   LIG d   1       6.522   0.518  -5.186  0.00  0.00    -0.336 OA
ATOM      5  N   LIG d   1       7.680   1.321  -5.361  0.00  0.00    -0.056 NA
ENDROOT
BRANCH   3   6
ATOM      6  C   LIG d   1       4.872   0.125  -3.303  0.00  0.00     0.090 C 
ATOM      7  H   LIG d   1       4.275   0.881  -2.791  0.00  0.00     0.056 H 
ATOM      8  N   LIG d   1       4.055  -0.590  -4.317  0.00  0.00    -0.281 N 
ATOM      9  C   LIG d   1       3.260  -1.585  -3.563  0.00  0.00     0.000 C 
ATOM     10  C   LIG d   1       4.033  -1.895  -2.266  0.00  0.00    -0.038 C 
ATOM     11  H   LIG d   1       3.145  -2.494  -4.152  0.00  0.00     0.043 H 
ATOM     12  H   LIG d   1       2.282  -1.170  -3.322  0.00  0.00     0.043 H 
ATOM     13  C   LIG d   1       5.290  -0.998  -2.323  0.00  0.00    -0.027 C 
ATOM     14  H   LIG d   1       4.319  -2.946  -2.239  0.00  0.00     0.028 H 
ATOM     15  H   LIG d   1       3.427  -1.644  -1.396  0.00  0.00     0.028 H 
ATOM     16  H   LIG d   1       6.143  -1.553  -2.713  0.00  0.00     0.029 H 
ATOM     17  H   LIG d   1       5.515  -0.587  -1.338  0.00  0.00     0.029 H 
BRANCH   8  18
ATOM     18  C   LIG d   1       3.184   0.343  -5.045  0.00  0.00     0.102 C 
ATOM     19  H   LIG d   1       2.145   0.162  -4.768  0.00  0.00     0.055 H 
ATOM     20  H   LIG d   1       3.454   1.368  -4.789  0.00  0.00     0.055 H 
BRANCH  18  21
ATOM     21  C   LIG d   1       3.352   0.134  -6.528  0.00  0.00     0.269 A 
ATOM     22  N   LIG d   1       4.434   0.430  -7.229  0.00  0.00    -0.246 N 
ATOM     23  C   LIG d   1       4.206   0.100  -8.518  0.00  0.00     0.128 A 
ATOM     24  H   LIG d   1       5.251   0.817  -6.878  0.00  0.00     0.310 HD
ATOM     25  C   LIG d   1       2.956  -0.399  -8.589  0.00  0.00     0.128 A 
ATOM     26  H   LIG d   1       4.896   0.216  -9.340  0.00  0.00     0.112 H 
ATOM     27  N   LIG d   1       2.439  -0.370  -7.343  0.00  0.00    -0.246 N 
ATOM     28  H   LIG d   1       2.459  -0.755  -9.479  0.00  0.00     0.112 H 
ATOM     29  H   LIG d   1       1.552  -0.667  -7.088  0.00  0.00     0.310 HD
ENDBRANCH  18  21
ENDBRANCH   8  18
ENDBRANCH   3   6
BRANCH   1  30
ATOM     30  C   LIG d   1       8.953   2.925  -3.951  0.00  0.00     0.041 A 
ATOM     31  C   LIG d   1       8.969   4.185  -4.561  0.00  0.00    -0.046 A 
ATOM     32  C   LIG d   1      10.007   5.045  -4.266  0.00  0.00    -0.021 A 
ATOM     33  H   LIG d   1       8.186   4.477  -5.247  0.00  0.00     0.063 H 
ATOM     34  C   LIG d   1      10.999   4.634  -3.377  0.00  0.00     0.119 A 
ATOM     35  H   LIG d   1      10.051   6.025  -4.719  0.00  0.00     0.065 H 
ATOM     36  N   LIG d   1      10.956   3.434  -2.821  0.00  0.00    -0.240 NA
ATOM     37  C   LIG d   1       9.978   2.586  -3.073  0.00  0.00     0.041 A 
ATOM     38  H   LIG d   1       9.976   1.617  -2.597  0.00  0.00     0.084 H 
BRANCH  34  39
ATOM     39  N   LIG d   1      12.046   5.494  -3.076  0.00  0.00    -0.327 N 
ATOM     40  H   LIG d   1      12.947   5.275  -3.357  0.00  0.00     0.147 HD
BRANCH  39  41
ATOM     41  C   LIG d   1      11.790   6.729  -2.332  0.00  0.00     0.034 C 
ATOM     42  H   LIG d   1      10.943   7.252  -2.775  0.00  0.00     0.048 H 
ATOM     43  H   LIG d   1      12.674   7.368  -2.373  0.00  0.00     0.048 H 
BRANCH  41  44
ATOM     44  C   LIG d   1      11.475   6.390  -0.874  0.00  0.00     0.063 C 
ATOM     45  H   LIG d   1      11.992   7.092  -0.219  0.00  0.00     0.058 H 
ATOM     46  H   LIG d   1      11.810   5.376  -0.656  0.00  0.00     0.058 H 
BRANCH  44  47
ATOM     47  O   LIG d   1      10.066   6.484  -0.656  0.00  0.00    -0.381 OA
BRANCH  47  48
ATOM     48  C   LIG d   1       9.422   7.491  -1.441  0.00  0.00     0.036 C 
ATOM     49  H   LIG d   1       8.639   7.034  -2.045  0.00  0.00     0.052 H 
ATOM     50  H   LIG d   1       8.982   8.239  -0.781  0.00  0.00     0.052 H 
ATOM     51  H   LIG d   1      10.154   7.966  -2.093  0.00  0.00     0.052 H 
ENDBRANCH  47  48
ENDBRANCH  44  47
ENDBRANCH  41  44
ENDBRANCH  39  41
ENDBRANCH  34  39
ENDBRANCH   1  30
TORSDOF 9
ENDMDL
MODEL 2
REMARK VINA RESULT:      -5.9      2.471      3.491
REMARK  9 active torsions:
REMARK  status: ('A' for Active; 'I' for Inactive)
REMARK    1  A    between atoms: C_1  and  O_2 
REMARK    2  A    between atoms: O_2  and  C_3 
REMARK    3  A    between atoms: C_3  and  C_4 
REMARK    4  A    between atoms: C_4  and  N_5 
REMARK    5  A    between atoms: N_5  and  C_6 
REMARK    6  A    between atoms: C_9  and  C_12 
REMARK    7  A    between atoms: C_14  and  C_17 
REMARK    8  A    between atoms: N_22  and  C_23 
REMARK    9  A    between atoms: C_23  and  C_24 
ROOT
ATOM      1  C   LIG d   1       8.858   2.107  -3.877  0.00  0.00     0.204 A 
ATOM      2  N   LIG d   1       7.603   1.870  -3.459  0.00  0.00    -0.190 NA
ATOM      3  C   LIG d   1       7.198   0.710  -3.893  0.00  0.00     0.245 A 
ATOM      4  O   LIG d   1       8.187   0.158  -4.610  0.00  0.00    -0.336 OA
ATOM      5  N   LIG d   1       9.261   1.086  -4.593  0.00  0.00    -0.056 NA
ENDROOT
BRANCH   3   6
ATOM      6  C   LIG d   1       5.849   0.093  -3.633  0.00  0.00     0.090 C 
ATOM      7  H   LIG d   1       5.214   0.174  -4.516  0.00  0.00     0.056 H 
ATOM      8  N   LIG d   1       5.993  -1.327  -3.221  0.00  0.00    -0.281 N 
ATOM      9  C   LIG d   1       4.753  -1.659  -2.483  0.00  0.00     0.000 C 
ATOM     10  C   LIG d   1       4.193  -0.338  -1.921  0.00  0.00    -0.038 C 
ATOM     11  H   LIG d   1       4.978  -2.343  -1.666  0.00  0.00     0.043 H 
ATOM     12  H   LIG d   1       4.030  -2.110  -3.161  0.00  0.00     0.043 H 
ATOM     13  C   LIG d   1       5.171   0.755  -2.409  0.00  0.00    -0.027 C 
ATOM     14  H   LIG d   1       4.172  -0.369  -0.832  0.00  0.00     0.028 H 
ATOM     15  H   LIG d   1       3.193  -0.154  -2.315  0.00  0.00     0.028 H 
ATOM     16  H   LIG d   1       5.907   0.985  -1.638  0.00  0.00     0.029 H 
ATOM     17  H   LIG d   1       4.629   1.653  -2.705  0.00  0.00     0.029 H 
BRANCH   8  18
ATOM     18  C   LIG d   1       6.163  -2.201  -4.390  0.00  0.00     0.102 C 
ATOM     19  H   LIG d   1       5.274  -2.819  -4.515  0.00  0.00     0.055 H 
ATOM     20  H   LIG d   1       6.310  -1.590  -5.281  0.00  0.00     0.055 H 
BRANCH  18  21
ATOM     21  C   LIG d   1       7.365  -3.086  -4.185  0.00  0.00     0.269 A 
ATOM     22  N   LIG d   1       7.560  -4.265  -4.754  0.00  0.00    -0.246 N 
ATOM     23  C   LIG d   1       8.745  -4.750  -4.327  0.00  0.00     0.128 A 
ATOM     24  H   LIG d   1       6.955  -4.704  -5.372  0.00  0.00     0.310 HD
ATOM     25  C   LIG d   1       9.267  -3.843  -3.478  0.00  0.00     0.128 A 
ATOM     26  H   LIG d   1       9.191  -5.690  -4.612  0.00  0.00     0.112 H 
ATOM     27  N   LIG d   1       8.397  -2.815  -3.401  0.00  0.00    -0.246 N 
ATOM     28  H   LIG d   1      10.209  -3.924  -2.955  0.00  0.00     0.112 H 
ATOM     29  H   LIG d   1       8.507  -2.015  -2.863  0.00  0.00     0.310 HD
ENDBRANCH  18  21
ENDBRANCH   8  18
ENDBRANCH   3   6
BRANCH   1  30
ATOM     30  C   LIG d   1       9.653   3.324  -3.582  0.00  0.00     0.041 A 
ATOM     31  C   LIG d   1       9.423   4.511  -4.289  0.00  0.00    -0.046 A 
ATOM     32  C   LIG d   1      10.186   5.618  -3.980  0.00  0.00    -0.021 A 
ATOM     33  H   LIG d   1       8.667   4.558  -5.059  0.00  0.00     0.063 H 
ATOM     34  C   LIG d   1      11.153   5.520  -2.980  0.00  0.00     0.119 A 
ATOM     35  H   LIG d   1      10.036   6.550  -4.505  0.00  0.00     0.065 H 
ATOM     36  N   LIG d   1      11.347   4.381  -2.334  0.00  0.00    -0.240 NA
ATOM     37  C   LIG d   1      10.635   3.304  -2.597  0.00  0.00     0.041 A 
ATOM     38  H   LIG d   1      10.820   2.394  -2.045  0.00  0.00     0.084 H 
BRANCH  34  39
ATOM     39  N   LIG d   1      11.925   6.630  -2.663  0.00  0.00    -0.327 N 
ATOM     40  H   LIG d   1      12.341   7.147  -3.369  0.00  0.00     0.147 HD
BRANCH  39  41
ATOM     41  C   LIG d   1      12.111   7.017  -1.263  0.00  0.00     0.034 C 
ATOM     42  H   LIG d   1      12.896   7.769  -1.195  0.00  0.00     0.048 H 
ATOM     43  H   LIG d   1      12.396   6.141  -0.679  0.00  0.00     0.048 H 
BRANCH  41  44
ATOM     44  C   LIG d   1      10.804   7.591  -0.714  0.00  0.00     0.063 C 
ATOM     45  H   LIG d   1      10.118   7.784  -1.539  0.00  0.00     0.058 H 
ATOM     46  H   LIG d   1      11.009   8.523  -0.187  0.00  0.00     0.058 H 
BRANCH  44  47
ATOM     47  O   LIG d   1      10.213   6.655   0.188  0.00  0.00    -0.381 OA
BRANCH  47  48
ATOM     48  C   LIG d   1      11.159   5.930   0.977  0.00  0.00     0.036 C 
ATOM     49  H   LIG d   1      12.122   6.438   0.947  0.00  0.00     0.052 H 
ATOM     50  H   LIG d   1      10.808   5.877   2.007  0.00  0.00     0.052 H 
ATOM     51  H   LIG d   1      11.267   4.921   0.577  0.00  0.00     0.052 H 
ENDBRANCH  47  48
ENDBRANCH  44  47
ENDBRANCH  41  44
ENDBRANCH  39  41
ENDBRANCH  34  39
ENDBRANCH   1  30
TORSDOF 9
ENDMDL
MODEL 3
REMARK VINA RESULT:      -5.7      1.110      1.433
REMARK  9 active torsions:
REMARK  status: ('A' for Active; 'I' for Inactive)
REMARK    1  A    between atoms: C_1  and  O_2 
REMARK    2  A    between atoms: O_2  and  C_3 
REMARK    3  A    between atoms: C_3  and  C_4 
REMARK    4  A    between atoms: C_4  and  N_5 
REMARK    5  A    between atoms: N_5  and  C_6 
REMARK    6  A    between atoms: C_9  and  C_12 
REMARK    7  A    between atoms: C_14  and  C_17 
REMARK    8  A    between atoms: N_22  and  C_23 
REMARK    9  A    between atoms: C_23  and  C_24 
ROOT
ATOM      1  C   LIG d   1       7.842   1.926  -4.421  0.00  0.00     0.204 A 
ATOM      2  N   LIG d   1       6.884   1.644  -3.522  0.00  0.00    -0.190 NA
ATOM      3  C   LIG d   1       6.088   0.724  -3.990  0.00  0.00     0.245 A 
ATOM      4  O   LIG d   1       6.510   0.382  -5.214  0.00  0.00    -0.336 OA
ATOM      5  N   LIG d   1       7.654   1.180  -5.482  0.00  0.00    -0.056 NA
ENDROOT
BRANCH   3   6
ATOM      6  C   LIG d   1       4.895   0.144  -3.276  0.00  0.00     0.090 C 
ATOM      7  H   LIG d   1       4.354   0.923  -2.738  0.00  0.00     0.056 H 
ATOM      8  N   LIG d   1       3.998  -0.552  -4.234  0.00  0.00    -0.281 N 
ATOM      9  C   LIG d   1       3.215  -1.513  -3.425  0.00  0.00     0.000 C 
ATOM     10  C   LIG d   1       4.050  -1.838  -2.172  0.00  0.00    -0.038 C 
ATOM     11  H   LIG d   1       3.036  -2.423  -3.998  0.00  0.00     0.043 H 
ATOM     12  H   LIG d   1       2.267  -1.063  -3.133  0.00  0.00     0.043 H 
ATOM     13  C   LIG d   1       5.332  -0.985  -2.310  0.00  0.00    -0.027 C 
ATOM     14  H   LIG d   1       4.303  -2.898  -2.151  0.00  0.00     0.028 H 
ATOM     15  H   LIG d   1       3.505  -1.559  -1.271  0.00  0.00     0.028 H 
ATOM     16  H   LIG d   1       6.142  -1.572  -2.743  0.00  0.00     0.029 H 
ATOM     17  H   LIG d   1       5.626  -0.574  -1.344  0.00  0.00     0.029 H 
BRANCH   8  18
ATOM     18  C   LIG d   1       3.118   0.404  -4.920  0.00  0.00     0.102 C 
ATOM     19  H   LIG d   1       2.085   0.227  -4.621  0.00  0.00     0.055 H 
ATOM     20  H   LIG d   1       3.405   1.421  -4.651  0.00  0.00     0.055 H 
BRANCH  18  21
ATOM     21  C   LIG d   1       3.246   0.224  -6.410  0.00  0.00     0.269 A 
ATOM     22  N   LIG d   1       2.362  -0.374  -7.193  0.00  0.00    -0.246 N 
ATOM     23  C   LIG d   1       2.826  -0.337  -8.460  0.00  0.00     0.128 A 
ATOM     24  H   LIG d   1       1.525  -0.770  -6.905  0.00  0.00     0.310 HD
ATOM     25  C   LIG d   1       4.017   0.292  -8.433  0.00  0.00     0.128 A 
ATOM     26  H   LIG d   1       2.334  -0.739  -9.333  0.00  0.00     0.112 H 
ATOM     27  N   LIG d   1       4.263   0.634  -7.152  0.00  0.00    -0.246 N 
ATOM     28  H   LIG d   1       4.658   0.486  -9.281  0.00  0.00     0.112 H 
ATOM     29  H   LIG d   1       5.050   1.100  -6.828  0.00  0.00     0.310 HD
ENDBRANCH  18  21
ENDBRANCH   8  18
ENDBRANCH   3   6
BRANCH   1  30
ATOM     30  C   LIG d   1       8.929   2.920  -4.244  0.00  0.00     0.041 A 
ATOM     31  C   LIG d   1       9.165   3.895  -5.222  0.00  0.00    -0.046 A 
ATOM     32  C   LIG d   1      10.186   4.799  -5.014  0.00  0.00    -0.021 A 
ATOM     33  H   LIG d   1       8.562   3.937  -6.117  0.00  0.00     0.063 H 
ATOM     34  C   LIG d   1      10.943   4.714  -3.847  0.00  0.00     0.119 A 
ATOM     35  H   LIG d   1      10.396   5.565  -5.747  0.00  0.00     0.065 H 
ATOM     36  N   LIG d   1      10.696   3.777  -2.945  0.00  0.00    -0.240 NA
ATOM     37  C   LIG d   1       9.726   2.898  -3.105  0.00  0.00     0.041 A 
ATOM     38  H   LIG d   1       9.553   2.151  -2.345  0.00  0.00     0.084 H 
BRANCH  34  39
ATOM     39  N   LIG d   1      11.972   5.620  -3.631  0.00  0.00    -0.327 N 
ATOM     40  H   LIG d   1      12.846   5.462  -4.020  0.00  0.00     0.147 HD
BRANCH  39  41
ATOM     41  C   LIG d   1      11.739   6.814  -2.815  0.00  0.00     0.034 C 
ATOM     42  H   LIG d   1      12.586   6.970  -2.148  0.00  0.00     0.048 H 
ATOM     43  H   LIG d   1      10.832   6.678  -2.224  0.00  0.00     0.048 H 
BRANCH  41  44
ATOM     44  C   LIG d   1      11.575   8.031  -3.726  0.00  0.00     0.063 C 
ATOM     45  H   LIG d   1      11.979   7.802  -4.713  0.00  0.00     0.058 H 
ATOM     46  H   LIG d   1      12.113   8.879  -3.301  0.00  0.00     0.058 H 
BRANCH  44  47
ATOM     47  O   LIG d   1      10.189   8.357  -3.843  0.00  0.00    -0.381 OA
BRANCH  47  48
ATOM     48  C   LIG d   1       9.741   8.520  -5.190  0.00  0.00     0.036 C 
ATOM     49  H   LIG d   1      10.084   7.679  -5.791  0.00  0.00     0.052 H 
ATOM     50  H   LIG d   1       8.652   8.559  -5.208  0.00  0.00     0.052 H 
ATOM     51  H   LIG d   1      10.145   9.447  -5.597  0.00  0.00     0.052 H 
ENDBRANCH  47  48
ENDBRANCH  44  47
ENDBRANCH  41  44
ENDBRANCH  39  41
ENDBRANCH  34  39
ENDBRANCH   1  30
TORSDOF 9
ENDMDL
MODEL 4
REMARK VINA RESULT:      -5.6      1.554      3.388
REMARK  9 active torsions:
REMARK  status: ('A' for Active; 'I' for Inactive)
REMARK    1  A    between atoms: C_1  and  O_2 
REMARK    2  A    between atoms: O_2  and  C_3 
REMARK    3  A    between atoms: C_3  and  C_4 
REMARK    4  A    between atoms: C_4  and  N_5 
REMARK    5  A    between atoms: N_5  and  C_6 
REMARK    6  A    between atoms: C_9  and  C_12 
REMARK    7  A    between atoms: C_14  and  C_17 
REMARK    8  A    between atoms: N_22  and  C_23 
REMARK    9  A    between atoms: C_23  and  C_24 
ROOT
ATOM      1  C   LIG d   1       8.401   1.456  -5.714  0.00  0.00     0.204 A 
ATOM      2  N   LIG d   1       7.241   1.492  -6.393  0.00  0.00    -0.190 NA
ATOM      3  C   LIG d   1       7.074   0.381  -7.052  0.00  0.00     0.245 A 
ATOM      4  O   LIG d   1       8.126  -0.413  -6.817  0.00  0.00    -0.336 OA
ATOM      5  N   LIG d   1       8.985   0.306  -5.945  0.00  0.00    -0.056 NA
ENDROOT
BRANCH   3   6
ATOM      6  C   LIG d   1       5.895   0.045  -7.928  0.00  0.00     0.090 C 
ATOM      7  H   LIG d   1       6.024  -0.938  -8.383  0.00  0.00     0.056 H 
ATOM      8  N   LIG d   1       4.631   0.100  -7.151  0.00  0.00    -0.281 N 
ATOM      9  C   LIG d   1       3.556   0.309  -8.147  0.00  0.00     0.000 C 
ATOM     10  C   LIG d   1       4.197   0.992  -9.370  0.00  0.00    -0.038 C 
ATOM     11  H   LIG d   1       2.780   0.950  -7.729  0.00  0.00     0.043 H 
ATOM     12  H   LIG d   1       3.131  -0.651  -8.438  0.00  0.00     0.043 H 
ATOM     13  C   LIG d   1       5.696   1.129  -9.016  0.00  0.00    -0.027 C 
ATOM     14  H   LIG d   1       3.755   1.975  -9.529  0.00  0.00     0.028 H 
ATOM     15  H   LIG d   1       4.073   0.372 -10.258  0.00  0.00     0.028 H 
ATOM     16  H   LIG d   1       5.908   2.120  -8.616  0.00  0.00     0.029 H 
ATOM     17  H   LIG d   1       6.317   0.922  -9.887  0.00  0.00     0.029 H 
BRANCH   8  18
ATOM     18  C   LIG d   1       4.421  -1.144  -6.397  0.00  0.00     0.102 C 
ATOM     19  H   LIG d   1       3.690  -1.764  -6.916  0.00  0.00     0.055 H 
ATOM     20  H   LIG d   1       5.364  -1.683  -6.317  0.00  0.00     0.055 H 
BRANCH  18  21
ATOM     21  C   LIG d   1       3.911  -0.815  -5.018  0.00  0.00     0.269 A 
ATOM     22  N   LIG d   1       3.997   0.365  -4.425  0.00  0.00    -0.246 N 
ATOM     23  C   LIG d   1       3.430   0.267  -3.204  0.00  0.00     0.128 A 
ATOM     24  H   LIG d   1       4.398   1.162  -4.804  0.00  0.00     0.310 HD
ATOM     25  C   LIG d   1       3.001  -1.003  -3.062  0.00  0.00     0.128 A 
ATOM     26  H   LIG d   1       3.339   1.059  -2.477  0.00  0.00     0.112 H 
ATOM     27  N   LIG d   1       3.308  -1.662  -4.197  0.00  0.00    -0.246 N 
ATOM     28  H   LIG d   1       2.504  -1.416  -2.196  0.00  0.00     0.112 H 
ATOM     29  H   LIG d   1       3.120  -2.595  -4.383  0.00  0.00     0.310 HD
ENDBRANCH  18  21
ENDBRANCH   8  18
ENDBRANCH   3   6
BRANCH   1  30
ATOM     30  C   LIG d   1       8.932   2.538  -4.850  0.00  0.00     0.041 A 
ATOM     31  C   LIG d   1       9.065   3.841  -5.346  0.00  0.00    -0.046 A 
ATOM     32  C   LIG d   1       9.564   4.816  -4.507  0.00  0.00    -0.021 A 
ATOM     33  H   LIG d   1       8.785   4.077  -6.363  0.00  0.00     0.063 H 
ATOM     34  C   LIG d   1       9.915   4.475  -3.202  0.00  0.00     0.119 A 
ATOM     35  H   LIG d   1       9.680   5.831  -4.856  0.00  0.00     0.065 H 
ATOM     36  N   LIG d   1       9.780   3.232  -2.766  0.00  0.00    -0.240 NA
ATOM     37  C   LIG d   1       9.303   2.274  -3.536  0.00  0.00     0.041 A 
ATOM     38  H   LIG d   1       9.205   1.273  -3.143  0.00  0.00     0.084 H 
BRANCH  34  39
ATOM     39  N   LIG d   1      10.417   5.450  -2.351  0.00  0.00    -0.327 N 
ATOM     40  H   LIG d   1      11.046   5.207  -1.655  0.00  0.00     0.147 HD
BRANCH  39  41
ATOM     41  C   LIG d   1       9.995   6.844  -2.504  0.00  0.00     0.034 C 
ATOM     42  H   LIG d   1       9.077   6.884  -3.089  0.00  0.00     0.048 H 
ATOM     43  H   LIG d   1      10.778   7.406  -3.015  0.00  0.00     0.048 H 
BRANCH  41  44
ATOM     44  C   LIG d   1       9.748   7.456  -1.124  0.00  0.00     0.063 C 
ATOM     45  H   LIG d   1       8.693   7.714  -1.026  0.00  0.00     0.058 H 
ATOM     46  H   LIG d   1      10.353   8.356  -1.012  0.00  0.00     0.058 H 
BRANCH  44  47
ATOM     47  O   LIG d   1      10.104   6.512  -0.113  0.00  0.00    -0.381 OA
BRANCH  47  48
ATOM     48  C   LIG d   1      11.079   6.993   0.815  0.00  0.00     0.036 C 
ATOM     49  H   LIG d   1      10.788   7.982   1.168  0.00  0.00     0.052 H 
ATOM     50  H   LIG d   1      11.144   6.310   1.661  0.00  0.00     0.052 H 
ATOM     51  H   LIG d   1      12.049   7.055   0.322  0.00  0.00     0.052 H 
ENDBRANCH  47  48
ENDBRANCH  44  47
ENDBRANCH  41  44
ENDBRANCH  39  41
ENDBRANCH  34  39
ENDBRANCH   1  30
TORSDOF 9
ENDMDL
MODEL 5
REMARK VINA RESULT:      -5.6      1.543      1.993
REMARK  9 active torsions:
REMARK  status: ('A' for Active; 'I' for Inactive)
REMARK    1  A    between atoms: C_1  and  O_2 
REMARK    2  A    between atoms: O_2  and  C_3 
REMARK    3  A    between atoms: C_3  and  C_4 
REMARK    4  A    between atoms: C_4  and  N_5 
REMARK    5  A    between atoms: N_5  and  C_6 
REMARK    6  A    between atoms: C_9  and  C_12 
REMARK    7  A    between atoms: C_14  and  C_17 
REMARK    8  A    between atoms: N_22  and  C_23 
REMARK    9  A    between atoms: C_23  and  C_24 
ROOT
ATOM      1  C   LIG d   1       7.873   1.948  -4.326  0.00  0.00     0.204 A 
ATOM      2  N   LIG d   1       6.911   1.629  -3.443  0.00  0.00    -0.190 NA
ATOM      3  C   LIG d   1       6.095   0.759  -3.966  0.00  0.00     0.245 A 
ATOM      4  O   LIG d   1       6.507   0.487  -5.211  0.00  0.00    -0.336 OA
ATOM      5  N   LIG d   1       7.667   1.275  -5.431  0.00  0.00    -0.056 NA
ENDROOT
BRANCH   3   6
ATOM      6  C   LIG d   1       4.891   0.159  -3.286  0.00  0.00     0.090 C 
ATOM      7  H   LIG d   1       4.323   0.930  -2.764  0.00  0.00     0.056 H 
ATOM      8  N   LIG d   1       4.033  -0.550  -4.269  0.00  0.00    -0.281 N 
ATOM      9  C   LIG d   1       3.242  -1.524  -3.483  0.00  0.00     0.000 C 
ATOM     10  C   LIG d   1       4.046  -1.836  -2.207  0.00  0.00    -0.038 C 
ATOM     11  H   LIG d   1       3.094  -2.436  -4.061  0.00  0.00     0.043 H 
ATOM     12  H   LIG d   1       2.279  -1.088  -3.218  0.00  0.00     0.043 H 
ATOM     13  C   LIG d   1       5.318  -0.962  -2.308  0.00  0.00    -0.027 C 
ATOM     14  H   LIG d   1       4.315  -2.892  -2.178  0.00  0.00     0.028 H 
ATOM     15  H   LIG d   1       3.471  -1.566  -1.322  0.00  0.00     0.028 H 
ATOM     16  H   LIG d   1       6.149  -1.537  -2.717  0.00  0.00     0.029 H 
ATOM     17  H   LIG d   1       5.578  -0.548  -1.334  0.00  0.00     0.029 H 
BRANCH   8  18
ATOM     18  C   LIG d   1       3.158   0.392  -4.980  0.00  0.00     0.102 C 
ATOM     19  H   LIG d   1       2.122   0.218  -4.688  0.00  0.00     0.055 H 
ATOM     20  H   LIG d   1       3.441   1.414  -4.726  0.00  0.00     0.055 H 
BRANCH  18  21
ATOM     21  C   LIG d   1       3.300   0.187  -6.466  0.00  0.00     0.269 A 
ATOM     22  N   LIG d   1       4.350   0.534  -7.194  0.00  0.00    -0.246 N 
ATOM     23  C   LIG d   1       4.107   0.188  -8.476  0.00  0.00     0.128 A 
ATOM     24  H   LIG d   1       5.155   0.961  -6.863  0.00  0.00     0.310 HD
ATOM     25  C   LIG d   1       2.882  -0.372  -8.516  0.00  0.00     0.128 A 
ATOM     26  H   LIG d   1       4.771   0.335  -9.314  0.00  0.00     0.112 H 
ATOM     27  N   LIG d   1       2.394  -0.364  -7.259  0.00  0.00    -0.246 N 
ATOM     28  H   LIG d   1       2.382  -0.755  -9.394  0.00  0.00     0.112 H 
ATOM     29  H   LIG d   1       1.529  -0.703  -6.981  0.00  0.00     0.310 HD
ENDBRANCH  18  21
ENDBRANCH   8  18
ENDBRANCH   3   6
BRANCH   1  30
ATOM     30  C   LIG d   1       8.981   2.905  -4.090  0.00  0.00     0.041 A 
ATOM     31  C   LIG d   1       9.070   4.087  -4.836  0.00  0.00    -0.046 A 
ATOM     32  C   LIG d   1      10.117   4.948  -4.582  0.00  0.00    -0.021 A 
ATOM     33  H   LIG d   1       8.335   4.318  -5.594  0.00  0.00     0.063 H 
ATOM     34  C   LIG d   1      11.046   4.617  -3.597  0.00  0.00     0.119 A 
ATOM     35  H   LIG d   1      10.216   5.868  -5.138  0.00  0.00     0.065 H 
ATOM     36  N   LIG d   1      10.936   3.489  -2.912  0.00  0.00    -0.240 NA
ATOM     37  C   LIG d   1       9.946   2.643  -3.122  0.00  0.00     0.041 A 
ATOM     38  H   LIG d   1       9.888   1.735  -2.541  0.00  0.00     0.084 H 
BRANCH  34  39
ATOM     39  N   LIG d   1      12.103   5.478  -3.335  0.00  0.00    -0.327 N 
ATOM     40  H   LIG d   1      12.021   6.147  -2.639  0.00  0.00     0.147 HD
BRANCH  39  41
ATOM     41  C   LIG d   1      13.341   5.376  -4.111  0.00  0.00     0.034 C 
ATOM     42  H   LIG d   1      13.470   6.276  -4.710  0.00  0.00     0.048 H 
ATOM     43  H   LIG d   1      13.287   4.507  -4.769  0.00  0.00     0.048 H 
BRANCH  41  44
ATOM     44  C   LIG d   1      14.528   5.221  -3.159  0.00  0.00     0.063 C 
ATOM     45  H   LIG d   1      14.428   5.928  -2.336  0.00  0.00     0.058 H 
ATOM     46  H   LIG d   1      15.455   5.420  -3.698  0.00  0.00     0.058 H 
BRANCH  44  47
ATOM     47  O   LIG d   1      14.555   3.889  -2.643  0.00  0.00    -0.381 OA
BRANCH  47  48
ATOM     48  C   LIG d   1      14.556   2.874  -3.649  0.00  0.00     0.036 C 
ATOM     49  H   LIG d   1      14.769   3.324  -4.618  0.00  0.00     0.052 H 
ATOM     50  H   LIG d   1      15.319   2.133  -3.416  0.00  0.00     0.052 H 
ATOM     51  H   LIG d   1      13.578   2.393  -3.679  0.00  0.00     0.052 H 
ENDBRANCH  47  48
ENDBRANCH  44  47
ENDBRANCH  41  44
ENDBRANCH  39  41
ENDBRANCH  34  39
ENDBRANCH   1  30
TORSDOF 9
ENDMDL
MODEL 6
REMARK VINA RESULT:      -5.6      1.788      3.862
REMARK  9 active torsions:
REMARK  status: ('A' for Active; 'I' for Inactive)
REMARK    1  A    between atoms: C_1  and  O_2 
REMARK    2  A    between atoms: O_2  and  C_3 
REMARK    3  A    between atoms: C_3  and  C_4 
REMARK    4  A    between atoms: C_4  and  N_5 
REMARK    5  A    between atoms: N_5  and  C_6 
REMARK    6  A    between atoms: C_9  and  C_12 
REMARK    7  A    between atoms: C_14  and  C_17 
REMARK    8  A    between atoms: N_22  and  C_23 
REMARK    9  A    between atoms: C_23  and  C_24 
ROOT
ATOM      1  C   LIG d   1       8.163   0.972  -6.567  0.00  0.00     0.204 A 
ATOM      2  N   LIG d   1       6.879   1.222  -6.874  0.00  0.00    -0.190 NA
ATOM      3  C   LIG d   1       6.542   0.571  -7.952  0.00  0.00     0.245 A 
ATOM      4  O   LIG d   1       7.605  -0.124  -8.376  0.00  0.00    -0.336 OA
ATOM      5  N   LIG d   1       8.657   0.153  -7.463  0.00  0.00    -0.056 NA
ENDROOT
BRANCH   3   6
ATOM      6  C   LIG d   1       5.187   0.596  -8.609  0.00  0.00     0.090 C 
ATOM      7  H   LIG d   1       5.039  -0.298  -9.216  0.00  0.00     0.056 H 
ATOM      8  N   LIG d   1       4.112   0.721  -7.590  0.00  0.00    -0.281 N 
ATOM      9  C   LIG d   1       2.943   1.278  -8.306  0.00  0.00     0.000 C 
ATOM     10  C   LIG d   1       3.483   2.051  -9.524  0.00  0.00    -0.038 C 
ATOM     11  H   LIG d   1       2.393   1.954  -7.652  0.00  0.00     0.043 H 
ATOM     12  H   LIG d   1       2.294   0.468  -8.639  0.00  0.00     0.043 H 
ATOM     13  C   LIG d   1       5.017   1.874  -9.467  0.00  0.00    -0.027 C 
ATOM     14  H   LIG d   1       3.221   3.107  -9.448  0.00  0.00     0.028 H 
ATOM     15  H   LIG d   1       3.087   1.628 -10.447  0.00  0.00     0.028 H 
ATOM     16  H   LIG d   1       5.487   2.730  -8.982  0.00  0.00     0.029 H 
ATOM     17  H   LIG d   1       5.425   1.725 -10.467  0.00  0.00     0.029 H 
BRANCH   8  18
ATOM     18  C   LIG d   1       3.797  -0.585  -6.995  0.00  0.00     0.102 C 
ATOM     19  H   LIG d   1       2.774  -0.863  -7.250  0.00  0.00     0.055 H 
ATOM     20  H   LIG d   1       4.486  -1.336  -7.381  0.00  0.00     0.055 H 
BRANCH  18  21
ATOM     21  C   LIG d   1       3.934  -0.500  -5.497  0.00  0.00     0.269 A 
ATOM     22  N   LIG d   1       3.169  -1.126  -4.616  0.00  0.00    -0.246 N 
ATOM     23  C   LIG d   1       3.600  -0.805  -3.378  0.00  0.00     0.128 A 
ATOM     24  H   LIG d   1       2.428  -1.715  -4.825  0.00  0.00     0.310 HD
ATOM     25  C   LIG d   1       4.642   0.038  -3.522  0.00  0.00     0.128 A 
ATOM     26  H   LIG d   1       3.186  -1.156  -2.446  0.00  0.00     0.112 H 
ATOM     27  N   LIG d   1       4.836   0.217  -4.845  0.00  0.00    -0.246 N 
ATOM     28  H   LIG d   1       5.215   0.489  -2.725  0.00  0.00     0.112 H 
ATOM     29  H   LIG d   1       5.518   0.775  -5.250  0.00  0.00     0.310 HD
ENDBRANCH  18  21
ENDBRANCH   8  18
ENDBRANCH   3   6
BRANCH   1  30
ATOM     30  C   LIG d   1       8.901   1.533  -5.409  0.00  0.00     0.041 A 
ATOM     31  C   LIG d   1       8.280   2.445  -4.545  0.00  0.00    -0.046 A 
ATOM     32  C   LIG d   1       9.004   2.940  -3.481  0.00  0.00    -0.021 A 
ATOM     33  H   LIG d   1       7.257   2.752  -4.710  0.00  0.00     0.063 H 
ATOM     34  C   LIG d   1      10.321   2.520  -3.301  0.00  0.00     0.119 A 
ATOM     35  H   LIG d   1       8.557   3.644  -2.795  0.00  0.00     0.065 H 
ATOM     36  N   LIG d   1      10.880   1.660  -4.139  0.00  0.00    -0.240 NA
ATOM     37  C   LIG d   1      10.219   1.160  -5.164  0.00  0.00     0.041 A 
ATOM     38  H   LIG d   1      10.707   0.458  -5.823  0.00  0.00     0.084 H 
BRANCH  34  39
ATOM     39  N   LIG d   1      11.057   3.014  -2.233  0.00  0.00    -0.327 N 
ATOM     40  H   LIG d   1      11.585   2.410  -1.689  0.00  0.00     0.147 HD
BRANCH  39  41
ATOM     41  C   LIG d   1      11.035   4.446  -1.927  0.00  0.00     0.034 C 
ATOM     42  H   LIG d   1      11.462   4.614  -0.939  0.00  0.00     0.048 H 
ATOM     43  H   LIG d   1      10.005   4.805  -1.943  0.00  0.00     0.048 H 
BRANCH  41  44
ATOM     44  C   LIG d   1      11.854   5.204  -2.973  0.00  0.00     0.063 C 
ATOM     45  H   LIG d   1      12.264   4.497  -3.694  0.00  0.00     0.058 H 
ATOM     46  H   LIG d   1      12.669   5.735  -2.481  0.00  0.00     0.058 H 
BRANCH  44  47
ATOM     47  O   LIG d   1      11.014   6.141  -3.649  0.00  0.00    -0.381 OA
BRANCH  47  48
ATOM     48  C   LIG d   1       9.831   6.490  -2.926  0.00  0.00     0.036 C 
ATOM     49  H   LIG d   1      10.094   7.130  -2.085  0.00  0.00     0.052 H 
ATOM     50  H   LIG d   1       9.145   7.021  -3.586  0.00  0.00     0.052 H 
ATOM     51  H   LIG d   1       9.352   5.583  -2.557  0.00  0.00     0.052 H 
ENDBRANCH  47  48
ENDBRANCH  44  47
ENDBRANCH  41  44
ENDBRANCH  39  41
ENDBRANCH  34  39
ENDBRANCH   1  30
TORSDOF 9
ENDMDL
MODEL 7
REMARK VINA RESULT:      -5.5      3.608     10.088
REMARK  9 active torsions:
REMARK  status: ('A' for Active; 'I' for Inactive)
REMARK    1  A    between atoms: C_1  and  O_2 
REMARK    2  A    between atoms: O_2  and  C_3 
REMARK    3  A    between atoms: C_3  and  C_4 
REMARK    4  A    between atoms: C_4  and  N_5 
REMARK    5  A    between atoms: N_5  and  C_6 
REMARK    6  A    between atoms: C_9  and  C_12 
REMARK    7  A    between atoms: C_14  and  C_17 
REMARK    8  A    between atoms: N_22  and  C_23 
REMARK    9  A    between atoms: C_23  and  C_24 
ROOT
ATOM      1  C   LIG d   1       3.135  -0.109  -7.872  0.00  0.00     0.204 A 
ATOM      2  N   LIG d   1       3.676  -0.884  -6.916  0.00  0.00    -0.190 NA
ATOM      3  C   LIG d   1       3.698  -0.244  -5.781  0.00  0.00     0.245 A 
ATOM      4  O   LIG d   1       3.169   0.972  -5.970  0.00  0.00    -0.336 OA
ATOM      5  N   LIG d   1       2.810   1.045  -7.342  0.00  0.00    -0.056 NA
ENDROOT
BRANCH   3   6
ATOM      6  C   LIG d   1       4.228  -0.780  -4.477  0.00  0.00     0.090 C 
ATOM      7  H   LIG d   1       4.527  -1.824  -4.585  0.00  0.00     0.056 H 
ATOM      8  N   LIG d   1       5.367   0.043  -3.995  0.00  0.00    -0.281 N 
ATOM      9  C   LIG d   1       5.443  -0.191  -2.536  0.00  0.00     0.000 C 
ATOM     10  C   LIG d   1       4.036  -0.612  -2.070  0.00  0.00    -0.038 C 
ATOM     11  H   LIG d   1       5.744   0.724  -2.027  0.00  0.00     0.043 H 
ATOM     12  H   LIG d   1       6.157  -0.987  -2.327  0.00  0.00     0.043 H 
ATOM     13  C   LIG d   1       3.174  -0.627  -3.353  0.00  0.00    -0.027 C 
ATOM     14  H   LIG d   1       3.641   0.113  -1.358  0.00  0.00     0.028 H 
ATOM     15  H   LIG d   1       4.067  -1.605  -1.623  0.00  0.00     0.028 H 
ATOM     16  H   LIG d   1       2.627   0.310  -3.462  0.00  0.00     0.029 H 
ATOM     17  H   LIG d   1       2.490  -1.476  -3.347  0.00  0.00     0.029 H 
BRANCH   8  18
ATOM     18  C   LIG d   1       6.618  -0.347  -4.661  0.00  0.00     0.102 C 
ATOM     19  H   LIG d   1       7.035  -1.224  -4.166  0.00  0.00     0.055 H 
ATOM     20  H   LIG d   1       6.416  -0.580  -5.706  0.00  0.00     0.055 H 
BRANCH  18  21
ATOM     21  C   LIG d   1       7.604   0.790  -4.582  0.00  0.00     0.269 A 
ATOM     22  N   LIG d   1       8.619   0.872  -3.736  0.00  0.00    -0.246 N 
ATOM     23  C   LIG d   1       9.272   2.030  -3.971  0.00  0.00     0.128 A 
ATOM     24  H   LIG d   1       8.852   0.214  -3.064  0.00  0.00     0.310 HD
ATOM     25  C   LIG d   1       8.629   2.656  -4.976  0.00  0.00     0.128 A 
ATOM     26  H   LIG d   1      10.146   2.388  -3.449  0.00  0.00     0.112 H 
ATOM     27  N   LIG d   1       7.595   1.873  -5.344  0.00  0.00    -0.246 N 
ATOM     28  H   LIG d   1       8.893   3.611  -5.407  0.00  0.00     0.112 H 
ATOM     29  H   LIG d   1       6.954   2.068  -6.045  0.00  0.00     0.310 HD
ENDBRANCH  18  21
ENDBRANCH   8  18
ENDBRANCH   3   6
BRANCH   1  30
ATOM     30  C   LIG d   1       2.943  -0.493  -9.291  0.00  0.00     0.041 A 
ATOM     31  C   LIG d   1       3.540   0.251 -10.316  0.00  0.00    -0.046 A 
ATOM     32  C   LIG d   1       3.334  -0.145 -11.622  0.00  0.00    -0.021 A 
ATOM     33  H   LIG d   1       4.148   1.115 -10.089  0.00  0.00     0.063 H 
ATOM     34  C   LIG d   1       2.544  -1.264 -11.876  0.00  0.00     0.119 A 
ATOM     35  H   LIG d   1       3.779   0.406 -12.437  0.00  0.00     0.065 H 
ATOM     36  N   LIG d   1       1.989  -1.943 -10.884  0.00  0.00    -0.240 NA
ATOM     37  C   LIG d   1       2.168  -1.600  -9.623  0.00  0.00     0.041 A 
ATOM     38  H   LIG d   1       1.702  -2.181  -8.841  0.00  0.00     0.084 H 
BRANCH  34  39
ATOM     39  N   LIG d   1       2.331  -1.669 -13.187  0.00  0.00    -0.327 N 
ATOM     40  H   LIG d   1       2.726  -1.169 -13.918  0.00  0.00     0.147 HD
BRANCH  39  41
ATOM     41  C   LIG d   1       1.509  -2.848 -13.466  0.00  0.00     0.034 C 
ATOM     42  H   LIG d   1       1.396  -3.437 -12.556  0.00  0.00     0.048 H 
ATOM     43  H   LIG d   1       1.993  -3.455 -14.233  0.00  0.00     0.048 H 
BRANCH  41  44
ATOM     44  C   LIG d   1       0.131  -2.405 -13.961  0.00  0.00     0.063 C 
ATOM     45  H   LIG d   1      -0.140  -2.983 -14.845  0.00  0.00     0.058 H 
ATOM     46  H   LIG d   1       0.160  -1.345 -14.215  0.00  0.00     0.058 H 
BRANCH  44  47
ATOM     47  O   LIG d   1      -0.838  -2.623 -12.934  0.00  0.00    -0.381 OA
BRANCH  47  48
ATOM     48  C   LIG d   1      -0.737  -3.900 -12.301  0.00  0.00     0.036 C 
ATOM     49  H   LIG d   1      -1.733  -4.254 -12.036  0.00  0.00     0.052 H 
ATOM     50  H   LIG d   1      -0.270  -4.609 -12.985  0.00  0.00     0.052 H 
ATOM     51  H   LIG d   1      -0.131  -3.811 -11.399  0.00  0.00     0.052 H 
ENDBRANCH  47  48
ENDBRANCH  44  47
ENDBRANCH  41  44
ENDBRANCH  39  41
ENDBRANCH  34  39
ENDBRANCH   1  30
TORSDOF 9
ENDMDL
MODEL 8
REMARK VINA RESULT:      -5.4      6.102      9.856
REMARK  9 active torsions:
REMARK  status: ('A' for Active; 'I' for Inactive)
REMARK    1  A    between atoms: C_1  and  O_2 
REMARK    2  A    between atoms: O_2  and  C_3 
REMARK    3  A    between atoms: C_3  and  C_4 
REMARK    4  A    between atoms: C_4  and  N_5 
REMARK    5  A    between atoms: N_5  and  C_6 
REMARK    6  A    between atoms: C_9  and  C_12 
REMARK    7  A    between atoms: C_14  and  C_17 
REMARK    8  A    between atoms: N_22  and  C_23 
REMARK    9  A    between atoms: C_23  and  C_24 
ROOT
ATOM      1  C   LIG d   1       9.682  10.100  -4.411  0.00  0.00     0.204 A 
ATOM      2  N   LIG d   1      10.136   9.416  -3.346  0.00  0.00    -0.190 NA
ATOM      3  C   LIG d   1      10.068  10.158  -2.277  0.00  0.00     0.245 A 
ATOM      4  O   LIG d   1       9.564  11.350  -2.620  0.00  0.00    -0.336 OA
ATOM      5  N   LIG d   1       9.322  11.297  -4.018  0.00  0.00    -0.056 NA
ENDROOT
BRANCH   3   6
ATOM      6  C   LIG d   1      10.484   9.744  -0.890  0.00  0.00     0.090 C 
ATOM      7  H   LIG d   1       9.662   9.882  -0.186  0.00  0.00     0.056 H 
ATOM      8  N   LIG d   1      10.950   8.333  -0.881  0.00  0.00    -0.281 N 
ATOM      9  C   LIG d   1      11.816   8.204   0.313  0.00  0.00     0.000 C 
ATOM     10  C   LIG d   1      12.363   9.608   0.630  0.00  0.00    -0.038 C 
ATOM     11  H   LIG d   1      12.641   7.523   0.102  0.00  0.00     0.043 H 
ATOM     12  H   LIG d   1      11.232   7.834   1.154  0.00  0.00     0.043 H 
ATOM     13  C   LIG d   1      11.734  10.537  -0.434  0.00  0.00    -0.027 C 
ATOM     14  H   LIG d   1      13.450   9.619   0.545  0.00  0.00     0.028 H 
ATOM     15  H   LIG d   1      12.058   9.916   1.630  0.00  0.00     0.028 H 
ATOM     16  H   LIG d   1      12.420  10.689  -1.267  0.00  0.00     0.029 H 
ATOM     17  H   LIG d   1      11.446  11.490   0.009  0.00  0.00     0.029 H 
BRANCH   8  18
ATOM     18  C   LIG d   1       9.813   7.404  -0.813  0.00  0.00     0.102 C 
ATOM     19  H   LIG d   1       9.697   7.044   0.209  0.00  0.00     0.055 H 
ATOM     20  H   LIG d   1       8.904   7.919  -1.123  0.00  0.00     0.055 H 
BRANCH  18  21
ATOM     21  C   LIG d   1      10.065   6.235  -1.731  0.00  0.00     0.269 A 
ATOM     22  N   LIG d   1      10.438   5.024  -1.350  0.00  0.00    -0.246 N 
ATOM     23  C   LIG d   1      10.560   4.254  -2.452  0.00  0.00     0.128 A 
ATOM     24  H   LIG d   1      10.595   4.739  -0.437  0.00  0.00     0.310 HD
ATOM     25  C   LIG d   1      10.260   5.025  -3.516  0.00  0.00     0.128 A 
ATOM     26  H   LIG d   1      10.847   3.214  -2.476  0.00  0.00     0.112 H 
ATOM     27  N   LIG d   1       9.955   6.253  -3.050  0.00  0.00    -0.246 N 
ATOM     28  H   LIG d   1      10.264   4.716  -4.551  0.00  0.00     0.112 H 
ATOM     29  H   LIG d   1       9.699   7.019  -3.588  0.00  0.00     0.310 HD
ENDBRANCH  18  21
ENDBRANCH   8  18
ENDBRANCH   3   6
BRANCH   1  30
ATOM     30  C   LIG d   1       9.606   9.586  -5.800  0.00  0.00     0.041 A 
ATOM     31  C   LIG d   1       9.333   8.234  -6.044  0.00  0.00    -0.046 A 
ATOM     32  C   LIG d   1       9.270   7.801  -7.352  0.00  0.00    -0.021 A 
ATOM     33  H   LIG d   1       9.175   7.546  -5.225  0.00  0.00     0.063 H 
ATOM     34  C   LIG d   1       9.480   8.717  -8.382  0.00  0.00     0.119 A 
ATOM     35  H   LIG d   1       9.062   6.765  -7.576  0.00  0.00     0.065 H 
ATOM     36  N   LIG d   1       9.740   9.988  -8.117  0.00  0.00    -0.240 NA
ATOM     37  C   LIG d   1       9.802  10.440  -6.881  0.00  0.00     0.041 A 
ATOM     38  H   LIG d   1      10.014  11.485  -6.705  0.00  0.00     0.084 H 
BRANCH  34  39
ATOM     39  N   LIG d   1       9.419   8.289  -9.701  0.00  0.00    -0.327 N 
ATOM     40  H   LIG d   1       8.968   8.832 -10.365  0.00  0.00     0.147 HD
BRANCH  39  41
ATOM     41  C   LIG d   1      10.034   7.017 -10.088  0.00  0.00     0.034 C 
ATOM     42  H   LIG d   1      10.325   6.466  -9.195  0.00  0.00     0.048 H 
ATOM     43  H   LIG d   1      10.918   7.212 -10.698  0.00  0.00     0.048 H 
BRANCH  41  44
ATOM     44  C   LIG d   1       9.032   6.190 -10.895  0.00  0.00     0.063 C 
ATOM     45  H   LIG d   1       9.570   5.491 -11.534  0.00  0.00     0.058 H 
ATOM     46  H   LIG d   1       8.426   6.854 -11.512  0.00  0.00     0.058 H 
BRANCH  44  47
ATOM     47  O   LIG d   1       8.185   5.465 -10.002  0.00  0.00    -0.381 OA
BRANCH  47  48
ATOM     48  C   LIG d   1       8.882   4.553  -9.150  0.00  0.00     0.036 C 
ATOM     49  H   LIG d   1       9.087   3.632  -9.694  0.00  0.00     0.052 H 
ATOM     50  H   LIG d   1       9.822   5.002  -8.830  0.00  0.00     0.052 H 
ATOM     51  H   LIG d   1       8.269   4.331  -8.277  0.00  0.00     0.052 H 
ENDBRANCH  47  48
ENDBRANCH  44  47
ENDBRANCH  41  44
ENDBRANCH  39  41
ENDBRANCH  34  39
ENDBRANCH   1  30
TORSDOF 9
ENDMDL
MODEL 9
REMARK VINA RESULT:      -5.3      6.080     10.338
REMARK  9 active torsions:
REMARK  status: ('A' for Active; 'I' for Inactive)
REMARK    1  A    between atoms: C_1  and  O_2 
REMARK    2  A    between atoms: O_2  and  C_3 
REMARK    3  A    between atoms: C_3  and  C_4 
REMARK    4  A    between atoms: C_4  and  N_5 
REMARK    5  A    between atoms: N_5  and  C_6 
REMARK    6  A    between atoms: C_9  and  C_12 
REMARK    7  A    between atoms: C_14  and  C_17 
REMARK    8  A    between atoms: N_22  and  C_23 
REMARK    9  A    between atoms: C_23  and  C_24 
ROOT
ATOM      1  C   LIG d   1       6.183  -4.721  -5.424  0.00  0.00     0.204 A 
ATOM      2  N   LIG d   1       5.340  -3.938  -4.728  0.00  0.00    -0.190 NA
ATOM      3  C   LIG d   1       5.742  -2.700  -4.770  0.00  0.00     0.245 A 
ATOM      4  O   LIG d   1       6.864  -2.643  -5.499  0.00  0.00    -0.336 OA
ATOM      5  N   LIG d   1       7.140  -3.973  -5.914  0.00  0.00    -0.056 NA
ENDROOT
BRANCH   3   6
ATOM      6  C   LIG d   1       5.060  -1.529  -4.112  0.00  0.00     0.090 C 
ATOM      7  H   LIG d   1       5.756  -0.697  -3.993  0.00  0.00     0.056 H 
ATOM      8  N   LIG d   1       3.869  -1.108  -4.894  0.00  0.00    -0.281 N 
ATOM      9  C   LIG d   1       2.998  -0.383  -3.941  0.00  0.00     0.000 C 
ATOM     10  C   LIG d   1       3.336  -0.905  -2.531  0.00  0.00    -0.038 C 
ATOM     11  H   LIG d   1       1.951  -0.581  -4.168  0.00  0.00     0.043 H 
ATOM     12  H   LIG d   1       3.198   0.686  -3.998  0.00  0.00     0.043 H 
ATOM     13  C   LIG d   1       4.463  -1.942  -2.744  0.00  0.00    -0.027 C 
ATOM     14  H   LIG d   1       2.463  -1.382  -2.086  0.00  0.00     0.028 H 
ATOM     15  H   LIG d   1       3.686  -0.089  -1.899  0.00  0.00     0.028 H 
ATOM     16  H   LIG d   1       4.055  -2.951  -2.790  0.00  0.00     0.029 H 
ATOM     17  H   LIG d   1       5.212  -1.863  -1.956  0.00  0.00     0.029 H 
BRANCH   8  18
ATOM     18  C   LIG d   1       4.256  -0.245  -6.019  0.00  0.00     0.102 C 
ATOM     19  H   LIG d   1       3.982   0.786  -5.797  0.00  0.00     0.055 H 
ATOM     20  H   LIG d   1       5.333  -0.311  -6.173  0.00  0.00     0.055 H 
BRANCH  18  21
ATOM     21  C   LIG d   1       3.542  -0.697  -7.266  0.00  0.00     0.269 A 
ATOM     22  N   LIG d   1       3.665  -1.885  -7.837  0.00  0.00    -0.246 N 
ATOM     23  C   LIG d   1       2.871  -1.914  -8.928  0.00  0.00     0.128 A 
ATOM     24  H   LIG d   1       4.228  -2.609  -7.525  0.00  0.00     0.310 HD
ATOM     25  C   LIG d   1       2.264  -0.713  -9.015  0.00  0.00     0.128 A 
ATOM     26  H   LIG d   1       2.746  -2.744  -9.607  0.00  0.00     0.112 H 
ATOM     27  N   LIG d   1       2.693   0.031  -7.975  0.00  0.00    -0.246 N 
ATOM     28  H   LIG d   1       1.565  -0.403  -9.778  0.00  0.00     0.112 H 
ATOM     29  H   LIG d   1       2.426   0.943  -7.778  0.00  0.00     0.310 HD
ENDBRANCH  18  21
ENDBRANCH   8  18
ENDBRANCH   3   6
BRANCH   1  30
ATOM     30  C   LIG d   1       6.054  -6.187  -5.602  0.00  0.00     0.041 A 
ATOM     31  C   LIG d   1       4.808  -6.761  -5.886  0.00  0.00    -0.046 A 
ATOM     32  C   LIG d   1       4.736  -8.130  -6.045  0.00  0.00    -0.021 A 
ATOM     33  H   LIG d   1       3.925  -6.146  -5.978  0.00  0.00     0.063 H 
ATOM     34  C   LIG d   1       5.897  -8.891  -5.918  0.00  0.00     0.119 A 
ATOM     35  H   LIG d   1       3.792  -8.606  -6.264  0.00  0.00     0.065 H 
ATOM     36  N   LIG d   1       7.059  -8.317  -5.645  0.00  0.00    -0.240 NA
ATOM     37  C   LIG d   1       7.169  -7.012  -5.492  0.00  0.00     0.041 A 
ATOM     38  H   LIG d   1       8.134  -6.581  -5.273  0.00  0.00     0.084 H 
BRANCH  34  39
ATOM     39  N   LIG d   1       5.833 -10.269  -6.076  0.00  0.00    -0.327 N 
ATOM     40  H   LIG d   1       6.092 -10.672  -6.919  0.00  0.00     0.147 HD
BRANCH  39  41
ATOM     41  C   LIG d   1       5.372 -11.113  -4.971  0.00  0.00     0.034 C 
ATOM     42  H   LIG d   1       5.270 -10.509  -4.070  0.00  0.00     0.048 H 
ATOM     43  H   LIG d   1       6.097 -11.908  -4.795  0.00  0.00     0.048 H 
BRANCH  41  44
ATOM     44  C   LIG d   1       4.018 -11.727  -5.329  0.00  0.00     0.063 C 
ATOM     45  H   LIG d   1       4.041 -12.799  -5.128  0.00  0.00     0.058 H 
ATOM     46  H   LIG d   1       3.811 -11.561  -6.387  0.00  0.00     0.058 H 
BRANCH  44  47
ATOM     47  O   LIG d   1       2.994 -11.117  -4.542  0.00  0.00    -0.381 OA
BRANCH  47  48
ATOM     48  C   LIG d   1       3.472 -10.490  -3.351  0.00  0.00     0.036 C 
ATOM     49  H   LIG d   1       3.966 -11.230  -2.723  0.00  0.00     0.052 H 
ATOM     50  H   LIG d   1       4.181  -9.705  -3.613  0.00  0.00     0.052 H 
ATOM     51  H   LIG d   1       2.633 -10.055  -2.807  0.00  0.00     0.052 H 
ENDBRANCH  47  48
ENDBRANCH  44  47
ENDBRANCH  41  44
ENDBRANCH  39  41
ENDBRANCH  34  39
ENDBRANCH   1  30
TORSDOF 9
ENDMDL
