MODEL 1
REMARK VINA RESULT:      -5.6      0.000      0.000
REMARK  9 active torsions:
REMARK  status: ('A' for Active; 'I' for Inactive)
REMARK    1  A    between atoms: C_1  and  N_47 
REMARK    2  A    between atoms: C_7  and  O_10 
REMARK    3  A    between atoms: C_8  and  O_9 
REMARK    4  A    between atoms: O_10  and  C_11 
REMARK    5  A    between atoms: C_12  and  C_15 
REMARK    6  A    between atoms: C_15  and  C_16 
REMARK    7  A    between atoms: C_20  and  O_23 
REMARK    8  A    between atoms: C_21  and  O_22 
REMARK    9  A    between atoms: O_23  and  C_24 
ROOT
ATOM      1  C   LIG d   1       9.618   9.462  -7.493  0.00  0.00    -0.002 C 
ATOM      2  C   LIG d   1       9.640   7.990  -7.815  0.00  0.00     0.046 A 
ATOM      3  C   LIG d   1       9.788   7.033  -6.832  0.00  0.00    -0.027 A 
ATOM      4  C   LIG d   1       9.798   5.689  -7.172  0.00  0.00    -0.054 A 
ATOM      5  C   LIG d   1       9.661   5.296  -8.489  0.00  0.00    -0.016 A 
ATOM      6  C   LIG d   1       9.516   6.253  -9.480  0.00  0.00     0.162 A 
ATOM      7  C   LIG d   1       9.511   7.601  -9.143  0.00  0.00     0.167 A 
ATOM      8  C   LIG d   1       9.943   7.408  -5.381  0.00  0.00     0.029 C 
ATOM      9  H   LIG d   1      10.989   7.306  -5.091  0.00  0.00     0.040 H 
ATOM     10  C   LIG d   1       9.497   8.855  -5.164  0.00  0.00    -0.025 C 
ATOM     11  H   LIG d   1       8.590   9.822  -7.527  0.00  0.00     0.087 H 
ATOM     12  H   LIG d   1      10.211  10.001  -8.232  0.00  0.00     0.087 H 
ATOM     13  H   LIG d   1       9.912   4.943  -6.400  0.00  0.00     0.062 H 
ATOM     14  H   LIG d   1       9.670   4.247  -8.745  0.00  0.00     0.066 H 
ATOM     15  H   LIG d   1       8.418   8.928  -5.293  0.00  0.00     0.082 H 
ATOM     16  H   LIG d   1       9.773   9.176  -4.160  0.00  0.00     0.082 H 
ATOM     17  N   LIG d   1      10.195   9.694  -6.159  0.00  0.00     0.237 N 
ATOM     18  H   LIG d   1      11.189   9.441  -6.174  0.00  0.00     0.203 HD
ENDROOT
BRANCH   8  19
ATOM     19  C   LIG d   1       9.085   6.478  -4.521  0.00  0.00    -0.012 C 
ATOM     20  H   LIG d   1       8.225   7.028  -4.138  0.00  0.00     0.032 H 
ATOM     21  H   LIG d   1       8.741   5.639  -5.125  0.00  0.00     0.032 H 
BRANCH  19  22
ATOM     22  C   LIG d   1       9.905   5.962  -3.367  0.00  0.00    -0.002 A 
ATOM     23  C   LIG d   1       9.711   6.476  -2.095  0.00  0.00     0.162 A 
ATOM     24  C   LIG d   1      10.470   5.997  -1.031  0.00  0.00     0.162 A 
ATOM     25  C   LIG d   1      11.416   5.009  -1.249  0.00  0.00    -0.016 A 
ATOM     26  C   LIG d   1      11.604   4.500  -2.520  0.00  0.00    -0.058 A 
ATOM     27  H   LIG d   1      12.006   4.635  -0.424  0.00  0.00     0.066 H 
ATOM     28  C   LIG d   1      10.847   4.971  -3.576  0.00  0.00    -0.055 A 
ATOM     29  H   LIG d   1      12.343   3.730  -2.689  0.00  0.00     0.062 H 
ATOM     30  H   LIG d   1      10.994   4.569  -4.567  0.00  0.00     0.062 H 
BRANCH  23  31
ATOM     31  O   LIG d   1       8.781   7.446  -1.886  0.00  0.00    -0.503 OA
ATOM     32  H   LIG d   1       9.144   8.342  -1.872  0.00  0.00     0.292 HD
ENDBRANCH  23  31
BRANCH  24  33
ATOM     33  O   LIG d   1      10.283   6.497   0.219  0.00  0.00    -0.491 OA
BRANCH  33  34
ATOM     34  C   LIG d   1      11.050   5.914   1.274  0.00  0.00     0.079 C 
ATOM     35  H   LIG d   1      10.867   6.459   2.200  0.00  0.00     0.066 H 
ATOM     36  H   LIG d   1      10.757   4.871   1.402  0.00  0.00     0.066 H 
ATOM     37  H   LIG d   1      12.109   5.965   1.025  0.00  0.00     0.066 H 
ENDBRANCH  33  34
ENDBRANCH  24  33
ENDBRANCH  19  22
ENDBRANCH   8  19
BRANCH  17  38
ATOM     38  C   LIG d   1      10.067  11.124  -5.794  0.00  0.00    -0.043 C 
ATOM     39  H   LIG d   1      10.487  11.734  -6.594  0.00  0.00     0.078 H 
ATOM     40  H   LIG d   1       9.011  11.367  -5.669  0.00  0.00     0.078 H 
ATOM     41  H   LIG d   1      10.598  11.327  -4.866  0.00  0.00     0.078 H 
ENDBRANCH  17  38
BRANCH   7  42
ATOM     42  O   LIG d   1       9.375   8.543 -10.114  0.00  0.00    -0.503 OA
ATOM     43  H   LIG d   1       8.866   8.246 -10.881  0.00  0.00     0.292 HD
ENDBRANCH   7  42
BRANCH   6  44
ATOM     44  O   LIG d   1       9.384   5.875 -10.780  0.00  0.00    -0.491 OA
BRANCH  44  45
ATOM     45  C   LIG d   1      10.042   4.669 -11.174  0.00  0.00     0.079 C 
ATOM     46  H   LIG d   1      10.361   4.753 -12.213  0.00  0.00     0.066 H 
ATOM     47  H   LIG d   1       9.356   3.829 -11.072  0.00  0.00     0.066 H 
ATOM     48  H   LIG d   1      10.913   4.506 -10.539  0.00  0.00     0.066 H 
ENDBRANCH  44  45
ENDBRANCH   6  44
TORSDOF 9
ENDMDL
MODEL 2
REMARK VINA RESULT:      -5.1      2.949      7.282
REMARK  9 active torsions:
REMARK  status: ('A' for Active; 'I' for Inactive)
REMARK    1  A    between atoms: C_1  and  N_47 
REMARK    2  A    between atoms: C_7  and  O_10 
REMARK    3  A    between atoms: C_8  and  O_9 
REMARK    4  A    between atoms: O_10  and  C_11 
REMARK    5  A    between atoms: C_12  and  C_15 
REMARK    6  A    between atoms: C_15  and  C_16 
REMARK    7  A    between atoms: C_20  and  O_23 
REMARK    8  A    between atoms: C_21  and  O_22 
REMARK    9  A    between atoms: O_23  and  C_24 
ROOT
ATOM      1  C   LIG d   1      11.168   4.316  -4.037  0.00  0.00    -0.002 C 
ATOM      2  C   LIG d   1      10.785   5.450  -3.122  0.00  0.00     0.046 A 
ATOM      3  C   LIG d   1      10.455   6.698  -3.609  0.00  0.00    -0.027 A 
ATOM      4  C   LIG d   1      10.104   7.712  -2.731  0.00  0.00    -0.054 A 
ATOM      5  C   LIG d   1      10.081   7.485  -1.369  0.00  0.00    -0.016 A 
ATOM      6  C   LIG d   1      10.414   6.235  -0.874  0.00  0.00     0.162 A 
ATOM      7  C   LIG d   1      10.771   5.218  -1.752  0.00  0.00     0.167 A 
ATOM      8  C   LIG d   1      10.468   6.999  -5.086  0.00  0.00     0.029 C 
ATOM      9  H   LIG d   1      11.364   7.570  -5.330  0.00  0.00     0.040 H 
ATOM     10  C   LIG d   1      10.466   5.695  -5.885  0.00  0.00    -0.025 C 
ATOM     11  H   LIG d   1      10.325   3.632  -4.134  0.00  0.00     0.087 H 
ATOM     12  H   LIG d   1      12.017   3.782  -3.612  0.00  0.00     0.087 H 
ATOM     13  H   LIG d   1       9.846   8.687  -3.116  0.00  0.00     0.062 H 
ATOM     14  H   LIG d   1       9.805   8.280  -0.692  0.00  0.00     0.066 H 
ATOM     15  H   LIG d   1       9.502   5.200  -5.773  0.00  0.00     0.082 H 
ATOM     16  H   LIG d   1      10.651   5.911  -6.937  0.00  0.00     0.082 H 
ATOM     17  N   LIG d   1      11.550   4.842  -5.358  0.00  0.00     0.237 N 
ATOM     18  H   LIG d   1      12.403   5.405  -5.262  0.00  0.00     0.203 HD
ENDROOT
BRANCH   8  19
ATOM     19  C   LIG d   1       9.229   7.819  -5.448  0.00  0.00    -0.012 C 
ATOM     20  H   LIG d   1       8.595   7.242  -6.120  0.00  0.00     0.032 H 
ATOM     21  H   LIG d   1       8.674   8.058  -4.541  0.00  0.00     0.032 H 
BRANCH  19  22
ATOM     22  C   LIG d   1       9.652   9.095  -6.129  0.00  0.00    -0.002 A 
ATOM     23  C   LIG d   1       9.401  10.318  -5.526  0.00  0.00     0.162 A 
ATOM     24  C   LIG d   1       9.793  11.495  -6.157  0.00  0.00     0.162 A 
ATOM     25  C   LIG d   1      10.431  11.439  -7.385  0.00  0.00    -0.016 A 
ATOM     26  C   LIG d   1      10.679  10.216  -7.981  0.00  0.00    -0.058 A 
ATOM     27  H   LIG d   1      10.737  12.351  -7.877  0.00  0.00     0.066 H 
ATOM     28  C   LIG d   1      10.295   9.047  -7.351  0.00  0.00    -0.055 A 
ATOM     29  H   LIG d   1      11.176  10.174  -8.939  0.00  0.00     0.062 H 
ATOM     30  H   LIG d   1      10.493   8.093  -7.818  0.00  0.00     0.062 H 
BRANCH  23  31
ATOM     31  O   LIG d   1       8.774  10.367  -4.320  0.00  0.00    -0.503 OA
ATOM     32  H   LIG d   1       7.865  10.036  -4.335  0.00  0.00     0.292 HD
ENDBRANCH  23  31
BRANCH  24  33
ATOM     33  O   LIG d   1       9.550  12.696  -5.570  0.00  0.00    -0.491 OA
BRANCH  33  34
ATOM     34  C   LIG d   1       9.823  13.865  -6.345  0.00  0.00     0.079 C 
ATOM     35  H   LIG d   1      10.632  13.656  -7.044  0.00  0.00     0.066 H 
ATOM     36  H   LIG d   1       8.928  14.151  -6.899  0.00  0.00     0.066 H 
ATOM     37  H   LIG d   1      10.116  14.680  -5.683  0.00  0.00     0.066 H 
ENDBRANCH  33  34
ENDBRANCH  24  33
ENDBRANCH  19  22
ENDBRANCH   8  19
BRANCH  17  38
ATOM     38  C   LIG d   1      11.814   3.724  -6.292  0.00  0.00    -0.043 C 
ATOM     39  H   LIG d   1      12.487   4.067  -7.077  0.00  0.00     0.078 H 
ATOM     40  H   LIG d   1      12.281   2.905  -5.745  0.00  0.00     0.078 H 
ATOM     41  H   LIG d   1      10.883   3.376  -6.738  0.00  0.00     0.078 H 
ENDBRANCH  17  38
BRANCH   7  42
ATOM     42  O   LIG d   1      11.104   3.991  -1.269  0.00  0.00    -0.503 OA
ATOM     43  H   LIG d   1      10.634   3.261  -1.693  0.00  0.00     0.292 HD
ENDBRANCH   7  42
BRANCH   6  44
ATOM     44  O   LIG d   1      10.395   6.004   0.466  0.00  0.00    -0.491 OA
BRANCH  44  45
ATOM     45  C   LIG d   1      11.182   6.872   1.284  0.00  0.00     0.079 C 
ATOM     46  H   LIG d   1      11.881   6.279   1.875  0.00  0.00     0.066 H 
ATOM     47  H   LIG d   1      10.529   7.435   1.950  0.00  0.00     0.066 H 
ATOM     48  H   LIG d   1      11.738   7.563   0.651  0.00  0.00     0.066 H 
ENDBRANCH  44  45
ENDBRANCH   6  44
TORSDOF 9
ENDMDL
MODEL 3
REMARK VINA RESULT:      -5.0      3.059      4.671
REMARK  9 active torsions:
REMARK  status: ('A' for Active; 'I' for Inactive)
REMARK    1  A    between atoms: C_1  and  N_47 
REMARK    2  A    between atoms: C_7  and  O_10 
REMARK    3  A    between atoms: C_8  and  O_9 
REMARK    4  A    between atoms: O_10  and  C_11 
REMARK    5  A    between atoms: C_12  and  C_15 
REMARK    6  A    between atoms: C_15  and  C_16 
REMARK    7  A    between atoms: C_20  and  O_23 
REMARK    8  A    between atoms: C_21  and  O_22 
REMARK    9  A    between atoms: O_23  and  C_24 
ROOT
ATOM      1  C   LIG d   1       8.033   1.372  -5.943  0.00  0.00    -0.002 C 
ATOM      2  C   LIG d   1       8.674   2.523  -6.674  0.00  0.00     0.046 A 
ATOM      3  C   LIG d   1       9.215   3.600  -6.003  0.00  0.00    -0.027 A 
ATOM      4  C   LIG d   1       9.800   4.636  -6.716  0.00  0.00    -0.054 A 
ATOM      5  C   LIG d   1       9.847   4.600  -8.096  0.00  0.00    -0.016 A 
ATOM      6  C   LIG d   1       9.302   3.522  -8.775  0.00  0.00     0.162 A 
ATOM      7  C   LIG d   1       8.711   2.485  -8.063  0.00  0.00     0.167 A 
ATOM      8  C   LIG d   1       9.187   3.690  -4.499  0.00  0.00     0.029 C 
ATOM      9  H   LIG d   1       8.409   4.388  -4.193  0.00  0.00     0.040 H 
ATOM     10  C   LIG d   1       8.897   2.314  -3.899  0.00  0.00    -0.025 C 
ATOM     11  H   LIG d   1       8.722   0.527  -5.929  0.00  0.00     0.087 H 
ATOM     12  H   LIG d   1       7.119   1.082  -6.459  0.00  0.00     0.087 H 
ATOM     13  H   LIG d   1      10.223   5.477  -6.188  0.00  0.00     0.062 H 
ATOM     14  H   LIG d   1      10.305   5.410  -8.644  0.00  0.00     0.066 H 
ATOM     15  H   LIG d   1       9.751   1.657  -4.062  0.00  0.00     0.082 H 
ATOM     16  H   LIG d   1       8.705   2.414  -2.831  0.00  0.00     0.082 H 
ATOM     17  N   LIG d   1       7.696   1.776  -4.568  0.00  0.00     0.237 N 
ATOM     18  H   LIG d   1       6.974   2.505  -4.599  0.00  0.00     0.203 HD
ENDROOT
BRANCH   8  19
ATOM     19  C   LIG d   1      10.543   4.188  -3.995  0.00  0.00    -0.012 C 
ATOM     20  H   LIG d   1      11.074   3.369  -3.509  0.00  0.00     0.032 H 
ATOM     21  H   LIG d   1      11.132   4.554  -4.836  0.00  0.00     0.032 H 
BRANCH  19  22
ATOM     22  C   LIG d   1      10.332   5.306  -3.007  0.00  0.00    -0.002 A 
ATOM     23  C   LIG d   1      10.625   5.111  -1.667  0.00  0.00     0.162 A 
ATOM     24  C   LIG d   1      10.429   6.145  -0.756  0.00  0.00     0.162 A 
ATOM     25  C   LIG d   1       9.941   7.365  -1.194  0.00  0.00    -0.016 A 
ATOM     26  C   LIG d   1       9.651   7.554  -2.532  0.00  0.00    -0.058 A 
ATOM     27  H   LIG d   1       9.789   8.170  -0.490  0.00  0.00     0.066 H 
ATOM     28  C   LIG d   1       9.851   6.529  -3.437  0.00  0.00    -0.055 A 
ATOM     29  H   LIG d   1       9.270   8.506  -2.873  0.00  0.00     0.062 H 
ATOM     30  H   LIG d   1       9.627   6.681  -4.483  0.00  0.00     0.062 H 
BRANCH  23  31
ATOM     31  O   LIG d   1      11.104   3.910  -1.242  0.00  0.00    -0.503 OA
ATOM     32  H   LIG d   1      10.749   3.152  -1.725  0.00  0.00     0.292 HD
ENDBRANCH  23  31
BRANCH  24  33
ATOM     33  O   LIG d   1      10.716   5.958   0.559  0.00  0.00    -0.491 OA
BRANCH  33  34
ATOM     34  C   LIG d   1      11.215   7.085   1.281  0.00  0.00     0.079 C 
ATOM     35  H   LIG d   1      10.482   7.891   1.248  0.00  0.00     0.066 H 
ATOM     36  H   LIG d   1      11.395   6.801   2.319  0.00  0.00     0.066 H 
ATOM     37  H   LIG d   1      12.147   7.423   0.830  0.00  0.00     0.066 H 
ENDBRANCH  33  34
ENDBRANCH  24  33
ENDBRANCH  19  22
ENDBRANCH   8  19
BRANCH  17  38
ATOM     38  C   LIG d   1       7.174   0.613  -3.813  0.00  0.00    -0.043 C 
ATOM     39  H   LIG d   1       6.108   0.756  -3.633  0.00  0.00     0.078 H 
ATOM     40  H   LIG d   1       7.324  -0.291  -4.403  0.00  0.00     0.078 H 
ATOM     41  H   LIG d   1       7.693   0.516  -2.861  0.00  0.00     0.078 H 
ENDBRANCH  17  38
BRANCH   7  42
ATOM     42  O   LIG d   1       8.170   1.429  -8.727  0.00  0.00    -0.503 OA
ATOM     43  H   LIG d   1       8.823   0.860  -9.158  0.00  0.00     0.292 HD
ENDBRANCH   7  42
BRANCH   6  44
ATOM     44  O   LIG d   1       9.342   3.481 -10.134  0.00  0.00    -0.491 OA
BRANCH  44  45
ATOM     45  C   LIG d   1       9.992   4.568 -10.797  0.00  0.00     0.079 C 
ATOM     46  H   LIG d   1       9.775   4.523 -11.864  0.00  0.00     0.066 H 
ATOM     47  H   LIG d   1      11.068   4.498 -10.642  0.00  0.00     0.066 H 
ATOM     48  H   LIG d   1       9.626   5.511 -10.391  0.00  0.00     0.066 H 
ENDBRANCH  44  45
ENDBRANCH   6  44
TORSDOF 9
ENDMDL
MODEL 4
REMARK VINA RESULT:      -5.0      2.603      7.607
REMARK  9 active torsions:
REMARK  status: ('A' for Active; 'I' for Inactive)
REMARK    1  A    between atoms: C_1  and  N_47 
REMARK    2  A    between atoms: C_7  and  O_10 
REMARK    3  A    between atoms: C_8  and  O_9 
REMARK    4  A    between atoms: O_10  and  C_11 
REMARK    5  A    between atoms: C_12  and  C_15 
REMARK    6  A    between atoms: C_15  and  C_16 
REMARK    7  A    between atoms: C_20  and  O_23 
REMARK    8  A    between atoms: C_21  and  O_22 
REMARK    9  A    between atoms: O_23  and  C_24 
ROOT
ATOM      1  C   LIG d   1      10.676   4.054  -2.287  0.00  0.00    -0.002 C 
ATOM      2  C   LIG d   1      10.616   5.511  -1.910  0.00  0.00     0.046 A 
ATOM      3  C   LIG d   1      10.361   6.494  -2.844  0.00  0.00    -0.027 A 
ATOM      4  C   LIG d   1      10.310   7.824  -2.451  0.00  0.00    -0.054 A 
ATOM      5  C   LIG d   1      10.513   8.174  -1.131  0.00  0.00    -0.016 A 
ATOM      6  C   LIG d   1      10.772   7.192  -0.190  0.00  0.00     0.162 A 
ATOM      7  C   LIG d   1      10.828   5.859  -0.581  0.00  0.00     0.167 A 
ATOM      8  C   LIG d   1      10.137   6.165  -4.297  0.00  0.00     0.029 C 
ATOM      9  H   LIG d   1      11.036   6.404  -4.864  0.00  0.00     0.040 H 
ATOM     10  C   LIG d   1       9.821   4.677  -4.453  0.00  0.00    -0.025 C 
ATOM     11  H   LIG d   1       9.750   3.565  -1.983  0.00  0.00     0.087 H 
ATOM     12  H   LIG d   1      11.515   3.583  -1.775  0.00  0.00     0.087 H 
ATOM     13  H   LIG d   1      10.110   8.590  -3.184  0.00  0.00     0.062 H 
ATOM     14  H   LIG d   1      10.471   9.212  -0.834  0.00  0.00     0.066 H 
ATOM     15  H   LIG d   1       8.841   4.465  -4.028  0.00  0.00     0.082 H 
ATOM     16  H   LIG d   1       9.833   4.410  -5.509  0.00  0.00     0.082 H 
ATOM     17  N   LIG d   1      10.868   3.918  -3.740  0.00  0.00     0.237 N 
ATOM     18  H   LIG d   1      11.789   4.296  -3.995  0.00  0.00     0.203 HD
ENDROOT
BRANCH   8  19
ATOM     19  C   LIG d   1       8.965   6.992  -4.830  0.00  0.00    -0.012 C 
ATOM     20  H   LIG d   1       8.148   6.326  -5.109  0.00  0.00     0.032 H 
ATOM     21  H   LIG d   1       8.624   7.680  -4.056  0.00  0.00     0.032 H 
BRANCH  19  22
ATOM     22  C   LIG d   1       9.410   7.775  -6.038  0.00  0.00    -0.002 A 
ATOM     23  C   LIG d   1       9.450   9.159  -5.990  0.00  0.00     0.162 A 
ATOM     24  C   LIG d   1       9.862   9.880  -7.107  0.00  0.00     0.162 A 
ATOM     25  C   LIG d   1      10.230   9.209  -8.262  0.00  0.00    -0.016 A 
ATOM     26  C   LIG d   1      10.189   7.828  -8.304  0.00  0.00    -0.058 A 
ATOM     27  H   LIG d   1      10.551   9.766  -9.130  0.00  0.00     0.066 H 
ATOM     28  C   LIG d   1       9.785   7.112  -7.192  0.00  0.00    -0.055 A 
ATOM     29  H   LIG d   1      10.475   7.307  -9.205  0.00  0.00     0.062 H 
ATOM     30  H   LIG d   1       9.758   6.033  -7.227  0.00  0.00     0.062 H 
BRANCH  23  31
ATOM     31  O   LIG d   1       9.088   9.812  -4.853  0.00  0.00    -0.503 OA
ATOM     32  H   LIG d   1       9.701   9.686  -4.115  0.00  0.00     0.292 HD
ENDBRANCH  23  31
BRANCH  24  33
ATOM     33  O   LIG d   1       9.904  11.238  -7.064  0.00  0.00    -0.491 OA
BRANCH  33  34
ATOM     34  C   LIG d   1      10.900  11.882  -7.860  0.00  0.00     0.079 C 
ATOM     35  H   LIG d   1      11.770  12.106  -7.241  0.00  0.00     0.066 H 
ATOM     36  H   LIG d   1      11.196  11.223  -8.677  0.00  0.00     0.066 H 
ATOM     37  H   LIG d   1      10.497  12.808  -8.268  0.00  0.00     0.066 H 
ENDBRANCH  33  34
ENDBRANCH  24  33
ENDBRANCH  19  22
ENDBRANCH   8  19
BRANCH  17  38
ATOM     38  C   LIG d   1      10.810   2.489  -4.127  0.00  0.00    -0.043 C 
ATOM     39  H   LIG d   1       9.776   2.151  -4.081  0.00  0.00     0.078 H 
ATOM     40  H   LIG d   1      11.182   2.381  -5.146  0.00  0.00     0.078 H 
ATOM     41  H   LIG d   1      11.420   1.890  -3.453  0.00  0.00     0.078 H 
ENDBRANCH  17  38
BRANCH   7  42
ATOM     42  O   LIG d   1      11.089   4.893   0.339  0.00  0.00    -0.503 OA
ATOM     43  H   LIG d   1      10.300   4.543   0.775  0.00  0.00     0.292 HD
ENDBRANCH   7  42
BRANCH   6  44
ATOM     44  O   LIG d   1      10.974   7.529   1.112  0.00  0.00    -0.491 OA
BRANCH  44  45
ATOM     45  C   LIG d   1      11.725   8.720   1.364  0.00  0.00     0.079 C 
ATOM     46  H   LIG d   1      11.376   9.515   0.705  0.00  0.00     0.066 H 
ATOM     47  H   LIG d   1      12.781   8.530   1.176  0.00  0.00     0.066 H 
ATOM     48  H   LIG d   1      11.588   9.022   2.401  0.00  0.00     0.066 H 
ENDBRANCH  44  45
ENDBRANCH   6  44
TORSDOF 9
ENDMDL
MODEL 5
REMARK VINA RESULT:      -5.0      8.379     11.384
REMARK  9 active torsions:
REMARK  status: ('A' for Active; 'I' for Inactive)
REMARK    1  A    between atoms: C_1  and  N_47 
REMARK    2  A    between atoms: C_7  and  O_10 
REMARK    3  A    between atoms: C_8  and  O_9 
REMARK    4  A    between atoms: O_10  and  C_11 
REMARK    5  A    between atoms: C_12  and  C_15 
REMARK    6  A    between atoms: C_15  and  C_16 
REMARK    7  A    between atoms: C_20  and  O_23 
REMARK    8  A    between atoms: C_21  and  O_22 
REMARK    9  A    between atoms: O_23  and  C_24 
ROOT
ATOM      1  C   LIG d   1       4.766  -0.593  -3.889  0.00  0.00    -0.002 C 
ATOM      2  C   LIG d   1       5.750  -0.590  -5.030  0.00  0.00     0.046 A 
ATOM      3  C   LIG d   1       5.345  -0.426  -6.339  0.00  0.00    -0.027 A 
ATOM      4  C   LIG d   1       6.286  -0.425  -7.358  0.00  0.00    -0.054 A 
ATOM      5  C   LIG d   1       7.628  -0.586  -7.075  0.00  0.00    -0.016 A 
ATOM      6  C   LIG d   1       8.039  -0.754  -5.763  0.00  0.00     0.162 A 
ATOM      7  C   LIG d   1       7.099  -0.760  -4.740  0.00  0.00     0.167 A 
ATOM      8  C   LIG d   1       3.893  -0.250  -6.701  0.00  0.00     0.029 C 
ATOM      9  H   LIG d   1       3.507  -1.184  -7.108  0.00  0.00     0.040 H 
ATOM     10  C   LIG d   1       3.088   0.133  -5.459  0.00  0.00    -0.025 C 
ATOM     11  H   LIG d   1       4.806   0.369  -3.377  0.00  0.00     0.087 H 
ATOM     12  H   LIG d   1       5.031  -1.383  -3.188  0.00  0.00     0.087 H 
ATOM     13  H   LIG d   1       5.966  -0.296  -8.381  0.00  0.00     0.062 H 
ATOM     14  H   LIG d   1       8.354  -0.583  -7.875  0.00  0.00     0.066 H 
ATOM     15  H   LIG d   1       3.357   1.141  -5.145  0.00  0.00     0.082 H 
ATOM     16  H   LIG d   1       2.023   0.088  -5.686  0.00  0.00     0.082 H 
ATOM     17  N   LIG d   1       3.407  -0.842  -4.397  0.00  0.00     0.237 N 
ATOM     18  H   LIG d   1       3.363  -1.790  -4.788  0.00  0.00     0.203 HD
ENDROOT
BRANCH   8  19
ATOM     19  C   LIG d   1       3.762   0.854  -7.752  0.00  0.00    -0.012 C 
ATOM     20  H   LIG d   1       3.073   1.618  -7.393  0.00  0.00     0.032 H 
ATOM     21  H   LIG d   1       4.740   1.303  -7.931  0.00  0.00     0.032 H 
BRANCH  19  22
ATOM     22  C   LIG d   1       3.237   0.267  -9.036  0.00  0.00    -0.002 A 
ATOM     23  C   LIG d   1       3.918   0.479 -10.224  0.00  0.00     0.162 A 
ATOM     24  C   LIG d   1       3.430  -0.065 -11.409  0.00  0.00     0.162 A 
ATOM     25  C   LIG d   1       2.267  -0.817 -11.395  0.00  0.00    -0.016 A 
ATOM     26  C   LIG d   1       1.593  -1.025 -10.206  0.00  0.00    -0.058 A 
ATOM     27  H   LIG d   1       1.887  -1.241 -12.313  0.00  0.00     0.066 H 
ATOM     28  C   LIG d   1       2.080  -0.490  -9.029  0.00  0.00    -0.055 A 
ATOM     29  H   LIG d   1       0.685  -1.611 -10.196  0.00  0.00     0.062 H 
ATOM     30  H   LIG d   1       1.552  -0.658  -8.101  0.00  0.00     0.062 H 
BRANCH  23  31
ATOM     31  O   LIG d   1       5.060   1.217 -10.233  0.00  0.00    -0.503 OA
ATOM     32  H   LIG d   1       5.102   1.869 -10.946  0.00  0.00     0.292 HD
ENDBRANCH  23  31
BRANCH  24  33
ATOM     33  O   LIG d   1       4.095   0.139 -12.577  0.00  0.00    -0.491 OA
BRANCH  33  34
ATOM     34  C   LIG d   1       4.936  -0.919 -13.039  0.00  0.00     0.079 C 
ATOM     35  H   LIG d   1       5.783  -0.498 -13.582  0.00  0.00     0.066 H 
ATOM     36  H   LIG d   1       5.300  -1.493 -12.187  0.00  0.00     0.066 H 
ATOM     37  H   LIG d   1       4.369  -1.572 -13.702  0.00  0.00     0.066 H 
ENDBRANCH  33  34
ENDBRANCH  24  33
ENDBRANCH  19  22
ENDBRANCH   8  19
BRANCH  17  38
ATOM     38  C   LIG d   1       2.426  -0.729  -3.294  0.00  0.00    -0.043 C 
ATOM     39  H   LIG d   1       1.888  -1.673  -3.200  0.00  0.00     0.078 H 
ATOM     40  H   LIG d   1       2.956  -0.520  -2.365  0.00  0.00     0.078 H 
ATOM     41  H   LIG d   1       1.718   0.073  -3.497  0.00  0.00     0.078 H 
ENDBRANCH  17  38
BRANCH   7  42
ATOM     42  O   LIG d   1       7.499  -0.931  -3.452  0.00  0.00    -0.503 OA
ATOM     43  H   LIG d   1       7.644  -1.854  -3.205  0.00  0.00     0.292 HD
ENDBRANCH   7  42
BRANCH   6  44
ATOM     44  O   LIG d   1       9.359  -0.915  -5.477  0.00  0.00    -0.491 OA
BRANCH  44  45
ATOM     45  C   LIG d   1      10.294  -0.526  -6.486  0.00  0.00     0.079 C 
ATOM     46  H   LIG d   1      11.178  -0.096  -6.015  0.00  0.00     0.066 H 
ATOM     47  H   LIG d   1       9.835   0.213  -7.141  0.00  0.00     0.066 H 
ATOM     48  H   LIG d   1      10.582  -1.400  -7.070  0.00  0.00     0.066 H 
ENDBRANCH  44  45
ENDBRANCH   6  44
TORSDOF 9
ENDMDL
MODEL 6
REMARK VINA RESULT:      -5.0     10.585     11.999
REMARK  9 active torsions:
REMARK  status: ('A' for Active; 'I' for Inactive)
REMARK    1  A    between atoms: C_1  and  N_47 
REMARK    2  A    between atoms: C_7  and  O_10 
REMARK    3  A    between atoms: C_8  and  O_9 
REMARK    4  A    between atoms: O_10  and  C_11 
REMARK    5  A    between atoms: C_12  and  C_15 
REMARK    6  A    between atoms: C_15  and  C_16 
REMARK    7  A    between atoms: C_20  and  O_23 
REMARK    8  A    between atoms: C_21  and  O_22 
REMARK    9  A    between atoms: O_23  and  C_24 
ROOT
ATOM      1  C   LIG d   1       5.318  -0.520  -3.538  0.00  0.00    -0.002 C 
ATOM      2  C   LIG d   1       6.604  -0.713  -4.299  0.00  0.00     0.046 A 
ATOM      3  C   LIG d   1       6.977  -1.944  -4.797  0.00  0.00    -0.027 A 
ATOM      4  C   LIG d   1       8.167  -2.075  -5.497  0.00  0.00    -0.054 A 
ATOM      5  C   LIG d   1       8.986  -0.982  -5.700  0.00  0.00    -0.016 A 
ATOM      6  C   LIG d   1       8.618   0.256  -5.199  0.00  0.00     0.162 A 
ATOM      7  C   LIG d   1       7.428   0.390  -4.494  0.00  0.00     0.167 A 
ATOM      8  C   LIG d   1       6.121  -3.168  -4.600  0.00  0.00     0.029 C 
ATOM      9  H   LIG d   1       6.555  -3.790  -3.817  0.00  0.00     0.040 H 
ATOM     10  C   LIG d   1       4.706  -2.757  -4.194  0.00  0.00    -0.025 C 
ATOM     11  H   LIG d   1       4.582  -0.050  -4.190  0.00  0.00     0.087 H 
ATOM     12  H   LIG d   1       5.501   0.125  -2.679  0.00  0.00     0.087 H 
ATOM     13  H   LIG d   1       8.456  -3.040  -5.886  0.00  0.00     0.062 H 
ATOM     14  H   LIG d   1       9.911  -1.092  -6.246  0.00  0.00     0.066 H 
ATOM     15  H   LIG d   1       4.209  -2.278  -5.037  0.00  0.00     0.082 H 
ATOM     16  H   LIG d   1       4.143  -3.638  -3.884  0.00  0.00     0.082 H 
ATOM     17  N   LIG d   1       4.818  -1.819  -3.059  0.00  0.00     0.237 N 
ATOM     18  H   LIG d   1       5.478  -2.201  -2.372  0.00  0.00     0.203 HD
ENDROOT
BRANCH   8  19
ATOM     19  C   LIG d   1       6.064  -3.964  -5.906  0.00  0.00    -0.012 C 
ATOM     20  H   LIG d   1       5.091  -3.822  -6.375  0.00  0.00     0.032 H 
ATOM     21  H   LIG d   1       6.847  -3.614  -6.579  0.00  0.00     0.032 H 
BRANCH  19  22
ATOM     22  C   LIG d   1       6.272  -5.427  -5.612  0.00  0.00    -0.002 A 
ATOM     23  C   LIG d   1       5.186  -6.286  -5.570  0.00  0.00     0.162 A 
ATOM     24  C   LIG d   1       5.381  -7.638  -5.299  0.00  0.00     0.162 A 
ATOM     25  C   LIG d   1       6.661  -8.117  -5.072  0.00  0.00    -0.016 A 
ATOM     26  C   LIG d   1       7.740  -7.255  -5.116  0.00  0.00    -0.058 A 
ATOM     27  H   LIG d   1       6.815  -9.165  -4.862  0.00  0.00     0.066 H 
ATOM     28  C   LIG d   1       7.547  -5.914  -5.391  0.00  0.00    -0.055 A 
ATOM     29  H   LIG d   1       8.738  -7.630  -4.938  0.00  0.00     0.062 H 
ATOM     30  H   LIG d   1       8.394  -5.243  -5.427  0.00  0.00     0.062 H 
BRANCH  23  31
ATOM     31  O   LIG d   1       3.932  -5.811  -5.795  0.00  0.00    -0.503 OA
ATOM     32  H   LIG d   1       3.899  -4.863  -5.985  0.00  0.00     0.292 HD
ENDBRANCH  23  31
BRANCH  24  33
ATOM     33  O   LIG d   1       4.319  -8.485  -5.258  0.00  0.00    -0.491 OA
BRANCH  33  34
ATOM     34  C   LIG d   1       4.411  -9.598  -4.368  0.00  0.00     0.079 C 
ATOM     35  H   LIG d   1       5.436  -9.970  -4.356  0.00  0.00     0.066 H 
ATOM     36  H   LIG d   1       4.126  -9.285  -3.363  0.00  0.00     0.066 H 
ATOM     37  H   LIG d   1       3.742 -10.390  -4.705  0.00  0.00     0.066 H 
ENDBRANCH  33  34
ENDBRANCH  24  33
ENDBRANCH  19  22
ENDBRANCH   8  19
BRANCH  17  38
ATOM     38  C   LIG d   1       3.497  -1.646  -2.413  0.00  0.00    -0.043 C 
ATOM     39  H   LIG d   1       2.972  -0.820  -2.893  0.00  0.00     0.078 H 
ATOM     40  H   LIG d   1       2.918  -2.562  -2.533  0.00  0.00     0.078 H 
ATOM     41  H   LIG d   1       3.619  -1.431  -1.352  0.00  0.00     0.078 H 
ENDBRANCH  17  38
BRANCH   7  42
ATOM     42  O   LIG d   1       7.067   1.602  -3.996  0.00  0.00    -0.503 OA
ATOM     43  H   LIG d   1       6.175   1.879  -4.245  0.00  0.00     0.292 HD
ENDBRANCH   7  42
BRANCH   6  44
ATOM     44  O   LIG d   1       9.421   1.337  -5.393  0.00  0.00    -0.491 OA
BRANCH  44  45
ATOM     45  C   LIG d   1      10.645   1.376  -4.657  0.00  0.00     0.079 C 
ATOM     46  H   LIG d   1      11.047   0.367  -4.567  0.00  0.00     0.066 H 
ATOM     47  H   LIG d   1      10.459   1.783  -3.664  0.00  0.00     0.066 H 
ATOM     48  H   LIG d   1      11.363   2.008  -5.181  0.00  0.00     0.066 H 
ENDBRANCH  44  45
ENDBRANCH   6  44
TORSDOF 9
ENDMDL
MODEL 7
REMARK VINA RESULT:      -4.9      1.866      6.861
REMARK  9 active torsions:
REMARK  status: ('A' for Active; 'I' for Inactive)
REMARK    1  A    between atoms: C_1  and  N_47 
REMARK    2  A    between atoms: C_7  and  O_10 
REMARK    3  A    between atoms: C_8  and  O_9 
REMARK    4  A    between atoms: O_10  and  C_11 
REMARK    5  A    between atoms: C_12  and  C_15 
REMARK    6  A    between atoms: C_15  and  C_16 
REMARK    7  A    between atoms: C_20  and  O_23 
REMARK    8  A    between atoms: C_21  and  O_22 
REMARK    9  A    between atoms: O_23  and  C_24 
ROOT
ATOM      1  C   LIG d   1       9.852   9.776  -3.128  0.00  0.00    -0.002 C 
ATOM      2  C   LIG d   1       9.946   8.301  -2.831  0.00  0.00     0.046 A 
ATOM      3  C   LIG d   1       9.927   7.355  -3.834  0.00  0.00    -0.027 A 
ATOM      4  C   LIG d   1      10.021   6.008  -3.516  0.00  0.00    -0.054 A 
ATOM      5  C   LIG d   1      10.133   5.604  -2.200  0.00  0.00    -0.016 A 
ATOM      6  C   LIG d   1      10.149   6.550  -1.189  0.00  0.00     0.162 A 
ATOM      7  C   LIG d   1      10.050   7.899  -1.504  0.00  0.00     0.167 A 
ATOM      8  C   LIG d   1       9.803   7.743  -5.285  0.00  0.00     0.029 C 
ATOM      9  H   LIG d   1       8.785   7.555  -5.623  0.00  0.00     0.040 H 
ATOM     10  C   LIG d   1      10.129   9.227  -5.458  0.00  0.00    -0.025 C 
ATOM     11  H   LIG d   1      10.842  10.223  -3.041  0.00  0.00     0.087 H 
ATOM     12  H   LIG d   1       9.182  10.245  -2.408  0.00  0.00     0.087 H 
ATOM     13  H   LIG d   1      10.007   5.270  -4.304  0.00  0.00     0.062 H 
ATOM     14  H   LIG d   1      10.207   4.553  -1.961  0.00  0.00     0.066 H 
ATOM     15  H   LIG d   1      11.191   9.392  -5.279  0.00  0.00     0.082 H 
ATOM     16  H   LIG d   1       9.871   9.543  -6.469  0.00  0.00     0.082 H 
ATOM     17  N   LIG d   1       9.317   9.983  -4.483  0.00  0.00     0.237 N 
ATOM     18  H   LIG d   1       8.349   9.643  -4.518  0.00  0.00     0.203 HD
ENDROOT
BRANCH   8  19
ATOM     19  C   LIG d   1      10.778   6.909  -6.119  0.00  0.00    -0.012 C 
ATOM     20  H   LIG d   1      11.588   7.545  -6.474  0.00  0.00     0.032 H 
ATOM     21  H   LIG d   1      11.188   6.107  -5.505  0.00  0.00     0.032 H 
BRANCH  19  22
ATOM     22  C   LIG d   1      10.050   6.316  -7.298  0.00  0.00    -0.002 A 
ATOM     23  C   LIG d   1       9.891   4.943  -7.394  0.00  0.00     0.162 A 
ATOM     24  C   LIG d   1       9.218   4.398  -8.484  0.00  0.00     0.162 A 
ATOM     25  C   LIG d   1       8.711   5.232  -9.468  0.00  0.00    -0.016 A 
ATOM     26  C   LIG d   1       8.873   6.600  -9.366  0.00  0.00    -0.058 A 
ATOM     27  H   LIG d   1       8.189   4.811 -10.314  0.00  0.00     0.066 H 
ATOM     28  C   LIG d   1       9.536   7.142  -8.280  0.00  0.00    -0.055 A 
ATOM     29  H   LIG d   1       8.478   7.249 -10.134  0.00  0.00     0.062 H 
ATOM     30  H   LIG d   1       9.658   8.213  -8.202  0.00  0.00     0.062 H 
BRANCH  23  31
ATOM     31  O   LIG d   1      10.390   4.130  -6.425  0.00  0.00    -0.503 OA
ATOM     32  H   LIG d   1      10.271   4.468  -5.527  0.00  0.00     0.292 HD
ENDBRANCH  23  31
BRANCH  24  33
ATOM     33  O   LIG d   1       9.059   3.052  -8.583  0.00  0.00    -0.491 OA
BRANCH  33  34
ATOM     34  C   LIG d   1       9.451   2.440  -9.813  0.00  0.00     0.079 C 
ATOM     35  H   LIG d   1       8.829   1.564  -9.997  0.00  0.00     0.066 H 
ATOM     36  H   LIG d   1       9.326   3.152 -10.629  0.00  0.00     0.066 H 
ATOM     37  H   LIG d   1      10.496   2.137  -9.751  0.00  0.00     0.066 H 
ENDBRANCH  33  34
ENDBRANCH  24  33
ENDBRANCH  19  22
ENDBRANCH   8  19
BRANCH  17  38
ATOM     38  C   LIG d   1       9.334  11.425  -4.819  0.00  0.00    -0.043 C 
ATOM     39  H   LIG d   1      10.329  11.696  -5.171  0.00  0.00     0.078 H 
ATOM     40  H   LIG d   1       8.605  11.616  -5.607  0.00  0.00     0.078 H 
ATOM     41  H   LIG d   1       9.084  12.021  -3.942  0.00  0.00     0.078 H 
ENDBRANCH  17  38
BRANCH   7  42
ATOM     42  O   LIG d   1      10.059   8.830  -0.513  0.00  0.00    -0.503 OA
ATOM     43  H   LIG d   1      10.108   8.456   0.377  0.00  0.00     0.292 HD
ENDBRANCH   7  42
BRANCH   6  44
ATOM     44  O   LIG d   1      10.257   6.159   0.109  0.00  0.00    -0.491 OA
BRANCH  44  45
ATOM     45  C   LIG d   1      11.541   5.709   0.547  0.00  0.00     0.079 C 
ATOM     46  H   LIG d   1      12.140   6.566   0.855  0.00  0.00     0.066 H 
ATOM     47  H   LIG d   1      12.042   5.190  -0.269  0.00  0.00     0.066 H 
ATOM     48  H   LIG d   1      11.419   5.029   1.390  0.00  0.00     0.066 H 
ENDBRANCH  44  45
ENDBRANCH   6  44
TORSDOF 9
ENDMDL
MODEL 8
REMARK VINA RESULT:      -4.8     10.962     13.292
REMARK  9 active torsions:
REMARK  status: ('A' for Active; 'I' for Inactive)
REMARK    1  A    between atoms: C_1  and  N_47 
REMARK    2  A    between atoms: C_7  and  O_10 
REMARK    3  A    between atoms: C_8  and  O_9 
REMARK    4  A    between atoms: O_10  and  C_11 
REMARK    5  A    between atoms: C_12  and  C_15 
REMARK    6  A    between atoms: C_15  and  C_16 
REMARK    7  A    between atoms: C_20  and  O_23 
REMARK    8  A    between atoms: C_21  and  O_22 
REMARK    9  A    between atoms: O_23  and  C_24 
ROOT
ATOM      1  C   LIG d   1       8.063  -1.747  -4.923  0.00  0.00    -0.002 C 
ATOM      2  C   LIG d   1       6.685  -1.900  -4.332  0.00  0.00     0.046 A 
ATOM      3  C   LIG d   1       5.823  -2.894  -4.747  0.00  0.00    -0.027 A 
ATOM      4  C   LIG d   1       4.565  -3.002  -4.172  0.00  0.00    -0.054 A 
ATOM      5  C   LIG d   1       4.166  -2.122  -3.185  0.00  0.00    -0.016 A 
ATOM      6  C   LIG d   1       5.027  -1.121  -2.767  0.00  0.00     0.162 A 
ATOM      7  C   LIG d   1       6.286  -1.007  -3.345  0.00  0.00     0.167 A 
ATOM      8  C   LIG d   1       6.208  -3.877  -5.822  0.00  0.00     0.029 C 
ATOM      9  H   LIG d   1       5.718  -3.602  -6.756  0.00  0.00     0.040 H 
ATOM     10  C   LIG d   1       7.723  -3.864  -6.023  0.00  0.00    -0.025 C 
ATOM     11  H   LIG d   1       8.799  -2.146  -4.226  0.00  0.00     0.087 H 
ATOM     12  H   LIG d   1       8.266  -0.690  -5.093  0.00  0.00     0.087 H 
ATOM     13  H   LIG d   1       3.893  -3.781  -4.498  0.00  0.00     0.062 H 
ATOM     14  H   LIG d   1       3.186  -2.213  -2.742  0.00  0.00     0.066 H 
ATOM     15  H   LIG d   1       8.211  -4.296  -5.150  0.00  0.00     0.082 H 
ATOM     16  H   LIG d   1       7.979  -4.441  -6.912  0.00  0.00     0.082 H 
ATOM     17  N   LIG d   1       8.141  -2.460  -6.209  0.00  0.00     0.237 N 
ATOM     18  H   LIG d   1       7.512  -2.009  -6.882  0.00  0.00     0.203 HD
ENDROOT
BRANCH   8  19
ATOM     19  C   LIG d   1       5.762  -5.281  -5.410  0.00  0.00    -0.012 C 
ATOM     20  H   LIG d   1       6.567  -5.773  -4.864  0.00  0.00     0.032 H 
ATOM     21  H   LIG d   1       4.881  -5.210  -4.771  0.00  0.00     0.032 H 
BRANCH  19  22
ATOM     22  C   LIG d   1       5.425  -6.083  -6.640  0.00  0.00    -0.002 A 
ATOM     23  C   LIG d   1       4.158  -6.004  -7.194  0.00  0.00     0.162 A 
ATOM     24  C   LIG d   1       3.850  -6.746  -8.330  0.00  0.00     0.162 A 
ATOM     25  C   LIG d   1       4.813  -7.561  -8.903  0.00  0.00    -0.016 A 
ATOM     26  C   LIG d   1       6.076  -7.635  -8.346  0.00  0.00    -0.058 A 
ATOM     27  H   LIG d   1       4.577  -8.137  -9.785  0.00  0.00     0.066 H 
ATOM     28  C   LIG d   1       6.383  -6.894  -7.221  0.00  0.00    -0.055 A 
ATOM     29  H   LIG d   1       6.826  -8.272  -8.793  0.00  0.00     0.062 H 
ATOM     30  H   LIG d   1       7.373  -6.952  -6.790  0.00  0.00     0.062 H 
BRANCH  23  31
ATOM     31  O   LIG d   1       3.216  -5.202  -6.628  0.00  0.00    -0.503 OA
ATOM     32  H   LIG d   1       2.645  -5.654  -5.991  0.00  0.00     0.292 HD
ENDBRANCH  23  31
BRANCH  24  33
ATOM     33  O   LIG d   1       2.608  -6.671  -8.878  0.00  0.00    -0.491 OA
BRANCH  33  34
ATOM     34  C   LIG d   1       2.297  -7.606  -9.912  0.00  0.00     0.079 C 
ATOM     35  H   LIG d   1       3.220  -8.021 -10.316  0.00  0.00     0.066 H 
ATOM     36  H   LIG d   1       1.685  -8.411  -9.502  0.00  0.00     0.066 H 
ATOM     37  H   LIG d   1       1.748  -7.101 -10.706  0.00  0.00     0.066 H 
ENDBRANCH  33  34
ENDBRANCH  24  33
ENDBRANCH  19  22
ENDBRANCH   8  19
BRANCH  17  38
ATOM     38  C   LIG d   1       9.525  -2.408  -6.733  0.00  0.00    -0.043 C 
ATOM     39  H   LIG d   1       9.999  -1.488  -6.394  0.00  0.00     0.078 H 
ATOM     40  H   LIG d   1      10.083  -3.265  -6.352  0.00  0.00     0.078 H 
ATOM     41  H   LIG d   1       9.519  -2.434  -7.821  0.00  0.00     0.078 H 
ENDBRANCH  17  38
BRANCH   7  42
ATOM     42  O   LIG d   1       7.132  -0.021  -2.941  0.00  0.00    -0.503 OA
ATOM     43  H   LIG d   1       6.892   0.858  -3.263  0.00  0.00     0.292 HD
ENDBRANCH   7  42
BRANCH   6  44
ATOM     44  O   LIG d   1       4.641  -0.249  -1.798  0.00  0.00    -0.491 OA
BRANCH  44  45
ATOM     45  C   LIG d   1       3.797   0.834  -2.197  0.00  0.00     0.079 C 
ATOM     46  H   LIG d   1       4.404   1.721  -2.373  0.00  0.00     0.066 H 
ATOM     47  H   LIG d   1       3.072   1.039  -1.411  0.00  0.00     0.066 H 
ATOM     48  H   LIG d   1       3.273   0.565  -3.114  0.00  0.00     0.066 H 
ENDBRANCH  44  45
ENDBRANCH   6  44
TORSDOF 9
ENDMDL
MODEL 9
REMARK VINA RESULT:      -4.8      2.999      4.353
REMARK  9 active torsions:
REMARK  status: ('A' for Active; 'I' for Inactive)
REMARK    1  A    between atoms: C_1  and  N_47 
REMARK    2  A    between atoms: C_7  and  O_10 
REMARK    3  A    between atoms: C_8  and  O_9 
REMARK    4  A    between atoms: O_10  and  C_11 
REMARK    5  A    between atoms: C_12  and  C_15 
REMARK    6  A    between atoms: C_15  and  C_16 
REMARK    7  A    between atoms: C_20  and  O_23 
REMARK    8  A    between atoms: C_21  and  O_22 
REMARK    9  A    between atoms: O_23  and  C_24 
ROOT
ATOM      1  C   LIG d   1       9.987   5.759  -6.393  0.00  0.00    -0.002 C 
ATOM      2  C   LIG d   1       9.838   4.689  -5.342  0.00  0.00     0.046 A 
ATOM      3  C   LIG d   1       9.892   4.981  -3.995  0.00  0.00    -0.027 A 
ATOM      4  C   LIG d   1       9.744   3.965  -3.062  0.00  0.00    -0.054 A 
ATOM      5  C   LIG d   1       9.543   2.661  -3.469  0.00  0.00    -0.016 A 
ATOM      6  C   LIG d   1       9.491   2.363  -4.821  0.00  0.00     0.162 A 
ATOM      7  C   LIG d   1       9.644   3.377  -5.758  0.00  0.00     0.167 A 
ATOM      8  C   LIG d   1      10.112   6.386  -3.498  0.00  0.00     0.029 C 
ATOM      9  H   LIG d   1      11.144   6.494  -3.165  0.00  0.00     0.040 H 
ATOM     10  C   LIG d   1       9.836   7.386  -4.622  0.00  0.00    -0.025 C 
ATOM     11  H   LIG d   1       9.006   6.004  -6.799  0.00  0.00     0.087 H 
ATOM     12  H   LIG d   1      10.625   5.389  -7.195  0.00  0.00     0.087 H 
ATOM     13  H   LIG d   1       9.786   4.197  -2.008  0.00  0.00     0.062 H 
ATOM     14  H   LIG d   1       9.428   1.877  -2.736  0.00  0.00     0.066 H 
ATOM     15  H   LIG d   1       8.770   7.400  -4.845  0.00  0.00     0.082 H 
ATOM     16  H   LIG d   1      10.162   8.380  -4.315  0.00  0.00     0.082 H 
ATOM     17  N   LIG d   1      10.608   6.958  -5.805  0.00  0.00     0.237 N 
ATOM     18  H   LIG d   1      11.567   6.733  -5.517  0.00  0.00     0.203 HD
ENDROOT
BRANCH   8  19
ATOM     19  C   LIG d   1       9.168   6.665  -2.327  0.00  0.00    -0.012 C 
ATOM     20  H   LIG d   1       8.427   7.406  -2.626  0.00  0.00     0.032 H 
ATOM     21  H   LIG d   1       8.663   5.742  -2.040  0.00  0.00     0.032 H 
BRANCH  19  22
ATOM     22  C   LIG d   1       9.960   7.189  -1.157  0.00  0.00    -0.002 A 
ATOM     23  C   LIG d   1       9.936   8.540  -0.854  0.00  0.00     0.162 A 
ATOM     24  C   LIG d   1      10.668   9.021   0.228  0.00  0.00     0.162 A 
ATOM     25  C   LIG d   1      11.418   8.146   0.995  0.00  0.00    -0.016 A 
ATOM     26  C   LIG d   1      11.438   6.799   0.688  0.00  0.00    -0.058 A 
ATOM     27  H   LIG d   1      11.987   8.517   1.836  0.00  0.00     0.066 H 
ATOM     28  C   LIG d   1      10.706   6.320  -0.382  0.00  0.00    -0.055 A 
ATOM     29  H   LIG d   1      12.024   6.117   1.287  0.00  0.00     0.062 H 
ATOM     30  H   LIG d   1      10.721   5.266  -0.617  0.00  0.00     0.062 H 
BRANCH  23  31
ATOM     31  O   LIG d   1       9.197   9.395  -1.611  0.00  0.00    -0.503 OA
ATOM     32  H   LIG d   1       8.475   8.970  -2.094  0.00  0.00     0.292 HD
ENDBRANCH  23  31
BRANCH  24  33
ATOM     33  O   LIG d   1      10.647  10.347   0.530  0.00  0.00    -0.491 OA
BRANCH  33  34
ATOM     34  C   LIG d   1      11.642  10.822   1.438  0.00  0.00     0.079 C 
ATOM     35  H   LIG d   1      12.474  10.118   1.465  0.00  0.00     0.066 H 
ATOM     36  H   LIG d   1      12.000  11.797   1.106  0.00  0.00     0.066 H 
ATOM     37  H   LIG d   1      11.211  10.913   2.435  0.00  0.00     0.066 H 
ENDBRANCH  33  34
ENDBRANCH  24  33
ENDBRANCH  19  22
ENDBRANCH   8  19
BRANCH  17  38
ATOM     38  C   LIG d   1      10.648   8.049  -6.806  0.00  0.00    -0.043 C 
ATOM     39  H   LIG d   1       9.648   8.196  -7.212  0.00  0.00     0.078 H 
ATOM     40  H   LIG d   1      10.981   8.966  -6.320  0.00  0.00     0.078 H 
ATOM     41  H   LIG d   1      11.335   7.797  -7.613  0.00  0.00     0.078 H 
ENDBRANCH  17  38
BRANCH   7  42
ATOM     42  O   LIG d   1       9.600   3.087  -7.086  0.00  0.00    -0.503 OA
ATOM     43  H   LIG d   1      10.469   2.958  -7.489  0.00  0.00     0.292 HD
ENDBRANCH   7  42
BRANCH   6  44
ATOM     44  O   LIG d   1       9.296   1.080  -5.230  0.00  0.00    -0.491 OA
BRANCH  44  45
ATOM     45  C   LIG d   1       8.005   0.514  -4.995  0.00  0.00     0.079 C 
ATOM     46  H   LIG d   1       7.310   1.303  -4.708  0.00  0.00     0.066 H 
ATOM     47  H   LIG d   1       8.070  -0.221  -4.194  0.00  0.00     0.066 H 
ATOM     48  H   LIG d   1       7.650   0.030  -5.905  0.00  0.00     0.066 H 
ENDBRANCH  44  45
ENDBRANCH   6  44
TORSDOF 9
ENDMDL
MODEL 10
REMARK VINA RESULT:      -4.8      2.560      7.492
REMARK  9 active torsions:
REMARK  status: ('A' for Active; 'I' for Inactive)
REMARK    1  A    between atoms: C_1  and  N_47 
REMARK    2  A    between atoms: C_7  and  O_10 
REMARK    3  A    between atoms: C_8  and  O_9 
REMARK    4  A    between atoms: O_10  and  C_11 
REMARK    5  A    between atoms: C_12  and  C_15 
REMARK    6  A    between atoms: C_15  and  C_16 
REMARK    7  A    between atoms: C_20  and  O_23 
REMARK    8  A    between atoms: C_21  and  O_22 
REMARK    9  A    between atoms: O_23  and  C_24 
ROOT
ATOM      1  C   LIG d   1      10.092   8.889  -2.081  0.00  0.00    -0.002 C 
ATOM      2  C   LIG d   1       9.812   9.960  -3.104  0.00  0.00     0.046 A 
ATOM      3  C   LIG d   1       9.855   9.701  -4.458  0.00  0.00    -0.027 A 
ATOM      4  C   LIG d   1       9.585  10.715  -5.365  0.00  0.00    -0.054 A 
ATOM      5  C   LIG d   1       9.273  11.986  -4.924  0.00  0.00    -0.016 A 
ATOM      6  C   LIG d   1       9.231  12.252  -3.566  0.00  0.00     0.162 A 
ATOM      7  C   LIG d   1       9.505  11.239  -2.655  0.00  0.00     0.167 A 
ATOM      8  C   LIG d   1      10.194   8.332  -4.991  0.00  0.00     0.029 C 
ATOM      9  H   LIG d   1      11.221   8.330  -5.354  0.00  0.00     0.040 H 
ATOM     10  C   LIG d   1      10.046   7.289  -3.883  0.00  0.00    -0.025 C 
ATOM     11  H   LIG d   1       9.150   8.544  -1.655  0.00  0.00     0.087 H 
ATOM     12  H   LIG d   1      10.714   9.303  -1.288  0.00  0.00     0.087 H 
ATOM     13  H   LIG d   1       9.619  10.508  -6.424  0.00  0.00     0.062 H 
ATOM     14  H   LIG d   1       9.063  12.770  -5.637  0.00  0.00     0.066 H 
ATOM     15  H   LIG d   1       8.993   7.170  -3.631  0.00  0.00     0.082 H 
ATOM     16  H   LIG d   1      10.456   6.337  -4.219  0.00  0.00     0.082 H 
ATOM     17  N   LIG d   1      10.807   7.767  -2.711  0.00  0.00     0.237 N 
ATOM     18  H   LIG d   1      11.732   8.088  -3.019  0.00  0.00     0.203 HD
ENDROOT
BRANCH   8  19
ATOM     19  C   LIG d   1       9.248   7.987  -6.143  0.00  0.00    -0.012 C 
ATOM     20  H   LIG d   1       8.720   7.061  -5.914  0.00  0.00     0.032 H 
ATOM     21  H   LIG d   1       8.526   8.794  -6.275  0.00  0.00     0.032 H 
BRANCH  19  22
ATOM     22  C   LIG d   1      10.043   7.812  -7.411  0.00  0.00    -0.002 A 
ATOM     23  C   LIG d   1       9.610   8.403  -8.587  0.00  0.00     0.162 A 
ATOM     24  C   LIG d   1      10.346   8.240  -9.756  0.00  0.00     0.162 A 
ATOM     25  C   LIG d   1      11.509   7.487  -9.739  0.00  0.00    -0.016 A 
ATOM     26  C   LIG d   1      11.936   6.900  -8.563  0.00  0.00    -0.058 A 
ATOM     27  H   LIG d   1      12.082   7.359 -10.646  0.00  0.00     0.066 H 
ATOM     28  C   LIG d   1      11.207   7.067  -7.400  0.00  0.00    -0.055 A 
ATOM     29  H   LIG d   1      12.842   6.312  -8.551  0.00  0.00     0.062 H 
ATOM     30  H   LIG d   1      11.546   6.610  -6.481  0.00  0.00     0.062 H 
BRANCH  23  31
ATOM     31  O   LIG d   1       8.468   9.142  -8.598  0.00  0.00    -0.503 OA
ATOM     32  H   LIG d   1       8.484   9.882  -9.220  0.00  0.00     0.292 HD
ENDBRANCH  23  31
BRANCH  24  33
ATOM     33  O   LIG d   1       9.926   8.819 -10.912  0.00  0.00    -0.491 OA
BRANCH  33  34
ATOM     34  C   LIG d   1      10.803   8.734 -12.037  0.00  0.00     0.079 C 
ATOM     35  H   LIG d   1      11.515   9.559 -12.006  0.00  0.00     0.066 H 
ATOM     36  H   LIG d   1      11.343   7.786 -12.006  0.00  0.00     0.066 H 
ATOM     37  H   LIG d   1      10.222   8.791 -12.957  0.00  0.00     0.066 H 
ENDBRANCH  33  34
ENDBRANCH  24  33
ENDBRANCH  19  22
ENDBRANCH   8  19
BRANCH  17  38
ATOM     38  C   LIG d   1      10.979   6.666  -1.735  0.00  0.00    -0.043 C 
ATOM     39  H   LIG d   1      10.712   5.723  -2.213  0.00  0.00     0.078 H 
ATOM     40  H   LIG d   1      12.022   6.630  -1.419  0.00  0.00     0.078 H 
ATOM     41  H   LIG d   1      10.342   6.826  -0.867  0.00  0.00     0.078 H 
ENDBRANCH  17  38
BRANCH   7  42
ATOM     42  O   LIG d   1       9.471  11.499  -1.321  0.00  0.00    -0.503 OA
ATOM     43  H   LIG d   1       8.582  11.646  -0.972  0.00  0.00     0.292 HD
ENDBRANCH   7  42
BRANCH   6  44
ATOM     44  O   LIG d   1       8.926  13.502  -3.124  0.00  0.00    -0.491 OA
BRANCH  44  45
ATOM     45  C   LIG d   1       9.118  14.579  -4.044  0.00  0.00     0.079 C 
ATOM     46  H   LIG d   1       9.313  14.177  -5.038  0.00  0.00     0.066 H 
ATOM     47  H   LIG d   1       9.965  15.185  -3.724  0.00  0.00     0.066 H 
ATOM     48  H   LIG d   1       8.219  15.196  -4.072  0.00  0.00     0.066 H 
ENDBRANCH  44  45
ENDBRANCH   6  44
TORSDOF 9
ENDMDL
