MODEL 1
REMARK VINA RESULT:      -8.4      0.000      0.000
REMARK  5 active torsions:
REMARK  status: ('A' for Active; 'I' for Inactive)
REMARK    1  A    between atoms: C_1  and  S_2 
REMARK    2  A    between atoms: S_2  and  C_3 
REMARK    3  A    between atoms: C_3  and  C_4 
REMARK       I    between atoms: C_4  and  N_6 
REMARK    4  A    between atoms: C_17  and  C_22 
REMARK    5  A    between atoms: C_26  and  C_28 
ROOT
ATOM      1  C   LIG d   1       6.610   0.689  -3.475  0.00  0.00     0.225 C 
ATOM      2  O   LIG d   1       6.357   1.874  -3.452  0.00  0.00    -0.275 OA
ATOM      3  N   LIG d   1       5.824  -0.182  -2.810  0.00  0.00    -0.300 N 
ATOM      4  C   LIG d   1       4.659   0.289  -2.052  0.00  0.00     0.019 C 
ATOM      5  C   LIG d   1       3.424  -0.517  -2.430  0.00  0.00    -0.006 C 
ATOM      6  H   LIG d   1       2.640  -0.294  -1.708  0.00  0.00     0.033 H 
ATOM      7  C   LIG d   1       3.704  -2.017  -2.358  0.00  0.00    -0.037 C 
ATOM      8  C   LIG d   1       4.849  -2.343  -3.320  0.00  0.00     0.016 C 
ATOM      9  H   LIG d   1       5.022  -3.418  -3.366  0.00  0.00     0.038 H 
ATOM     10  C   LIG d   1       6.117  -1.624  -2.826  0.00  0.00     0.023 C 
ATOM     11  C   LIG d   1       4.526  -1.809  -4.697  0.00  0.00     0.027 C 
ATOM     12  C   LIG d   1       5.100  -2.439  -5.759  0.00  0.00    -0.041 C 
ATOM     13  C   LIG d   1       4.936  -1.947  -7.055  0.00  0.00    -0.047 C 
ATOM     14  C   LIG d   1       4.184  -0.796  -7.239  0.00  0.00     0.047 C 
ATOM     15  C   LIG d   1       3.608  -0.175  -6.111  0.00  0.00     0.259 C 
ATOM     16  O   LIG d   1       2.993   0.871  -6.243  0.00  0.00    -0.267 OA
ATOM     17  N   LIG d   1       3.725  -0.734  -4.881  0.00  0.00    -0.311 N 
ATOM     18  C   LIG d   1       2.910  -0.154  -3.812  0.00  0.00     0.031 C 
ATOM     19  H   LIG d   1       4.851   0.175  -0.985  0.00  0.00     0.047 H 
ATOM     20  H   LIG d   1       4.484   1.342  -2.276  0.00  0.00     0.047 H 
ATOM     21  H   LIG d   1       2.812  -2.572  -2.648  0.00  0.00     0.028 H 
ATOM     22  H   LIG d   1       3.991  -2.289  -1.342  0.00  0.00     0.028 H 
ATOM     23  H   LIG d   1       6.366  -1.963  -1.821  0.00  0.00     0.047 H 
ATOM     24  H   LIG d   1       6.946  -1.827  -3.503  0.00  0.00     0.047 H 
ATOM     25  H   LIG d   1       5.687  -3.330  -5.596  0.00  0.00     0.064 H 
ATOM     26  H   LIG d   1       5.381  -2.455  -7.897  0.00  0.00     0.063 H 
ATOM     27  H   LIG d   1       2.911   0.931  -3.916  0.00  0.00     0.050 H 
ATOM     28  H   LIG d   1       1.886  -0.515  -3.914  0.00  0.00     0.050 H 
ENDROOT
BRANCH  14  29
ATOM     29  C   LIG d   1       3.997  -0.227  -8.594  0.00  0.00    -0.012 A 
ATOM     30  C   LIG d   1       3.255  -0.921  -9.549  0.00  0.00    -0.042 A 
ATOM     31  C   LIG d   1       3.084  -0.385 -10.809  0.00  0.00     0.055 A 
ATOM     32  H   LIG d   1       2.818  -1.878  -9.304  0.00  0.00     0.063 H 
ATOM     33  C   LIG d   1       3.645   0.840 -11.126  0.00  0.00    -0.050 A 
ATOM     34  C   LIG d   1       4.382   1.533 -10.182  0.00  0.00    -0.061 A 
ATOM     35  H   LIG d   1       3.508   1.255 -12.112  0.00  0.00     0.062 H 
ATOM     36  C   LIG d   1       4.556   1.010  -8.917  0.00  0.00    -0.054 A 
ATOM     37  H   LIG d   1       4.817   2.489 -10.435  0.00  0.00     0.062 H 
ATOM     38  H   LIG d   1       5.127   1.555  -8.180  0.00  0.00     0.062 H 
BRANCH  31  39
ATOM     39  C   LIG d   1       2.283  -1.133 -11.842  0.00  0.00     0.417 C 
ATOM     40  F   LIG d   1       0.957  -0.688 -11.818  0.00  0.00    -0.166 F 
ATOM     41  F   LIG d   1       2.828  -0.907 -13.110  0.00  0.00    -0.166 F 
ATOM     42  F   LIG d   1       2.319  -2.503 -11.558  0.00  0.00    -0.166 F 
ENDBRANCH  31  39
ENDBRANCH  14  29
BRANCH   1  43
ATOM     43  C   LIG d   1       7.803   0.186  -4.248  0.00  0.00     0.070 C 
ATOM     44  H   LIG d   1       8.707   0.671  -3.878  0.00  0.00     0.047 H 
ATOM     45  H   LIG d   1       7.892  -0.892  -4.119  0.00  0.00     0.047 H 
BRANCH  43  46
ATOM     46  S   LIG d   1       7.589   0.570  -6.007  0.00  0.00    -0.155 SA
BRANCH  46  47
ATOM     47  C   LIG d   1       8.591   2.060  -6.258  0.00  0.00    -0.018 C 
ATOM     48  H   LIG d   1       9.012   2.380  -5.304  0.00  0.00     0.034 H 
ATOM     49  H   LIG d   1       9.400   1.841  -6.956  0.00  0.00     0.034 H 
ATOM     50  H   LIG d   1       7.966   2.854  -6.664  0.00  0.00     0.034 H 
ENDBRANCH  46  47
ENDBRANCH  43  46
ENDBRANCH   1  43
TORSDOF 5
ENDMDL
MODEL 2
REMARK VINA RESULT:      -7.2      4.347      7.298
REMARK  5 active torsions:
REMARK  status: ('A' for Active; 'I' for Inactive)
REMARK    1  A    between atoms: C_1  and  S_2 
REMARK    2  A    between atoms: S_2  and  C_3 
REMARK    3  A    between atoms: C_3  and  C_4 
REMARK       I    between atoms: C_4  and  N_6 
REMARK    4  A    between atoms: C_17  and  C_22 
REMARK    5  A    between atoms: C_26  and  C_28 
ROOT
ATOM      1  C   LIG d   1       5.137  -1.470 -11.338  0.00  0.00     0.225 C 
ATOM      2  O   LIG d   1       6.179  -2.085 -11.263  0.00  0.00    -0.275 OA
ATOM      3  N   LIG d   1       3.965  -2.134 -11.394  0.00  0.00    -0.300 N 
ATOM      4  C   LIG d   1       3.932  -3.601 -11.367  0.00  0.00     0.019 C 
ATOM      5  C   LIG d   1       2.945  -4.087 -10.314  0.00  0.00    -0.006 C 
ATOM      6  H   LIG d   1       2.786  -5.154 -10.465  0.00  0.00     0.033 H 
ATOM      7  C   LIG d   1       1.592  -3.393 -10.469  0.00  0.00    -0.037 C 
ATOM      8  C   LIG d   1       1.803  -1.884 -10.323  0.00  0.00     0.016 C 
ATOM      9  H   LIG d   1       0.849  -1.357 -10.337  0.00  0.00     0.038 H 
ATOM     10  C   LIG d   1       2.690  -1.404 -11.485  0.00  0.00     0.023 C 
ATOM     11  C   LIG d   1       2.538  -1.593  -9.034  0.00  0.00     0.027 C 
ATOM     12  C   LIG d   1       2.338  -0.372  -8.467  0.00  0.00    -0.041 C 
ATOM     13  C   LIG d   1       3.057   0.015  -7.334  0.00  0.00    -0.047 C 
ATOM     14  C   LIG d   1       3.986  -0.867  -6.802  0.00  0.00     0.047 C 
ATOM     15  C   LIG d   1       4.161  -2.123  -7.423  0.00  0.00     0.259 C 
ATOM     16  O   LIG d   1       5.015  -2.889  -7.008  0.00  0.00    -0.267 OA
ATOM     17  N   LIG d   1       3.383  -2.488  -8.472  0.00  0.00    -0.311 N 
ATOM     18  C   LIG d   1       3.472  -3.883  -8.905  0.00  0.00     0.031 C 
ATOM     19  H   LIG d   1       3.629  -3.974 -12.345  0.00  0.00     0.047 H 
ATOM     20  H   LIG d   1       4.927  -3.980 -11.129  0.00  0.00     0.047 H 
ATOM     21  H   LIG d   1       0.909  -3.744  -9.696  0.00  0.00     0.028 H 
ATOM     22  H   LIG d   1       1.178  -3.612 -11.452  0.00  0.00     0.028 H 
ATOM     23  H   LIG d   1       2.205  -1.623 -12.436  0.00  0.00     0.047 H 
ATOM     24  H   LIG d   1       2.868  -0.333 -11.398  0.00  0.00     0.047 H 
ATOM     25  H   LIG d   1       1.616   0.305  -8.897  0.00  0.00     0.064 H 
ATOM     26  H   LIG d   1       2.889   0.979  -6.877  0.00  0.00     0.063 H 
ATOM     27  H   LIG d   1       4.514  -4.199  -8.868  0.00  0.00     0.050 H 
ATOM     28  H   LIG d   1       2.893  -4.503  -8.219  0.00  0.00     0.050 H 
ENDROOT
BRANCH  14  29
ATOM     29  C   LIG d   1       4.784  -0.494  -5.611  0.00  0.00    -0.012 A 
ATOM     30  C   LIG d   1       4.170  -0.377  -4.365  0.00  0.00    -0.042 A 
ATOM     31  C   LIG d   1       4.919  -0.031  -3.260  0.00  0.00     0.055 A 
ATOM     32  H   LIG d   1       3.109  -0.556  -4.266  0.00  0.00     0.063 H 
ATOM     33  C   LIG d   1       6.277   0.200  -3.384  0.00  0.00    -0.050 A 
ATOM     34  C   LIG d   1       6.892   0.085  -4.619  0.00  0.00    -0.061 A 
ATOM     35  H   LIG d   1       6.859   0.470  -2.517  0.00  0.00     0.062 H 
ATOM     36  C   LIG d   1       6.155  -0.266  -5.731  0.00  0.00    -0.054 A 
ATOM     37  H   LIG d   1       7.953   0.265  -4.710  0.00  0.00     0.062 H 
ATOM     38  H   LIG d   1       6.638  -0.361  -6.692  0.00  0.00     0.062 H 
BRANCH  31  39
ATOM     39  C   LIG d   1       4.256   0.096  -1.912  0.00  0.00     0.417 C 
ATOM     40  F   LIG d   1       2.897   0.378  -2.084  0.00  0.00    -0.166 F 
ATOM     41  F   LIG d   1       4.398  -1.104  -1.207  0.00  0.00    -0.166 F 
ATOM     42  F   LIG d   1       4.860   1.133  -1.192  0.00  0.00    -0.166 F 
ENDBRANCH  31  39
ENDBRANCH  14  29
BRANCH   1  43
ATOM     43  C   LIG d   1       5.150   0.037 -11.368  0.00  0.00     0.070 C 
ATOM     44  H   LIG d   1       5.721   0.379 -12.231  0.00  0.00     0.047 H 
ATOM     45  H   LIG d   1       4.128   0.408 -11.439  0.00  0.00     0.047 H 
BRANCH  43  46
ATOM     46  S   LIG d   1       5.917   0.664  -9.849  0.00  0.00    -0.155 SA
BRANCH  46  47
ATOM     47  C   LIG d   1       4.938   2.134  -9.436  0.00  0.00    -0.018 C 
ATOM     48  H   LIG d   1       4.844   2.216  -8.353  0.00  0.00     0.034 H 
ATOM     49  H   LIG d   1       5.435   3.023  -9.824  0.00  0.00     0.034 H 
ATOM     50  H   LIG d   1       3.948   2.048  -9.881  0.00  0.00     0.034 H 
ENDBRANCH  46  47
ENDBRANCH  43  46
ENDBRANCH   1  43
TORSDOF 5
ENDMDL
MODEL 3
REMARK VINA RESULT:      -7.2      4.412      7.638
REMARK  5 active torsions:
REMARK  status: ('A' for Active; 'I' for Inactive)
REMARK    1  A    between atoms: C_1  and  S_2 
REMARK    2  A    between atoms: S_2  and  C_3 
REMARK    3  A    between atoms: C_3  and  C_4 
REMARK       I    between atoms: C_4  and  N_6 
REMARK    4  A    between atoms: C_17  and  C_22 
REMARK    5  A    between atoms: C_26  and  C_28 
ROOT
ATOM      1  C   LIG d   1       3.076  -3.371 -10.337  0.00  0.00     0.225 C 
ATOM      2  O   LIG d   1       1.912  -3.512 -10.028  0.00  0.00    -0.275 OA
ATOM      3  N   LIG d   1       3.463  -2.277 -11.025  0.00  0.00    -0.300 N 
ATOM      4  C   LIG d   1       2.488  -1.249 -11.408  0.00  0.00     0.019 C 
ATOM      5  C   LIG d   1       2.988   0.130 -11.000  0.00  0.00    -0.006 C 
ATOM      6  H   LIG d   1       2.358   0.876 -11.482  0.00  0.00     0.033 H 
ATOM      7  C   LIG d   1       4.421   0.358 -11.480  0.00  0.00    -0.037 C 
ATOM      8  C   LIG d   1       5.316  -0.721 -10.863  0.00  0.00     0.016 C 
ATOM      9  H   LIG d   1       6.362  -0.542 -11.109  0.00  0.00     0.038 H 
ATOM     10  C   LIG d   1       4.871  -2.089 -11.409  0.00  0.00     0.023 C 
ATOM     11  C   LIG d   1       5.130  -0.742  -9.363  0.00  0.00     0.027 C 
ATOM     12  C   LIG d   1       6.172  -1.196  -8.615  0.00  0.00    -0.041 C 
ATOM     13  C   LIG d   1       6.046  -1.346  -7.232  0.00  0.00    -0.047 C 
ATOM     14  C   LIG d   1       4.833  -1.031  -6.637  0.00  0.00     0.047 C 
ATOM     15  C   LIG d   1       3.779  -0.563  -7.451  0.00  0.00     0.259 C 
ATOM     16  O   LIG d   1       2.687  -0.338  -6.957  0.00  0.00    -0.267 OA
ATOM     17  N   LIG d   1       3.973  -0.357  -8.777  0.00  0.00    -0.311 N 
ATOM     18  C   LIG d   1       2.907   0.342  -9.499  0.00  0.00     0.031 C 
ATOM     19  H   LIG d   1       2.341  -1.274 -12.488  0.00  0.00     0.047 H 
ATOM     20  H   LIG d   1       1.538  -1.449 -10.910  0.00  0.00     0.047 H 
ATOM     21  H   LIG d   1       4.763   1.343 -11.162  0.00  0.00     0.028 H 
ATOM     22  H   LIG d   1       4.460   0.289 -12.566  0.00  0.00     0.028 H 
ATOM     23  H   LIG d   1       4.964  -2.102 -12.495  0.00  0.00     0.047 H 
ATOM     24  H   LIG d   1       5.483  -2.878 -10.975  0.00  0.00     0.047 H 
ATOM     25  H   LIG d   1       7.107  -1.443  -9.095  0.00  0.00     0.064 H 
ATOM     26  H   LIG d   1       6.877  -1.694  -6.638  0.00  0.00     0.063 H 
ATOM     27  H   LIG d   1       1.943  -0.021  -9.142  0.00  0.00     0.050 H 
ATOM     28  H   LIG d   1       2.980   1.409  -9.288  0.00  0.00     0.050 H 
ENDROOT
BRANCH  14  29
ATOM     29  C   LIG d   1       4.646  -1.189  -5.176  0.00  0.00    -0.012 A 
ATOM     30  C   LIG d   1       4.642  -0.069  -4.345  0.00  0.00    -0.042 A 
ATOM     31  C   LIG d   1       4.467  -0.224  -2.985  0.00  0.00     0.055 A 
ATOM     32  H   LIG d   1       4.777   0.917  -4.765  0.00  0.00     0.063 H 
ATOM     33  C   LIG d   1       4.294  -1.486  -2.445  0.00  0.00    -0.050 A 
ATOM     34  C   LIG d   1       4.298  -2.601  -3.265  0.00  0.00    -0.061 A 
ATOM     35  H   LIG d   1       4.157  -1.601  -1.381  0.00  0.00     0.062 H 
ATOM     36  C   LIG d   1       4.467  -2.459  -4.627  0.00  0.00    -0.054 A 
ATOM     37  H   LIG d   1       4.162  -3.583  -2.838  0.00  0.00     0.062 H 
ATOM     38  H   LIG d   1       4.464  -3.329  -5.266  0.00  0.00     0.062 H 
BRANCH  31  39
ATOM     39  C   LIG d   1       4.461   0.985  -2.085  0.00  0.00     0.417 C 
ATOM     40  F   LIG d   1       5.398   1.915  -2.547  0.00  0.00    -0.166 F 
ATOM     41  F   LIG d   1       3.188   1.564  -2.089  0.00  0.00    -0.166 F 
ATOM     42  F   LIG d   1       4.793   0.598  -0.783  0.00  0.00    -0.166 F 
ENDBRANCH  31  39
ENDBRANCH  14  29
BRANCH   1  43
ATOM     43  C   LIG d   1       4.092  -4.416  -9.954  0.00  0.00     0.070 C 
ATOM     44  H   LIG d   1       4.435  -4.936 -10.848  0.00  0.00     0.047 H 
ATOM     45  H   LIG d   1       4.939  -3.937  -9.465  0.00  0.00     0.047 H 
BRANCH  43  46
ATOM     46  S   LIG d   1       3.332  -5.607  -8.817  0.00  0.00    -0.155 SA
BRANCH  46  47
ATOM     47  C   LIG d   1       3.809  -5.011  -7.172  0.00  0.00    -0.018 C 
ATOM     48  H   LIG d   1       3.204  -4.142  -6.911  0.00  0.00     0.034 H 
ATOM     49  H   LIG d   1       3.645  -5.800  -6.437  0.00  0.00     0.034 H 
ATOM     50  H   LIG d   1       4.862  -4.733  -7.177  0.00  0.00     0.034 H 
ENDBRANCH  46  47
ENDBRANCH  43  46
ENDBRANCH   1  43
TORSDOF 5
ENDMDL
MODEL 4
REMARK VINA RESULT:      -6.9      3.251      6.236
REMARK  5 active torsions:
REMARK  status: ('A' for Active; 'I' for Inactive)
REMARK    1  A    between atoms: C_1  and  S_2 
REMARK    2  A    between atoms: S_2  and  C_3 
REMARK    3  A    between atoms: C_3  and  C_4 
REMARK       I    between atoms: C_4  and  N_6 
REMARK    4  A    between atoms: C_17  and  C_22 
REMARK    5  A    between atoms: C_26  and  C_28 
ROOT
ATOM      1  C   LIG d   1       9.088   2.211  -7.545  0.00  0.00     0.225 C 
ATOM      2  O   LIG d   1       8.474   3.253  -7.471  0.00  0.00    -0.275 OA
ATOM      3  N   LIG d   1      10.199   2.028  -6.803  0.00  0.00    -0.300 N 
ATOM      4  C   LIG d   1      10.679   3.082  -5.900  0.00  0.00     0.019 C 
ATOM      5  C   LIG d   1      10.935   2.510  -4.512  0.00  0.00    -0.006 C 
ATOM      6  H   LIG d   1      11.486   3.253  -3.937  0.00  0.00     0.033 H 
ATOM      7  C   LIG d   1      11.801   1.252  -4.588  0.00  0.00    -0.037 C 
ATOM      8  C   LIG d   1      11.073   0.215  -5.448  0.00  0.00     0.016 C 
ATOM      9  H   LIG d   1      11.614  -0.730  -5.455  0.00  0.00     0.038 H 
ATOM     10  C   LIG d   1      10.957   0.769  -6.880  0.00  0.00     0.023 C 
ATOM     11  C   LIG d   1       9.671   0.008  -4.921  0.00  0.00     0.027 C 
ATOM     12  C   LIG d   1       9.088  -1.197  -5.165  0.00  0.00    -0.041 C 
ATOM     13  C   LIG d   1       7.760  -1.434  -4.803  0.00  0.00    -0.047 C 
ATOM     14  C   LIG d   1       7.043  -0.412  -4.199  0.00  0.00     0.047 C 
ATOM     15  C   LIG d   1       7.687   0.822  -3.965  0.00  0.00     0.259 C 
ATOM     16  O   LIG d   1       7.058   1.753  -3.490  0.00  0.00    -0.267 OA
ATOM     17  N   LIG d   1       9.001   0.980  -4.259  0.00  0.00    -0.311 N 
ATOM     18  C   LIG d   1       9.643   2.204  -3.776  0.00  0.00     0.031 C 
ATOM     19  H   LIG d   1      11.604   3.501  -6.294  0.00  0.00     0.047 H 
ATOM     20  H   LIG d   1       9.926   3.868  -5.831  0.00  0.00     0.047 H 
ATOM     21  H   LIG d   1      11.956   0.853  -3.587  0.00  0.00     0.028 H 
ATOM     22  H   LIG d   1      12.761   1.494  -5.041  0.00  0.00     0.028 H 
ATOM     23  H   LIG d   1      11.950   0.959  -7.284  0.00  0.00     0.047 H 
ATOM     24  H   LIG d   1      10.429   0.056  -7.511  0.00  0.00     0.047 H 
ATOM     25  H   LIG d   1       9.658  -1.980  -5.642  0.00  0.00     0.064 H 
ATOM     26  H   LIG d   1       7.302  -2.394  -4.986  0.00  0.00     0.063 H 
ATOM     27  H   LIG d   1       8.956   3.039  -3.908  0.00  0.00     0.050 H 
ATOM     28  H   LIG d   1       9.861   2.093  -2.713  0.00  0.00     0.050 H 
ENDROOT
BRANCH  14  29
ATOM     29  C   LIG d   1       5.626  -0.610  -3.813  0.00  0.00    -0.012 A 
ATOM     30  C   LIG d   1       4.607  -0.042  -4.576  0.00  0.00    -0.042 A 
ATOM     31  C   LIG d   1       3.290  -0.231  -4.212  0.00  0.00     0.055 A 
ATOM     32  H   LIG d   1       4.848   0.547  -5.449  0.00  0.00     0.063 H 
ATOM     33  C   LIG d   1       2.978  -0.984  -3.094  0.00  0.00    -0.050 A 
ATOM     34  C   LIG d   1       3.986  -1.551  -2.333  0.00  0.00    -0.061 A 
ATOM     35  H   LIG d   1       1.947  -1.130  -2.814  0.00  0.00     0.062 H 
ATOM     36  C   LIG d   1       5.307  -1.372  -2.690  0.00  0.00    -0.054 A 
ATOM     37  H   LIG d   1       3.737  -2.137  -1.462  0.00  0.00     0.062 H 
ATOM     38  H   LIG d   1       6.092  -1.820  -2.098  0.00  0.00     0.062 H 
BRANCH  31  39
ATOM     39  C   LIG d   1       2.186   0.382  -5.035  0.00  0.00     0.417 C 
ATOM     40  F   LIG d   1       2.194   1.770  -4.866  0.00  0.00    -0.166 F 
ATOM     41  F   LIG d   1       2.385   0.075  -6.385  0.00  0.00    -0.166 F 
ATOM     42  F   LIG d   1       0.953  -0.131  -4.618  0.00  0.00    -0.166 F 
ENDBRANCH  31  39
ENDBRANCH  14  29
BRANCH   1  43
ATOM     43  C   LIG d   1       8.611   1.117  -8.467  0.00  0.00     0.070 C 
ATOM     44  H   LIG d   1       8.593   1.488  -9.492  0.00  0.00     0.047 H 
ATOM     45  H   LIG d   1       9.288   0.266  -8.401  0.00  0.00     0.047 H 
BRANCH  43  46
ATOM     46  S   LIG d   1       6.942   0.603  -7.980  0.00  0.00    -0.155 SA
BRANCH  46  47
ATOM     47  C   LIG d   1       5.853   1.515  -9.108  0.00  0.00    -0.018 C 
ATOM     48  H   LIG d   1       6.136   1.300 -10.139  0.00  0.00     0.034 H 
ATOM     49  H   LIG d   1       4.820   1.209  -8.943  0.00  0.00     0.034 H 
ATOM     50  H   LIG d   1       5.949   2.584  -8.921  0.00  0.00     0.034 H 
ENDBRANCH  46  47
ENDBRANCH  43  46
ENDBRANCH   1  43
TORSDOF 5
ENDMDL
MODEL 5
REMARK VINA RESULT:      -6.5      5.294      8.110
REMARK  5 active torsions:
REMARK  status: ('A' for Active; 'I' for Inactive)
REMARK    1  A    between atoms: C_1  and  S_2 
REMARK    2  A    between atoms: S_2  and  C_3 
REMARK    3  A    between atoms: C_3  and  C_4 
REMARK       I    between atoms: C_4  and  N_6 
REMARK    4  A    between atoms: C_17  and  C_22 
REMARK    5  A    between atoms: C_26  and  C_28 
ROOT
ATOM      1  C   LIG d   1      12.441   2.117  -6.810  0.00  0.00     0.225 C 
ATOM      2  O   LIG d   1      12.419   1.181  -7.581  0.00  0.00    -0.275 OA
ATOM      3  N   LIG d   1      11.980   3.323  -7.201  0.00  0.00    -0.300 N 
ATOM      4  C   LIG d   1      11.448   3.519  -8.555  0.00  0.00     0.019 C 
ATOM      5  C   LIG d   1      10.086   4.196  -8.493  0.00  0.00    -0.006 C 
ATOM      6  H   LIG d   1       9.821   4.518  -9.499  0.00  0.00     0.033 H 
ATOM      7  C   LIG d   1      10.131   5.441  -7.608  0.00  0.00    -0.037 C 
ATOM      8  C   LIG d   1      10.563   5.019  -6.201  0.00  0.00     0.016 C 
ATOM      9  H   LIG d   1      10.522   5.863  -5.514  0.00  0.00     0.038 H 
ATOM     10  C   LIG d   1      11.999   4.470  -6.280  0.00  0.00     0.023 C 
ATOM     11  C   LIG d   1       9.671   3.903  -5.706  0.00  0.00     0.027 C 
ATOM     12  C   LIG d   1       9.523   3.777  -4.359  0.00  0.00    -0.041 C 
ATOM     13  C   LIG d   1       8.801   2.712  -3.817  0.00  0.00    -0.047 C 
ATOM     14  C   LIG d   1       8.246   1.777  -4.678  0.00  0.00     0.047 C 
ATOM     15  C   LIG d   1       8.426   1.946  -6.068  0.00  0.00     0.259 C 
ATOM     16  O   LIG d   1       7.997   1.104  -6.840  0.00  0.00    -0.267 OA
ATOM     17  N   LIG d   1       9.064   3.039  -6.553  0.00  0.00    -0.311 N 
ATOM     18  C   LIG d   1       9.004   3.251  -8.001  0.00  0.00     0.031 C 
ATOM     19  H   LIG d   1      12.135   4.143  -9.126  0.00  0.00     0.047 H 
ATOM     20  H   LIG d   1      11.347   2.551  -9.047  0.00  0.00     0.047 H 
ATOM     21  H   LIG d   1       9.142   5.897  -7.566  0.00  0.00     0.028 H 
ATOM     22  H   LIG d   1      10.848   6.153  -8.013  0.00  0.00     0.028 H 
ATOM     23  H   LIG d   1      12.669   5.240  -6.661  0.00  0.00     0.047 H 
ATOM     24  H   LIG d   1      12.328   4.148  -5.292  0.00  0.00     0.047 H 
ATOM     25  H   LIG d   1       9.967   4.510  -3.702  0.00  0.00     0.064 H 
ATOM     26  H   LIG d   1       8.674   2.620  -2.749  0.00  0.00     0.063 H 
ATOM     27  H   LIG d   1       9.118   2.291  -8.503  0.00  0.00     0.050 H 
ATOM     28  H   LIG d   1       8.029   3.667  -8.256  0.00  0.00     0.050 H 
ENDROOT
BRANCH  14  29
ATOM     29  C   LIG d   1       7.487   0.621  -4.149  0.00  0.00    -0.012 A 
ATOM     30  C   LIG d   1       6.374   0.827  -3.335  0.00  0.00    -0.042 A 
ATOM     31  C   LIG d   1       5.670  -0.254  -2.845  0.00  0.00     0.055 A 
ATOM     32  H   LIG d   1       6.064   1.832  -3.086  0.00  0.00     0.063 H 
ATOM     33  C   LIG d   1       6.065  -1.541  -3.161  0.00  0.00    -0.050 A 
ATOM     34  C   LIG d   1       7.170  -1.752  -3.969  0.00  0.00    -0.061 A 
ATOM     35  H   LIG d   1       5.512  -2.384  -2.777  0.00  0.00     0.062 H 
ATOM     36  C   LIG d   1       7.878  -0.679  -4.468  0.00  0.00    -0.054 A 
ATOM     37  H   LIG d   1       7.473  -2.760  -4.212  0.00  0.00     0.062 H 
ATOM     38  H   LIG d   1       8.736  -0.846  -5.103  0.00  0.00     0.062 H 
BRANCH  31  39
ATOM     39  C   LIG d   1       4.467  -0.032  -1.966  0.00  0.00     0.417 C 
ATOM     40  F   LIG d   1       4.252  -1.166  -1.175  0.00  0.00    -0.166 F 
ATOM     41  F   LIG d   1       4.688   1.076  -1.142  0.00  0.00    -0.166 F 
ATOM     42  F   LIG d   1       3.342   0.198  -2.765  0.00  0.00    -0.166 F 
ENDBRANCH  31  39
ENDBRANCH  14  29
BRANCH   1  43
ATOM     43  C   LIG d   1      12.984   1.935  -5.416  0.00  0.00     0.070 C 
ATOM     44  H   LIG d   1      14.005   1.559  -5.469  0.00  0.00     0.047 H 
ATOM     45  H   LIG d   1      12.976   2.892  -4.895  0.00  0.00     0.047 H 
BRANCH  43  46
ATOM     46  S   LIG d   1      11.949   0.749  -4.516  0.00  0.00    -0.155 SA
BRANCH  46  47
ATOM     47  C   LIG d   1      13.109  -0.551  -4.010  0.00  0.00    -0.018 C 
ATOM     48  H   LIG d   1      13.200  -0.554  -2.923  0.00  0.00     0.034 H 
ATOM     49  H   LIG d   1      12.738  -1.520  -4.344  0.00  0.00     0.034 H 
ATOM     50  H   LIG d   1      14.084  -0.362  -4.455  0.00  0.00     0.034 H 
ENDBRANCH  46  47
ENDBRANCH  43  46
ENDBRANCH   1  43
TORSDOF 5
ENDMDL
MODEL 6
REMARK VINA RESULT:      -6.5      4.286      7.601
REMARK  5 active torsions:
REMARK  status: ('A' for Active; 'I' for Inactive)
REMARK    1  A    between atoms: C_1  and  S_2 
REMARK    2  A    between atoms: S_2  and  C_3 
REMARK    3  A    between atoms: C_3  and  C_4 
REMARK       I    between atoms: C_4  and  N_6 
REMARK    4  A    between atoms: C_17  and  C_22 
REMARK    5  A    between atoms: C_26  and  C_28 
ROOT
ATOM      1  C   LIG d   1       2.469  -2.445 -10.046  0.00  0.00     0.225 C 
ATOM      2  O   LIG d   1       1.488  -1.833  -9.681  0.00  0.00    -0.275 OA
ATOM      3  N   LIG d   1       3.271  -1.926 -10.998  0.00  0.00    -0.300 N 
ATOM      4  C   LIG d   1       2.972  -0.623 -11.603  0.00  0.00     0.019 C 
ATOM      5  C   LIG d   1       4.205   0.269 -11.570  0.00  0.00    -0.006 C 
ATOM      6  H   LIG d   1       4.016   1.131 -12.208  0.00  0.00     0.033 H 
ATOM      7  C   LIG d   1       5.426  -0.460 -12.129  0.00  0.00    -0.037 C 
ATOM      8  C   LIG d   1       5.671  -1.713 -11.284  0.00  0.00     0.016 C 
ATOM      9  H   LIG d   1       6.586  -2.216 -11.593  0.00  0.00     0.038 H 
ATOM     10  C   LIG d   1       4.466  -2.655 -11.454  0.00  0.00     0.023 C 
ATOM     11  C   LIG d   1       5.754  -1.334  -9.822  0.00  0.00     0.027 C 
ATOM     12  C   LIG d   1       6.484  -2.148  -9.011  0.00  0.00    -0.041 C 
ATOM     13  C   LIG d   1       6.528  -1.927  -7.633  0.00  0.00    -0.047 C 
ATOM     14  C   LIG d   1       5.804  -0.868  -7.105  0.00  0.00     0.047 C 
ATOM     15  C   LIG d   1       5.061  -0.051  -7.983  0.00  0.00     0.259 C 
ATOM     16  O   LIG d   1       4.370   0.849  -7.534  0.00  0.00    -0.267 OA
ATOM     17  N   LIG d   1       5.113  -0.252  -9.323  0.00  0.00    -0.311 N 
ATOM     18  C   LIG d   1       4.502   0.775 -10.169  0.00  0.00     0.031 C 
ATOM     19  H   LIG d   1       2.659  -0.768 -12.637  0.00  0.00     0.047 H 
ATOM     20  H   LIG d   1       2.166  -0.144 -11.046  0.00  0.00     0.047 H 
ATOM     21  H   LIG d   1       6.298   0.191 -12.080  0.00  0.00     0.028 H 
ATOM     22  H   LIG d   1       5.239  -0.747 -13.163  0.00  0.00     0.028 H 
ATOM     23  H   LIG d   1       4.355  -2.928 -12.503  0.00  0.00     0.047 H 
ATOM     24  H   LIG d   1       4.608  -3.551 -10.850  0.00  0.00     0.047 H 
ATOM     25  H   LIG d   1       7.036  -2.971  -9.437  0.00  0.00     0.064 H 
ATOM     26  H   LIG d   1       7.117  -2.566  -6.991  0.00  0.00     0.063 H 
ATOM     27  H   LIG d   1       3.573   1.105  -9.708  0.00  0.00     0.050 H 
ATOM     28  H   LIG d   1       5.182   1.625 -10.238  0.00  0.00     0.050 H 
ENDROOT
BRANCH  14  29
ATOM     29  C   LIG d   1       5.806  -0.606  -5.647  0.00  0.00    -0.012 A 
ATOM     30  C   LIG d   1       4.896  -1.260  -4.816  0.00  0.00    -0.042 A 
ATOM     31  C   LIG d   1       4.904  -1.012  -3.459  0.00  0.00     0.055 A 
ATOM     32  H   LIG d   1       4.185  -1.957  -5.235  0.00  0.00     0.063 H 
ATOM     33  C   LIG d   1       5.812  -0.118  -2.921  0.00  0.00    -0.050 A 
ATOM     34  C   LIG d   1       6.717   0.533  -3.740  0.00  0.00    -0.061 A 
ATOM     35  H   LIG d   1       5.814   0.072  -1.858  0.00  0.00     0.062 H 
ATOM     36  C   LIG d   1       6.723   0.290  -5.098  0.00  0.00    -0.054 A 
ATOM     37  H   LIG d   1       7.424   1.230  -3.314  0.00  0.00     0.062 H 
ATOM     38  H   LIG d   1       7.434   0.795  -5.735  0.00  0.00     0.062 H 
BRANCH  31  39
ATOM     39  C   LIG d   1       3.921  -1.718  -2.560  0.00  0.00     0.417 C 
ATOM     40  F   LIG d   1       4.293  -1.531  -1.225  0.00  0.00    -0.166 F 
ATOM     41  F   LIG d   1       2.641  -1.194  -2.766  0.00  0.00    -0.166 F 
ATOM     42  F   LIG d   1       3.918  -3.085  -2.856  0.00  0.00    -0.166 F 
ENDBRANCH  31  39
ENDBRANCH  14  29
BRANCH   1  43
ATOM     43  C   LIG d   1       2.793  -3.785  -9.437  0.00  0.00     0.070 C 
ATOM     44  H   LIG d   1       3.844  -4.018  -9.608  0.00  0.00     0.047 H 
ATOM     45  H   LIG d   1       2.598  -3.754  -8.366  0.00  0.00     0.047 H 
BRANCH  43  46
ATOM     46  S   LIG d   1       1.758  -5.062 -10.203  0.00  0.00    -0.155 SA
BRANCH  46  47
ATOM     47  C   LIG d   1       2.904  -6.436 -10.504  0.00  0.00    -0.018 C 
ATOM     48  H   LIG d   1       2.712  -7.233  -9.785  0.00  0.00     0.034 H 
ATOM     49  H   LIG d   1       2.758  -6.817 -11.515  0.00  0.00     0.034 H 
ATOM     50  H   LIG d   1       3.929  -6.085 -10.392  0.00  0.00     0.034 H 
ENDBRANCH  46  47
ENDBRANCH  43  46
ENDBRANCH   1  43
TORSDOF 5
ENDMDL
MODEL 7
REMARK VINA RESULT:      -6.2      4.463      7.148
REMARK  5 active torsions:
REMARK  status: ('A' for Active; 'I' for Inactive)
REMARK    1  A    between atoms: C_1  and  S_2 
REMARK    2  A    between atoms: S_2  and  C_3 
REMARK    3  A    between atoms: C_3  and  C_4 
REMARK       I    between atoms: C_4  and  N_6 
REMARK    4  A    between atoms: C_17  and  C_22 
REMARK    5  A    between atoms: C_26  and  C_28 
ROOT
ATOM      1  C   LIG d   1      10.428   3.806  -6.844  0.00  0.00     0.225 C 
ATOM      2  O   LIG d   1       9.690   4.748  -6.651  0.00  0.00    -0.275 OA
ATOM      3  N   LIG d   1      11.383   3.501  -5.942  0.00  0.00    -0.300 N 
ATOM      4  C   LIG d   1      11.543   4.300  -4.721  0.00  0.00     0.019 C 
ATOM      5  C   LIG d   1      11.587   3.393  -3.500  0.00  0.00    -0.006 C 
ATOM      6  H   LIG d   1      11.918   3.986  -2.649  0.00  0.00     0.033 H 
ATOM      7  C   LIG d   1      12.596   2.261  -3.692  0.00  0.00    -0.037 C 
ATOM      8  C   LIG d   1      12.184   1.450  -4.924  0.00  0.00     0.016 C 
ATOM      9  H   LIG d   1      12.827   0.579  -5.046  0.00  0.00     0.038 H 
ATOM     10  C   LIG d   1      12.288   2.361  -6.160  0.00  0.00     0.023 C 
ATOM     11  C   LIG d   1      10.742   1.018  -4.792  0.00  0.00     0.027 C 
ATOM     12  C   LIG d   1      10.369  -0.112  -5.454  0.00  0.00    -0.041 C 
ATOM     13  C   LIG d   1       9.034  -0.522  -5.469  0.00  0.00    -0.047 C 
ATOM     14  C   LIG d   1       8.093   0.250  -4.804  0.00  0.00     0.047 C 
ATOM     15  C   LIG d   1       8.524   1.414  -4.132  0.00  0.00     0.259 C 
ATOM     16  O   LIG d   1       7.705   2.139  -3.591  0.00  0.00    -0.267 OA
ATOM     17  N   LIG d   1       9.841   1.730  -4.075  0.00  0.00    -0.311 N 
ATOM     18  C   LIG d   1      10.221   2.817  -3.171  0.00  0.00     0.031 C 
ATOM     19  H   LIG d   1      12.471   4.870  -4.781  0.00  0.00     0.047 H 
ATOM     20  H   LIG d   1      10.703   4.988  -4.628  0.00  0.00     0.047 H 
ATOM     21  H   LIG d   1      12.597   1.616  -2.814  0.00  0.00     0.028 H 
ATOM     22  H   LIG d   1      13.591   2.678  -3.844  0.00  0.00     0.028 H 
ATOM     23  H   LIG d   1      13.312   2.717  -6.272  0.00  0.00     0.047 H 
ATOM     24  H   LIG d   1      11.987   1.813  -7.052  0.00  0.00     0.047 H 
ATOM     25  H   LIG d   1      11.113  -0.697  -5.972  0.00  0.00     0.064 H 
ATOM     26  H   LIG d   1       8.741  -1.425  -5.984  0.00  0.00     0.063 H 
ATOM     27  H   LIG d   1       9.478   3.610  -3.240  0.00  0.00     0.050 H 
ATOM     28  H   LIG d   1      10.235   2.437  -2.149  0.00  0.00     0.050 H 
ENDROOT
BRANCH  14  29
ATOM     29  C   LIG d   1       6.663  -0.136  -4.807  0.00  0.00    -0.012 A 
ATOM     30  C   LIG d   1       5.979  -0.300  -3.602  0.00  0.00    -0.042 A 
ATOM     31  C   LIG d   1       4.647  -0.658  -3.612  0.00  0.00     0.055 A 
ATOM     32  H   LIG d   1       6.493  -0.148  -2.664  0.00  0.00     0.063 H 
ATOM     33  C   LIG d   1       3.988  -0.855  -4.812  0.00  0.00    -0.050 A 
ATOM     34  C   LIG d   1       4.662  -0.693  -6.011  0.00  0.00    -0.061 A 
ATOM     35  H   LIG d   1       2.946  -1.135  -4.814  0.00  0.00     0.062 H 
ATOM     36  C   LIG d   1       5.992  -0.330  -6.014  0.00  0.00    -0.054 A 
ATOM     37  H   LIG d   1       4.142  -0.848  -6.945  0.00  0.00     0.062 H 
ATOM     38  H   LIG d   1       6.514  -0.199  -6.951  0.00  0.00     0.062 H 
BRANCH  31  39
ATOM     39  C   LIG d   1       3.907  -0.836  -2.311  0.00  0.00     0.417 C 
ATOM     40  F   LIG d   1       3.702  -2.199  -2.073  0.00  0.00    -0.166 F 
ATOM     41  F   LIG d   1       4.659  -0.287  -1.267  0.00  0.00    -0.166 F 
ATOM     42  F   LIG d   1       2.671  -0.185  -2.386  0.00  0.00    -0.166 F 
ENDBRANCH  31  39
ENDBRANCH  14  29
BRANCH   1  43
ATOM     43  C   LIG d   1      10.280   2.974  -8.093  0.00  0.00     0.070 C 
ATOM     44  H   LIG d   1      11.131   3.149  -8.750  0.00  0.00     0.047 H 
ATOM     45  H   LIG d   1      10.241   1.919  -7.824  0.00  0.00     0.047 H 
BRANCH  43  46
ATOM     46  S   LIG d   1       8.749   3.436  -8.948  0.00  0.00    -0.155 SA
BRANCH  46  47
ATOM     47  C   LIG d   1       7.602   2.087  -8.558  0.00  0.00    -0.018 C 
ATOM     48  H   LIG d   1       8.168   1.178  -8.348  0.00  0.00     0.034 H 
ATOM     49  H   LIG d   1       7.009   2.354  -7.683  0.00  0.00     0.034 H 
ATOM     50  H   LIG d   1       6.941   1.915  -9.405  0.00  0.00     0.034 H 
ENDBRANCH  46  47
ENDBRANCH  43  46
ENDBRANCH   1  43
TORSDOF 5
ENDMDL
MODEL 8
REMARK VINA RESULT:      -6.1      4.437      7.336
REMARK  5 active torsions:
REMARK  status: ('A' for Active; 'I' for Inactive)
REMARK    1  A    between atoms: C_1  and  S_2 
REMARK    2  A    between atoms: S_2  and  C_3 
REMARK    3  A    between atoms: C_3  and  C_4 
REMARK       I    between atoms: C_4  and  N_6 
REMARK    4  A    between atoms: C_17  and  C_22 
REMARK    5  A    between atoms: C_26  and  C_28 
ROOT
ATOM      1  C   LIG d   1       6.211  -4.170  -9.992  0.00  0.00     0.225 C 
ATOM      2  O   LIG d   1       5.291  -4.954  -9.899  0.00  0.00    -0.275 OA
ATOM      3  N   LIG d   1       6.228  -3.266 -10.992  0.00  0.00    -0.300 N 
ATOM      4  C   LIG d   1       5.141  -3.218 -11.978  0.00  0.00     0.019 C 
ATOM      5  C   LIG d   1       4.621  -1.794 -12.119  0.00  0.00    -0.006 C 
ATOM      6  H   LIG d   1       3.978  -1.754 -12.997  0.00  0.00     0.033 H 
ATOM      7  C   LIG d   1       5.769  -0.810 -12.344  0.00  0.00    -0.037 C 
ATOM      8  C   LIG d   1       6.721  -0.896 -11.148  0.00  0.00     0.016 C 
ATOM      9  H   LIG d   1       7.508  -0.146 -11.225  0.00  0.00     0.038 H 
ATOM     10  C   LIG d   1       7.336  -2.306 -11.120  0.00  0.00     0.023 C 
ATOM     11  C   LIG d   1       5.946  -0.707  -9.864  0.00  0.00     0.027 C 
ATOM     12  C   LIG d   1       6.628  -0.211  -8.795  0.00  0.00    -0.041 C 
ATOM     13  C   LIG d   1       6.015  -0.103  -7.545  0.00  0.00    -0.047 C 
ATOM     14  C   LIG d   1       4.699  -0.521  -7.412  0.00  0.00     0.047 C 
ATOM     15  C   LIG d   1       4.031  -1.030  -8.546  0.00  0.00     0.259 C 
ATOM     16  O   LIG d   1       2.893  -1.458  -8.438  0.00  0.00    -0.267 OA
ATOM     17  N   LIG d   1       4.639  -1.040  -9.758  0.00  0.00    -0.311 N 
ATOM     18  C   LIG d   1       3.802  -1.366 -10.914  0.00  0.00     0.031 C 
ATOM     19  H   LIG d   1       5.512  -3.563 -12.942  0.00  0.00     0.047 H 
ATOM     20  H   LIG d   1       4.328  -3.866 -11.650  0.00  0.00     0.047 H 
ATOM     21  H   LIG d   1       5.374   0.203 -12.425  0.00  0.00     0.028 H 
ATOM     22  H   LIG d   1       6.303  -1.071 -13.257  0.00  0.00     0.028 H 
ATOM     23  H   LIG d   1       7.881  -2.491 -12.046  0.00  0.00     0.047 H 
ATOM     24  H   LIG d   1       8.009  -2.401 -10.269  0.00  0.00     0.047 H 
ATOM     25  H   LIG d   1       7.654   0.104  -8.915  0.00  0.00     0.064 H 
ATOM     26  H   LIG d   1       6.552   0.302  -6.701  0.00  0.00     0.063 H 
ATOM     27  H   LIG d   1       3.124  -2.174 -10.643  0.00  0.00     0.050 H 
ATOM     28  H   LIG d   1       3.213  -0.488 -11.182  0.00  0.00     0.050 H 
ENDROOT
BRANCH  14  29
ATOM     29  C   LIG d   1       4.011  -0.442  -6.102  0.00  0.00    -0.012 A 
ATOM     30  C   LIG d   1       4.533  -1.112  -4.996  0.00  0.00    -0.042 A 
ATOM     31  C   LIG d   1       3.889  -1.034  -3.778  0.00  0.00     0.055 A 
ATOM     32  H   LIG d   1       5.439  -1.694  -5.093  0.00  0.00     0.063 H 
ATOM     33  C   LIG d   1       2.729  -0.291  -3.652  0.00  0.00    -0.050 A 
ATOM     34  C   LIG d   1       2.207   0.377  -4.746  0.00  0.00    -0.061 A 
ATOM     35  H   LIG d   1       2.229  -0.232  -2.698  0.00  0.00     0.062 H 
ATOM     36  C   LIG d   1       2.845   0.310  -5.968  0.00  0.00    -0.054 A 
ATOM     37  H   LIG d   1       1.301   0.955  -4.642  0.00  0.00     0.062 H 
ATOM     38  H   LIG d   1       2.438   0.836  -6.819  0.00  0.00     0.062 H 
BRANCH  31  39
ATOM     39  C   LIG d   1       4.451  -1.757  -2.582  0.00  0.00     0.417 C 
ATOM     40  F   LIG d   1       5.787  -2.094  -2.825  0.00  0.00    -0.166 F 
ATOM     41  F   LIG d   1       4.376  -0.929  -1.457  0.00  0.00    -0.166 F 
ATOM     42  F   LIG d   1       3.712  -2.922  -2.352  0.00  0.00    -0.166 F 
ENDBRANCH  31  39
ENDBRANCH  14  29
BRANCH   1  43
ATOM     43  C   LIG d   1       7.336  -4.205  -8.990  0.00  0.00     0.070 C 
ATOM     44  H   LIG d   1       7.812  -5.185  -9.011  0.00  0.00     0.047 H 
ATOM     45  H   LIG d   1       8.070  -3.440  -9.241  0.00  0.00     0.047 H 
BRANCH  43  46
ATOM     46  S   LIG d   1       6.676  -3.888  -7.330  0.00  0.00    -0.155 SA
BRANCH  46  47
ATOM     47  C   LIG d   1       6.866  -5.475  -6.471  0.00  0.00    -0.018 C 
ATOM     48  H   LIG d   1       5.906  -5.776  -6.051  0.00  0.00     0.034 H 
ATOM     49  H   LIG d   1       7.206  -6.232  -7.178  0.00  0.00     0.034 H 
ATOM     50  H   LIG d   1       7.596  -5.370  -5.671  0.00  0.00     0.034 H 
ENDBRANCH  46  47
ENDBRANCH  43  46
ENDBRANCH   1  43
TORSDOF 5
ENDMDL
MODEL 9
REMARK VINA RESULT:      -6.0      1.621      2.153
REMARK  5 active torsions:
REMARK  status: ('A' for Active; 'I' for Inactive)
REMARK    1  A    between atoms: C_1  and  S_2 
REMARK    2  A    between atoms: S_2  and  C_3 
REMARK    3  A    between atoms: C_3  and  C_4 
REMARK       I    between atoms: C_4  and  N_6 
REMARK    4  A    between atoms: C_17  and  C_22 
REMARK    5  A    between atoms: C_26  and  C_28 
ROOT
ATOM      1  C   LIG d   1       7.333   0.394  -4.469  0.00  0.00     0.225 C 
ATOM      2  O   LIG d   1       7.245   1.464  -5.033  0.00  0.00    -0.275 OA
ATOM      3  N   LIG d   1       6.539   0.123  -3.413  0.00  0.00    -0.300 N 
ATOM      4  C   LIG d   1       5.565   1.110  -2.933  0.00  0.00     0.019 C 
ATOM      5  C   LIG d   1       4.193   0.467  -2.784  0.00  0.00    -0.006 C 
ATOM      6  H   LIG d   1       3.555   1.155  -2.231  0.00  0.00     0.033 H 
ATOM      7  C   LIG d   1       4.279  -0.830  -1.980  0.00  0.00    -0.037 C 
ATOM      8  C   LIG d   1       5.223  -1.790  -2.709  0.00  0.00     0.016 C 
ATOM      9  H   LIG d   1       5.243  -2.761  -2.216  0.00  0.00     0.038 H 
ATOM     10  C   LIG d   1       6.632  -1.170  -2.716  0.00  0.00     0.023 C 
ATOM     11  C   LIG d   1       4.783  -1.945  -4.147  0.00  0.00     0.027 C 
ATOM     12  C   LIG d   1       5.113  -3.107  -4.775  0.00  0.00    -0.041 C 
ATOM     13  C   LIG d   1       4.836  -3.289  -6.131  0.00  0.00    -0.047 C 
ATOM     14  C   LIG d   1       4.225  -2.257  -6.829  0.00  0.00     0.047 C 
ATOM     15  C   LIG d   1       3.901  -1.070  -6.139  0.00  0.00     0.259 C 
ATOM     16  O   LIG d   1       3.419  -0.128  -6.746  0.00  0.00    -0.267 OA
ATOM     17  N   LIG d   1       4.115  -0.969  -4.804  0.00  0.00    -0.311 N 
ATOM     18  C   LIG d   1       3.543   0.199  -4.130  0.00  0.00     0.031 C 
ATOM     19  H   LIG d   1       5.889   1.497  -1.967  0.00  0.00     0.047 H 
ATOM     20  H   LIG d   1       5.502   1.931  -3.648  0.00  0.00     0.047 H 
ATOM     21  H   LIG d   1       3.289  -1.279  -1.902  0.00  0.00     0.028 H 
ATOM     22  H   LIG d   1       4.667  -0.619  -0.984  0.00  0.00     0.028 H 
ATOM     23  H   LIG d   1       6.973  -1.016  -1.693  0.00  0.00     0.047 H 
ATOM     24  H   LIG d   1       7.323  -1.827  -3.242  0.00  0.00     0.047 H 
ATOM     25  H   LIG d   1       5.593  -3.897  -4.218  0.00  0.00     0.064 H 
ATOM     26  H   LIG d   1       5.086  -4.215  -6.626  0.00  0.00     0.063 H 
ATOM     27  H   LIG d   1       3.674   1.073  -4.766  0.00  0.00     0.050 H 
ATOM     28  H   LIG d   1       2.476   0.031  -3.979  0.00  0.00     0.050 H 
ENDROOT
BRANCH  14  29
ATOM     29  C   LIG d   1       3.927  -2.397  -8.274  0.00  0.00    -0.012 A 
ATOM     30  C   LIG d   1       3.727  -1.263  -9.061  0.00  0.00    -0.042 A 
ATOM     31  C   LIG d   1       3.451  -1.400 -10.405  0.00  0.00     0.055 A 
ATOM     32  H   LIG d   1       3.787  -0.280  -8.618  0.00  0.00     0.063 H 
ATOM     33  C   LIG d   1       3.373  -2.659 -10.975  0.00  0.00    -0.050 A 
ATOM     34  C   LIG d   1       3.570  -3.788 -10.198  0.00  0.00    -0.061 A 
ATOM     35  H   LIG d   1       3.157  -2.761 -12.027  0.00  0.00     0.062 H 
ATOM     36  C   LIG d   1       3.852  -3.663  -8.854  0.00  0.00    -0.054 A 
ATOM     37  H   LIG d   1       3.508  -4.768 -10.648  0.00  0.00     0.062 H 
ATOM     38  H   LIG d   1       4.012  -4.545  -8.251  0.00  0.00     0.062 H 
BRANCH  31  39
ATOM     39  C   LIG d   1       3.235  -0.177 -11.258  0.00  0.00     0.417 C 
ATOM     40  F   LIG d   1       3.035   0.936 -10.434  0.00  0.00    -0.166 F 
ATOM     41  F   LIG d   1       4.358   0.036 -12.064  0.00  0.00    -0.166 F 
ATOM     42  F   LIG d   1       2.110  -0.365 -12.067  0.00  0.00    -0.166 F 
ENDBRANCH  31  39
ENDBRANCH  14  29
BRANCH   1  43
ATOM     43  C   LIG d   1       8.328  -0.632  -4.947  0.00  0.00     0.070 C 
ATOM     44  H   LIG d   1       9.332  -0.209  -4.912  0.00  0.00     0.047 H 
ATOM     45  H   LIG d   1       8.281  -1.510  -4.303  0.00  0.00     0.047 H 
BRANCH  43  46
ATOM     46  S   LIG d   1       7.931  -1.110  -6.651  0.00  0.00    -0.155 SA
BRANCH  46  47
ATOM     47  C   LIG d   1       9.515  -1.677  -7.328  0.00  0.00    -0.018 C 
ATOM     48  H   LIG d   1       9.501  -2.764  -7.422  0.00  0.00     0.034 H 
ATOM     49  H   LIG d   1       9.672  -1.231  -8.310  0.00  0.00     0.034 H 
ATOM     50  H   LIG d   1      10.323  -1.381  -6.661  0.00  0.00     0.034 H 
ENDBRANCH  46  47
ENDBRANCH  43  46
ENDBRANCH   1  43
TORSDOF 5
ENDMDL
