MODEL 1
REMARK VINA RESULT:      -7.0      0.000      0.000
REMARK  2 active torsions:
REMARK  status: ('A' for Active; 'I' for Inactive)
REMARK    1  A    between atoms: C_8  and  C_14 
REMARK    2  A    between atoms: C_11  and  O_13 
ROOT
ATOM      1  C   LIG d   1       3.560  -0.335  -2.226  0.00  0.00    -0.061 A 
ATOM      2  C   LIG d   1       4.392  -1.437  -2.273  0.00  0.00    -0.061 A 
ATOM      3  C   LIG d   1       4.761  -1.970  -3.493  0.00  0.00    -0.053 A 
ATOM      4  C   LIG d   1       4.308  -1.397  -4.672  0.00  0.00     0.011 A 
ATOM      5  C   LIG d   1       3.484  -0.293  -4.624  0.00  0.00    -0.037 A 
ATOM      6  C   LIG d   1       3.110   0.238  -3.400  0.00  0.00    -0.058 A 
ATOM      7  C   LIG d   1       2.978   0.362  -5.883  0.00  0.00    -0.001 C 
ATOM      8  C   LIG d   1       3.148  -0.591  -7.067  0.00  0.00     0.069 C 
ATOM      9  H   LIG d   1       2.443  -1.418  -6.976  0.00  0.00     0.060 H 
ATOM     10  O   LIG d   1       4.488  -1.097  -7.053  0.00  0.00    -0.344 OA
ATOM     11  C   LIG d   1       4.732  -2.008  -5.982  0.00  0.00     0.183 C 
ATOM     12  H   LIG d   1       5.796  -2.242  -5.943  0.00  0.00     0.096 H 
ATOM     13  H   LIG d   1       3.265   0.080  -1.274  0.00  0.00     0.062 H 
ATOM     14  H   LIG d   1       4.751  -1.884  -1.358  0.00  0.00     0.062 H 
ATOM     15  H   LIG d   1       5.409  -2.833  -3.528  0.00  0.00     0.062 H 
ATOM     16  H   LIG d   1       2.464   1.102  -3.363  0.00  0.00     0.062 H 
ATOM     17  H   LIG d   1       1.923   0.609  -5.765  0.00  0.00     0.034 H 
ATOM     18  H   LIG d   1       3.544   1.275  -6.070  0.00  0.00     0.034 H 
ENDROOT
BRANCH   8  19
ATOM     19  C   LIG d   1       2.892   0.160  -8.375  0.00  0.00    -0.014 C 
ATOM     20  C   LIG d   1       3.700   1.459  -8.385  0.00  0.00    -0.048 C 
ATOM     21  C   LIG d   1       3.442   2.209  -9.693  0.00  0.00    -0.053 C 
ATOM     22  H   LIG d   1       3.397   2.081  -7.543  0.00  0.00     0.027 H 
ATOM     23  H   LIG d   1       4.761   1.226  -8.302  0.00  0.00     0.027 H 
ATOM     24  C   LIG d   1       3.868   1.335 -10.875  0.00  0.00    -0.053 C 
ATOM     25  H   LIG d   1       2.381   2.442  -9.776  0.00  0.00     0.026 H 
ATOM     26  H   LIG d   1       4.019   3.135  -9.700  0.00  0.00     0.026 H 
ATOM     27  C   LIG d   1       3.059   0.036 -10.865  0.00  0.00    -0.053 C 
ATOM     28  H   LIG d   1       3.684   1.870 -11.807  0.00  0.00     0.026 H 
ATOM     29  H   LIG d   1       4.929   1.103 -10.791  0.00  0.00     0.026 H 
ATOM     30  C   LIG d   1       3.316  -0.715  -9.557  0.00  0.00    -0.048 C 
ATOM     31  H   LIG d   1       1.997   0.268 -10.948  0.00  0.00     0.026 H 
ATOM     32  H   LIG d   1       3.362  -0.586 -11.707  0.00  0.00     0.026 H 
ATOM     33  H   LIG d   1       4.378  -0.946  -9.474  0.00  0.00     0.027 H 
ATOM     34  H   LIG d   1       2.740  -1.639  -9.550  0.00  0.00     0.027 H 
ATOM     35  H   LIG d   1       1.829   0.392  -8.458  0.00  0.00     0.033 H 
ENDBRANCH   8  19
BRANCH  11  36
ATOM     36  O   LIG d   1       3.993  -3.211  -6.205  0.00  0.00    -0.363 OA
ATOM     37  H   LIG d   1       3.489  -3.215  -7.029  0.00  0.00     0.213 HD
ENDBRANCH  11  36
TORSDOF 2
ENDMDL
MODEL 2
REMARK VINA RESULT:      -6.6      1.510      2.330
REMARK  2 active torsions:
REMARK  status: ('A' for Active; 'I' for Inactive)
REMARK    1  A    between atoms: C_8  and  C_14 
REMARK    2  A    between atoms: C_11  and  O_13 
ROOT
ATOM      1  C   LIG d   1       5.434  -2.388  -3.528  0.00  0.00    -0.061 A 
ATOM      2  C   LIG d   1       4.639  -1.798  -2.565  0.00  0.00    -0.061 A 
ATOM      3  C   LIG d   1       3.676  -0.879  -2.936  0.00  0.00    -0.053 A 
ATOM      4  C   LIG d   1       3.497  -0.554  -4.272  0.00  0.00     0.011 A 
ATOM      5  C   LIG d   1       4.286  -1.149  -5.233  0.00  0.00    -0.037 A 
ATOM      6  C   LIG d   1       5.255  -2.068  -4.860  0.00  0.00    -0.058 A 
ATOM      7  C   LIG d   1       4.117  -0.829  -6.696  0.00  0.00    -0.001 C 
ATOM      8  C   LIG d   1       3.322   0.469  -6.852  0.00  0.00     0.069 C 
ATOM      9  H   LIG d   1       3.934   1.314  -6.533  0.00  0.00     0.060 H 
ATOM     10  O   LIG d   1       2.151   0.385  -6.032  0.00  0.00    -0.344 OA
ATOM     11  C   LIG d   1       2.438   0.453  -4.635  0.00  0.00     0.183 C 
ATOM     12  H   LIG d   1       1.531   0.242  -4.070  0.00  0.00     0.096 H 
ATOM     13  H   LIG d   1       6.192  -3.103  -3.241  0.00  0.00     0.062 H 
ATOM     14  H   LIG d   1       4.772  -2.050  -1.524  0.00  0.00     0.062 H 
ATOM     15  H   LIG d   1       3.058  -0.415  -2.182  0.00  0.00     0.062 H 
ATOM     16  H   LIG d   1       5.874  -2.533  -5.613  0.00  0.00     0.062 H 
ATOM     17  H   LIG d   1       5.097  -0.711  -7.158  0.00  0.00     0.034 H 
ATOM     18  H   LIG d   1       3.581  -1.642  -7.186  0.00  0.00     0.034 H 
ENDROOT
BRANCH   8  19
ATOM     19  C   LIG d   1       2.918   0.653  -8.316  0.00  0.00    -0.014 C 
ATOM     20  C   LIG d   1       4.140   1.074  -9.134  0.00  0.00    -0.048 C 
ATOM     21  C   LIG d   1       3.734   1.257 -10.598  0.00  0.00    -0.053 C 
ATOM     22  H   LIG d   1       4.532   2.013  -8.744  0.00  0.00     0.027 H 
ATOM     23  H   LIG d   1       4.907   0.302  -9.064  0.00  0.00     0.027 H 
ATOM     24  C   LIG d   1       3.185  -0.062 -11.144  0.00  0.00    -0.053 C 
ATOM     25  H   LIG d   1       2.968   2.028 -10.668  0.00  0.00     0.026 H 
ATOM     26  H   LIG d   1       4.606   1.557 -11.181  0.00  0.00     0.026 H 
ATOM     27  C   LIG d   1       1.963  -0.483 -10.326  0.00  0.00    -0.053 C 
ATOM     28  H   LIG d   1       2.896   0.069 -12.187  0.00  0.00     0.026 H 
ATOM     29  H   LIG d   1       3.953  -0.833 -11.073  0.00  0.00     0.026 H 
ATOM     30  C   LIG d   1       2.367  -0.667  -8.862  0.00  0.00    -0.048 C 
ATOM     31  H   LIG d   1       1.195   0.288 -10.396  0.00  0.00     0.026 H 
ATOM     32  H   LIG d   1       1.571  -1.422 -10.716  0.00  0.00     0.026 H 
ATOM     33  H   LIG d   1       3.135  -1.437  -8.792  0.00  0.00     0.027 H 
ATOM     34  H   LIG d   1       1.497  -0.966  -8.279  0.00  0.00     0.027 H 
ATOM     35  H   LIG d   1       2.150   1.423  -8.386  0.00  0.00     0.033 H 
ENDBRANCH   8  19
BRANCH  11  36
ATOM     36  O   LIG d   1       2.900   1.766  -4.310  0.00  0.00    -0.363 OA
ATOM     37  H   LIG d   1       2.415   2.185  -3.587  0.00  0.00     0.213 HD
ENDBRANCH  11  36
TORSDOF 2
ENDMDL
MODEL 3
REMARK VINA RESULT:      -6.5      3.468      5.578
REMARK  2 active torsions:
REMARK  status: ('A' for Active; 'I' for Inactive)
REMARK    1  A    between atoms: C_8  and  C_14 
REMARK    2  A    between atoms: C_11  and  O_13 
ROOT
ATOM      1  C   LIG d   1       8.944  -4.703  -4.994  0.00  0.00    -0.061 A 
ATOM      2  C   LIG d   1       8.278  -5.570  -5.839  0.00  0.00    -0.061 A 
ATOM      3  C   LIG d   1       6.916  -5.436  -6.029  0.00  0.00    -0.053 A 
ATOM      4  C   LIG d   1       6.216  -4.428  -5.385  0.00  0.00     0.011 A 
ATOM      5  C   LIG d   1       6.882  -3.558  -4.548  0.00  0.00    -0.037 A 
ATOM      6  C   LIG d   1       8.248  -3.697  -4.354  0.00  0.00    -0.058 A 
ATOM      7  C   LIG d   1       6.158  -2.445  -3.836  0.00  0.00    -0.001 C 
ATOM      8  C   LIG d   1       4.653  -2.717  -3.847  0.00  0.00     0.069 C 
ATOM      9  H   LIG d   1       4.427  -3.556  -3.187  0.00  0.00     0.060 H 
ATOM     10  O   LIG d   1       4.260  -3.040  -5.186  0.00  0.00    -0.344 OA
ATOM     11  C   LIG d   1       4.732  -4.316  -5.617  0.00  0.00     0.183 C 
ATOM     12  H   LIG d   1       4.523  -4.437  -6.680  0.00  0.00     0.096 H 
ATOM     13  H   LIG d   1      10.007  -4.809  -4.839  0.00  0.00     0.062 H 
ATOM     14  H   LIG d   1       8.819  -6.354  -6.346  0.00  0.00     0.062 H 
ATOM     15  H   LIG d   1       6.396  -6.117  -6.687  0.00  0.00     0.062 H 
ATOM     16  H   LIG d   1       8.769  -3.016  -3.697  0.00  0.00     0.062 H 
ATOM     17  H   LIG d   1       6.508  -2.385  -2.805  0.00  0.00     0.034 H 
ATOM     18  H   LIG d   1       6.359  -1.500  -4.341  0.00  0.00     0.034 H 
ENDROOT
BRANCH   8  19
ATOM     19  C   LIG d   1       3.901  -1.473  -3.371  0.00  0.00    -0.014 C 
ATOM     20  C   LIG d   1       4.745  -0.732  -2.332  0.00  0.00    -0.048 C 
ATOM     21  C   LIG d   1       3.991   0.512  -1.857  0.00  0.00    -0.053 C 
ATOM     22  H   LIG d   1       4.935  -1.389  -1.484  0.00  0.00     0.027 H 
ATOM     23  H   LIG d   1       5.692  -0.434  -2.781  0.00  0.00     0.027 H 
ATOM     24  C   LIG d   1       3.725   1.434  -3.049  0.00  0.00    -0.053 C 
ATOM     25  H   LIG d   1       3.044   0.214  -1.409  0.00  0.00     0.026 H 
ATOM     26  H   LIG d   1       4.594   1.040  -1.117  0.00  0.00     0.026 H 
ATOM     27  C   LIG d   1       2.881   0.692  -4.088  0.00  0.00    -0.053 C 
ATOM     28  H   LIG d   1       3.189   2.320  -2.710  0.00  0.00     0.026 H 
ATOM     29  H   LIG d   1       4.674   1.731  -3.498  0.00  0.00     0.026 H 
ATOM     30  C   LIG d   1       3.634  -0.552  -4.564  0.00  0.00    -0.048 C 
ATOM     31  H   LIG d   1       1.933   0.394  -3.640  0.00  0.00     0.026 H 
ATOM     32  H   LIG d   1       2.691   1.349  -4.937  0.00  0.00     0.026 H 
ATOM     33  H   LIG d   1       4.582  -0.254  -5.011  0.00  0.00     0.027 H 
ATOM     34  H   LIG d   1       3.033  -1.080  -5.303  0.00  0.00     0.027 H 
ATOM     35  H   LIG d   1       2.952  -1.771  -2.924  0.00  0.00     0.033 H 
ENDBRANCH   8  19
BRANCH  11  36
ATOM     36  O   LIG d   1       4.058  -5.342  -4.886  0.00  0.00    -0.363 OA
ATOM     37  H   LIG d   1       3.583  -5.023  -4.107  0.00  0.00     0.213 HD
ENDBRANCH  11  36
TORSDOF 2
ENDMDL
MODEL 4
REMARK VINA RESULT:      -6.4      4.446      6.752
REMARK  2 active torsions:
REMARK  status: ('A' for Active; 'I' for Inactive)
REMARK    1  A    between atoms: C_8  and  C_14 
REMARK    2  A    between atoms: C_11  and  O_13 
ROOT
ATOM      1  C   LIG d   1       9.923   4.334  -5.821  0.00  0.00    -0.061 A 
ATOM      2  C   LIG d   1       9.827   3.814  -7.098  0.00  0.00    -0.061 A 
ATOM      3  C   LIG d   1       9.078   2.676  -7.325  0.00  0.00    -0.053 A 
ATOM      4  C   LIG d   1       8.412   2.058  -6.277  0.00  0.00     0.011 A 
ATOM      5  C   LIG d   1       8.502   2.582  -5.005  0.00  0.00    -0.037 A 
ATOM      6  C   LIG d   1       9.258   3.721  -4.778  0.00  0.00    -0.058 A 
ATOM      7  C   LIG d   1       7.786   1.943  -3.842  0.00  0.00    -0.001 C 
ATOM      8  C   LIG d   1       7.375   0.516  -4.208  0.00  0.00     0.069 C 
ATOM      9  H   LIG d   1       8.262  -0.116  -4.267  0.00  0.00     0.060 H 
ATOM     10  O   LIG d   1       6.719   0.545  -5.480  0.00  0.00    -0.344 OA
ATOM     11  C   LIG d   1       7.607   0.818  -6.564  0.00  0.00     0.183 C 
ATOM     12  H   LIG d   1       7.028   0.967  -7.475  0.00  0.00     0.096 H 
ATOM     13  H   LIG d   1      10.513   5.220  -5.640  0.00  0.00     0.062 H 
ATOM     14  H   LIG d   1      10.341   4.294  -7.918  0.00  0.00     0.062 H 
ATOM     15  H   LIG d   1       9.007   2.269  -8.322  0.00  0.00     0.062 H 
ATOM     16  H   LIG d   1       9.329   4.129  -3.780  0.00  0.00     0.062 H 
ATOM     17  H   LIG d   1       8.449   1.919  -2.977  0.00  0.00     0.034 H 
ATOM     18  H   LIG d   1       6.897   2.525  -3.600  0.00  0.00     0.034 H 
ENDROOT
BRANCH   8  19
ATOM     19  C   LIG d   1       6.423  -0.034  -3.145  0.00  0.00    -0.014 C 
ATOM     20  C   LIG d   1       5.384   1.031  -2.789  0.00  0.00    -0.048 C 
ATOM     21  C   LIG d   1       4.433   0.479  -1.725  0.00  0.00    -0.053 C 
ATOM     22  H   LIG d   1       5.890   1.915  -2.401  0.00  0.00     0.027 H 
ATOM     23  H   LIG d   1       4.818   1.298  -3.681  0.00  0.00     0.027 H 
ATOM     24  C   LIG d   1       3.722  -0.762  -2.271  0.00  0.00    -0.053 C 
ATOM     25  H   LIG d   1       4.999   0.212  -0.834  0.00  0.00     0.026 H 
ATOM     26  H   LIG d   1       3.692   1.239  -1.472  0.00  0.00     0.026 H 
ATOM     27  C   LIG d   1       4.761  -1.827  -2.628  0.00  0.00    -0.053 C 
ATOM     28  H   LIG d   1       3.044  -1.154  -1.513  0.00  0.00     0.026 H 
ATOM     29  H   LIG d   1       3.156  -0.494  -3.163  0.00  0.00     0.026 H 
ATOM     30  C   LIG d   1       5.713  -1.277  -3.690  0.00  0.00    -0.048 C 
ATOM     31  H   LIG d   1       5.328  -2.096  -1.736  0.00  0.00     0.026 H 
ATOM     32  H   LIG d   1       4.255  -2.711  -3.016  0.00  0.00     0.026 H 
ATOM     33  H   LIG d   1       5.146  -1.008  -4.582  0.00  0.00     0.027 H 
ATOM     34  H   LIG d   1       6.453  -2.035  -3.944  0.00  0.00     0.027 H 
ATOM     35  H   LIG d   1       6.990  -0.303  -2.254  0.00  0.00     0.033 H 
ENDBRANCH   8  19
BRANCH  11  36
ATOM     36  O   LIG d   1       8.490  -0.290  -6.744  0.00  0.00    -0.363 OA
ATOM     37  H   LIG d   1       8.187  -1.106  -6.324  0.00  0.00     0.213 HD
ENDBRANCH  11  36
TORSDOF 2
ENDMDL
MODEL 5
REMARK VINA RESULT:      -6.3      4.084      6.100
REMARK  2 active torsions:
REMARK  status: ('A' for Active; 'I' for Inactive)
REMARK    1  A    between atoms: C_8  and  C_14 
REMARK    2  A    between atoms: C_11  and  O_13 
ROOT
ATOM      1  C   LIG d   1       4.280   1.027  -2.170  0.00  0.00    -0.061 A 
ATOM      2  C   LIG d   1       3.106   0.450  -2.617  0.00  0.00    -0.061 A 
ATOM      3  C   LIG d   1       3.146  -0.735  -3.325  0.00  0.00    -0.053 A 
ATOM      4  C   LIG d   1       4.360  -1.356  -3.580  0.00  0.00     0.011 A 
ATOM      5  C   LIG d   1       5.530  -0.784  -3.127  0.00  0.00    -0.037 A 
ATOM      6  C   LIG d   1       5.489   0.408  -2.421  0.00  0.00    -0.058 A 
ATOM      7  C   LIG d   1       6.867  -1.432  -3.377  0.00  0.00    -0.001 C 
ATOM      8  C   LIG d   1       6.738  -2.470  -4.494  0.00  0.00     0.069 C 
ATOM      9  H   LIG d   1       6.581  -1.964  -5.447  0.00  0.00     0.060 H 
ATOM     10  O   LIG d   1       5.616  -3.311  -4.204  0.00  0.00    -0.344 OA
ATOM     11  C   LIG d   1       4.362  -2.646  -4.356  0.00  0.00     0.183 C 
ATOM     12  H   LIG d   1       3.565  -3.291  -3.986  0.00  0.00     0.096 H 
ATOM     13  H   LIG d   1       4.252   1.956  -1.621  0.00  0.00     0.062 H 
ATOM     14  H   LIG d   1       2.159   0.928  -2.417  0.00  0.00     0.062 H 
ATOM     15  H   LIG d   1       2.229  -1.182  -3.676  0.00  0.00     0.062 H 
ATOM     16  H   LIG d   1       6.406   0.855  -2.068  0.00  0.00     0.062 H 
ATOM     17  H   LIG d   1       7.590  -0.672  -3.671  0.00  0.00     0.034 H 
ATOM     18  H   LIG d   1       7.209  -1.923  -2.465  0.00  0.00     0.034 H 
ENDROOT
BRANCH   8  19
ATOM     19  C   LIG d   1       8.013  -3.312  -4.564  0.00  0.00    -0.014 C 
ATOM     20  C   LIG d   1       8.662  -3.374  -3.180  0.00  0.00    -0.048 C 
ATOM     21  C   LIG d   1       9.937  -4.217  -3.253  0.00  0.00    -0.053 C 
ATOM     22  H   LIG d   1       8.910  -2.366  -2.850  0.00  0.00     0.027 H 
ATOM     23  H   LIG d   1       7.966  -3.828  -2.474  0.00  0.00     0.027 H 
ATOM     24  C   LIG d   1       9.587  -5.633  -3.715  0.00  0.00    -0.053 C 
ATOM     25  H   LIG d   1      10.632  -3.764  -3.958  0.00  0.00     0.026 H 
ATOM     26  H   LIG d   1      10.398  -4.261  -2.265  0.00  0.00     0.026 H 
ATOM     27  C   LIG d   1       8.939  -5.571  -5.099  0.00  0.00    -0.053 C 
ATOM     28  H   LIG d   1      10.496  -6.233  -3.766  0.00  0.00     0.026 H 
ATOM     29  H   LIG d   1       8.892  -6.085  -3.008  0.00  0.00     0.026 H 
ATOM     30  C   LIG d   1       7.664  -4.728  -5.029  0.00  0.00    -0.048 C 
ATOM     31  H   LIG d   1       9.634  -5.118  -5.807  0.00  0.00     0.026 H 
ATOM     32  H   LIG d   1       8.691  -6.579  -5.429  0.00  0.00     0.026 H 
ATOM     33  H   LIG d   1       6.969  -5.181  -4.321  0.00  0.00     0.027 H 
ATOM     34  H   LIG d   1       7.202  -4.684  -6.014  0.00  0.00     0.027 H 
ATOM     35  H   LIG d   1       8.708  -2.860  -5.272  0.00  0.00     0.033 H 
ENDBRANCH   8  19
BRANCH  11  36
ATOM     36  O   LIG d   1       4.138  -2.368  -5.740  0.00  0.00    -0.363 OA
ATOM     37  H   LIG d   1       3.687  -1.530  -5.904  0.00  0.00     0.213 HD
ENDBRANCH  11  36
TORSDOF 2
ENDMDL
MODEL 6
REMARK VINA RESULT:      -6.2      1.905      6.014
REMARK  2 active torsions:
REMARK  status: ('A' for Active; 'I' for Inactive)
REMARK    1  A    between atoms: C_8  and  C_14 
REMARK    2  A    between atoms: C_11  and  O_13 
ROOT
ATOM      1  C   LIG d   1       6.930  -0.131  -9.465  0.00  0.00    -0.061 A 
ATOM      2  C   LIG d   1       5.948   0.473 -10.227  0.00  0.00    -0.061 A 
ATOM      3  C   LIG d   1       4.715   0.750  -9.669  0.00  0.00    -0.053 A 
ATOM      4  C   LIG d   1       4.462   0.434  -8.343  0.00  0.00     0.011 A 
ATOM      5  C   LIG d   1       5.444  -0.161  -7.580  0.00  0.00    -0.037 A 
ATOM      6  C   LIG d   1       6.679  -0.443  -8.143  0.00  0.00    -0.058 A 
ATOM      7  C   LIG d   1       5.210  -0.512  -6.134  0.00  0.00    -0.001 C 
ATOM      8  C   LIG d   1       3.709  -0.512  -5.838  0.00  0.00     0.069 C 
ATOM      9  H   LIG d   1       3.239  -1.366  -6.329  0.00  0.00     0.060 H 
ATOM     10  O   LIG d   1       3.147   0.703  -6.345  0.00  0.00    -0.344 OA
ATOM     11  C   LIG d   1       3.105   0.750  -7.771  0.00  0.00     0.183 C 
ATOM     12  H   LIG d   1       2.802   1.748  -8.090  0.00  0.00     0.096 H 
ATOM     13  H   LIG d   1       7.893  -0.354  -9.900  0.00  0.00     0.062 H 
ATOM     14  H   LIG d   1       6.142   0.724 -11.259  0.00  0.00     0.062 H 
ATOM     15  H   LIG d   1       3.948   1.218 -10.267  0.00  0.00     0.062 H 
ATOM     16  H   LIG d   1       7.448  -0.910  -7.545  0.00  0.00     0.062 H 
ATOM     17  H   LIG d   1       5.619  -1.501  -5.929  0.00  0.00     0.034 H 
ATOM     18  H   LIG d   1       5.703   0.223  -5.498  0.00  0.00     0.034 H 
ENDROOT
BRANCH   8  19
ATOM     19  C   LIG d   1       3.481  -0.599  -4.328  0.00  0.00    -0.014 C 
ATOM     20  C   LIG d   1       4.115  -1.882  -3.789  0.00  0.00    -0.048 C 
ATOM     21  C   LIG d   1       3.886  -1.967  -2.278  0.00  0.00    -0.053 C 
ATOM     22  H   LIG d   1       3.660  -2.744  -4.275  0.00  0.00     0.027 H 
ATOM     23  H   LIG d   1       5.186  -1.871  -3.994  0.00  0.00     0.027 H 
ATOM     24  C   LIG d   1       4.526  -0.756  -1.596  0.00  0.00    -0.053 C 
ATOM     25  H   LIG d   1       2.817  -1.978  -2.073  0.00  0.00     0.026 H 
ATOM     26  H   LIG d   1       4.339  -2.882  -1.894  0.00  0.00     0.026 H 
ATOM     27  C   LIG d   1       3.891   0.527  -2.136  0.00  0.00    -0.053 C 
ATOM     28  H   LIG d   1       4.363  -0.818  -0.520  0.00  0.00     0.026 H 
ATOM     29  H   LIG d   1       5.597  -0.746  -1.802  0.00  0.00     0.026 H 
ATOM     30  C   LIG d   1       4.119   0.613  -3.646  0.00  0.00    -0.048 C 
ATOM     31  H   LIG d   1       2.821   0.518  -1.930  0.00  0.00     0.026 H 
ATOM     32  H   LIG d   1       4.346   1.389  -1.649  0.00  0.00     0.026 H 
ATOM     33  H   LIG d   1       5.190   0.623  -3.851  0.00  0.00     0.027 H 
ATOM     34  H   LIG d   1       3.667   1.527  -4.030  0.00  0.00     0.027 H 
ATOM     35  H   LIG d   1       2.410  -0.608  -4.123  0.00  0.00     0.033 H 
ENDBRANCH   8  19
BRANCH  11  36
ATOM     36  O   LIG d   1       2.154  -0.204  -8.249  0.00  0.00    -0.363 OA
ATOM     37  H   LIG d   1       2.546  -0.932  -8.749  0.00  0.00     0.213 HD
ENDBRANCH  11  36
TORSDOF 2
ENDMDL
MODEL 7
REMARK VINA RESULT:      -6.1      1.389      6.094
REMARK  2 active torsions:
REMARK  status: ('A' for Active; 'I' for Inactive)
REMARK    1  A    between atoms: C_8  and  C_14 
REMARK    2  A    between atoms: C_11  and  O_13 
ROOT
ATOM      1  C   LIG d   1       2.741  -1.757 -11.089  0.00  0.00    -0.061 A 
ATOM      2  C   LIG d   1       2.997  -0.482 -11.555  0.00  0.00    -0.061 A 
ATOM      3  C   LIG d   1       3.430   0.496 -10.681  0.00  0.00    -0.053 A 
ATOM      4  C   LIG d   1       3.619   0.201  -9.339  0.00  0.00     0.011 A 
ATOM      5  C   LIG d   1       3.371  -1.074  -8.877  0.00  0.00    -0.037 A 
ATOM      6  C   LIG d   1       2.932  -2.053  -9.753  0.00  0.00    -0.058 A 
ATOM      7  C   LIG d   1       3.573  -1.435  -7.428  0.00  0.00    -0.001 C 
ATOM      8  C   LIG d   1       3.645  -0.162  -6.582  0.00  0.00     0.069 C 
ATOM      9  H   LIG d   1       2.659   0.303  -6.536  0.00  0.00     0.060 H 
ATOM     10  O   LIG d   1       4.574   0.738  -7.196  0.00  0.00    -0.344 OA
ATOM     11  C   LIG d   1       4.091   1.296  -8.418  0.00  0.00     0.183 C 
ATOM     12  H   LIG d   1       4.892   1.853  -8.901  0.00  0.00     0.096 H 
ATOM     13  H   LIG d   1       2.397  -2.523 -11.768  0.00  0.00     0.062 H 
ATOM     14  H   LIG d   1       2.855  -0.249 -12.599  0.00  0.00     0.062 H 
ATOM     15  H   LIG d   1       3.625   1.493 -11.045  0.00  0.00     0.062 H 
ATOM     16  H   LIG d   1       2.737  -3.052  -9.390  0.00  0.00     0.062 H 
ATOM     17  H   LIG d   1       2.739  -2.050  -7.087  0.00  0.00     0.034 H 
ATOM     18  H   LIG d   1       4.502  -1.994  -7.319  0.00  0.00     0.034 H 
ENDROOT
BRANCH   8  19
ATOM     19  C   LIG d   1       4.115  -0.509  -5.169  0.00  0.00    -0.014 C 
ATOM     20  C   LIG d   1       2.977  -0.263  -4.176  0.00  0.00    -0.048 C 
ATOM     21  C   LIG d   1       3.449  -0.610  -2.763  0.00  0.00    -0.053 C 
ATOM     22  H   LIG d   1       2.682   0.785  -4.215  0.00  0.00     0.027 H 
ATOM     23  H   LIG d   1       2.125  -0.891  -4.439  0.00  0.00     0.027 H 
ATOM     24  C   LIG d   1       3.862  -2.082  -2.710  0.00  0.00    -0.053 C 
ATOM     25  H   LIG d   1       4.300   0.017  -2.501  0.00  0.00     0.026 H 
ATOM     26  H   LIG d   1       2.637  -0.435  -2.057  0.00  0.00     0.026 H 
ATOM     27  C   LIG d   1       5.001  -2.328  -3.702  0.00  0.00    -0.053 C 
ATOM     28  H   LIG d   1       4.198  -2.328  -1.703  0.00  0.00     0.026 H 
ATOM     29  H   LIG d   1       3.010  -2.709  -2.973  0.00  0.00     0.026 H 
ATOM     30  C   LIG d   1       4.530  -1.981  -5.115  0.00  0.00    -0.048 C 
ATOM     31  H   LIG d   1       5.853  -1.701  -3.439  0.00  0.00     0.026 H 
ATOM     32  H   LIG d   1       5.296  -3.376  -3.664  0.00  0.00     0.026 H 
ATOM     33  H   LIG d   1       3.677  -2.608  -5.378  0.00  0.00     0.027 H 
ATOM     34  H   LIG d   1       5.340  -2.156  -5.822  0.00  0.00     0.027 H 
ATOM     35  H   LIG d   1       4.968   0.118  -4.906  0.00  0.00     0.033 H 
ENDBRANCH   8  19
BRANCH  11  36
ATOM     36  O   LIG d   1       3.004   2.181  -8.138  0.00  0.00    -0.363 OA
ATOM     37  H   LIG d   1       2.142   1.747  -8.106  0.00  0.00     0.213 HD
ENDBRANCH  11  36
TORSDOF 2
ENDMDL
MODEL 8
REMARK VINA RESULT:      -6.1      2.797      5.224
REMARK  2 active torsions:
REMARK  status: ('A' for Active; 'I' for Inactive)
REMARK    1  A    between atoms: C_8  and  C_14 
REMARK    2  A    between atoms: C_11  and  O_13 
ROOT
ATOM      1  C   LIG d   1       4.293   0.357  -1.562  0.00  0.00    -0.061 A 
ATOM      2  C   LIG d   1       3.709   1.239  -2.451  0.00  0.00    -0.061 A 
ATOM      3  C   LIG d   1       3.643   0.921  -3.794  0.00  0.00    -0.053 A 
ATOM      4  C   LIG d   1       4.151  -0.285  -4.253  0.00  0.00     0.011 A 
ATOM      5  C   LIG d   1       4.727  -1.168  -3.364  0.00  0.00    -0.037 A 
ATOM      6  C   LIG d   1       4.797  -0.846  -2.018  0.00  0.00    -0.058 A 
ATOM      7  C   LIG d   1       5.283  -2.491  -3.823  0.00  0.00    -0.001 C 
ATOM      8  C   LIG d   1       5.487  -2.469  -5.339  0.00  0.00     0.069 C 
ATOM      9  H   LIG d   1       6.317  -1.807  -5.587  0.00  0.00     0.060 H 
ATOM     10  O   LIG d   1       4.286  -1.985  -5.950  0.00  0.00    -0.344 OA
ATOM     11  C   LIG d   1       4.062  -0.594  -5.724  0.00  0.00     0.183 C 
ATOM     12  H   LIG d   1       3.072  -0.324  -6.090  0.00  0.00     0.096 H 
ATOM     13  H   LIG d   1       4.351   0.604  -0.513  0.00  0.00     0.062 H 
ATOM     14  H   LIG d   1       3.308   2.177  -2.098  0.00  0.00     0.062 H 
ATOM     15  H   LIG d   1       3.190   1.613  -4.488  0.00  0.00     0.062 H 
ATOM     16  H   LIG d   1       5.249  -1.538  -1.322  0.00  0.00     0.062 H 
ATOM     17  H   LIG d   1       6.239  -2.673  -3.332  0.00  0.00     0.034 H 
ATOM     18  H   LIG d   1       4.586  -3.288  -3.563  0.00  0.00     0.034 H 
ENDROOT
BRANCH   8  19
ATOM     19  C   LIG d   1       5.790  -3.883  -5.838  0.00  0.00    -0.014 C 
ATOM     20  C   LIG d   1       7.116  -4.361  -5.244  0.00  0.00    -0.048 C 
ATOM     21  C   LIG d   1       7.418  -5.775  -5.745  0.00  0.00    -0.053 C 
ATOM     22  H   LIG d   1       7.915  -3.688  -5.552  0.00  0.00     0.027 H 
ATOM     23  H   LIG d   1       7.044  -4.369  -4.157  0.00  0.00     0.027 H 
ATOM     24  C   LIG d   1       6.295  -6.720  -5.313  0.00  0.00    -0.053 C 
ATOM     25  H   LIG d   1       7.489  -5.768  -6.832  0.00  0.00     0.026 H 
ATOM     26  H   LIG d   1       8.363  -6.116  -5.321  0.00  0.00     0.026 H 
ATOM     27  C   LIG d   1       4.969  -6.242  -5.907  0.00  0.00    -0.053 C 
ATOM     28  H   LIG d   1       6.511  -7.727  -5.670  0.00  0.00     0.026 H 
ATOM     29  H   LIG d   1       6.224  -6.727  -4.225  0.00  0.00     0.026 H 
ATOM     30  C   LIG d   1       4.666  -4.828  -5.407  0.00  0.00    -0.048 C 
ATOM     31  H   LIG d   1       5.039  -6.235  -6.995  0.00  0.00     0.026 H 
ATOM     32  H   LIG d   1       4.170  -6.915  -5.599  0.00  0.00     0.026 H 
ATOM     33  H   LIG d   1       4.596  -4.835  -4.319  0.00  0.00     0.027 H 
ATOM     34  H   LIG d   1       3.722  -4.487  -5.830  0.00  0.00     0.027 H 
ATOM     35  H   LIG d   1       5.860  -3.876  -6.926  0.00  0.00     0.033 H 
ENDBRANCH   8  19
BRANCH  11  36
ATOM     36  O   LIG d   1       5.047   0.165  -6.429  0.00  0.00    -0.363 OA
ATOM     37  H   LIG d   1       5.925   0.138  -6.027  0.00  0.00     0.213 HD
ENDBRANCH  11  36
TORSDOF 2
ENDMDL
MODEL 9
REMARK VINA RESULT:      -6.0      4.516      5.323
REMARK  2 active torsions:
REMARK  status: ('A' for Active; 'I' for Inactive)
REMARK    1  A    between atoms: C_8  and  C_14 
REMARK    2  A    between atoms: C_11  and  O_13 
ROOT
ATOM      1  C   LIG d   1       4.352  -0.190  -1.822  0.00  0.00    -0.061 A 
ATOM      2  C   LIG d   1       4.501  -1.512  -2.195  0.00  0.00    -0.061 A 
ATOM      3  C   LIG d   1       5.493  -1.869  -3.087  0.00  0.00    -0.053 A 
ATOM      4  C   LIG d   1       6.348  -0.907  -3.603  0.00  0.00     0.011 A 
ATOM      5  C   LIG d   1       6.204   0.411  -3.225  0.00  0.00    -0.037 A 
ATOM      6  C   LIG d   1       5.205   0.769  -2.334  0.00  0.00    -0.058 A 
ATOM      7  C   LIG d   1       7.119   1.484  -3.758  0.00  0.00    -0.001 C 
ATOM      8  C   LIG d   1       7.846   0.972  -5.003  0.00  0.00     0.069 C 
ATOM      9  H   LIG d   1       7.140   0.883  -5.829  0.00  0.00     0.060 H 
ATOM     10  O   LIG d   1       8.403  -0.314  -4.706  0.00  0.00    -0.344 OA
ATOM     11  C   LIG d   1       7.416  -1.336  -4.575  0.00  0.00     0.183 C 
ATOM     12  H   LIG d   1       7.888  -2.249  -4.212  0.00  0.00     0.096 H 
ATOM     13  H   LIG d   1       3.574   0.094  -1.129  0.00  0.00     0.062 H 
ATOM     14  H   LIG d   1       3.840  -2.265  -1.792  0.00  0.00     0.062 H 
ATOM     15  H   LIG d   1       5.605  -2.902  -3.380  0.00  0.00     0.062 H 
ATOM     16  H   LIG d   1       5.093   1.802  -2.039  0.00  0.00     0.062 H 
ATOM     17  H   LIG d   1       6.532   2.365  -4.018  0.00  0.00     0.034 H 
ATOM     18  H   LIG d   1       7.850   1.749  -2.995  0.00  0.00     0.034 H 
ENDROOT
BRANCH   8  19
ATOM     19  C   LIG d   1       8.963   1.945  -5.384  0.00  0.00    -0.014 C 
ATOM     20  C   LIG d   1       8.848   2.300  -6.867  0.00  0.00    -0.048 C 
ATOM     21  C   LIG d   1       9.966   3.273  -7.247  0.00  0.00    -0.053 C 
ATOM     22  H   LIG d   1       8.937   1.393  -7.465  0.00  0.00     0.027 H 
ATOM     23  H   LIG d   1       7.881   2.766  -7.055  0.00  0.00     0.027 H 
ATOM     24  C   LIG d   1       9.840   4.546  -6.408  0.00  0.00    -0.053 C 
ATOM     25  H   LIG d   1      10.932   2.807  -7.059  0.00  0.00     0.026 H 
ATOM     26  H   LIG d   1       9.882   3.526  -8.304  0.00  0.00     0.026 H 
ATOM     27  C   LIG d   1       9.955   4.192  -4.924  0.00  0.00    -0.053 C 
ATOM     28  H   LIG d   1      10.636   5.240  -6.679  0.00  0.00     0.026 H 
ATOM     29  H   LIG d   1       8.872   5.012  -6.596  0.00  0.00     0.026 H 
ATOM     30  C   LIG d   1       8.838   3.218  -4.543  0.00  0.00    -0.048 C 
ATOM     31  H   LIG d   1      10.922   3.726  -4.735  0.00  0.00     0.026 H 
ATOM     32  H   LIG d   1       9.866   5.099  -4.326  0.00  0.00     0.026 H 
ATOM     33  H   LIG d   1       7.871   3.684  -4.732  0.00  0.00     0.027 H 
ATOM     34  H   LIG d   1       8.920   2.966  -3.487  0.00  0.00     0.027 H 
ATOM     35  H   LIG d   1       9.930   1.479  -5.195  0.00  0.00     0.033 H 
ENDBRANCH   8  19
BRANCH  11  36
ATOM     36  O   LIG d   1       6.823  -1.589  -5.850  0.00  0.00    -0.363 OA
ATOM     37  H   LIG d   1       7.237  -1.107  -6.578  0.00  0.00     0.213 HD
ENDBRANCH  11  36
TORSDOF 2
ENDMDL
MODEL 10
REMARK VINA RESULT:      -5.6      2.388      5.764
REMARK  2 active torsions:
REMARK  status: ('A' for Active; 'I' for Inactive)
REMARK    1  A    between atoms: C_8  and  C_14 
REMARK    2  A    between atoms: C_11  and  O_13 
ROOT
ATOM      1  C   LIG d   1       3.284  -2.602  -9.543  0.00  0.00    -0.061 A 
ATOM      2  C   LIG d   1       3.342  -3.979  -9.454  0.00  0.00    -0.061 A 
ATOM      3  C   LIG d   1       3.778  -4.576  -8.287  0.00  0.00    -0.053 A 
ATOM      4  C   LIG d   1       4.147  -3.799  -7.200  0.00  0.00     0.011 A 
ATOM      5  C   LIG d   1       4.081  -2.424  -7.287  0.00  0.00    -0.037 A 
ATOM      6  C   LIG d   1       3.649  -1.826  -8.460  0.00  0.00    -0.058 A 
ATOM      7  C   LIG d   1       4.466  -1.545  -6.124  0.00  0.00    -0.001 C 
ATOM      8  C   LIG d   1       5.288  -2.351  -5.117  0.00  0.00     0.069 C 
ATOM      9  H   LIG d   1       6.271  -2.569  -5.536  0.00  0.00     0.060 H 
ATOM     10  O   LIG d   1       4.598  -3.577  -4.846  0.00  0.00    -0.344 OA
ATOM     11  C   LIG d   1       4.618  -4.487  -5.946  0.00  0.00     0.183 C 
ATOM     12  H   LIG d   1       3.962  -5.329  -5.728  0.00  0.00     0.096 H 
ATOM     13  H   LIG d   1       2.949  -2.132 -10.456  0.00  0.00     0.062 H 
ATOM     14  H   LIG d   1       3.052  -4.589 -10.296  0.00  0.00     0.062 H 
ATOM     15  H   LIG d   1       3.827  -5.652  -8.220  0.00  0.00     0.062 H 
ATOM     16  H   LIG d   1       3.598  -0.749  -8.528  0.00  0.00     0.062 H 
ATOM     17  H   LIG d   1       5.059  -0.705  -6.485  0.00  0.00     0.034 H 
ATOM     18  H   LIG d   1       3.565  -1.171  -5.639  0.00  0.00     0.034 H 
ENDROOT
BRANCH   8  19
ATOM     19  C   LIG d   1       5.447  -1.550  -3.824  0.00  0.00    -0.014 C 
ATOM     20  C   LIG d   1       5.660  -0.073  -4.161  0.00  0.00    -0.048 C 
ATOM     21  C   LIG d   1       5.820   0.727  -2.867  0.00  0.00    -0.053 C 
ATOM     22  H   LIG d   1       6.558   0.035  -4.769  0.00  0.00     0.027 H 
ATOM     23  H   LIG d   1       4.799   0.300  -4.715  0.00  0.00     0.027 H 
ATOM     24  C   LIG d   1       4.558   0.576  -2.015  0.00  0.00    -0.053 C 
ATOM     25  H   LIG d   1       6.680   0.355  -2.313  0.00  0.00     0.026 H 
ATOM     26  H   LIG d   1       5.971   1.780  -3.108  0.00  0.00     0.026 H 
ATOM     27  C   LIG d   1       4.345  -0.900  -1.677  0.00  0.00    -0.053 C 
ATOM     28  H   LIG d   1       4.672   1.147  -1.093  0.00  0.00     0.026 H 
ATOM     29  H   LIG d   1       3.697   0.950  -2.570  0.00  0.00     0.026 H 
ATOM     30  C   LIG d   1       4.185  -1.702  -2.970  0.00  0.00    -0.048 C 
ATOM     31  H   LIG d   1       5.205  -1.275  -1.122  0.00  0.00     0.026 H 
ATOM     32  H   LIG d   1       3.447  -1.008  -1.070  0.00  0.00     0.026 H 
ATOM     33  H   LIG d   1       3.325  -1.328  -3.525  0.00  0.00     0.027 H 
ATOM     34  H   LIG d   1       4.034  -2.754  -2.730  0.00  0.00     0.027 H 
ATOM     35  H   LIG d   1       6.308  -1.924  -3.268  0.00  0.00     0.033 H 
ENDBRANCH   8  19
BRANCH  11  36
ATOM     36  O   LIG d   1       5.951  -4.966  -6.139  0.00  0.00    -0.363 OA
ATOM     37  H   LIG d   1       6.291  -5.488  -5.401  0.00  0.00     0.213 HD
ENDBRANCH  11  36
TORSDOF 2
ENDMDL
