MODEL 1
REMARK VINA RESULT:      -6.7      0.000      0.000
REMARK  11 active torsions:
REMARK  status: ('A' for Active; 'I' for Inactive)
REMARK    1  A    between atoms: C_1  and  C_2 
REMARK    2  A    between atoms: C_2  and  C_3 
REMARK    3  A    between atoms: C_2  and  C_13 
REMARK    4  A    between atoms: C_2  and  O_29 
REMARK    5  A    between atoms: C_3  and  C_4 
REMARK    6  A    between atoms: C_4  and  C_5 
REMARK    7  A    between atoms: C_8  and  O_11 
REMARK    8  A    between atoms: O_11  and  C_12 
REMARK    9  A    between atoms: C_14  and  C_15 
REMARK   10  A    between atoms: C_15  and  N_16 
REMARK   11  A    between atoms: C_21  and  C_23 
ROOT
ATOM      1  C   LIG d   1       9.101   1.988  -3.791  0.00  0.00    -0.067 C 
ATOM      2  C   LIG d   1       8.241   1.265  -4.130  0.00  0.00    -0.084 C 
ENDROOT
BRANCH   1   3
ATOM      3  C   LIG d   1      10.179   2.896  -3.364  0.00  0.00     0.124 C 
BRANCH   3   4
ATOM      4  C   LIG d   1      11.220   3.011  -4.479  0.00  0.00    -0.025 C 
ATOM      5  H   LIG d   1      11.578   2.016  -4.746  0.00  0.00     0.027 H 
ATOM      6  H   LIG d   1      10.767   3.481  -5.352  0.00  0.00     0.027 H 
ATOM      7  H   LIG d   1      12.057   3.617  -4.133  0.00  0.00     0.027 H 
ENDBRANCH   3   4
BRANCH   3   8
ATOM      8  C   LIG d   1       9.592   4.278  -3.068  0.00  0.00    -0.009 C 
ATOM      9  H   LIG d   1       8.818   4.508  -3.799  0.00  0.00     0.031 H 
ATOM     10  H   LIG d   1       9.161   4.282  -2.066  0.00  0.00     0.031 H 
BRANCH   8  11
ATOM     11  C   LIG d   1      10.701   5.330  -3.150  0.00  0.00    -0.024 C 
ATOM     12  H   LIG d   1      11.631   4.854  -3.461  0.00  0.00     0.031 H 
ATOM     13  H   LIG d   1      10.423   6.094  -3.875  0.00  0.00     0.031 H 
BRANCH  11  14
ATOM     14  C   LIG d   1      10.891   5.965  -1.797  0.00  0.00    -0.047 A 
ATOM     15  C   LIG d   1      11.750   5.390  -0.878  0.00  0.00    -0.055 A 
ATOM     16  C   LIG d   1      11.930   5.974   0.360  0.00  0.00    -0.020 A 
ATOM     17  H   LIG d   1      12.283   4.486  -1.132  0.00  0.00     0.062 H 
ATOM     18  C   LIG d   1      11.239   7.132   0.688  0.00  0.00     0.120 A 
ATOM     19  H   LIG d   1      12.604   5.527   1.076  0.00  0.00     0.065 H 
ATOM     20  C   LIG d   1      10.373   7.704  -0.234  0.00  0.00    -0.020 A 
ATOM     21  C   LIG d   1      10.202   7.119  -1.474  0.00  0.00    -0.055 A 
ATOM     22  H   LIG d   1       9.836   8.606   0.018  0.00  0.00     0.065 H 
ATOM     23  H   LIG d   1       9.528   7.564  -2.191  0.00  0.00     0.062 H 
BRANCH  18  24
ATOM     24  O   LIG d   1      11.411   7.706   1.907  0.00  0.00    -0.495 OA
BRANCH  24  25
ATOM     25  C   LIG d   1      11.813   9.077   1.927  0.00  0.00     0.079 C 
ATOM     26  H   LIG d   1      12.008   9.413   0.909  0.00  0.00     0.066 H 
ATOM     27  H   LIG d   1      11.019   9.683   2.363  0.00  0.00     0.066 H 
ATOM     28  H   LIG d   1      12.719   9.182   2.524  0.00  0.00     0.066 H 
ENDBRANCH  24  25
ENDBRANCH  18  24
ENDBRANCH  11  14
ENDBRANCH   8  11
ENDBRANCH   3   8
BRANCH   3  29
ATOM     29  O   LIG d   1      10.799   2.378  -2.185  0.00  0.00    -0.377 OA
ATOM     30  H   LIG d   1      11.395   1.634  -2.348  0.00  0.00     0.211 HD
ENDBRANCH   3  29
ENDBRANCH   1   3
BRANCH   2  31
ATOM     31  C   LIG d   1       7.163   0.358  -4.556  0.00  0.00     0.061 C 
ATOM     32  H   LIG d   1       6.556   0.847  -5.318  0.00  0.00     0.056 H 
ATOM     33  H   LIG d   1       7.596  -0.554  -4.967  0.00  0.00     0.056 H 
BRANCH  31  34
ATOM     34  N   LIG d   1       6.321   0.023  -3.400  0.00  0.00    -0.284 N 
ATOM     35  C   LIG d   1       5.530  -1.187  -3.658  0.00  0.00     0.038 C 
ATOM     36  C   LIG d   1       4.778  -1.588  -2.387  0.00  0.00    -0.033 C 
ATOM     37  H   LIG d   1       4.814  -0.990  -4.457  0.00  0.00     0.051 H 
ATOM     38  C   LIG d   1       3.861  -0.439  -1.959  0.00  0.00    -0.050 C 
ATOM     39  H   LIG d   1       5.493  -1.799  -1.592  0.00  0.00     0.028 H 
ATOM     40  H   LIG d   1       4.179  -2.478  -2.584  0.00  0.00     0.028 H 
ATOM     41  C   LIG d   1       4.703   0.821  -1.743  0.00  0.00    -0.040 C 
ATOM     42  H   LIG d   1       3.356  -0.703  -1.030  0.00  0.00     0.027 H 
ATOM     43  H   LIG d   1       3.121  -0.254  -2.737  0.00  0.00     0.027 H 
ATOM     44  C   LIG d   1       5.457   1.152  -3.033  0.00  0.00     0.000 C 
ATOM     45  H   LIG d   1       5.417   0.649  -0.938  0.00  0.00     0.028 H 
ATOM     46  H   LIG d   1       4.050   1.654  -1.480  0.00  0.00     0.028 H 
ATOM     47  H   LIG d   1       6.068   2.042  -2.879  0.00  0.00     0.043 H 
ATOM     48  H   LIG d   1       4.742   1.338  -3.835  0.00  0.00     0.043 H 
BRANCH  35  49
ATOM     49  C   LIG d   1       6.448  -2.309  -4.073  0.00  0.00    -0.012 A 
ATOM     50  C   LIG d   1       6.124  -3.118  -5.144  0.00  0.00     0.032 A 
ATOM     51  N   LIG d   1       6.926  -4.096  -5.517  0.00  0.00    -0.263 NA
ATOM     52  H   LIG d   1       5.205  -2.945  -5.685  0.00  0.00     0.083 H 
ATOM     53  C   LIG d   1       8.054  -4.349  -4.883  0.00  0.00     0.028 A 
ATOM     54  C   LIG d   1       8.441  -3.584  -3.799  0.00  0.00    -0.043 A 
ATOM     55  H   LIG d   1       8.683  -5.162  -5.215  0.00  0.00     0.083 H 
ATOM     56  C   LIG d   1       7.627  -2.543  -3.381  0.00  0.00    -0.054 A 
ATOM     57  H   LIG d   1       9.367  -3.795  -3.284  0.00  0.00     0.063 H 
ATOM     58  H   LIG d   1       7.905  -1.928  -2.538  0.00  0.00     0.062 H 
ENDBRANCH  35  49
ENDBRANCH  31  34
ENDBRANCH   2  31
TORSDOF 11
ENDMDL
MODEL 2
REMARK VINA RESULT:      -6.6      6.134      9.894
REMARK  11 active torsions:
REMARK  status: ('A' for Active; 'I' for Inactive)
REMARK    1  A    between atoms: C_1  and  C_2 
REMARK    2  A    between atoms: C_2  and  C_3 
REMARK    3  A    between atoms: C_2  and  C_13 
REMARK    4  A    between atoms: C_2  and  O_29 
REMARK    5  A    between atoms: C_3  and  C_4 
REMARK    6  A    between atoms: C_4  and  C_5 
REMARK    7  A    between atoms: C_8  and  O_11 
REMARK    8  A    between atoms: O_11  and  C_12 
REMARK    9  A    between atoms: C_14  and  C_15 
REMARK   10  A    between atoms: C_15  and  N_16 
REMARK   11  A    between atoms: C_21  and  C_23 
ROOT
ATOM      1  C   LIG d   1       3.703  -3.535  -8.139  0.00  0.00    -0.067 C 
ATOM      2  C   LIG d   1       3.313  -2.644  -8.795  0.00  0.00    -0.084 C 
ENDROOT
BRANCH   1   3
ATOM      3  C   LIG d   1       4.194  -4.653  -7.316  0.00  0.00     0.124 C 
BRANCH   3   4
ATOM      4  C   LIG d   1       4.635  -5.801  -8.227  0.00  0.00    -0.025 C 
ATOM      5  H   LIG d   1       4.094  -6.708  -7.954  0.00  0.00     0.027 H 
ATOM      6  H   LIG d   1       4.418  -5.546  -9.264  0.00  0.00     0.027 H 
ATOM      7  H   LIG d   1       5.705  -5.967  -8.108  0.00  0.00     0.027 H 
ENDBRANCH   3   4
BRANCH   3   8
ATOM      8  C   LIG d   1       5.383  -4.183  -6.475  0.00  0.00    -0.009 C 
ATOM      9  H   LIG d   1       6.270  -4.752  -6.750  0.00  0.00     0.031 H 
ATOM     10  H   LIG d   1       5.559  -3.123  -6.656  0.00  0.00     0.031 H 
BRANCH   8  11
ATOM     11  C   LIG d   1       5.076  -4.403  -4.992  0.00  0.00    -0.024 C 
ATOM     12  H   LIG d   1       4.065  -4.792  -4.884  0.00  0.00     0.031 H 
ATOM     13  H   LIG d   1       5.787  -5.117  -4.576  0.00  0.00     0.031 H 
BRANCH  11  14
ATOM     14  C   LIG d   1       5.191  -3.092  -4.256  0.00  0.00    -0.047 A 
ATOM     15  C   LIG d   1       6.341  -2.334  -4.373  0.00  0.00    -0.055 A 
ATOM     16  C   LIG d   1       6.446  -1.131  -3.704  0.00  0.00    -0.020 A 
ATOM     17  H   LIG d   1       7.156  -2.682  -4.991  0.00  0.00     0.062 H 
ATOM     18  C   LIG d   1       5.402  -0.687  -2.906  0.00  0.00     0.120 A 
ATOM     19  H   LIG d   1       7.344  -0.535  -3.799  0.00  0.00     0.065 H 
ATOM     20  C   LIG d   1       4.251  -1.453  -2.786  0.00  0.00    -0.020 A 
ATOM     21  C   LIG d   1       4.148  -2.654  -3.461  0.00  0.00    -0.055 A 
ATOM     22  H   LIG d   1       3.436  -1.110  -2.166  0.00  0.00     0.065 H 
ATOM     23  H   LIG d   1       3.253  -3.250  -3.368  0.00  0.00     0.062 H 
BRANCH  18  24
ATOM     24  O   LIG d   1       5.505   0.495  -2.243  0.00  0.00    -0.495 OA
BRANCH  24  25
ATOM     25  C   LIG d   1       4.284   1.147  -1.889  0.00  0.00     0.079 C 
ATOM     26  H   LIG d   1       4.501   2.003  -1.251  0.00  0.00     0.066 H 
ATOM     27  H   LIG d   1       3.778   1.487  -2.792  0.00  0.00     0.066 H 
ATOM     28  H   LIG d   1       3.641   0.449  -1.353  0.00  0.00     0.066 H 
ENDBRANCH  24  25
ENDBRANCH  18  24
ENDBRANCH  11  14
ENDBRANCH   8  11
ENDBRANCH   3   8
BRANCH   3  29
ATOM     29  O   LIG d   1       3.148  -5.105  -6.453  0.00  0.00    -0.377 OA
ATOM     30  H   LIG d   1       2.284  -5.172  -6.882  0.00  0.00     0.211 HD
ENDBRANCH   3  29
ENDBRANCH   1   3
BRANCH   2  31
ATOM     31  C   LIG d   1       2.824  -1.526  -9.618  0.00  0.00     0.061 C 
ATOM     32  H   LIG d   1       1.736  -1.569  -9.681  0.00  0.00     0.056 H 
ATOM     33  H   LIG d   1       3.124  -0.582  -9.164  0.00  0.00     0.056 H 
BRANCH  31  34
ATOM     34  N   LIG d   1       3.396  -1.625 -10.967  0.00  0.00    -0.284 N 
ATOM     35  C   LIG d   1       3.459  -0.306 -11.610  0.00  0.00     0.038 C 
ATOM     36  C   LIG d   1       4.191  -0.424 -12.949  0.00  0.00    -0.033 C 
ATOM     37  H   LIG d   1       2.448   0.064 -11.780  0.00  0.00     0.051 H 
ATOM     38  C   LIG d   1       3.444  -1.414 -13.847  0.00  0.00    -0.050 C 
ATOM     39  H   LIG d   1       5.206  -0.780 -12.779  0.00  0.00     0.028 H 
ATOM     40  H   LIG d   1       4.223   0.553 -13.433  0.00  0.00     0.028 H 
ATOM     41  C   LIG d   1       3.351  -2.766 -13.134  0.00  0.00    -0.040 C 
ATOM     42  H   LIG d   1       3.985  -1.534 -14.785  0.00  0.00     0.027 H 
ATOM     43  H   LIG d   1       2.442  -1.039 -14.050  0.00  0.00     0.027 H 
ATOM     44  C   LIG d   1       2.644  -2.580 -11.790  0.00  0.00     0.000 C 
ATOM     45  H   LIG d   1       4.353  -3.160 -12.967  0.00  0.00     0.028 H 
ATOM     46  H   LIG d   1       2.783  -3.464 -13.750  0.00  0.00     0.028 H 
ATOM     47  H   LIG d   1       2.587  -3.539 -11.273  0.00  0.00     0.043 H 
ATOM     48  H   LIG d   1       1.636  -2.200 -11.958  0.00  0.00     0.043 H 
BRANCH  35  49
ATOM     49  C   LIG d   1       4.201   0.654 -10.715  0.00  0.00    -0.012 A 
ATOM     50  C   LIG d   1       5.537   0.453 -10.428  0.00  0.00     0.032 A 
ATOM     51  N   LIG d   1       6.194   1.292  -9.652  0.00  0.00    -0.263 NA
ATOM     52  H   LIG d   1       6.050  -0.399 -10.849  0.00  0.00     0.083 H 
ATOM     53  C   LIG d   1       5.607   2.341  -9.111  0.00  0.00     0.028 A 
ATOM     54  C   LIG d   1       4.271   2.604  -9.349  0.00  0.00    -0.043 A 
ATOM     55  H   LIG d   1       6.177   3.004  -8.476  0.00  0.00     0.083 H 
ATOM     56  C   LIG d   1       3.549   1.748 -10.165  0.00  0.00    -0.054 A 
ATOM     57  H   LIG d   1       3.796   3.466  -8.905  0.00  0.00     0.063 H 
ATOM     58  H   LIG d   1       2.504   1.928 -10.369  0.00  0.00     0.062 H 
ENDBRANCH  35  49
ENDBRANCH  31  34
ENDBRANCH   2  31
TORSDOF 11
ENDMDL
MODEL 3
REMARK VINA RESULT:      -6.6      2.268      3.007
REMARK  11 active torsions:
REMARK  status: ('A' for Active; 'I' for Inactive)
REMARK    1  A    between atoms: C_1  and  C_2 
REMARK    2  A    between atoms: C_2  and  C_3 
REMARK    3  A    between atoms: C_2  and  C_13 
REMARK    4  A    between atoms: C_2  and  O_29 
REMARK    5  A    between atoms: C_3  and  C_4 
REMARK    6  A    between atoms: C_4  and  C_5 
REMARK    7  A    between atoms: C_8  and  O_11 
REMARK    8  A    between atoms: O_11  and  C_12 
REMARK    9  A    between atoms: C_14  and  C_15 
REMARK   10  A    between atoms: C_15  and  N_16 
REMARK   11  A    between atoms: C_21  and  C_23 
ROOT
ATOM      1  C   LIG d   1       9.135   2.110  -3.761  0.00  0.00    -0.067 C 
ATOM      2  C   LIG d   1       8.299   1.360  -4.102  0.00  0.00    -0.084 C 
ENDROOT
BRANCH   1   3
ATOM      3  C   LIG d   1      10.184   3.050  -3.333  0.00  0.00     0.124 C 
BRANCH   3   4
ATOM      4  C   LIG d   1      11.303   3.075  -4.376  0.00  0.00    -0.025 C 
ATOM      5  H   LIG d   1      10.889   3.349  -5.347  0.00  0.00     0.027 H 
ATOM      6  H   LIG d   1      12.057   3.806  -4.083  0.00  0.00     0.027 H 
ATOM      7  H   LIG d   1      11.760   2.088  -4.441  0.00  0.00     0.027 H 
ENDBRANCH   3   4
BRANCH   3   8
ATOM      8  C   LIG d   1       9.585   4.452  -3.194  0.00  0.00    -0.009 C 
ATOM      9  H   LIG d   1       8.629   4.388  -2.674  0.00  0.00     0.031 H 
ATOM     10  H   LIG d   1      10.267   5.083  -2.625  0.00  0.00     0.031 H 
BRANCH   8  11
ATOM     11  C   LIG d   1       9.370   5.055  -4.584  0.00  0.00    -0.024 C 
ATOM     12  H   LIG d   1      10.078   4.614  -5.284  0.00  0.00     0.031 H 
ATOM     13  H   LIG d   1       8.353   4.848  -4.916  0.00  0.00     0.031 H 
BRANCH  11  14
ATOM     14  C   LIG d   1       9.586   6.545  -4.523  0.00  0.00    -0.047 A 
ATOM     15  C   LIG d   1       9.313   7.328  -5.630  0.00  0.00    -0.055 A 
ATOM     16  C   LIG d   1       9.505   8.694  -5.575  0.00  0.00    -0.020 A 
ATOM     17  H   LIG d   1       8.946   6.870  -6.537  0.00  0.00     0.062 H 
ATOM     18  C   LIG d   1       9.982   9.281  -4.412  0.00  0.00     0.120 A 
ATOM     19  H   LIG d   1       9.287   9.306  -6.438  0.00  0.00     0.065 H 
ATOM     20  C   LIG d   1      10.260   8.492  -3.304  0.00  0.00    -0.020 A 
ATOM     21  C   LIG d   1      10.062   7.127  -3.363  0.00  0.00    -0.055 A 
ATOM     22  H   LIG d   1      10.631   8.947  -2.397  0.00  0.00     0.065 H 
ATOM     23  H   LIG d   1      10.278   6.513  -2.501  0.00  0.00     0.062 H 
BRANCH  18  24
ATOM     24  O   LIG d   1      10.175  10.625  -4.356  0.00  0.00    -0.495 OA
BRANCH  24  25
ATOM     25  C   LIG d   1       9.498  11.418  -5.333  0.00  0.00     0.079 C 
ATOM     26  H   LIG d   1       8.645  11.914  -4.871  0.00  0.00     0.066 H 
ATOM     27  H   LIG d   1      10.182  12.168  -5.730  0.00  0.00     0.066 H 
ATOM     28  H   LIG d   1       9.151  10.778  -6.144  0.00  0.00     0.066 H 
ENDBRANCH  24  25
ENDBRANCH  18  24
ENDBRANCH  11  14
ENDBRANCH   8  11
ENDBRANCH   3   8
BRANCH   3  29
ATOM     29  O   LIG d   1      10.715   2.631  -2.074  0.00  0.00    -0.377 OA
ATOM     30  H   LIG d   1      11.584   3.003  -1.870  0.00  0.00     0.211 HD
ENDBRANCH   3  29
ENDBRANCH   1   3
BRANCH   2  31
ATOM     31  C   LIG d   1       7.251   0.419  -4.529  0.00  0.00     0.061 C 
ATOM     32  H   LIG d   1       6.644   0.880  -5.309  0.00  0.00     0.056 H 
ATOM     33  H   LIG d   1       7.712  -0.489  -4.915  0.00  0.00     0.056 H 
BRANCH  31  34
ATOM     34  N   LIG d   1       6.397   0.085  -3.381  0.00  0.00    -0.284 N 
ATOM     35  C   LIG d   1       5.609  -1.126  -3.645  0.00  0.00     0.038 C 
ATOM     36  C   LIG d   1       4.845  -1.526  -2.381  0.00  0.00    -0.033 C 
ATOM     37  H   LIG d   1       4.901  -0.930  -4.451  0.00  0.00     0.051 H 
ATOM     38  C   LIG d   1       3.924  -0.378  -1.963  0.00  0.00    -0.050 C 
ATOM     39  H   LIG d   1       5.552  -1.736  -1.580  0.00  0.00     0.028 H 
ATOM     40  H   LIG d   1       4.249  -2.416  -2.584  0.00  0.00     0.028 H 
ATOM     41  C   LIG d   1       4.763   0.883  -1.740  0.00  0.00    -0.040 C 
ATOM     42  H   LIG d   1       3.410  -0.641  -1.039  0.00  0.00     0.027 H 
ATOM     43  H   LIG d   1       3.191  -0.193  -2.748  0.00  0.00     0.027 H 
ATOM     44  C   LIG d   1       5.529   1.214  -3.022  0.00  0.00     0.000 C 
ATOM     45  H   LIG d   1       5.469   0.712  -0.928  0.00  0.00     0.028 H 
ATOM     46  H   LIG d   1       4.108   1.716  -1.483  0.00  0.00     0.028 H 
ATOM     47  H   LIG d   1       6.139   2.104  -2.862  0.00  0.00     0.043 H 
ATOM     48  H   LIG d   1       4.822   1.399  -3.831  0.00  0.00     0.043 H 
BRANCH  35  49
ATOM     49  C   LIG d   1       6.532  -2.247  -4.051  0.00  0.00    -0.012 A 
ATOM     50  C   LIG d   1       6.252  -3.016  -5.164  0.00  0.00     0.032 A 
ATOM     51  N   LIG d   1       7.058  -3.993  -5.529  0.00  0.00    -0.263 NA
ATOM     52  H   LIG d   1       5.364  -2.810  -5.744  0.00  0.00     0.083 H 
ATOM     53  C   LIG d   1       8.148  -4.284  -4.847  0.00  0.00     0.028 A 
ATOM     54  C   LIG d   1       8.490  -3.562  -3.720  0.00  0.00    -0.043 A 
ATOM     55  H   LIG d   1       8.782  -5.096  -5.174  0.00  0.00     0.083 H 
ATOM     56  C   LIG d   1       7.670  -2.523  -3.308  0.00  0.00    -0.054 A 
ATOM     57  H   LIG d   1       9.386  -3.804  -3.166  0.00  0.00     0.063 H 
ATOM     58  H   LIG d   1       7.913  -1.940  -2.432  0.00  0.00     0.062 H 
ENDBRANCH  35  49
ENDBRANCH  31  34
ENDBRANCH   2  31
TORSDOF 11
ENDMDL
MODEL 4
REMARK VINA RESULT:      -6.5      1.660      2.204
REMARK  11 active torsions:
REMARK  status: ('A' for Active; 'I' for Inactive)
REMARK    1  A    between atoms: C_1  and  C_2 
REMARK    2  A    between atoms: C_2  and  C_3 
REMARK    3  A    between atoms: C_2  and  C_13 
REMARK    4  A    between atoms: C_2  and  O_29 
REMARK    5  A    between atoms: C_3  and  C_4 
REMARK    6  A    between atoms: C_4  and  C_5 
REMARK    7  A    between atoms: C_8  and  O_11 
REMARK    8  A    between atoms: O_11  and  C_12 
REMARK    9  A    between atoms: C_14  and  C_15 
REMARK   10  A    between atoms: C_15  and  N_16 
REMARK   11  A    between atoms: C_21  and  C_23 
ROOT
ATOM      1  C   LIG d   1       9.168   2.147  -3.734  0.00  0.00    -0.067 C 
ATOM      2  C   LIG d   1       8.326   1.412  -4.091  0.00  0.00    -0.084 C 
ENDROOT
BRANCH   1   3
ATOM      3  C   LIG d   1      10.224   3.069  -3.283  0.00  0.00     0.124 C 
BRANCH   3   4
ATOM      4  C   LIG d   1      11.330   3.132  -4.339  0.00  0.00    -0.025 C 
ATOM      5  H   LIG d   1      10.998   2.621  -5.243  0.00  0.00     0.027 H 
ATOM      6  H   LIG d   1      11.552   4.174  -4.570  0.00  0.00     0.027 H 
ATOM      7  H   LIG d   1      12.226   2.646  -3.955  0.00  0.00     0.027 H 
ENDBRANCH   3   4
BRANCH   3   8
ATOM      8  C   LIG d   1       9.629   4.464  -3.082  0.00  0.00    -0.009 C 
ATOM      9  H   LIG d   1       9.698   5.026  -4.013  0.00  0.00     0.031 H 
ATOM     10  H   LIG d   1       8.584   4.374  -2.787  0.00  0.00     0.031 H 
BRANCH   8  11
ATOM     11  C   LIG d   1      10.407   5.196  -1.986  0.00  0.00    -0.024 C 
ATOM     12  H   LIG d   1      10.046   4.876  -1.009  0.00  0.00     0.031 H 
ATOM     13  H   LIG d   1      11.468   4.962  -2.076  0.00  0.00     0.031 H 
BRANCH  11  14
ATOM     14  C   LIG d   1      10.205   6.682  -2.133  0.00  0.00    -0.047 A 
ATOM     15  C   LIG d   1       9.694   7.417  -1.079  0.00  0.00    -0.055 A 
ATOM     16  C   LIG d   1       9.513   8.780  -1.210  0.00  0.00    -0.020 A 
ATOM     17  H   LIG d   1       9.441   6.925  -0.151  0.00  0.00     0.062 H 
ATOM     18  C   LIG d   1       9.833   9.410  -2.403  0.00  0.00     0.120 A 
ATOM     19  H   LIG d   1       9.119   9.355  -0.385  0.00  0.00     0.065 H 
ATOM     20  C   LIG d   1      10.340   8.669  -3.462  0.00  0.00    -0.020 A 
ATOM     21  C   LIG d   1      10.524   7.307  -3.324  0.00  0.00    -0.055 A 
ATOM     22  H   LIG d   1      10.591   9.157  -4.392  0.00  0.00     0.065 H 
ATOM     23  H   LIG d   1      10.918   6.730  -4.147  0.00  0.00     0.062 H 
BRANCH  18  24
ATOM     24  O   LIG d   1       9.652  10.750  -2.537  0.00  0.00    -0.495 OA
BRANCH  24  25
ATOM     25  C   LIG d   1       9.133  11.213  -3.785  0.00  0.00     0.079 C 
ATOM     26  H   LIG d   1       9.653  12.125  -4.079  0.00  0.00     0.066 H 
ATOM     27  H   LIG d   1       9.283  10.448  -4.547  0.00  0.00     0.066 H 
ATOM     28  H   LIG d   1       8.068  11.420  -3.682  0.00  0.00     0.066 H 
ENDBRANCH  24  25
ENDBRANCH  18  24
ENDBRANCH  11  14
ENDBRANCH   8  11
ENDBRANCH   3   8
BRANCH   3  29
ATOM     29  O   LIG d   1      10.770   2.600  -2.048  0.00  0.00    -0.377 OA
ATOM     30  H   LIG d   1      11.555   2.044  -2.151  0.00  0.00     0.211 HD
ENDBRANCH   3  29
ENDBRANCH   1   3
BRANCH   2  31
ATOM     31  C   LIG d   1       7.270   0.490  -4.540  0.00  0.00     0.061 C 
ATOM     32  H   LIG d   1       6.658   0.979  -5.299  0.00  0.00     0.056 H 
ATOM     33  H   LIG d   1       7.725  -0.406  -4.963  0.00  0.00     0.056 H 
BRANCH  31  34
ATOM     34  N   LIG d   1       6.426   0.118  -3.396  0.00  0.00    -0.284 N 
ATOM     35  C   LIG d   1       5.646  -1.091  -3.688  0.00  0.00     0.038 C 
ATOM     36  C   LIG d   1       4.893  -1.531  -2.430  0.00  0.00    -0.033 C 
ATOM     37  H   LIG d   1       4.931  -0.879  -4.484  0.00  0.00     0.051 H 
ATOM     38  C   LIG d   1       3.966  -0.401  -1.976  0.00  0.00    -0.050 C 
ATOM     39  H   LIG d   1       5.607  -1.757  -1.639  0.00  0.00     0.028 H 
ATOM     40  H   LIG d   1       4.302  -2.419  -2.653  0.00  0.00     0.028 H 
ATOM     41  C   LIG d   1       4.797   0.861  -1.724  0.00  0.00    -0.040 C 
ATOM     42  H   LIG d   1       3.460  -0.692  -1.056  0.00  0.00     0.027 H 
ATOM     43  H   LIG d   1       3.227  -0.201  -2.751  0.00  0.00     0.027 H 
ATOM     44  C   LIG d   1       5.553   1.231  -3.002  0.00  0.00     0.000 C 
ATOM     45  H   LIG d   1       5.510   0.673  -0.921  0.00  0.00     0.028 H 
ATOM     46  H   LIG d   1       4.138   1.681  -1.441  0.00  0.00     0.028 H 
ATOM     47  H   LIG d   1       6.157   2.121  -2.823  0.00  0.00     0.043 H 
ATOM     48  H   LIG d   1       4.839   1.432  -3.801  0.00  0.00     0.043 H 
BRANCH  35  49
ATOM     49  C   LIG d   1       6.575  -2.194  -4.129  0.00  0.00    -0.012 A 
ATOM     50  C   LIG d   1       6.348  -2.865  -5.315  0.00  0.00     0.032 A 
ATOM     51  N   LIG d   1       7.160  -3.826  -5.711  0.00  0.00    -0.263 NA
ATOM     52  H   LIG d   1       5.500  -2.597  -5.927  0.00  0.00     0.083 H 
ATOM     53  C   LIG d   1       8.204  -4.192  -4.994  0.00  0.00     0.028 A 
ATOM     54  C   LIG d   1       8.491  -3.568  -3.794  0.00  0.00    -0.043 A 
ATOM     55  H   LIG d   1       8.844  -4.987  -5.348  0.00  0.00     0.083 H 
ATOM     56  C   LIG d   1       7.663  -2.549  -3.348  0.00  0.00    -0.054 A 
ATOM     57  H   LIG d   1       9.348  -3.871  -3.211  0.00  0.00     0.063 H 
ATOM     58  H   LIG d   1       7.863  -2.044  -2.415  0.00  0.00     0.062 H 
ENDBRANCH  35  49
ENDBRANCH  31  34
ENDBRANCH   2  31
TORSDOF 11
ENDMDL
MODEL 5
REMARK VINA RESULT:      -6.4      5.876      9.074
REMARK  11 active torsions:
REMARK  status: ('A' for Active; 'I' for Inactive)
REMARK    1  A    between atoms: C_1  and  C_2 
REMARK    2  A    between atoms: C_2  and  C_3 
REMARK    3  A    between atoms: C_2  and  C_13 
REMARK    4  A    between atoms: C_2  and  O_29 
REMARK    5  A    between atoms: C_3  and  C_4 
REMARK    6  A    between atoms: C_4  and  C_5 
REMARK    7  A    between atoms: C_8  and  O_11 
REMARK    8  A    between atoms: O_11  and  C_12 
REMARK    9  A    between atoms: C_14  and  C_15 
REMARK   10  A    between atoms: C_15  and  N_16 
REMARK   11  A    between atoms: C_21  and  C_23 
ROOT
ATOM      1  C   LIG d   1       4.569  -3.787  -7.326  0.00  0.00    -0.067 C 
ATOM      2  C   LIG d   1       4.704  -2.840  -8.006  0.00  0.00    -0.084 C 
ENDROOT
BRANCH   1   3
ATOM      3  C   LIG d   1       4.399  -4.974  -6.473  0.00  0.00     0.124 C 
BRANCH   3   4
ATOM      4  C   LIG d   1       5.236  -6.127  -7.030  0.00  0.00    -0.025 C 
ATOM      5  H   LIG d   1       5.781  -5.787  -7.911  0.00  0.00     0.027 H 
ATOM      6  H   LIG d   1       5.943  -6.463  -6.272  0.00  0.00     0.027 H 
ATOM      7  H   LIG d   1       4.579  -6.952  -7.306  0.00  0.00     0.027 H 
ENDBRANCH   3   4
BRANCH   3   8
ATOM      8  C   LIG d   1       4.860  -4.650  -5.050  0.00  0.00    -0.009 C 
ATOM      9  H   LIG d   1       4.069  -4.116  -4.525  0.00  0.00     0.031 H 
ATOM     10  H   LIG d   1       5.088  -5.576  -4.522  0.00  0.00     0.031 H 
BRANCH   8  11
ATOM     11  C   LIG d   1       6.114  -3.775  -5.108  0.00  0.00    -0.024 C 
ATOM     12  H   LIG d   1       6.961  -4.327  -4.702  0.00  0.00     0.031 H 
ATOM     13  H   LIG d   1       6.320  -3.503  -6.144  0.00  0.00     0.031 H 
BRANCH  11  14
ATOM     14  C   LIG d   1       5.893  -2.525  -4.295  0.00  0.00    -0.047 A 
ATOM     15  C   LIG d   1       4.729  -2.376  -3.563  0.00  0.00    -0.055 A 
ATOM     16  C   LIG d   1       4.526  -1.234  -2.813  0.00  0.00    -0.020 A 
ATOM     17  H   LIG d   1       3.981  -3.155  -3.574  0.00  0.00     0.062 H 
ATOM     18  C   LIG d   1       5.485  -0.232  -2.803  0.00  0.00     0.120 A 
ATOM     19  H   LIG d   1       3.620  -1.119  -2.237  0.00  0.00     0.065 H 
ATOM     20  C   LIG d   1       6.650  -0.382  -3.544  0.00  0.00    -0.020 A 
ATOM     21  C   LIG d   1       6.850  -1.528  -4.288  0.00  0.00    -0.055 A 
ATOM     22  H   LIG d   1       7.398   0.396  -3.537  0.00  0.00     0.065 H 
ATOM     23  H   LIG d   1       7.755  -1.645  -4.865  0.00  0.00     0.062 H 
BRANCH  18  24
ATOM     24  O   LIG d   1       5.286   0.895  -2.070  0.00  0.00    -0.495 OA
BRANCH  24  25
ATOM     25  C   LIG d   1       3.971   1.454  -2.084  0.00  0.00     0.079 C 
ATOM     26  H   LIG d   1       3.235   0.651  -2.046  0.00  0.00     0.066 H 
ATOM     27  H   LIG d   1       3.843   2.104  -1.219  0.00  0.00     0.066 H 
ATOM     28  H   LIG d   1       3.831   2.032  -2.997  0.00  0.00     0.066 H 
ENDBRANCH  24  25
ENDBRANCH  18  24
ENDBRANCH  11  14
ENDBRANCH   8  11
ENDBRANCH   3   8
BRANCH   3  29
ATOM     29  O   LIG d   1       3.021  -5.353  -6.453  0.00  0.00    -0.377 OA
ATOM     30  H   LIG d   1       2.689  -5.586  -5.574  0.00  0.00     0.211 HD
ENDBRANCH   3  29
ENDBRANCH   1   3
BRANCH   2  31
ATOM     31  C   LIG d   1       4.873  -1.652  -8.859  0.00  0.00     0.061 C 
ATOM     32  H   LIG d   1       5.857  -1.216  -8.686  0.00  0.00     0.056 H 
ATOM     33  H   LIG d   1       4.783  -1.941  -9.906  0.00  0.00     0.056 H 
BRANCH  31  34
ATOM     34  N   LIG d   1       3.836  -0.664  -8.533  0.00  0.00    -0.284 N 
ATOM     35  C   LIG d   1       3.792   0.406  -9.538  0.00  0.00     0.038 C 
ATOM     36  C   LIG d   1       2.611   1.334  -9.247  0.00  0.00    -0.033 C 
ATOM     37  H   LIG d   1       4.721   0.976  -9.502  0.00  0.00     0.051 H 
ATOM     38  C   LIG d   1       2.771   1.932  -7.847  0.00  0.00    -0.050 C 
ATOM     39  H   LIG d   1       1.682   0.767  -9.297  0.00  0.00     0.028 H 
ATOM     40  H   LIG d   1       2.589   2.136  -9.986  0.00  0.00     0.028 H 
ATOM     41  C   LIG d   1       2.862   0.796  -6.824  0.00  0.00    -0.040 C 
ATOM     42  H   LIG d   1       1.910   2.559  -7.618  0.00  0.00     0.027 H 
ATOM     43  H   LIG d   1       3.680   2.531  -7.808  0.00  0.00     0.027 H 
ATOM     44  C   LIG d   1       4.036  -0.116  -7.185  0.00  0.00     0.000 C 
ATOM     45  H   LIG d   1       1.937   0.221  -6.835  0.00  0.00     0.028 H 
ATOM     46  H   LIG d   1       3.019   1.214  -5.829  0.00  0.00     0.028 H 
ATOM     47  H   LIG d   1       4.095  -0.934  -6.466  0.00  0.00     0.043 H 
ATOM     48  H   LIG d   1       4.963   0.457  -7.159  0.00  0.00     0.043 H 
BRANCH  35  49
ATOM     49  C   LIG d   1       3.630  -0.201 -10.909  0.00  0.00    -0.012 A 
ATOM     50  C   LIG d   1       4.636  -0.085 -11.848  0.00  0.00     0.032 A 
ATOM     51  N   LIG d   1       4.504  -0.618 -13.047  0.00  0.00    -0.263 NA
ATOM     52  H   LIG d   1       5.543   0.445 -11.596  0.00  0.00     0.083 H 
ATOM     53  C   LIG d   1       3.413  -1.268 -13.401  0.00  0.00     0.028 A 
ATOM     54  C   LIG d   1       2.362  -1.419 -12.516  0.00  0.00    -0.043 A 
ATOM     55  H   LIG d   1       3.339  -1.687 -14.394  0.00  0.00     0.083 H 
ATOM     56  C   LIG d   1       2.467  -0.877 -11.244  0.00  0.00    -0.054 A 
ATOM     57  H   LIG d   1       1.471  -1.953 -12.811  0.00  0.00     0.063 H 
ATOM     58  H   LIG d   1       1.662  -0.981 -10.531  0.00  0.00     0.062 H 
ENDBRANCH  35  49
ENDBRANCH  31  34
ENDBRANCH   2  31
TORSDOF 11
ENDMDL
MODEL 6
REMARK VINA RESULT:      -6.4      5.198      9.300
REMARK  11 active torsions:
REMARK  status: ('A' for Active; 'I' for Inactive)
REMARK    1  A    between atoms: C_1  and  C_2 
REMARK    2  A    between atoms: C_2  and  C_3 
REMARK    3  A    between atoms: C_2  and  C_13 
REMARK    4  A    between atoms: C_2  and  O_29 
REMARK    5  A    between atoms: C_3  and  C_4 
REMARK    6  A    between atoms: C_4  and  C_5 
REMARK    7  A    between atoms: C_8  and  O_11 
REMARK    8  A    between atoms: O_11  and  C_12 
REMARK    9  A    between atoms: C_14  and  C_15 
REMARK   10  A    between atoms: C_15  and  N_16 
REMARK   11  A    between atoms: C_21  and  C_23 
ROOT
ATOM      1  C   LIG d   1       4.685  -3.904  -7.588  0.00  0.00    -0.067 C 
ATOM      2  C   LIG d   1       4.758  -3.130  -8.467  0.00  0.00    -0.084 C 
ENDROOT
BRANCH   1   3
ATOM      3  C   LIG d   1       4.592  -4.877  -6.487  0.00  0.00     0.124 C 
BRANCH   3   4
ATOM      4  C   LIG d   1       5.173  -6.218  -6.940  0.00  0.00    -0.025 C 
ATOM      5  H   LIG d   1       6.224  -6.090  -7.199  0.00  0.00     0.027 H 
ATOM      6  H   LIG d   1       5.082  -6.945  -6.133  0.00  0.00     0.027 H 
ATOM      7  H   LIG d   1       4.625  -6.573  -7.813  0.00  0.00     0.027 H 
ENDBRANCH   3   4
BRANCH   3   8
ATOM      8  C   LIG d   1       5.383  -4.359  -5.283  0.00  0.00    -0.009 C 
ATOM      9  H   LIG d   1       5.846  -5.198  -4.765  0.00  0.00     0.031 H 
ATOM     10  H   LIG d   1       6.155  -3.670  -5.625  0.00  0.00     0.031 H 
BRANCH   8  11
ATOM     11  C   LIG d   1       4.436  -3.630  -4.327  0.00  0.00    -0.024 C 
ATOM     12  H   LIG d   1       3.451  -3.545  -4.786  0.00  0.00     0.031 H 
ATOM     13  H   LIG d   1       4.356  -4.192  -3.396  0.00  0.00     0.031 H 
BRANCH  11  14
ATOM     14  C   LIG d   1       4.976  -2.253  -4.038  0.00  0.00    -0.047 A 
ATOM     15  C   LIG d   1       4.696  -1.642  -2.829  0.00  0.00    -0.055 A 
ATOM     16  C   LIG d   1       5.195  -0.383  -2.560  0.00  0.00    -0.020 A 
ATOM     17  H   LIG d   1       4.091  -2.152  -2.095  0.00  0.00     0.062 H 
ATOM     18  C   LIG d   1       5.967   0.274  -3.507  0.00  0.00     0.120 A 
ATOM     19  H   LIG d   1       4.980   0.093  -1.614  0.00  0.00     0.065 H 
ATOM     20  C   LIG d   1       6.242  -0.340  -4.721  0.00  0.00    -0.020 A 
ATOM     21  C   LIG d   1       5.745  -1.602  -4.983  0.00  0.00    -0.055 A 
ATOM     22  H   LIG d   1       6.844   0.169  -5.459  0.00  0.00     0.065 H 
ATOM     23  H   LIG d   1       5.959  -2.079  -5.928  0.00  0.00     0.062 H 
BRANCH  18  24
ATOM     24  O   LIG d   1       6.456   1.515  -3.246  0.00  0.00    -0.495 OA
BRANCH  24  25
ATOM     25  C   LIG d   1       7.718   1.850  -3.826  0.00  0.00     0.079 C 
ATOM     26  H   LIG d   1       7.798   2.933  -3.922  0.00  0.00     0.066 H 
ATOM     27  H   LIG d   1       8.521   1.482  -3.188  0.00  0.00     0.066 H 
ATOM     28  H   LIG d   1       7.798   1.391  -4.812  0.00  0.00     0.066 H 
ENDBRANCH  24  25
ENDBRANCH  18  24
ENDBRANCH  11  14
ENDBRANCH   8  11
ENDBRANCH   3   8
BRANCH   3  29
ATOM     29  O   LIG d   1       3.222  -5.051  -6.119  0.00  0.00    -0.377 OA
ATOM     30  H   LIG d   1       2.617  -5.112  -6.870  0.00  0.00     0.211 HD
ENDBRANCH   3  29
ENDBRANCH   1   3
BRANCH   2  31
ATOM     31  C   LIG d   1       4.851  -2.158  -9.569  0.00  0.00     0.061 C 
ATOM     32  H   LIG d   1       4.915  -1.149  -9.161  0.00  0.00     0.056 H 
ATOM     33  H   LIG d   1       5.740  -2.366 -10.163  0.00  0.00     0.056 H 
BRANCH  31  34
ATOM     34  N   LIG d   1       3.657  -2.267 -10.419  0.00  0.00    -0.284 N 
ATOM     35  C   LIG d   1       2.521  -1.552  -9.825  0.00  0.00     0.038 C 
ATOM     36  C   LIG d   1       1.342  -1.563 -10.801  0.00  0.00    -0.033 C 
ATOM     37  H   LIG d   1       2.228  -2.043  -8.896  0.00  0.00     0.051 H 
ATOM     38  C   LIG d   1       0.953  -3.012 -11.106  0.00  0.00    -0.050 C 
ATOM     39  H   LIG d   1       1.629  -1.061 -11.724  0.00  0.00     0.028 H 
ATOM     40  H   LIG d   1       0.494  -1.045 -10.352  0.00  0.00     0.028 H 
ATOM     41  C   LIG d   1       2.168  -3.748 -11.679  0.00  0.00    -0.040 C 
ATOM     42  H   LIG d   1       0.143  -3.026 -11.834  0.00  0.00     0.027 H 
ATOM     43  H   LIG d   1       0.628  -3.504 -10.190  0.00  0.00     0.027 H 
ATOM     44  C   LIG d   1       3.322  -3.674 -10.678  0.00  0.00     0.000 C 
ATOM     45  H   LIG d   1       2.468  -3.280 -12.617  0.00  0.00     0.028 H 
ATOM     46  H   LIG d   1       1.909  -4.792 -11.859  0.00  0.00     0.028 H 
ATOM     47  H   LIG d   1       4.193  -4.185 -11.088  0.00  0.00     0.043 H 
ATOM     48  H   LIG d   1       3.026  -4.154  -9.745  0.00  0.00     0.043 H 
BRANCH  35  49
ATOM     49  C   LIG d   1       2.920  -0.127  -9.535  0.00  0.00    -0.012 A 
ATOM     50  C   LIG d   1       2.808   0.384  -8.257  0.00  0.00     0.032 A 
ATOM     51  N   LIG d   1       3.162   1.627  -7.994  0.00  0.00    -0.263 NA
ATOM     52  H   LIG d   1       2.431  -0.243  -7.463  0.00  0.00     0.083 H 
ATOM     53  C   LIG d   1       3.621   2.431  -8.933  0.00  0.00     0.028 A 
ATOM     54  C   LIG d   1       3.756   1.990 -10.236  0.00  0.00    -0.043 A 
ATOM     55  H   LIG d   1       3.896   3.444  -8.681  0.00  0.00     0.083 H 
ATOM     56  C   LIG d   1       3.400   0.687 -10.550  0.00  0.00    -0.054 A 
ATOM     57  H   LIG d   1       4.134   2.652 -11.001  0.00  0.00     0.063 H 
ATOM     58  H   LIG d   1       3.495   0.316 -11.559  0.00  0.00     0.062 H 
ENDBRANCH  35  49
ENDBRANCH  31  34
ENDBRANCH   2  31
TORSDOF 11
ENDMDL
MODEL 7
REMARK VINA RESULT:      -6.4      3.127      5.517
REMARK  11 active torsions:
REMARK  status: ('A' for Active; 'I' for Inactive)
REMARK    1  A    between atoms: C_1  and  C_2 
REMARK    2  A    between atoms: C_2  and  C_3 
REMARK    3  A    between atoms: C_2  and  C_13 
REMARK    4  A    between atoms: C_2  and  O_29 
REMARK    5  A    between atoms: C_3  and  C_4 
REMARK    6  A    between atoms: C_4  and  C_5 
REMARK    7  A    between atoms: C_8  and  O_11 
REMARK    8  A    between atoms: O_11  and  C_12 
REMARK    9  A    between atoms: C_14  and  C_15 
REMARK   10  A    between atoms: C_15  and  N_16 
REMARK   11  A    between atoms: C_21  and  C_23 
ROOT
ATOM      1  C   LIG d   1       4.814   0.442  -7.970  0.00  0.00    -0.067 C 
ATOM      2  C   LIG d   1       4.414  -0.227  -7.093  0.00  0.00    -0.084 C 
ENDROOT
BRANCH   1   3
ATOM      3  C   LIG d   1       5.315   1.282  -9.070  0.00  0.00     0.124 C 
BRANCH   3   4
ATOM      4  C   LIG d   1       4.270   2.346  -9.417  0.00  0.00    -0.025 C 
ATOM      5  H   LIG d   1       3.408   2.236  -8.758  0.00  0.00     0.027 H 
ATOM      6  H   LIG d   1       4.704   3.337  -9.287  0.00  0.00     0.027 H 
ATOM      7  H   LIG d   1       3.954   2.219 -10.452  0.00  0.00     0.027 H 
ENDBRANCH   3   4
BRANCH   3   8
ATOM      8  C   LIG d   1       6.614   1.965  -8.639  0.00  0.00    -0.009 C 
ATOM      9  H   LIG d   1       7.117   2.376  -9.514  0.00  0.00     0.031 H 
ATOM     10  H   LIG d   1       6.387   2.769  -7.938  0.00  0.00     0.031 H 
BRANCH   8  11
ATOM     11  C   LIG d   1       7.527   0.941  -7.960  0.00  0.00    -0.024 C 
ATOM     12  H   LIG d   1       6.982   0.009  -7.815  0.00  0.00     0.031 H 
ATOM     13  H   LIG d   1       8.399   0.759  -8.588  0.00  0.00     0.031 H 
BRANCH  11  14
ATOM     14  C   LIG d   1       7.973   1.475  -6.623  0.00  0.00    -0.047 A 
ATOM     15  C   LIG d   1       7.511   0.891  -5.457  0.00  0.00    -0.055 A 
ATOM     16  C   LIG d   1       7.923   1.375  -4.231  0.00  0.00    -0.020 A 
ATOM     17  H   LIG d   1       6.830   0.054  -5.507  0.00  0.00     0.062 H 
ATOM     18  C   LIG d   1       8.792   2.454  -4.168  0.00  0.00     0.120 A 
ATOM     19  H   LIG d   1       7.565   0.916  -3.321  0.00  0.00     0.065 H 
ATOM     20  C   LIG d   1       9.250   3.042  -5.340  0.00  0.00    -0.020 A 
ATOM     21  C   LIG d   1       8.839   2.551  -6.564  0.00  0.00    -0.055 A 
ATOM     22  H   LIG d   1       9.927   3.882  -5.293  0.00  0.00     0.065 H 
ATOM     23  H   LIG d   1       9.195   3.008  -7.475  0.00  0.00     0.062 H 
BRANCH  18  24
ATOM     24  O   LIG d   1       9.195   2.935  -2.963  0.00  0.00    -0.495 OA
BRANCH  24  25
ATOM     25  C   LIG d   1      10.336   3.796  -2.958  0.00  0.00     0.079 C 
ATOM     26  H   LIG d   1      10.413   4.291  -1.990  0.00  0.00     0.066 H 
ATOM     27  H   LIG d   1      11.236   3.208  -3.138  0.00  0.00     0.066 H 
ATOM     28  H   LIG d   1      10.229   4.546  -3.742  0.00  0.00     0.066 H 
ENDBRANCH  24  25
ENDBRANCH  18  24
ENDBRANCH  11  14
ENDBRANCH   8  11
ENDBRANCH   3   8
BRANCH   3  29
ATOM     29  O   LIG d   1       5.563   0.467 -10.218  0.00  0.00    -0.377 OA
ATOM     30  H   LIG d   1       4.971  -0.294 -10.296  0.00  0.00     0.211 HD
ENDBRANCH   3  29
ENDBRANCH   1   3
BRANCH   2  31
ATOM     31  C   LIG d   1       3.912  -1.067  -5.994  0.00  0.00     0.061 C 
ATOM     32  H   LIG d   1       2.822  -1.096  -6.026  0.00  0.00     0.056 H 
ATOM     33  H   LIG d   1       4.305  -2.078  -6.100  0.00  0.00     0.056 H 
BRANCH  31  34
ATOM     34  N   LIG d   1       4.349  -0.504  -4.709  0.00  0.00    -0.284 N 
ATOM     35  C   LIG d   1       4.540  -1.562  -3.708  0.00  0.00     0.038 C 
ATOM     36  C   LIG d   1       5.132  -0.958  -2.433  0.00  0.00    -0.033 C 
ATOM     37  H   LIG d   1       3.578  -2.023  -3.480  0.00  0.00     0.051 H 
ATOM     38  C   LIG d   1       4.182   0.114  -1.893  0.00  0.00    -0.050 C 
ATOM     39  H   LIG d   1       6.099  -0.509  -2.658  0.00  0.00     0.028 H 
ATOM     40  H   LIG d   1       5.259  -1.742  -1.685  0.00  0.00     0.028 H 
ATOM     41  C   LIG d   1       3.962   1.178  -2.972  0.00  0.00    -0.040 C 
ATOM     42  H   LIG d   1       4.620   0.577  -1.009  0.00  0.00     0.027 H 
ATOM     43  H   LIG d   1       3.228  -0.342  -1.631  0.00  0.00     0.027 H 
ATOM     44  C   LIG d   1       3.404   0.514  -4.231  0.00  0.00     0.000 C 
ATOM     45  H   LIG d   1       4.911   1.662  -3.205  0.00  0.00     0.028 H 
ATOM     46  H   LIG d   1       3.254   1.923  -2.609  0.00  0.00     0.028 H 
ATOM     47  H   LIG d   1       3.259   1.267  -5.007  0.00  0.00     0.043 H 
ATOM     48  H   LIG d   1       2.448   0.042  -4.001  0.00  0.00     0.043 H 
BRANCH  35  49
ATOM     49  C   LIG d   1       5.480  -2.606  -4.254  0.00  0.00    -0.012 A 
ATOM     50  C   LIG d   1       4.986  -3.765  -4.819  0.00  0.00     0.032 A 
ATOM     51  N   LIG d   1       5.802  -4.680  -5.306  0.00  0.00    -0.263 NA
ATOM     52  H   LIG d   1       3.918  -3.922  -4.868  0.00  0.00     0.083 H 
ATOM     53  C   LIG d   1       7.111  -4.535  -5.262  0.00  0.00     0.028 A 
ATOM     54  C   LIG d   1       7.679  -3.403  -4.706  0.00  0.00    -0.043 A 
ATOM     55  H   LIG d   1       7.748  -5.308  -5.666  0.00  0.00     0.083 H 
ATOM     56  C   LIG d   1       6.852  -2.417  -4.191  0.00  0.00    -0.054 A 
ATOM     57  H   LIG d   1       8.752  -3.289  -4.675  0.00  0.00     0.063 H 
ATOM     58  H   LIG d   1       7.268  -1.522  -3.751  0.00  0.00     0.062 H 
ENDBRANCH  35  49
ENDBRANCH  31  34
ENDBRANCH   2  31
TORSDOF 11
ENDMDL
MODEL 8
REMARK VINA RESULT:      -6.3      5.922     10.605
REMARK  11 active torsions:
REMARK  status: ('A' for Active; 'I' for Inactive)
REMARK    1  A    between atoms: C_1  and  C_2 
REMARK    2  A    between atoms: C_2  and  C_3 
REMARK    3  A    between atoms: C_2  and  C_13 
REMARK    4  A    between atoms: C_2  and  O_29 
REMARK    5  A    between atoms: C_3  and  C_4 
REMARK    6  A    between atoms: C_4  and  C_5 
REMARK    7  A    between atoms: C_8  and  O_11 
REMARK    8  A    between atoms: O_11  and  C_12 
REMARK    9  A    between atoms: C_14  and  C_15 
REMARK   10  A    between atoms: C_15  and  N_16 
REMARK   11  A    between atoms: C_21  and  C_23 
ROOT
ATOM      1  C   LIG d   1       5.162   0.416  -7.902  0.00  0.00    -0.067 C 
ATOM      2  C   LIG d   1       4.799  -0.304  -7.049  0.00  0.00    -0.084 C 
ENDROOT
BRANCH   1   3
ATOM      3  C   LIG d   1       5.619   1.318  -8.972  0.00  0.00     0.124 C 
BRANCH   3   4
ATOM      4  C   LIG d   1       7.110   1.610  -8.791  0.00  0.00    -0.025 C 
ATOM      5  H   LIG d   1       7.371   2.517  -9.338  0.00  0.00     0.027 H 
ATOM      6  H   LIG d   1       7.328   1.749  -7.732  0.00  0.00     0.027 H 
ATOM      7  H   LIG d   1       7.692   0.774  -9.176  0.00  0.00     0.027 H 
ENDBRANCH   3   4
BRANCH   3   8
ATOM      8  C   LIG d   1       5.389   0.654 -10.331  0.00  0.00    -0.009 C 
ATOM      9  H   LIG d   1       6.203   0.918 -11.006  0.00  0.00     0.031 H 
ATOM     10  H   LIG d   1       5.357  -0.429 -10.205  0.00  0.00     0.031 H 
BRANCH   8  11
ATOM     11  C   LIG d   1       4.062   1.138 -10.918  0.00  0.00    -0.024 C 
ATOM     12  H   LIG d   1       3.630   1.896 -10.264  0.00  0.00     0.031 H 
ATOM     13  H   LIG d   1       4.236   1.567 -11.905  0.00  0.00     0.031 H 
BRANCH  11  14
ATOM     14  C   LIG d   1       3.110  -0.025 -11.035  0.00  0.00    -0.047 A 
ATOM     15  C   LIG d   1       2.212  -0.287 -10.017  0.00  0.00    -0.055 A 
ATOM     16  C   LIG d   1       1.336  -1.349 -10.124  0.00  0.00    -0.020 A 
ATOM     17  H   LIG d   1       2.194   0.342  -9.139  0.00  0.00     0.062 H 
ATOM     18  C   LIG d   1       1.364  -2.160 -11.249  0.00  0.00     0.120 A 
ATOM     19  H   LIG d   1       0.631  -1.551  -9.331  0.00  0.00     0.065 H 
ATOM     20  C   LIG d   1       2.271  -1.898 -12.268  0.00  0.00    -0.020 A 
ATOM     21  C   LIG d   1       3.142  -0.831 -12.157  0.00  0.00    -0.055 A 
ATOM     22  H   LIG d   1       2.294  -2.526 -13.145  0.00  0.00     0.065 H 
ATOM     23  H   LIG d   1       3.847  -0.627 -12.949  0.00  0.00     0.062 H 
BRANCH  18  24
ATOM     24  O   LIG d   1       0.506  -3.208 -11.356  0.00  0.00    -0.495 OA
BRANCH  24  25
ATOM     25  C   LIG d   1       1.084  -4.508 -11.483  0.00  0.00     0.079 C 
ATOM     26  H   LIG d   1       0.298  -5.238 -11.676  0.00  0.00     0.066 H 
ATOM     27  H   LIG d   1       1.794  -4.512 -12.311  0.00  0.00     0.066 H 
ATOM     28  H   LIG d   1       1.602  -4.768 -10.560  0.00  0.00     0.066 H 
ENDBRANCH  24  25
ENDBRANCH  18  24
ENDBRANCH  11  14
ENDBRANCH   8  11
ENDBRANCH   3   8
BRANCH   3  29
ATOM     29  O   LIG d   1       4.883   2.542  -8.909  0.00  0.00    -0.377 OA
ATOM     30  H   LIG d   1       5.306   3.280  -9.369  0.00  0.00     0.211 HD
ENDBRANCH   3  29
ENDBRANCH   1   3
BRANCH   2  31
ATOM     31  C   LIG d   1       4.344  -1.206  -5.979  0.00  0.00     0.061 C 
ATOM     32  H   LIG d   1       4.006  -0.617  -5.125  0.00  0.00     0.056 H 
ATOM     33  H   LIG d   1       3.521  -1.819  -6.345  0.00  0.00     0.056 H 
BRANCH  31  34
ATOM     34  N   LIG d   1       5.455  -2.073  -5.565  0.00  0.00    -0.284 N 
ATOM     35  C   LIG d   1       6.461  -1.317  -4.808  0.00  0.00     0.038 C 
ATOM     36  C   LIG d   1       7.525  -2.276  -4.271  0.00  0.00    -0.033 C 
ATOM     37  H   LIG d   1       6.930  -0.582  -5.463  0.00  0.00     0.051 H 
ATOM     38  C   LIG d   1       8.185  -3.006  -5.443  0.00  0.00    -0.050 C 
ATOM     39  H   LIG d   1       7.058  -3.001  -3.605  0.00  0.00     0.028 H 
ATOM     40  H   LIG d   1       8.280  -1.711  -3.722  0.00  0.00     0.028 H 
ATOM     41  C   LIG d   1       7.110  -3.747  -6.242  0.00  0.00    -0.040 C 
ATOM     42  H   LIG d   1       8.914  -3.722  -5.062  0.00  0.00     0.027 H 
ATOM     43  H   LIG d   1       8.686  -2.285  -6.088  0.00  0.00     0.027 H 
ATOM     44  C   LIG d   1       6.057  -2.746  -6.722  0.00  0.00     0.000 C 
ATOM     45  H   LIG d   1       6.636  -4.497  -5.608  0.00  0.00     0.028 H 
ATOM     46  H   LIG d   1       7.567  -4.235  -7.103  0.00  0.00     0.028 H 
ATOM     47  H   LIG d   1       5.282  -3.273  -7.281  0.00  0.00     0.043 H 
ATOM     48  H   LIG d   1       6.529  -2.005  -7.368  0.00  0.00     0.043 H 
BRANCH  35  49
ATOM     49  C   LIG d   1       5.794  -0.608  -3.656  0.00  0.00    -0.012 A 
ATOM     50  C   LIG d   1       6.000   0.742  -3.454  0.00  0.00     0.032 A 
ATOM     51  N   LIG d   1       5.415   1.371  -2.453  0.00  0.00    -0.263 NA
ATOM     52  H   LIG d   1       6.643   1.291  -4.126  0.00  0.00     0.083 H 
ATOM     53  C   LIG d   1       4.627   0.741  -1.603  0.00  0.00     0.028 A 
ATOM     54  C   LIG d   1       4.379  -0.612  -1.740  0.00  0.00    -0.043 A 
ATOM     55  H   LIG d   1       4.170   1.288  -0.792  0.00  0.00     0.083 H 
ATOM     56  C   LIG d   1       4.972  -1.305  -2.785  0.00  0.00    -0.054 A 
ATOM     57  H   LIG d   1       3.732  -1.123  -1.043  0.00  0.00     0.063 H 
ATOM     58  H   LIG d   1       4.795  -2.362  -2.917  0.00  0.00     0.062 H 
ENDBRANCH  35  49
ENDBRANCH  31  34
ENDBRANCH   2  31
TORSDOF 11
ENDMDL
MODEL 9
REMARK VINA RESULT:      -6.1      5.421      8.387
REMARK  11 active torsions:
REMARK  status: ('A' for Active; 'I' for Inactive)
REMARK    1  A    between atoms: C_1  and  C_2 
REMARK    2  A    between atoms: C_2  and  C_3 
REMARK    3  A    between atoms: C_2  and  C_13 
REMARK    4  A    between atoms: C_2  and  O_29 
REMARK    5  A    between atoms: C_3  and  C_4 
REMARK    6  A    between atoms: C_4  and  C_5 
REMARK    7  A    between atoms: C_8  and  O_11 
REMARK    8  A    between atoms: O_11  and  C_12 
REMARK    9  A    between atoms: C_14  and  C_15 
REMARK   10  A    between atoms: C_15  and  N_16 
REMARK   11  A    between atoms: C_21  and  C_23 
ROOT
ATOM      1  C   LIG d   1       5.551   0.106  -3.311  0.00  0.00    -0.067 C 
ATOM      2  C   LIG d   1       6.600   0.263  -3.812  0.00  0.00    -0.084 C 
ENDROOT
BRANCH   1   3
ATOM      3  C   LIG d   1       4.234  -0.091  -2.683  0.00  0.00     0.124 C 
BRANCH   3   4
ATOM      4  C   LIG d   1       3.623   1.270  -2.342  0.00  0.00    -0.025 C 
ATOM      5  H   LIG d   1       3.183   1.706  -3.240  0.00  0.00     0.027 H 
ATOM      6  H   LIG d   1       2.851   1.143  -1.584  0.00  0.00     0.027 H 
ATOM      7  H   LIG d   1       4.401   1.932  -1.961  0.00  0.00     0.027 H 
ENDBRANCH   3   4
BRANCH   3   8
ATOM      8  C   LIG d   1       3.313  -0.835  -3.652  0.00  0.00    -0.009 C 
ATOM      9  H   LIG d   1       3.908  -1.492  -4.286  0.00  0.00     0.031 H 
ATOM     10  H   LIG d   1       2.593  -1.428  -3.087  0.00  0.00     0.031 H 
BRANCH   8  11
ATOM     11  C   LIG d   1       2.567   0.177  -4.525  0.00  0.00    -0.024 C 
ATOM     12  H   LIG d   1       1.509  -0.083  -4.558  0.00  0.00     0.031 H 
ATOM     13  H   LIG d   1       2.683   1.175  -4.103  0.00  0.00     0.031 H 
BRANCH  11  14
ATOM     14  C   LIG d   1       3.135   0.151  -5.920  0.00  0.00    -0.047 A 
ATOM     15  C   LIG d   1       4.102  -0.779  -6.255  0.00  0.00    -0.055 A 
ATOM     16  C   LIG d   1       4.620  -0.807  -7.534  0.00  0.00    -0.020 A 
ATOM     17  H   LIG d   1       4.449  -1.485  -5.515  0.00  0.00     0.062 H 
ATOM     18  C   LIG d   1       4.178   0.104  -8.482  0.00  0.00     0.120 A 
ATOM     19  H   LIG d   1       5.373  -1.537  -7.798  0.00  0.00     0.065 H 
ATOM     20  C   LIG d   1       3.211   1.041  -8.142  0.00  0.00    -0.020 A 
ATOM     21  C   LIG d   1       2.692   1.061  -6.862  0.00  0.00    -0.055 A 
ATOM     22  H   LIG d   1       2.865   1.751  -8.878  0.00  0.00     0.065 H 
ATOM     23  H   LIG d   1       1.940   1.789  -6.597  0.00  0.00     0.062 H 
BRANCH  18  24
ATOM     24  O   LIG d   1       4.690   0.081  -9.741  0.00  0.00    -0.495 OA
BRANCH  24  25
ATOM     25  C   LIG d   1       4.199   1.061 -10.658  0.00  0.00     0.079 C 
ATOM     26  H   LIG d   1       3.809   1.915 -10.103  0.00  0.00     0.066 H 
ATOM     27  H   LIG d   1       5.010   1.391 -11.307  0.00  0.00     0.066 H 
ATOM     28  H   LIG d   1       3.403   0.627 -11.263  0.00  0.00     0.066 H 
ENDBRANCH  24  25
ENDBRANCH  18  24
ENDBRANCH  11  14
ENDBRANCH   8  11
ENDBRANCH   3   8
BRANCH   3  29
ATOM     29  O   LIG d   1       4.386  -0.857  -1.486  0.00  0.00    -0.377 OA
ATOM     30  H   LIG d   1       4.195  -0.365  -0.676  0.00  0.00     0.211 HD
ENDBRANCH   3  29
ENDBRANCH   1   3
BRANCH   2  31
ATOM     31  C   LIG d   1       7.916   0.460  -4.441  0.00  0.00     0.061 C 
ATOM     32  H   LIG d   1       8.289   1.456  -4.200  0.00  0.00     0.056 H 
ATOM     33  H   LIG d   1       8.613  -0.289  -4.068  0.00  0.00     0.056 H 
BRANCH  31  34
ATOM     34  N   LIG d   1       7.787   0.326  -5.898  0.00  0.00    -0.284 N 
ATOM     35  C   LIG d   1       8.732  -0.669  -6.422  0.00  0.00     0.038 C 
ATOM     36  C   LIG d   1       8.471  -0.888  -7.913  0.00  0.00    -0.033 C 
ATOM     37  H   LIG d   1       9.752  -0.311  -6.280  0.00  0.00     0.051 H 
ATOM     38  C   LIG d   1       8.638   0.440  -8.656  0.00  0.00    -0.050 C 
ATOM     39  H   LIG d   1       7.456  -1.260  -8.055  0.00  0.00     0.028 H 
ATOM     40  H   LIG d   1       9.183  -1.615  -8.304  0.00  0.00     0.028 H 
ATOM     41  C   LIG d   1       7.676   1.473  -8.060  0.00  0.00    -0.040 C 
ATOM     42  H   LIG d   1       8.410   0.298  -9.712  0.00  0.00     0.027 H 
ATOM     43  H   LIG d   1       9.663   0.793  -8.548  0.00  0.00     0.027 H 
ATOM     44  C   LIG d   1       7.960   1.623  -6.565  0.00  0.00     0.000 C 
ATOM     45  H   LIG d   1       6.649   1.139  -8.204  0.00  0.00     0.028 H 
ATOM     46  H   LIG d   1       7.820   2.432  -8.556  0.00  0.00     0.028 H 
ATOM     47  H   LIG d   1       7.268   2.348  -6.134  0.00  0.00     0.043 H 
ATOM     48  H   LIG d   1       8.983   1.971  -6.422  0.00  0.00     0.043 H 
BRANCH  35  49
ATOM     49  C   LIG d   1       8.550  -1.971  -5.683  0.00  0.00    -0.012 A 
ATOM     50  C   LIG d   1       9.573  -2.483  -4.909  0.00  0.00     0.032 A 
ATOM     51  N   LIG d   1       9.419  -3.617  -4.254  0.00  0.00    -0.263 NA
ATOM     52  H   LIG d   1      10.507  -1.946  -4.834  0.00  0.00     0.083 H 
ATOM     53  C   LIG d   1       8.300  -4.311  -4.320  0.00  0.00     0.028 A 
ATOM     54  C   LIG d   1       7.235  -3.863  -5.079  0.00  0.00    -0.043 A 
ATOM     55  H   LIG d   1       8.213  -5.238  -3.773  0.00  0.00     0.083 H 
ATOM     56  C   LIG d   1       7.357  -2.671  -5.777  0.00  0.00    -0.054 A 
ATOM     57  H   LIG d   1       6.320  -4.433  -5.128  0.00  0.00     0.063 H 
ATOM     58  H   LIG d   1       6.542  -2.296  -6.377  0.00  0.00     0.062 H 
ENDBRANCH  35  49
ENDBRANCH  31  34
ENDBRANCH   2  31
TORSDOF 11
ENDMDL
MODEL 10
REMARK VINA RESULT:      -6.1      2.518      3.810
REMARK  11 active torsions:
REMARK  status: ('A' for Active; 'I' for Inactive)
REMARK    1  A    between atoms: C_1  and  C_2 
REMARK    2  A    between atoms: C_2  and  C_3 
REMARK    3  A    between atoms: C_2  and  C_13 
REMARK    4  A    between atoms: C_2  and  O_29 
REMARK    5  A    between atoms: C_3  and  C_4 
REMARK    6  A    between atoms: C_4  and  C_5 
REMARK    7  A    between atoms: C_8  and  O_11 
REMARK    8  A    between atoms: O_11  and  C_12 
REMARK    9  A    between atoms: C_14  and  C_15 
REMARK   10  A    between atoms: C_15  and  N_16 
REMARK   11  A    between atoms: C_21  and  C_23 
ROOT
ATOM      1  C   LIG d   1       8.363   0.624  -5.273  0.00  0.00    -0.067 C 
ATOM      2  C   LIG d   1       7.497  -0.098  -5.597  0.00  0.00    -0.084 C 
ENDROOT
BRANCH   1   3
ATOM      3  C   LIG d   1       9.451   1.530  -4.868  0.00  0.00     0.124 C 
BRANCH   3   4
ATOM      4  C   LIG d   1       9.993   2.259  -6.099  0.00  0.00    -0.025 C 
ATOM      5  H   LIG d   1       9.190   2.833  -6.563  0.00  0.00     0.027 H 
ATOM      6  H   LIG d   1      10.795   2.933  -5.799  0.00  0.00     0.027 H 
ATOM      7  H   LIG d   1      10.378   1.531  -6.813  0.00  0.00     0.027 H 
ENDBRANCH   3   4
BRANCH   3   8
ATOM      8  C   LIG d   1       8.915   2.552  -3.863  0.00  0.00    -0.009 C 
ATOM      9  H   LIG d   1       8.477   3.393  -4.400  0.00  0.00     0.031 H 
ATOM     10  H   LIG d   1       8.155   2.083  -3.238  0.00  0.00     0.031 H 
BRANCH   8  11
ATOM     11  C   LIG d   1      10.063   3.050  -2.982  0.00  0.00    -0.024 C 
ATOM     12  H   LIG d   1       9.957   2.638  -1.980  0.00  0.00     0.031 H 
ATOM     13  H   LIG d   1      11.014   2.730  -3.409  0.00  0.00     0.031 H 
BRANCH  11  14
ATOM     14  C   LIG d   1      10.025   4.556  -2.913  0.00  0.00    -0.047 A 
ATOM     15  C   LIG d   1      10.412   5.203  -1.754  0.00  0.00    -0.055 A 
ATOM     16  C   LIG d   1      10.383   6.582  -1.690  0.00  0.00    -0.020 A 
ATOM     17  H   LIG d   1      10.740   4.629  -0.899  0.00  0.00     0.062 H 
ATOM     18  C   LIG d   1       9.956   7.318  -2.785  0.00  0.00     0.120 A 
ATOM     19  H   LIG d   1      10.690   7.088  -0.785  0.00  0.00     0.065 H 
ATOM     20  C   LIG d   1       9.564   6.666  -3.946  0.00  0.00    -0.020 A 
ATOM     21  C   LIG d   1       9.599   5.286  -4.006  0.00  0.00    -0.055 A 
ATOM     22  H   LIG d   1       9.232   7.236  -4.800  0.00  0.00     0.065 H 
ATOM     23  H   LIG d   1       9.293   4.778  -4.909  0.00  0.00     0.062 H 
BRANCH  18  24
ATOM     24  O   LIG d   1       9.923   8.675  -2.723  0.00  0.00    -0.495 OA
BRANCH  24  25
ATOM     25  C   LIG d   1       9.639   9.259  -1.450  0.00  0.00     0.079 C 
ATOM     26  H   LIG d   1       9.439   8.470  -0.725  0.00  0.00     0.066 H 
ATOM     27  H   LIG d   1      10.496   9.847  -1.120  0.00  0.00     0.066 H 
ATOM     28  H   LIG d   1       8.765   9.906  -1.534  0.00  0.00     0.066 H 
ENDBRANCH  24  25
ENDBRANCH  18  24
ENDBRANCH  11  14
ENDBRANCH   8  11
ENDBRANCH   3   8
BRANCH   3  29
ATOM     29  O   LIG d   1      10.502   0.772  -4.263  0.00  0.00    -0.377 OA
ATOM     30  H   LIG d   1      11.345   0.824  -4.733  0.00  0.00     0.211 HD
ENDBRANCH   3  29
ENDBRANCH   1   3
BRANCH   2  31
ATOM     31  C   LIG d   1       6.410  -1.003  -6.003  0.00  0.00     0.061 C 
ATOM     32  H   LIG d   1       6.756  -1.648  -6.811  0.00  0.00     0.056 H 
ATOM     33  H   LIG d   1       6.110  -1.616  -5.153  0.00  0.00     0.056 H 
BRANCH  31  34
ATOM     34  N   LIG d   1       5.262  -0.212  -6.466  0.00  0.00    -0.284 N 
ATOM     35  C   LIG d   1       4.011  -0.698  -5.868  0.00  0.00     0.038 C 
ATOM     36  C   LIG d   1       2.862   0.235  -6.256  0.00  0.00    -0.033 C 
ATOM     37  H   LIG d   1       3.802  -1.704  -6.233  0.00  0.00     0.051 H 
ATOM     38  C   LIG d   1       2.737   0.276  -7.781  0.00  0.00    -0.050 C 
ATOM     39  H   LIG d   1       3.064   1.237  -5.880  0.00  0.00     0.028 H 
ATOM     40  H   LIG d   1       1.932  -0.136  -5.824  0.00  0.00     0.028 H 
ATOM     41  C   LIG d   1       4.067   0.739  -8.381  0.00  0.00    -0.040 C 
ATOM     42  H   LIG d   1       1.948   0.972  -8.063  0.00  0.00     0.027 H 
ATOM     43  H   LIG d   1       2.496  -0.719  -8.154  0.00  0.00     0.027 H 
ATOM     44  C   LIG d   1       5.181  -0.208  -7.932  0.00  0.00     0.000 C 
ATOM     45  H   LIG d   1       4.288   1.750  -8.039  0.00  0.00     0.028 H 
ATOM     46  H   LIG d   1       3.998   0.730  -9.469  0.00  0.00     0.028 H 
ATOM     47  H   LIG d   1       6.133   0.127  -8.347  0.00  0.00     0.043 H 
ATOM     48  H   LIG d   1       4.966  -1.216  -8.287  0.00  0.00     0.043 H 
BRANCH  35  49
ATOM     49  C   LIG d   1       4.151  -0.727  -4.367  0.00  0.00    -0.012 A 
ATOM     50  C   LIG d   1       4.127  -1.929  -3.686  0.00  0.00     0.032 A 
ATOM     51  N   LIG d   1       4.255  -1.963  -2.374  0.00  0.00    -0.263 NA
ATOM     52  H   LIG d   1       4.006  -2.851  -4.235  0.00  0.00     0.083 H 
ATOM     53  C   LIG d   1       4.398  -0.863  -1.662  0.00  0.00     0.028 A 
ATOM     54  C   LIG d   1       4.425   0.376  -2.274  0.00  0.00    -0.043 A 
ATOM     55  H   LIG d   1       4.495  -0.930  -0.589  0.00  0.00     0.083 H 
ATOM     56  C   LIG d   1       4.300   0.452  -3.653  0.00  0.00    -0.054 A 
ATOM     57  H   LIG d   1       4.544   1.274  -1.686  0.00  0.00     0.063 H 
ATOM     58  H   LIG d   1       4.319   1.406  -4.158  0.00  0.00     0.062 H 
ENDBRANCH  35  49
ENDBRANCH  31  34
ENDBRANCH   2  31
TORSDOF 11
ENDMDL
