MODEL 1
REMARK VINA RESULT:      -6.0      0.000      0.000
REMARK  7 active torsions:
REMARK  status: ('A' for Active; 'I' for Inactive)
REMARK    1  A    between atoms: C_1  and  O_2 
REMARK    2  A    between atoms: O_2  and  C_3 
REMARK    3  A    between atoms: C_3  and  C_5 
REMARK    4  A    between atoms: C_5  and  C_6 
REMARK    5  A    between atoms: C_6  and  C_7 
REMARK    6  A    between atoms: C_8  and  N_21 
REMARK    7  A    between atoms: C_12  and  N_13 
ROOT
ATOM      1  C   LIG d   1       4.725  -2.548  -6.128  0.00  0.00     0.109 A 
ATOM      2  C   LIG d   1       4.770  -3.433  -5.065  0.00  0.00     0.283 A 
ATOM      3  C   LIG d   1       4.515  -2.990  -3.781  0.00  0.00     0.021 A 
ATOM      4  C   LIG d   1       4.214  -1.662  -3.555  0.00  0.00    -0.013 A 
ATOM      5  C   LIG d   1       4.167  -0.770  -4.619  0.00  0.00     0.115 A 
ATOM      6  C   LIG d   1       4.429  -1.216  -5.907  0.00  0.00     0.304 A 
ATOM      7  N   LIG d   1       3.862   0.575  -4.389  0.00  0.00    -0.280 N 
ATOM      8  C   LIG d   1       3.974   1.099  -3.155  0.00  0.00     0.218 C 
ATOM      9  O   LIG d   1       3.689   2.263  -2.970  0.00  0.00    -0.276 OA
ATOM     10  C   LIG d   1       4.445   0.257  -2.001  0.00  0.00     0.028 C 
ATOM     11  C   LIG d   1       3.934  -1.176  -2.156  0.00  0.00    -0.017 C 
ATOM     12  H   LIG d   1       4.551  -3.683  -2.954  0.00  0.00     0.069 H 
ATOM     13  H   LIG d   1       3.566   1.134  -5.125  0.00  0.00     0.155 HD
ATOM     14  H   LIG d   1       5.535   0.251  -1.980  0.00  0.00     0.036 H 
ATOM     15  H   LIG d   1       4.069   0.676  -1.069  0.00  0.00     0.036 H 
ATOM     16  H   LIG d   1       2.860  -1.198  -1.972  0.00  0.00     0.032 H 
ATOM     17  H   LIG d   1       4.439  -1.822  -1.439  0.00  0.00     0.032 H 
ENDROOT
BRANCH   1  18
ATOM     18  C   LIG d   1       5.004  -3.035  -7.526  0.00  0.00    -0.005 C 
ATOM     19  H   LIG d   1       5.792  -3.788  -7.498  0.00  0.00     0.032 H 
ATOM     20  H   LIG d   1       5.323  -2.198  -8.146  0.00  0.00     0.032 H 
BRANCH  18  21
ATOM     21  C   LIG d   1       3.733  -3.651  -8.115  0.00  0.00     0.049 C 
ATOM     22  H   LIG d   1       2.925  -3.585  -7.385  0.00  0.00     0.038 H 
ATOM     23  H   LIG d   1       3.916  -4.697  -8.362  0.00  0.00     0.038 H 
BRANCH  21  24
ATOM     24  C   LIG d   1       3.344  -2.901  -9.363  0.00  0.00     0.307 C 
ATOM     25  O   LIG d   1       4.181  -2.298  -9.991  0.00  0.00    -0.251 OA
BRANCH  24  26
ATOM     26  O   LIG d   1       2.067  -2.903  -9.776  0.00  0.00    -0.468 OA
BRANCH  26  27
ATOM     27  C   LIG d   1       1.528  -1.643 -10.258  0.00  0.00     0.082 C 
ATOM     28  H   LIG d   1       0.990  -1.811 -11.191  0.00  0.00     0.066 H 
ATOM     29  H   LIG d   1       0.846  -1.232  -9.515  0.00  0.00     0.066 H 
ATOM     30  H   LIG d   1       2.345  -0.942 -10.430  0.00  0.00     0.066 H 
ENDBRANCH  26  27
ENDBRANCH  24  26
ENDBRANCH  21  24
ENDBRANCH  18  21
ENDBRANCH   1  18
BRANCH   6  31
ATOM     31  N   LIG d   1       4.387  -0.269  -7.043  0.00  0.00     0.082 N 
ATOM     32  O   LIG d   1       5.405   0.292  -7.406  0.00  0.00     0.042 OA
ATOM     33  O   LIG d   1       3.334  -0.050  -7.614  0.00  0.00    -0.576 OA
ENDBRANCH   6  31
BRANCH   2  34
ATOM     34  N   LIG d   1       5.093  -4.858  -5.305  0.00  0.00     0.080 N 
ATOM     35  O   LIG d   1       4.204  -5.689  -5.321  0.00  0.00     0.042 OA
ATOM     36  O   LIG d   1       6.249  -5.198  -5.485  0.00  0.00    -0.576 OA
ENDBRANCH   2  34
TORSDOF 7
ENDMDL
MODEL 2
REMARK VINA RESULT:      -5.9      1.291      2.007
REMARK  7 active torsions:
REMARK  status: ('A' for Active; 'I' for Inactive)
REMARK    1  A    between atoms: C_1  and  O_2 
REMARK    2  A    between atoms: O_2  and  C_3 
REMARK    3  A    between atoms: C_3  and  C_5 
REMARK    4  A    between atoms: C_5  and  C_6 
REMARK    5  A    between atoms: C_6  and  C_7 
REMARK    6  A    between atoms: C_8  and  N_21 
REMARK    7  A    between atoms: C_12  and  N_13 
ROOT
ATOM      1  C   LIG d   1       4.734  -2.598  -6.116  0.00  0.00     0.109 A 
ATOM      2  C   LIG d   1       4.775  -3.467  -5.041  0.00  0.00     0.283 A 
ATOM      3  C   LIG d   1       4.514  -3.006  -3.765  0.00  0.00     0.021 A 
ATOM      4  C   LIG d   1       4.210  -1.675  -3.559  0.00  0.00    -0.013 A 
ATOM      5  C   LIG d   1       4.168  -0.799  -4.636  0.00  0.00     0.115 A 
ATOM      6  C   LIG d   1       4.437  -1.263  -5.916  0.00  0.00     0.304 A 
ATOM      7  N   LIG d   1       3.860   0.549  -4.427  0.00  0.00    -0.280 N 
ATOM      8  C   LIG d   1       3.966   1.091  -3.200  0.00  0.00     0.218 C 
ATOM      9  O   LIG d   1       3.679   2.257  -3.033  0.00  0.00    -0.276 OA
ATOM     10  C   LIG d   1       4.432   0.266  -2.032  0.00  0.00     0.028 C 
ATOM     11  C   LIG d   1       3.923  -1.169  -2.169  0.00  0.00    -0.017 C 
ATOM     12  H   LIG d   1       4.546  -3.687  -2.928  0.00  0.00     0.069 H 
ATOM     13  H   LIG d   1       3.568   1.097  -5.173  0.00  0.00     0.155 HD
ATOM     14  H   LIG d   1       5.523   0.261  -2.005  0.00  0.00     0.036 H 
ATOM     15  H   LIG d   1       4.052   0.698  -1.107  0.00  0.00     0.036 H 
ATOM     16  H   LIG d   1       2.848  -1.190  -1.990  0.00  0.00     0.032 H 
ATOM     17  H   LIG d   1       4.425  -1.804  -1.440  0.00  0.00     0.032 H 
ENDROOT
BRANCH   1  18
ATOM     18  C   LIG d   1       5.021  -3.105  -7.506  0.00  0.00    -0.005 C 
ATOM     19  H   LIG d   1       5.736  -3.926  -7.453  0.00  0.00     0.032 H 
ATOM     20  H   LIG d   1       5.437  -2.299  -8.108  0.00  0.00     0.032 H 
BRANCH  18  21
ATOM     21  C   LIG d   1       3.722  -3.601  -8.146  0.00  0.00     0.049 C 
ATOM     22  H   LIG d   1       3.498  -3.000  -9.027  0.00  0.00     0.038 H 
ATOM     23  H   LIG d   1       2.906  -3.513  -7.427  0.00  0.00     0.038 H 
BRANCH  21  24
ATOM     24  C   LIG d   1       3.881  -5.044  -8.548  0.00  0.00     0.307 C 
ATOM     25  O   LIG d   1       2.910  -5.758  -8.637  0.00  0.00    -0.251 OA
BRANCH  24  26
ATOM     26  O   LIG d   1       5.102  -5.538  -8.807  0.00  0.00    -0.468 OA
BRANCH  26  27
ATOM     27  C   LIG d   1       5.332  -6.934  -8.479  0.00  0.00     0.082 C 
ATOM     28  H   LIG d   1       6.404  -7.119  -8.411  0.00  0.00     0.066 H 
ATOM     29  H   LIG d   1       4.862  -7.164  -7.523  0.00  0.00     0.066 H 
ATOM     30  H   LIG d   1       4.903  -7.565  -9.257  0.00  0.00     0.066 H 
ENDBRANCH  26  27
ENDBRANCH  24  26
ENDBRANCH  21  24
ENDBRANCH  18  21
ENDBRANCH   1  18
BRANCH   6  31
ATOM     31  N   LIG d   1       4.399  -0.332  -7.066  0.00  0.00     0.082 N 
ATOM     32  O   LIG d   1       5.397   0.294  -7.375  0.00  0.00     0.042 OA
ATOM     33  O   LIG d   1       3.370  -0.192  -7.702  0.00  0.00    -0.576 OA
ENDBRANCH   6  31
BRANCH   2  34
ATOM     34  N   LIG d   1       5.100  -4.895  -5.258  0.00  0.00     0.080 N 
ATOM     35  O   LIG d   1       6.252  -5.233  -5.464  0.00  0.00     0.042 OA
ATOM     36  O   LIG d   1       4.216  -5.732  -5.231  0.00  0.00    -0.576 OA
ENDBRANCH   2  34
TORSDOF 7
ENDMDL
MODEL 3
REMARK VINA RESULT:      -5.6      1.614      5.183
REMARK  7 active torsions:
REMARK  status: ('A' for Active; 'I' for Inactive)
REMARK    1  A    between atoms: C_1  and  O_2 
REMARK    2  A    between atoms: O_2  and  C_3 
REMARK    3  A    between atoms: C_3  and  C_5 
REMARK    4  A    between atoms: C_5  and  C_6 
REMARK    5  A    between atoms: C_6  and  C_7 
REMARK    6  A    between atoms: C_8  and  N_21 
REMARK    7  A    between atoms: C_12  and  N_13 
ROOT
ATOM      1  C   LIG d   1       4.783  -2.645  -5.586  0.00  0.00     0.109 A 
ATOM      2  C   LIG d   1       4.602  -3.870  -6.201  0.00  0.00     0.283 A 
ATOM      3  C   LIG d   1       4.128  -3.934  -7.498  0.00  0.00     0.021 A 
ATOM      4  C   LIG d   1       3.835  -2.772  -8.184  0.00  0.00    -0.013 A 
ATOM      5  C   LIG d   1       4.016  -1.540  -7.570  0.00  0.00     0.115 A 
ATOM      6  C   LIG d   1       4.486  -1.479  -6.265  0.00  0.00     0.304 A 
ATOM      7  N   LIG d   1       3.719  -0.363  -8.265  0.00  0.00    -0.280 N 
ATOM      8  C   LIG d   1       2.930  -0.395  -9.355  0.00  0.00     0.218 C 
ATOM      9  O   LIG d   1       2.696   0.632  -9.956  0.00  0.00    -0.276 OA
ATOM     10  C   LIG d   1       2.337  -1.691  -9.837  0.00  0.00     0.028 C 
ATOM     11  C   LIG d   1       3.320  -2.837  -9.598  0.00  0.00    -0.017 C 
ATOM     12  H   LIG d   1       3.988  -4.892  -7.975  0.00  0.00     0.069 H 
ATOM     13  H   LIG d   1       4.085   0.482  -7.960  0.00  0.00     0.155 HD
ATOM     14  H   LIG d   1       1.412  -1.889  -9.295  0.00  0.00     0.036 H 
ATOM     15  H   LIG d   1       2.120  -1.616 -10.902  0.00  0.00     0.036 H 
ATOM     16  H   LIG d   1       4.155  -2.747 -10.293  0.00  0.00     0.032 H 
ATOM     17  H   LIG d   1       2.815  -3.788  -9.757  0.00  0.00     0.032 H 
ENDROOT
BRANCH   1  18
ATOM     18  C   LIG d   1       5.299  -2.581  -4.171  0.00  0.00    -0.005 C 
ATOM     19  H   LIG d   1       5.739  -1.600  -3.988  0.00  0.00     0.032 H 
ATOM     20  H   LIG d   1       6.056  -3.351  -4.025  0.00  0.00     0.032 H 
BRANCH  18  21
ATOM     21  C   LIG d   1       4.143  -2.811  -3.196  0.00  0.00     0.049 C 
ATOM     22  H   LIG d   1       4.461  -3.498  -2.411  0.00  0.00     0.038 H 
ATOM     23  H   LIG d   1       3.295  -3.239  -3.732  0.00  0.00     0.038 H 
BRANCH  21  24
ATOM     24  C   LIG d   1       3.736  -1.497  -2.581  0.00  0.00     0.307 C 
ATOM     25  O   LIG d   1       2.642  -1.037  -2.807  0.00  0.00    -0.251 OA
BRANCH  24  26
ATOM     26  O   LIG d   1       4.590  -0.838  -1.782  0.00  0.00    -0.468 OA
BRANCH  26  27
ATOM     27  C   LIG d   1       4.519   0.613  -1.796  0.00  0.00     0.082 C 
ATOM     28  H   LIG d   1       4.340   0.977  -0.784  0.00  0.00     0.066 H 
ATOM     29  H   LIG d   1       5.459   1.019  -2.167  0.00  0.00     0.066 H 
ATOM     30  H   LIG d   1       3.703   0.929  -2.446  0.00  0.00     0.066 H 
ENDBRANCH  26  27
ENDBRANCH  24  26
ENDBRANCH  21  24
ENDBRANCH  18  21
ENDBRANCH   1  18
BRANCH   6  31
ATOM     31  N   LIG d   1       4.675  -0.168  -5.604  0.00  0.00     0.082 N 
ATOM     32  O   LIG d   1       3.709   0.526  -5.342  0.00  0.00     0.042 OA
ATOM     33  O   LIG d   1       5.795   0.217  -5.324  0.00  0.00    -0.576 OA
ENDBRANCH   6  31
BRANCH   2  34
ATOM     34  N   LIG d   1       4.915  -5.118  -5.467  0.00  0.00     0.080 N 
ATOM     35  O   LIG d   1       6.069  -5.499  -5.378  0.00  0.00     0.042 OA
ATOM     36  O   LIG d   1       4.019  -5.763  -4.953  0.00  0.00    -0.576 OA
ENDBRANCH   2  34
TORSDOF 7
ENDMDL
MODEL 4
REMARK VINA RESULT:      -5.3      2.569      6.319
REMARK  7 active torsions:
REMARK  status: ('A' for Active; 'I' for Inactive)
REMARK    1  A    between atoms: C_1  and  O_2 
REMARK    2  A    between atoms: O_2  and  C_3 
REMARK    3  A    between atoms: C_3  and  C_5 
REMARK    4  A    between atoms: C_5  and  C_6 
REMARK    5  A    between atoms: C_6  and  C_7 
REMARK    6  A    between atoms: C_8  and  N_21 
REMARK    7  A    between atoms: C_12  and  N_13 
ROOT
ATOM      1  C   LIG d   1       4.579  -0.703  -6.255  0.00  0.00     0.109 A 
ATOM      2  C   LIG d   1       3.425   0.059  -6.207  0.00  0.00     0.283 A 
ATOM      3  C   LIG d   1       2.816   0.470  -7.377  0.00  0.00     0.021 A 
ATOM      4  C   LIG d   1       3.357   0.122  -8.599  0.00  0.00    -0.013 A 
ATOM      5  C   LIG d   1       4.516  -0.642  -8.650  0.00  0.00     0.115 A 
ATOM      6  C   LIG d   1       5.130  -1.050  -7.474  0.00  0.00     0.304 A 
ATOM      7  N   LIG d   1       5.064  -0.995  -9.888  0.00  0.00    -0.280 N 
ATOM      8  C   LIG d   1       4.723  -0.322 -11.002  0.00  0.00     0.218 C 
ATOM      9  O   LIG d   1       5.195  -0.651 -12.069  0.00  0.00    -0.276 OA
ATOM     10  C   LIG d   1       3.761   0.833 -10.939  0.00  0.00     0.028 C 
ATOM     11  C   LIG d   1       2.695   0.568  -9.876  0.00  0.00    -0.017 C 
ATOM     12  H   LIG d   1       1.915   1.064  -7.336  0.00  0.00     0.069 H 
ATOM     13  H   LIG d   1       5.695  -1.731  -9.943  0.00  0.00     0.155 HD
ATOM     14  H   LIG d   1       4.305   1.743 -10.686  0.00  0.00     0.036 H 
ATOM     15  H   LIG d   1       3.282   0.959 -11.909  0.00  0.00     0.036 H 
ATOM     16  H   LIG d   1       2.021  -0.213 -10.228  0.00  0.00     0.032 H 
ATOM     17  H   LIG d   1       2.130   1.481  -9.693  0.00  0.00     0.032 H 
ENDROOT
BRANCH   1  18
ATOM     18  C   LIG d   1       5.241  -1.149  -4.976  0.00  0.00    -0.005 C 
ATOM     19  H   LIG d   1       5.619  -2.164  -5.098  0.00  0.00     0.032 H 
ATOM     20  H   LIG d   1       4.514  -1.127  -4.165  0.00  0.00     0.032 H 
BRANCH  18  21
ATOM     21  C   LIG d   1       6.402  -0.208  -4.647  0.00  0.00     0.049 C 
ATOM     22  H   LIG d   1       6.553   0.485  -5.475  0.00  0.00     0.038 H 
ATOM     23  H   LIG d   1       7.309  -0.792  -4.490  0.00  0.00     0.038 H 
BRANCH  21  24
ATOM     24  C   LIG d   1       6.080   0.567  -3.396  0.00  0.00     0.307 C 
ATOM     25  O   LIG d   1       6.447   1.712  -3.282  0.00  0.00    -0.251 OA
BRANCH  24  26
ATOM     26  O   LIG d   1       5.387  -0.017  -2.405  0.00  0.00    -0.468 OA
BRANCH  26  27
ATOM     27  C   LIG d   1       4.530   0.841  -1.605  0.00  0.00     0.082 C 
ATOM     28  H   LIG d   1       3.489   0.668  -1.876  0.00  0.00     0.066 H 
ATOM     29  H   LIG d   1       4.673   0.613  -0.549  0.00  0.00     0.066 H 
ATOM     30  H   LIG d   1       4.787   1.883  -1.791  0.00  0.00     0.066 H 
ENDBRANCH  26  27
ENDBRANCH  24  26
ENDBRANCH  21  24
ENDBRANCH  18  21
ENDBRANCH   1  18
BRANCH   6  31
ATOM     31  N   LIG d   1       6.368  -1.859  -7.524  0.00  0.00     0.082 N 
ATOM     32  O   LIG d   1       7.435  -1.325  -7.768  0.00  0.00     0.042 OA
ATOM     33  O   LIG d   1       6.319  -3.059  -7.324  0.00  0.00    -0.576 OA
ENDBRANCH   6  31
BRANCH   2  34
ATOM     34  N   LIG d   1       2.842   0.433  -4.899  0.00  0.00     0.080 N 
ATOM     35  O   LIG d   1       2.895   1.589  -4.517  0.00  0.00     0.042 OA
ATOM     36  O   LIG d   1       2.309  -0.414  -4.205  0.00  0.00    -0.576 OA
ENDBRANCH   2  34
TORSDOF 7
ENDMDL
MODEL 5
REMARK VINA RESULT:      -5.0      9.257     12.265
REMARK  7 active torsions:
REMARK  status: ('A' for Active; 'I' for Inactive)
REMARK    1  A    between atoms: C_1  and  O_2 
REMARK    2  A    between atoms: O_2  and  C_3 
REMARK    3  A    between atoms: C_3  and  C_5 
REMARK    4  A    between atoms: C_5  and  C_6 
REMARK    5  A    between atoms: C_6  and  C_7 
REMARK    6  A    between atoms: C_8  and  N_21 
REMARK    7  A    between atoms: C_12  and  N_13 
ROOT
ATOM      1  C   LIG d   1      10.005   6.027  -2.612  0.00  0.00     0.109 A 
ATOM      2  C   LIG d   1      10.015   5.076  -3.616  0.00  0.00     0.283 A 
ATOM      3  C   LIG d   1       9.990   5.464  -4.942  0.00  0.00     0.021 A 
ATOM      4  C   LIG d   1       9.954   6.806  -5.269  0.00  0.00    -0.013 A 
ATOM      5  C   LIG d   1       9.943   7.764  -4.264  0.00  0.00     0.115 A 
ATOM      6  C   LIG d   1       9.963   7.371  -2.932  0.00  0.00     0.304 A 
ATOM      7  N   LIG d   1       9.907   9.122  -4.595  0.00  0.00    -0.280 N 
ATOM      8  C   LIG d   1       9.516   9.515  -5.821  0.00  0.00     0.218 C 
ATOM      9  O   LIG d   1       9.507  10.696  -6.097  0.00  0.00    -0.276 OA
ATOM     10  C   LIG d   1       9.094   8.506  -6.854  0.00  0.00     0.028 C 
ATOM     11  C   LIG d   1       9.928   7.233  -6.713  0.00  0.00    -0.017 C 
ATOM     12  H   LIG d   1       9.998   4.719  -5.723  0.00  0.00     0.069 H 
ATOM     13  H   LIG d   1      10.167   9.786  -3.936  0.00  0.00     0.155 HD
ATOM     14  H   LIG d   1       8.040   8.265  -6.714  0.00  0.00     0.036 H 
ATOM     15  H   LIG d   1       9.238   8.925  -7.850  0.00  0.00     0.036 H 
ATOM     16  H   LIG d   1      10.945   7.428  -7.053  0.00  0.00     0.032 H 
ATOM     17  H   LIG d   1       9.488   6.442  -7.318  0.00  0.00     0.032 H 
ENDROOT
BRANCH   1  18
ATOM     18  C   LIG d   1      10.032   5.598  -1.167  0.00  0.00    -0.005 C 
ATOM     19  H   LIG d   1       9.678   4.570  -1.087  0.00  0.00     0.032 H 
ATOM     20  H   LIG d   1       9.385   6.251  -0.582  0.00  0.00     0.032 H 
BRANCH  18  21
ATOM     21  C   LIG d   1      11.464   5.688  -0.636  0.00  0.00     0.049 C 
ATOM     22  H   LIG d   1      12.065   6.297  -1.311  0.00  0.00     0.038 H 
ATOM     23  H   LIG d   1      11.891   4.687  -0.570  0.00  0.00     0.038 H 
BRANCH  21  24
ATOM     24  C   LIG d   1      11.452   6.319   0.733  0.00  0.00     0.307 C 
ATOM     25  O   LIG d   1      10.783   5.836   1.615  0.00  0.00    -0.251 OA
BRANCH  24  26
ATOM     26  O   LIG d   1      12.185   7.418   0.972  0.00  0.00    -0.468 OA
BRANCH  26  27
ATOM     27  C   LIG d   1      11.523   8.515   1.657  0.00  0.00     0.082 C 
ATOM     28  H   LIG d   1      11.062   8.145   2.573  0.00  0.00     0.066 H 
ATOM     29  H   LIG d   1      12.257   9.282   1.905  0.00  0.00     0.066 H 
ATOM     30  H   LIG d   1      10.757   8.939   1.009  0.00  0.00     0.066 H 
ENDBRANCH  26  27
ENDBRANCH  24  26
ENDBRANCH  21  24
ENDBRANCH  18  21
ENDBRANCH   1  18
BRANCH   6  31
ATOM     31  N   LIG d   1       9.946   8.388  -1.858  0.00  0.00     0.082 N 
ATOM     32  O   LIG d   1       8.973   8.490  -1.132  0.00  0.00     0.042 OA
ATOM     33  O   LIG d   1      10.903   9.124  -1.700  0.00  0.00    -0.576 OA
ENDBRANCH   6  31
BRANCH   2  34
ATOM     34  N   LIG d   1      10.053   3.637  -3.269  0.00  0.00     0.080 N 
ATOM     35  O   LIG d   1       9.016   3.007  -3.168  0.00  0.00     0.042 OA
ATOM     36  O   LIG d   1      11.123   3.084  -3.084  0.00  0.00    -0.576 OA
ENDBRANCH   2  34
TORSDOF 7
ENDMDL
MODEL 6
REMARK VINA RESULT:      -5.0     10.125     14.067
REMARK  7 active torsions:
REMARK  status: ('A' for Active; 'I' for Inactive)
REMARK    1  A    between atoms: C_1  and  O_2 
REMARK    2  A    between atoms: O_2  and  C_3 
REMARK    3  A    between atoms: C_3  and  C_5 
REMARK    4  A    between atoms: C_5  and  C_6 
REMARK    5  A    between atoms: C_6  and  C_7 
REMARK    6  A    between atoms: C_8  and  N_21 
REMARK    7  A    between atoms: C_12  and  N_13 
ROOT
ATOM      1  C   LIG d   1      10.512   8.079  -0.899  0.00  0.00     0.109 A 
ATOM      2  C   LIG d   1       9.995   8.601  -2.072  0.00  0.00     0.283 A 
ATOM      3  C   LIG d   1       9.674   7.763  -3.123  0.00  0.00     0.021 A 
ATOM      4  C   LIG d   1       9.868   6.401  -3.006  0.00  0.00    -0.013 A 
ATOM      5  C   LIG d   1      10.387   5.874  -1.830  0.00  0.00     0.115 A 
ATOM      6  C   LIG d   1      10.714   6.718  -0.778  0.00  0.00     0.304 A 
ATOM      7  N   LIG d   1      10.583   4.494  -1.712  0.00  0.00    -0.280 N 
ATOM      8  C   LIG d   1      10.634   3.715  -2.808  0.00  0.00     0.218 C 
ATOM      9  O   LIG d   1      10.788   2.519  -2.686  0.00  0.00    -0.276 OA
ATOM     10  C   LIG d   1      10.498   4.312  -4.182  0.00  0.00     0.028 C 
ATOM     11  C   LIG d   1       9.518   5.484  -4.149  0.00  0.00    -0.017 C 
ATOM     12  H   LIG d   1       9.271   8.173  -4.036  0.00  0.00     0.069 H 
ATOM     13  H   LIG d   1      10.683   4.096  -0.833  0.00  0.00     0.155 HD
ATOM     14  H   LIG d   1      11.473   4.665  -4.521  0.00  0.00     0.036 H 
ATOM     15  H   LIG d   1      10.131   3.553  -4.872  0.00  0.00     0.036 H 
ATOM     16  H   LIG d   1       8.505   5.105  -4.013  0.00  0.00     0.032 H 
ATOM     17  H   LIG d   1       9.578   6.035  -5.087  0.00  0.00     0.032 H 
ENDROOT
BRANCH   1  18
ATOM     18  C   LIG d   1      10.861   8.997   0.244  0.00  0.00    -0.005 C 
ATOM     19  H   LIG d   1      10.779   8.453   1.185  0.00  0.00     0.032 H 
ATOM     20  H   LIG d   1      10.175   9.844   0.252  0.00  0.00     0.032 H 
BRANCH  18  21
ATOM     21  C   LIG d   1      12.295   9.504   0.071  0.00  0.00     0.049 C 
ATOM     22  H   LIG d   1      12.277  10.564  -0.182  0.00  0.00     0.038 H 
ATOM     23  H   LIG d   1      12.783   8.946  -0.728  0.00  0.00     0.038 H 
BRANCH  21  24
ATOM     24  C   LIG d   1      13.055   9.306   1.357  0.00  0.00     0.307 C 
ATOM     25  O   LIG d   1      14.263   9.301   1.351  0.00  0.00    -0.251 OA
BRANCH  24  26
ATOM     26  O   LIG d   1      12.388   9.134   2.510  0.00  0.00    -0.468 OA
BRANCH  26  27
ATOM     27  C   LIG d   1      12.568  10.150   3.533  0.00  0.00     0.082 C 
ATOM     28  H   LIG d   1      11.604  10.602   3.769  0.00  0.00     0.066 H 
ATOM     29  H   LIG d   1      12.983   9.692   4.430  0.00  0.00     0.066 H 
ATOM     30  H   LIG d   1      13.249  10.917   3.166  0.00  0.00     0.066 H 
ENDBRANCH  26  27
ENDBRANCH  24  26
ENDBRANCH  21  24
ENDBRANCH  18  21
ENDBRANCH   1  18
BRANCH   6  31
ATOM     31  N   LIG d   1      11.273   6.161   0.474  0.00  0.00     0.082 N 
ATOM     32  O   LIG d   1      10.530   5.871   1.396  0.00  0.00     0.042 OA
ATOM     33  O   LIG d   1      12.473   5.993   0.583  0.00  0.00    -0.576 OA
ENDBRANCH   6  31
BRANCH   2  34
ATOM     34  N   LIG d   1       9.786  10.061  -2.201  0.00  0.00     0.080 N 
ATOM     35  O   LIG d   1       8.772  10.572  -1.760  0.00  0.00     0.042 OA
ATOM     36  O   LIG d   1      10.628  10.751  -2.748  0.00  0.00    -0.576 OA
ENDBRANCH   2  34
TORSDOF 7
ENDMDL
MODEL 7
REMARK VINA RESULT:      -4.9     11.326     14.171
REMARK  7 active torsions:
REMARK  status: ('A' for Active; 'I' for Inactive)
REMARK    1  A    between atoms: C_1  and  O_2 
REMARK    2  A    between atoms: O_2  and  C_3 
REMARK    3  A    between atoms: C_3  and  C_5 
REMARK    4  A    between atoms: C_5  and  C_6 
REMARK    5  A    between atoms: C_6  and  C_7 
REMARK    6  A    between atoms: C_8  and  N_21 
REMARK    7  A    between atoms: C_12  and  N_13 
ROOT
ATOM      1  C   LIG d   1      10.431   9.520  -3.609  0.00  0.00     0.109 A 
ATOM      2  C   LIG d   1      10.444  10.492  -2.625  0.00  0.00     0.283 A 
ATOM      3  C   LIG d   1      10.114  11.798  -2.935  0.00  0.00     0.021 A 
ATOM      4  C   LIG d   1       9.770  12.136  -4.229  0.00  0.00    -0.013 A 
ATOM      5  C   LIG d   1       9.756  11.162  -5.219  0.00  0.00     0.115 A 
ATOM      6  C   LIG d   1      10.094   9.853  -4.907  0.00  0.00     0.304 A 
ATOM      7  N   LIG d   1       9.408  11.505  -6.529  0.00  0.00    -0.280 N 
ATOM      8  C   LIG d   1       9.444  12.789  -6.932  0.00  0.00     0.218 C 
ATOM      9  O   LIG d   1       9.123  13.070  -8.066  0.00  0.00    -0.276 OA
ATOM     10  C   LIG d   1       9.877  13.878  -5.989  0.00  0.00     0.028 C 
ATOM     11  C   LIG d   1       9.408  13.558  -4.570  0.00  0.00    -0.017 C 
ATOM     12  H   LIG d   1      10.125  12.554  -2.165  0.00  0.00     0.069 H 
ATOM     13  H   LIG d   1       9.137  10.812  -7.153  0.00  0.00     0.155 HD
ATOM     14  H   LIG d   1      10.965  13.956  -6.002  0.00  0.00     0.036 H 
ATOM     15  H   LIG d   1       9.445  14.826  -6.308  0.00  0.00     0.036 H 
ATOM     16  H   LIG d   1       8.327  13.683  -4.510  0.00  0.00     0.032 H 
ATOM     17  H   LIG d   1       9.892  14.234  -3.866  0.00  0.00     0.032 H 
ENDROOT
BRANCH   1  18
ATOM     18  C   LIG d   1      10.792   8.097  -3.267  0.00  0.00    -0.005 C 
ATOM     19  H   LIG d   1      11.560   8.093  -2.492  0.00  0.00     0.032 H 
ATOM     20  H   LIG d   1      11.171   7.594  -4.156  0.00  0.00     0.032 H 
BRANCH  18  21
ATOM     21  C   LIG d   1       9.550   7.364  -2.756  0.00  0.00     0.049 C 
ATOM     22  H   LIG d   1       9.100   6.799  -3.573  0.00  0.00     0.038 H 
ATOM     23  H   LIG d   1       8.830   8.090  -2.376  0.00  0.00     0.038 H 
BRANCH  21  24
ATOM     24  C   LIG d   1       9.943   6.421  -1.649  0.00  0.00     0.307 C 
ATOM     25  O   LIG d   1      10.309   5.300  -1.911  0.00  0.00    -0.251 OA
BRANCH  24  26
ATOM     26  O   LIG d   1       9.885   6.826  -0.371  0.00  0.00    -0.468 OA
BRANCH  26  27
ATOM     27  C   LIG d   1      11.036   6.533   0.466  0.00  0.00     0.082 C 
ATOM     28  H   LIG d   1      11.208   5.457   0.481  0.00  0.00     0.066 H 
ATOM     29  H   LIG d   1      11.915   7.036   0.064  0.00  0.00     0.066 H 
ATOM     30  H   LIG d   1      10.846   6.885   1.480  0.00  0.00     0.066 H 
ENDBRANCH  26  27
ENDBRANCH  24  26
ENDBRANCH  21  24
ENDBRANCH  18  21
ENDBRANCH   1  18
BRANCH   6  31
ATOM     31  N   LIG d   1      10.086   8.813  -5.960  0.00  0.00     0.082 N 
ATOM     32  O   LIG d   1      11.100   8.582  -6.595  0.00  0.00     0.042 OA
ATOM     33  O   LIG d   1       9.067   8.190  -6.193  0.00  0.00    -0.576 OA
ENDBRANCH   6  31
BRANCH   2  34
ATOM     34  N   LIG d   1      10.812  10.133  -1.237  0.00  0.00     0.080 N 
ATOM     35  O   LIG d   1       9.948  10.028  -0.385  0.00  0.00     0.042 OA
ATOM     36  O   LIG d   1      11.980   9.941  -0.947  0.00  0.00    -0.576 OA
ENDBRANCH   2  34
TORSDOF 7
ENDMDL
MODEL 8
REMARK VINA RESULT:      -4.8      2.701      5.630
REMARK  7 active torsions:
REMARK  status: ('A' for Active; 'I' for Inactive)
REMARK    1  A    between atoms: C_1  and  O_2 
REMARK    2  A    between atoms: O_2  and  C_3 
REMARK    3  A    between atoms: C_3  and  C_5 
REMARK    4  A    between atoms: C_5  and  C_6 
REMARK    5  A    between atoms: C_6  and  C_7 
REMARK    6  A    between atoms: C_8  and  N_21 
REMARK    7  A    between atoms: C_12  and  N_13 
ROOT
ATOM      1  C   LIG d   1       4.308  -1.051  -5.712  0.00  0.00     0.109 A 
ATOM      2  C   LIG d   1       3.414  -0.077  -5.307  0.00  0.00     0.283 A 
ATOM      3  C   LIG d   1       2.880   0.802  -6.229  0.00  0.00     0.021 A 
ATOM      4  C   LIG d   1       3.237   0.710  -7.560  0.00  0.00    -0.013 A 
ATOM      5  C   LIG d   1       4.135  -0.267  -7.970  0.00  0.00     0.115 A 
ATOM      6  C   LIG d   1       4.674  -1.145  -7.041  0.00  0.00     0.304 A 
ATOM      7  N   LIG d   1       4.496  -0.360  -9.318  0.00  0.00    -0.280 N 
ATOM      8  C   LIG d   1       4.295   0.677 -10.152  0.00  0.00     0.218 C 
ATOM      9  O   LIG d   1       4.599   0.573 -11.321  0.00  0.00    -0.276 OA
ATOM     10  C   LIG d   1       3.694   1.961  -9.651  0.00  0.00     0.028 C 
ATOM     11  C   LIG d   1       2.655   1.666  -8.569  0.00  0.00    -0.017 C 
ATOM     12  H   LIG d   1       2.182   1.562  -5.910  0.00  0.00     0.069 H 
ATOM     13  H   LIG d   1       4.895  -1.179  -9.654  0.00  0.00     0.155 HD
ATOM     14  H   LIG d   1       4.481   2.590  -9.234  0.00  0.00     0.036 H 
ATOM     15  H   LIG d   1       3.216   2.485 -10.478  0.00  0.00     0.036 H 
ATOM     16  H   LIG d   1       1.774   1.218  -9.027  0.00  0.00     0.032 H 
ATOM     17  H   LIG d   1       2.375   2.593  -8.071  0.00  0.00     0.032 H 
ENDROOT
BRANCH   1  18
ATOM     18  C   LIG d   1       4.889  -2.007  -4.702  0.00  0.00    -0.005 C 
ATOM     19  H   LIG d   1       5.186  -2.929  -5.202  0.00  0.00     0.032 H 
ATOM     20  H   LIG d   1       4.141  -2.232  -3.942  0.00  0.00     0.032 H 
BRANCH  18  21
ATOM     21  C   LIG d   1       6.112  -1.369  -4.040  0.00  0.00     0.049 C 
ATOM     22  H   LIG d   1       5.962  -1.329  -2.961  0.00  0.00     0.038 H 
ATOM     23  H   LIG d   1       6.249  -0.359  -4.427  0.00  0.00     0.038 H 
BRANCH  21  24
ATOM     24  C   LIG d   1       7.335  -2.193  -4.347  0.00  0.00     0.307 C 
ATOM     25  O   LIG d   1       8.376  -1.649  -4.631  0.00  0.00    -0.251 OA
BRANCH  24  26
ATOM     26  O   LIG d   1       7.269  -3.534  -4.307  0.00  0.00    -0.468 OA
BRANCH  26  27
ATOM     27  C   LIG d   1       7.988  -4.261  -5.338  0.00  0.00     0.082 C 
ATOM     28  H   LIG d   1       8.567  -5.063  -4.880  0.00  0.00     0.066 H 
ATOM     29  H   LIG d   1       7.276  -4.686  -6.045  0.00  0.00     0.066 H 
ATOM     30  H   LIG d   1       8.658  -3.580  -5.861  0.00  0.00     0.066 H 
ENDBRANCH  26  27
ENDBRANCH  24  26
ENDBRANCH  21  24
ENDBRANCH  18  21
ENDBRANCH   1  18
BRANCH   6  31
ATOM     31  N   LIG d   1       5.636  -2.184  -7.473  0.00  0.00     0.082 N 
ATOM     32  O   LIG d   1       6.786  -1.879  -7.734  0.00  0.00     0.042 OA
ATOM     33  O   LIG d   1       5.277  -3.344  -7.567  0.00  0.00    -0.576 OA
ENDBRANCH   6  31
BRANCH   2  34
ATOM     34  N   LIG d   1       3.029   0.025  -3.881  0.00  0.00     0.080 N 
ATOM     35  O   LIG d   1       2.233  -0.766  -3.407  0.00  0.00     0.042 OA
ATOM     36  O   LIG d   1       3.508   0.899  -3.181  0.00  0.00    -0.576 OA
ENDBRANCH   2  34
TORSDOF 7
ENDMDL
MODEL 9
REMARK VINA RESULT:      -4.8      1.933      2.512
REMARK  7 active torsions:
REMARK  status: ('A' for Active; 'I' for Inactive)
REMARK    1  A    between atoms: C_1  and  O_2 
REMARK    2  A    between atoms: O_2  and  C_3 
REMARK    3  A    between atoms: C_3  and  C_5 
REMARK    4  A    between atoms: C_5  and  C_6 
REMARK    5  A    between atoms: C_6  and  C_7 
REMARK    6  A    between atoms: C_8  and  N_21 
REMARK    7  A    between atoms: C_12  and  N_13 
ROOT
ATOM      1  C   LIG d   1       5.123  -2.608  -6.175  0.00  0.00     0.109 A 
ATOM      2  C   LIG d   1       4.663  -3.596  -5.322  0.00  0.00     0.283 A 
ATOM      3  C   LIG d   1       4.271  -3.276  -4.036  0.00  0.00     0.021 A 
ATOM      4  C   LIG d   1       4.338  -1.969  -3.597  0.00  0.00    -0.013 A 
ATOM      5  C   LIG d   1       4.800  -0.974  -4.450  0.00  0.00     0.115 A 
ATOM      6  C   LIG d   1       5.198  -1.298  -5.740  0.00  0.00     0.304 A 
ATOM      7  N   LIG d   1       4.867   0.350  -4.006  0.00  0.00    -0.280 N 
ATOM      8  C   LIG d   1       4.852   0.629  -2.689  0.00  0.00     0.218 C 
ATOM      9  O   LIG d   1       4.894   1.784  -2.322  0.00  0.00    -0.276 OA
ATOM     10  C   LIG d   1       4.779  -0.474  -1.669  0.00  0.00     0.028 C 
ATOM     11  C   LIG d   1       3.911  -1.617  -2.196  0.00  0.00    -0.017 C 
ATOM     12  H   LIG d   1       3.913  -4.049  -3.374  0.00  0.00     0.069 H 
ATOM     13  H   LIG d   1       4.925   1.072  -4.651  0.00  0.00     0.155 HD
ATOM     14  H   LIG d   1       5.784  -0.846  -1.468  0.00  0.00     0.036 H 
ATOM     15  H   LIG d   1       4.347  -0.087  -0.747  0.00  0.00     0.036 H 
ATOM     16  H   LIG d   1       2.867  -1.304  -2.202  0.00  0.00     0.032 H 
ATOM     17  H   LIG d   1       4.026  -2.487  -1.552  0.00  0.00     0.032 H 
ENDROOT
BRANCH   1  18
ATOM     18  C   LIG d   1       5.549  -2.961  -7.576  0.00  0.00    -0.005 C 
ATOM     19  H   LIG d   1       5.335  -2.125  -8.243  0.00  0.00     0.032 H 
ATOM     20  H   LIG d   1       5.003  -3.842  -7.911  0.00  0.00     0.032 H 
BRANCH  18  21
ATOM     21  C   LIG d   1       7.051  -3.255  -7.594  0.00  0.00     0.049 C 
ATOM     22  H   LIG d   1       7.216  -4.313  -7.388  0.00  0.00     0.038 H 
ATOM     23  H   LIG d   1       7.548  -2.654  -6.832  0.00  0.00     0.038 H 
BRANCH  21  24
ATOM     24  C   LIG d   1       7.613  -2.912  -8.949  0.00  0.00     0.307 C 
ATOM     25  O   LIG d   1       7.654  -1.761  -9.313  0.00  0.00    -0.251 OA
BRANCH  24  26
ATOM     26  O   LIG d   1       8.069  -3.887  -9.752  0.00  0.00    -0.468 OA
BRANCH  26  27
ATOM     27  C   LIG d   1       7.245  -4.236 -10.897  0.00  0.00     0.082 C 
ATOM     28  H   LIG d   1       7.260  -5.316 -11.039  0.00  0.00     0.066 H 
ATOM     29  H   LIG d   1       6.222  -3.906 -10.721  0.00  0.00     0.066 H 
ATOM     30  H   LIG d   1       7.637  -3.746 -11.788  0.00  0.00     0.066 H 
ENDBRANCH  26  27
ENDBRANCH  24  26
ENDBRANCH  21  24
ENDBRANCH  18  21
ENDBRANCH   1  18
BRANCH   6  31
ATOM     31  N   LIG d   1       5.696  -0.243  -6.650  0.00  0.00     0.082 N 
ATOM     32  O   LIG d   1       4.923   0.331  -7.397  0.00  0.00     0.042 OA
ATOM     33  O   LIG d   1       6.877   0.051  -6.653  0.00  0.00    -0.576 OA
ENDBRANCH   6  31
BRANCH   2  34
ATOM     34  N   LIG d   1       4.590  -4.998  -5.790  0.00  0.00     0.080 N 
ATOM     35  O   LIG d   1       3.554  -5.430  -6.263  0.00  0.00     0.042 OA
ATOM     36  O   LIG d   1       5.566  -5.721  -5.701  0.00  0.00    -0.576 OA
ENDBRANCH   2  34
TORSDOF 7
ENDMDL
MODEL 10
REMARK VINA RESULT:      -4.8     10.220     14.052
REMARK  7 active torsions:
REMARK  status: ('A' for Active; 'I' for Inactive)
REMARK    1  A    between atoms: C_1  and  O_2 
REMARK    2  A    between atoms: O_2  and  C_3 
REMARK    3  A    between atoms: C_3  and  C_5 
REMARK    4  A    between atoms: C_5  and  C_6 
REMARK    5  A    between atoms: C_6  and  C_7 
REMARK    6  A    between atoms: C_8  and  N_21 
REMARK    7  A    between atoms: C_12  and  N_13 
ROOT
ATOM      1  C   LIG d   1      10.941   8.374  -1.522  0.00  0.00     0.109 A 
ATOM      2  C   LIG d   1      10.491   8.843  -2.744  0.00  0.00     0.283 A 
ATOM      3  C   LIG d   1      10.001   7.962  -3.689  0.00  0.00     0.021 A 
ATOM      4  C   LIG d   1       9.959   6.609  -3.416  0.00  0.00    -0.013 A 
ATOM      5  C   LIG d   1      10.410   6.134  -2.192  0.00  0.00     0.115 A 
ATOM      6  C   LIG d   1      10.907   7.021  -1.246  0.00  0.00     0.304 A 
ATOM      7  N   LIG d   1      10.366   4.764  -1.916  0.00  0.00    -0.280 N 
ATOM      8  C   LIG d   1      10.251   3.870  -2.916  0.00  0.00     0.218 C 
ATOM      9  O   LIG d   1      10.198   2.686  -2.658  0.00  0.00    -0.276 OA
ATOM     10  C   LIG d   1      10.184   4.323  -4.349  0.00  0.00     0.028 C 
ATOM     11  C   LIG d   1       9.424   5.646  -4.444  0.00  0.00    -0.017 C 
ATOM     12  H   LIG d   1       9.651   8.331  -4.641  0.00  0.00     0.069 H 
ATOM     13  H   LIG d   1      10.419   4.455  -0.997  0.00  0.00     0.155 HD
ATOM     14  H   LIG d   1      11.196   4.459  -4.732  0.00  0.00     0.036 H 
ATOM     15  H   LIG d   1       9.672   3.568  -4.944  0.00  0.00     0.036 H 
ATOM     16  H   LIG d   1       8.365   5.468  -4.258  0.00  0.00     0.032 H 
ATOM     17  H   LIG d   1       9.553   6.068  -5.440  0.00  0.00     0.032 H 
ENDROOT
BRANCH   1  18
ATOM     18  C   LIG d   1      11.475   9.339  -0.495  0.00  0.00    -0.005 C 
ATOM     19  H   LIG d   1      12.041  10.125  -0.995  0.00  0.00     0.032 H 
ATOM     20  H   LIG d   1      12.126   8.808   0.198  0.00  0.00     0.032 H 
BRANCH  18  21
ATOM     21  C   LIG d   1      10.308   9.960   0.275  0.00  0.00     0.049 C 
ATOM     22  H   LIG d   1      10.218   9.478   1.249  0.00  0.00     0.038 H 
ATOM     23  H   LIG d   1       9.385   9.821  -0.288  0.00  0.00     0.038 H 
BRANCH  21  24
ATOM     24  C   LIG d   1      10.562  11.434   0.466  0.00  0.00     0.307 C 
ATOM     25  O   LIG d   1       9.902  12.063   1.258  0.00  0.00    -0.251 OA
BRANCH  24  26
ATOM     26  O   LIG d   1      11.520  12.047  -0.247  0.00  0.00    -0.468 OA
BRANCH  26  27
ATOM     27  C   LIG d   1      11.192  13.343  -0.814  0.00  0.00     0.082 C 
ATOM     28  H   LIG d   1      12.103  13.824  -1.172  0.00  0.00     0.066 H 
ATOM     29  H   LIG d   1      10.501  13.211  -1.646  0.00  0.00     0.066 H 
ATOM     30  H   LIG d   1      10.728  13.966  -0.050  0.00  0.00     0.066 H 
ENDBRANCH  26  27
ENDBRANCH  24  26
ENDBRANCH  21  24
ENDBRANCH  18  21
ENDBRANCH   1  18
BRANCH   6  31
ATOM     31  N   LIG d   1      11.394   6.518   0.058  0.00  0.00     0.082 N 
ATOM     32  O   LIG d   1      10.611   6.353   0.977  0.00  0.00     0.042 OA
ATOM     33  O   LIG d   1      12.575   6.271   0.213  0.00  0.00    -0.576 OA
ENDBRANCH   6  31
BRANCH   2  34
ATOM     34  N   LIG d   1      10.535  10.293  -3.039  0.00  0.00     0.080 N 
ATOM     35  O   LIG d   1       9.528  10.969  -2.927  0.00  0.00     0.042 OA
ATOM     36  O   LIG d   1      11.580  10.811  -3.393  0.00  0.00    -0.576 OA
ENDBRANCH   2  34
TORSDOF 7
ENDMDL
