MODEL 1
REMARK VINA RESULT:      -4.5      0.000      0.000
REMARK  4 active torsions:
REMARK  status: ('A' for Active; 'I' for Inactive)
REMARK    1  A    between atoms: C_2  and  C_11 
REMARK    2  A    between atoms: C_5  and  O_8 
REMARK    3  A    between atoms: C_6  and  O_7 
REMARK    4  A    between atoms: C_11  and  O_12 
ROOT
ATOM      1  C   LIG d   1       6.884  -1.570  -4.960  0.00  0.00    -0.010 A 
ATOM      2  C   LIG d   1       5.781  -2.088  -4.307  0.00  0.00    -0.004 A 
ATOM      3  C   LIG d   1       5.127  -1.338  -3.347  0.00  0.00     0.041 A 
ATOM      4  C   LIG d   1       5.574  -0.065  -3.036  0.00  0.00     0.077 A 
ATOM      5  C   LIG d   1       6.679   0.460  -3.687  0.00  0.00     0.174 A 
ATOM      6  C   LIG d   1       7.336  -0.295  -4.653  0.00  0.00     0.160 A 
ATOM      7 BR   LIG d   1       4.677   0.958  -1.722  0.00  0.00    -0.045 Br
ATOM      8 BR   LIG d   1       3.619  -2.052  -2.457  0.00  0.00    -0.049 Br
ATOM      9  H   LIG d   1       7.393  -2.157  -5.709  0.00  0.00     0.066 H 
ENDROOT
BRANCH   2  10
ATOM     10  C   LIG d   1       5.294  -3.475  -4.638  0.00  0.00     0.070 C 
ATOM     11  H   LIG d   1       6.102  -4.043  -5.101  0.00  0.00     0.061 H 
ATOM     12  H   LIG d   1       4.977  -3.976  -3.723  0.00  0.00     0.061 H 
BRANCH  10  13
ATOM     13  O   LIG d   1       4.192  -3.391  -5.542  0.00  0.00    -0.390 OA
ATOM     14  H   LIG d   1       4.196  -2.597  -6.095  0.00  0.00     0.210 HD
ENDBRANCH  10  13
ENDBRANCH   2  10
BRANCH   6  15
ATOM     15  O   LIG d   1       8.422   0.214  -5.296  0.00  0.00    -0.503 OA
ATOM     16  H   LIG d   1       8.555   1.161  -5.153  0.00  0.00     0.292 HD
ENDBRANCH   6  15
BRANCH   5  17
ATOM     17  O   LIG d   1       7.120   1.709  -3.384  0.00  0.00    -0.502 OA
ATOM     18  H   LIG d   1       8.028   1.736  -3.051  0.00  0.00     0.292 HD
ENDBRANCH   5  17
TORSDOF 4
ENDMDL
MODEL 2
REMARK VINA RESULT:      -4.5      1.837      3.353
REMARK  4 active torsions:
REMARK  status: ('A' for Active; 'I' for Inactive)
REMARK    1  A    between atoms: C_2  and  C_11 
REMARK    2  A    between atoms: C_5  and  O_8 
REMARK    3  A    between atoms: C_6  and  O_7 
REMARK    4  A    between atoms: C_11  and  O_12 
ROOT
ATOM      1  C   LIG d   1       6.392   1.126  -3.295  0.00  0.00    -0.010 A 
ATOM      2  C   LIG d   1       5.418   0.326  -2.726  0.00  0.00    -0.004 A 
ATOM      3  C   LIG d   1       5.219  -0.961  -3.189  0.00  0.00     0.041 A 
ATOM      4  C   LIG d   1       5.995  -1.455  -4.224  0.00  0.00     0.077 A 
ATOM      5  C   LIG d   1       6.973  -0.658  -4.799  0.00  0.00     0.174 A 
ATOM      6  C   LIG d   1       7.172   0.638  -4.332  0.00  0.00     0.160 A 
ATOM      7 BR   LIG d   1       5.720  -3.216  -4.856  0.00  0.00    -0.045 Br
ATOM      8 BR   LIG d   1       3.886  -2.050  -2.408  0.00  0.00    -0.049 Br
ATOM      9  H   LIG d   1       6.546   2.131  -2.932  0.00  0.00     0.066 H 
ENDROOT
BRANCH   2  10
ATOM     10  C   LIG d   1       4.567   0.862  -1.603  0.00  0.00     0.070 C 
ATOM     11  H   LIG d   1       4.276   0.042  -0.945  0.00  0.00     0.061 H 
ATOM     12  H   LIG d   1       5.136   1.599  -1.037  0.00  0.00     0.061 H 
BRANCH  10  13
ATOM     13  O   LIG d   1       3.397   1.476  -2.144  0.00  0.00    -0.390 OA
ATOM     14  H   LIG d   1       2.729   1.703  -1.483  0.00  0.00     0.210 HD
ENDBRANCH  10  13
ENDBRANCH   2  10
BRANCH   6  15
ATOM     15  O   LIG d   1       8.130   1.425  -4.892  0.00  0.00    -0.503 OA
ATOM     16  H   LIG d   1       9.004   1.014  -4.929  0.00  0.00     0.292 HD
ENDBRANCH   6  15
BRANCH   5  17
ATOM     17  O   LIG d   1       7.736  -1.140  -5.815  0.00  0.00    -0.502 OA
ATOM     18  H   LIG d   1       7.248  -1.285  -6.638  0.00  0.00     0.292 HD
ENDBRANCH   5  17
TORSDOF 4
ENDMDL
MODEL 3
REMARK VINA RESULT:      -4.4      2.456      4.454
REMARK  4 active torsions:
REMARK  status: ('A' for Active; 'I' for Inactive)
REMARK    1  A    between atoms: C_2  and  C_11 
REMARK    2  A    between atoms: C_5  and  O_8 
REMARK    3  A    between atoms: C_6  and  O_7 
REMARK    4  A    between atoms: C_11  and  O_12 
ROOT
ATOM      1  C   LIG d   1       5.433   1.347  -2.839  0.00  0.00    -0.010 A 
ATOM      2  C   LIG d   1       6.465   0.697  -3.489  0.00  0.00    -0.004 A 
ATOM      3  C   LIG d   1       6.300  -0.606  -3.923  0.00  0.00     0.041 A 
ATOM      4  C   LIG d   1       5.100  -1.263  -3.710  0.00  0.00     0.077 A 
ATOM      5  C   LIG d   1       4.062  -0.615  -3.058  0.00  0.00     0.174 A 
ATOM      6  C   LIG d   1       4.229   0.695  -2.622  0.00  0.00     0.160 A 
ATOM      7 BR   LIG d   1       4.878  -3.044  -4.305  0.00  0.00    -0.045 Br
ATOM      8 BR   LIG d   1       7.715  -1.491  -4.811  0.00  0.00    -0.049 Br
ATOM      9  H   LIG d   1       5.564   2.364  -2.500  0.00  0.00     0.066 H 
ENDROOT
BRANCH   2  10
ATOM     10  C   LIG d   1       7.775   1.405  -3.718  0.00  0.00     0.070 C 
ATOM     11  H   LIG d   1       8.000   2.041  -2.861  0.00  0.00     0.061 H 
ATOM     12  H   LIG d   1       8.569   0.669  -3.842  0.00  0.00     0.061 H 
BRANCH  10  13
ATOM     13  O   LIG d   1       7.682   2.210  -4.895  0.00  0.00    -0.390 OA
ATOM     14  H   LIG d   1       7.661   1.703  -5.718  0.00  0.00     0.210 HD
ENDBRANCH  10  13
ENDBRANCH   2  10
BRANCH   6  15
ATOM     15  O   LIG d   1       3.214   1.335  -1.982  0.00  0.00    -0.503 OA
ATOM     16  H   LIG d   1       2.336   0.989  -2.192  0.00  0.00     0.292 HD
ENDBRANCH   6  15
BRANCH   5  17
ATOM     17  O   LIG d   1       2.883  -1.258  -2.847  0.00  0.00    -0.502 OA
ATOM     18  H   LIG d   1       2.114  -0.672  -2.825  0.00  0.00     0.292 HD
ENDBRANCH   5  17
TORSDOF 4
ENDMDL
MODEL 4
REMARK VINA RESULT:      -4.3      1.792      3.660
REMARK  4 active torsions:
REMARK  status: ('A' for Active; 'I' for Inactive)
REMARK    1  A    between atoms: C_2  and  C_11 
REMARK    2  A    between atoms: C_5  and  O_8 
REMARK    3  A    between atoms: C_6  and  O_7 
REMARK    4  A    between atoms: C_11  and  O_12 
ROOT
ATOM      1  C   LIG d   1       6.173  -2.517  -4.699  0.00  0.00    -0.010 A 
ATOM      2  C   LIG d   1       6.866  -1.326  -4.591  0.00  0.00    -0.004 A 
ATOM      3  C   LIG d   1       6.384  -0.313  -3.783  0.00  0.00     0.041 A 
ATOM      4  C   LIG d   1       5.205  -0.488  -3.079  0.00  0.00     0.077 A 
ATOM      5  C   LIG d   1       4.506  -1.679  -3.183  0.00  0.00     0.174 A 
ATOM      6  C   LIG d   1       4.992  -2.699  -3.996  0.00  0.00     0.160 A 
ATOM      7 BR   LIG d   1       4.548   0.901  -1.975  0.00  0.00    -0.045 Br
ATOM      8 BR   LIG d   1       7.336   1.314  -3.640  0.00  0.00    -0.049 Br
ATOM      9  H   LIG d   1       6.551  -3.307  -5.330  0.00  0.00     0.066 H 
ENDROOT
BRANCH   2  10
ATOM     10  C   LIG d   1       8.147  -1.129  -5.361  0.00  0.00     0.070 C 
ATOM     11  H   LIG d   1       8.088  -1.667  -6.308  0.00  0.00     0.061 H 
ATOM     12  H   LIG d   1       8.293  -0.067  -5.555  0.00  0.00     0.061 H 
BRANCH  10  13
ATOM     13  O   LIG d   1       9.244  -1.631  -4.597  0.00  0.00    -0.390 OA
ATOM     14  H   LIG d   1       9.924  -2.071  -5.125  0.00  0.00     0.210 HD
ENDBRANCH  10  13
ENDBRANCH   2  10
BRANCH   6  15
ATOM     15  O   LIG d   1       4.309  -3.870  -4.102  0.00  0.00    -0.503 OA
ATOM     16  H   LIG d   1       3.399  -3.826  -3.780  0.00  0.00     0.292 HD
ENDBRANCH   6  15
BRANCH   5  17
ATOM     17  O   LIG d   1       3.348  -1.853  -2.492  0.00  0.00    -0.502 OA
ATOM     18  H   LIG d   1       3.347  -1.441  -1.617  0.00  0.00     0.292 HD
ENDBRANCH   5  17
TORSDOF 4
ENDMDL
MODEL 5
REMARK VINA RESULT:      -4.3      1.950      2.872
REMARK  4 active torsions:
REMARK  status: ('A' for Active; 'I' for Inactive)
REMARK    1  A    between atoms: C_2  and  C_11 
REMARK    2  A    between atoms: C_5  and  O_8 
REMARK    3  A    between atoms: C_6  and  O_7 
REMARK    4  A    between atoms: C_11  and  O_12 
ROOT
ATOM      1  C   LIG d   1       5.331  -2.535  -3.702  0.00  0.00    -0.010 A 
ATOM      2  C   LIG d   1       4.725  -1.374  -3.260  0.00  0.00    -0.004 A 
ATOM      3  C   LIG d   1       5.425  -0.181  -3.262  0.00  0.00     0.041 A 
ATOM      4  C   LIG d   1       6.734  -0.146  -3.709  0.00  0.00     0.077 A 
ATOM      5  C   LIG d   1       7.347  -1.306  -4.154  0.00  0.00     0.174 A 
ATOM      6  C   LIG d   1       6.642  -2.506  -4.151  0.00  0.00     0.160 A 
ATOM      7 BR   LIG d   1       7.688   1.487  -3.711  0.00  0.00    -0.045 Br
ATOM      8 BR   LIG d   1       4.591   1.403  -2.655  0.00  0.00    -0.049 Br
ATOM      9  H   LIG d   1       4.783  -3.466  -3.699  0.00  0.00     0.066 H 
ENDROOT
BRANCH   2  10
ATOM     10  C   LIG d   1       3.301  -1.410  -2.766  0.00  0.00     0.070 C 
ATOM     11  H   LIG d   1       3.074  -2.405  -2.384  0.00  0.00     0.061 H 
ATOM     12  H   LIG d   1       3.175  -0.677  -1.970  0.00  0.00     0.061 H 
BRANCH  10  13
ATOM     13  O   LIG d   1       2.416  -1.101  -3.844  0.00  0.00    -0.390 OA
ATOM     14  H   LIG d   1       1.824  -0.357  -3.667  0.00  0.00     0.210 HD
ENDBRANCH  10  13
ENDBRANCH   2  10
BRANCH   6  15
ATOM     15  O   LIG d   1       7.238  -3.648  -4.587  0.00  0.00    -0.503 OA
ATOM     16  H   LIG d   1       7.236  -4.365  -3.938  0.00  0.00     0.292 HD
ENDBRANCH   6  15
BRANCH   5  17
ATOM     17  O   LIG d   1       8.633  -1.273  -4.593  0.00  0.00    -0.502 OA
ATOM     18  H   LIG d   1       9.248  -0.849  -3.979  0.00  0.00     0.292 HD
ENDBRANCH   5  17
TORSDOF 4
ENDMDL
MODEL 6
REMARK VINA RESULT:      -4.3     11.124     12.296
REMARK  4 active torsions:
REMARK  status: ('A' for Active; 'I' for Inactive)
REMARK    1  A    between atoms: C_2  and  C_11 
REMARK    2  A    between atoms: C_5  and  O_8 
REMARK    3  A    between atoms: C_6  and  O_7 
REMARK    4  A    between atoms: C_11  and  O_12 
ROOT
ATOM      1  C   LIG d   1      10.622  10.707   0.198  0.00  0.00    -0.010 A 
ATOM      2  C   LIG d   1      10.116   9.787  -0.700  0.00  0.00    -0.004 A 
ATOM      3  C   LIG d   1      10.289   8.433  -0.479  0.00  0.00     0.041 A 
ATOM      4  C   LIG d   1      10.969   7.994   0.645  0.00  0.00     0.077 A 
ATOM      5  C   LIG d   1      11.479   8.912   1.549  0.00  0.00     0.174 A 
ATOM      6  C   LIG d   1      11.304  10.274   1.325  0.00  0.00     0.160 A 
ATOM      7 BR   LIG d   1      11.204   6.142   0.944  0.00  0.00    -0.045 Br
ATOM      8 BR   LIG d   1       9.595   7.179  -1.712  0.00  0.00    -0.049 Br
ATOM      9  H   LIG d   1      10.486  11.764   0.023  0.00  0.00     0.066 H 
ENDROOT
BRANCH   2  10
ATOM     10  C   LIG d   1       9.380  10.260  -1.927  0.00  0.00     0.070 C 
ATOM     11  H   LIG d   1       9.797  11.213  -2.256  0.00  0.00     0.061 H 
ATOM     12  H   LIG d   1       9.489   9.523  -2.722  0.00  0.00     0.061 H 
BRANCH  10  13
ATOM     13  O   LIG d   1       7.996  10.428  -1.618  0.00  0.00    -0.390 OA
ATOM     14  H   LIG d   1       7.581   9.645  -1.229  0.00  0.00     0.210 HD
ENDBRANCH  10  13
ENDBRANCH   2  10
BRANCH   6  15
ATOM     15  O   LIG d   1      11.802  11.180   2.209  0.00  0.00    -0.503 OA
ATOM     16  H   LIG d   1      12.079  12.013   1.805  0.00  0.00     0.292 HD
ENDBRANCH   6  15
BRANCH   5  17
ATOM     17  O   LIG d   1      12.147   8.484   2.652  0.00  0.00    -0.502 OA
ATOM     18  H   LIG d   1      12.429   9.196   3.243  0.00  0.00     0.292 HD
ENDBRANCH   5  17
TORSDOF 4
ENDMDL
MODEL 7
REMARK VINA RESULT:      -4.3     10.627     11.938
REMARK  4 active torsions:
REMARK  status: ('A' for Active; 'I' for Inactive)
REMARK    1  A    between atoms: C_2  and  C_11 
REMARK    2  A    between atoms: C_5  and  O_8 
REMARK    3  A    between atoms: C_6  and  O_7 
REMARK    4  A    between atoms: C_11  and  O_12 
ROOT
ATOM      1  C   LIG d   1       9.845   7.970  -1.087  0.00  0.00    -0.010 A 
ATOM      2  C   LIG d   1      10.000   9.329  -0.888  0.00  0.00    -0.004 A 
ATOM      3  C   LIG d   1      10.703   9.794   0.208  0.00  0.00     0.041 A 
ATOM      4  C   LIG d   1      11.254   8.901   1.111  0.00  0.00     0.077 A 
ATOM      5  C   LIG d   1      11.101   7.537   0.916  0.00  0.00     0.174 A 
ATOM      6  C   LIG d   1      10.394   7.070  -0.187  0.00  0.00     0.160 A 
ATOM      7 BR   LIG d   1      12.214   9.541   2.609  0.00  0.00    -0.045 Br
ATOM      8 BR   LIG d   1      10.911  11.654   0.475  0.00  0.00    -0.049 Br
ATOM      9  H   LIG d   1       9.295   7.609  -1.944  0.00  0.00     0.066 H 
ENDROOT
BRANCH   2  10
ATOM     10  C   LIG d   1       9.397  10.306  -1.865  0.00  0.00     0.070 C 
ATOM     11  H   LIG d   1       9.870  11.280  -1.744  0.00  0.00     0.061 H 
ATOM     12  H   LIG d   1       9.556   9.947  -2.881  0.00  0.00     0.061 H 
BRANCH  10  13
ATOM     13  O   LIG d   1       7.995  10.424  -1.615  0.00  0.00    -0.390 OA
ATOM     14  H   LIG d   1       7.449   9.823  -2.140  0.00  0.00     0.210 HD
ENDBRANCH  10  13
ENDBRANCH   2  10
BRANCH   6  15
ATOM     15  O   LIG d   1      10.241   5.732  -0.383  0.00  0.00    -0.503 OA
ATOM     16  H   LIG d   1      11.069   5.261  -0.546  0.00  0.00     0.292 HD
ENDBRANCH   6  15
BRANCH   5  17
ATOM     17  O   LIG d   1      11.641   6.658   1.801  0.00  0.00    -0.502 OA
ATOM     18  H   LIG d   1      11.288   5.760   1.729  0.00  0.00     0.292 HD
ENDBRANCH   5  17
TORSDOF 4
ENDMDL
MODEL 8
REMARK VINA RESULT:      -4.2      8.815     10.413
REMARK  4 active torsions:
REMARK  status: ('A' for Active; 'I' for Inactive)
REMARK    1  A    between atoms: C_2  and  C_11 
REMARK    2  A    between atoms: C_5  and  O_8 
REMARK    3  A    between atoms: C_6  and  O_7 
REMARK    4  A    between atoms: C_11  and  O_12 
ROOT
ATOM      1  C   LIG d   1      10.525   8.211  -0.038  0.00  0.00    -0.010 A 
ATOM      2  C   LIG d   1      10.102   8.256  -1.354  0.00  0.00    -0.004 A 
ATOM      3  C   LIG d   1      10.084   7.103  -2.117  0.00  0.00     0.041 A 
ATOM      4  C   LIG d   1      10.486   5.899  -1.565  0.00  0.00     0.077 A 
ATOM      5  C   LIG d   1      10.911   5.848  -0.247  0.00  0.00     0.174 A 
ATOM      6  C   LIG d   1      10.929   7.008   0.520  0.00  0.00     0.160 A 
ATOM      7 BR   LIG d   1      10.459   4.323  -2.611  0.00  0.00    -0.045 Br
ATOM      8 BR   LIG d   1       9.506   7.171  -3.915  0.00  0.00    -0.049 Br
ATOM      9  H   LIG d   1      10.539   9.113   0.556  0.00  0.00     0.066 H 
ENDROOT
BRANCH   2  10
ATOM     10  C   LIG d   1       9.669   9.566  -1.960  0.00  0.00     0.070 C 
ATOM     11  H   LIG d   1      10.435  10.321  -1.779  0.00  0.00     0.061 H 
ATOM     12  H   LIG d   1       9.529   9.440  -3.033  0.00  0.00     0.061 H 
BRANCH  10  13
ATOM     13  O   LIG d   1       8.440   9.983  -1.363  0.00  0.00    -0.390 OA
ATOM     14  H   LIG d   1       8.550  10.521  -0.568  0.00  0.00     0.210 HD
ENDBRANCH  10  13
ENDBRANCH   2  10
BRANCH   6  15
ATOM     15  O   LIG d   1      11.345   6.964   1.815  0.00  0.00    -0.503 OA
ATOM     16  H   LIG d   1      10.749   6.482   2.403  0.00  0.00     0.292 HD
ENDBRANCH   6  15
BRANCH   5  17
ATOM     17  O   LIG d   1      11.307   4.666   0.296  0.00  0.00    -0.502 OA
ATOM     18  H   LIG d   1      11.260   4.642   1.262  0.00  0.00     0.292 HD
ENDBRANCH   5  17
TORSDOF 4
ENDMDL
MODEL 9
REMARK VINA RESULT:      -4.2      9.846     10.833
REMARK  4 active torsions:
REMARK  status: ('A' for Active; 'I' for Inactive)
REMARK    1  A    between atoms: C_2  and  C_11 
REMARK    2  A    between atoms: C_5  and  O_8 
REMARK    3  A    between atoms: C_6  and  O_7 
REMARK    4  A    between atoms: C_11  and  O_12 
ROOT
ATOM      1  C   LIG d   1      10.211   6.497  -1.120  0.00  0.00    -0.010 A 
ATOM      2  C   LIG d   1      10.849   6.890   0.041  0.00  0.00    -0.004 A 
ATOM      3  C   LIG d   1      10.893   8.228   0.390  0.00  0.00     0.041 A 
ATOM      4  C   LIG d   1      10.297   9.177  -0.422  0.00  0.00     0.077 A 
ATOM      5  C   LIG d   1       9.655   8.788  -1.587  0.00  0.00     0.174 A 
ATOM      6  C   LIG d   1       9.611   7.442  -1.937  0.00  0.00     0.160 A 
ATOM      7 BR   LIG d   1      10.359  11.005   0.058  0.00  0.00    -0.045 Br
ATOM      8 BR   LIG d   1      11.769   8.761   1.978  0.00  0.00    -0.049 Br
ATOM      9  H   LIG d   1      10.178   5.451  -1.391  0.00  0.00     0.066 H 
ENDROOT
BRANCH   2  10
ATOM     10  C   LIG d   1      11.506   5.861   0.925  0.00  0.00     0.070 C 
ATOM     11  H   LIG d   1      12.008   5.118   0.305  0.00  0.00     0.061 H 
ATOM     12  H   LIG d   1      12.235   6.349   1.570  0.00  0.00     0.061 H 
BRANCH  10  13
ATOM     13  O   LIG d   1      10.513   5.219   1.726  0.00  0.00    -0.390 OA
ATOM     14  H   LIG d   1       9.775   5.793   1.975  0.00  0.00     0.210 HD
ENDBRANCH  10  13
ENDBRANCH   2  10
BRANCH   6  15
ATOM     15  O   LIG d   1       8.983   7.055  -3.080  0.00  0.00    -0.503 OA
ATOM     16  H   LIG d   1       9.101   7.664  -3.820  0.00  0.00     0.292 HD
ENDBRANCH   6  15
BRANCH   5  17
ATOM     17  O   LIG d   1       9.069   9.719  -2.386  0.00  0.00    -0.502 OA
ATOM     18  H   LIG d   1       9.187  10.629  -2.081  0.00  0.00     0.292 HD
ENDBRANCH   5  17
TORSDOF 4
ENDMDL
MODEL 10
REMARK VINA RESULT:      -4.0      8.580      9.325
REMARK  4 active torsions:
REMARK  status: ('A' for Active; 'I' for Inactive)
REMARK    1  A    between atoms: C_2  and  C_11 
REMARK    2  A    between atoms: C_5  and  O_8 
REMARK    3  A    between atoms: C_6  and  O_7 
REMARK    4  A    between atoms: C_11  and  O_12 
ROOT
ATOM      1  C   LIG d   1       5.436 -10.549  -2.074  0.00  0.00    -0.010 A 
ATOM      2  C   LIG d   1       4.862 -10.287  -3.303  0.00  0.00    -0.004 A 
ATOM      3  C   LIG d   1       5.556  -9.562  -4.254  0.00  0.00     0.041 A 
ATOM      4  C   LIG d   1       6.830  -9.095  -3.977  0.00  0.00     0.077 A 
ATOM      5  C   LIG d   1       7.411  -9.354  -2.746  0.00  0.00     0.174 A 
ATOM      6  C   LIG d   1       6.711 -10.084  -1.790  0.00  0.00     0.160 A 
ATOM      7 BR   LIG d   1       7.777  -8.103  -5.279  0.00  0.00    -0.045 Br
ATOM      8 BR   LIG d   1       4.766  -9.207  -5.934  0.00  0.00    -0.049 Br
ATOM      9  H   LIG d   1       4.892 -11.115  -1.333  0.00  0.00     0.066 H 
ENDROOT
BRANCH   2  10
ATOM     10  C   LIG d   1       3.473 -10.788  -3.606  0.00  0.00     0.070 C 
ATOM     11  H   LIG d   1       3.341 -10.862  -4.686  0.00  0.00     0.061 H 
ATOM     12  H   LIG d   1       3.335 -11.771  -3.156  0.00  0.00     0.061 H 
BRANCH  10  13
ATOM     13  O   LIG d   1       2.511  -9.878  -3.070  0.00  0.00    -0.390 OA
ATOM     14  H   LIG d   1       1.595 -10.173  -3.164  0.00  0.00     0.210 HD
ENDBRANCH  10  13
ENDBRANCH   2  10
BRANCH   6  15
ATOM     15  O   LIG d   1       7.276 -10.341  -0.580  0.00  0.00    -0.503 OA
ATOM     16  H   LIG d   1       7.220  -9.606   0.045  0.00  0.00     0.292 HD
ENDBRANCH   6  15
BRANCH   5  17
ATOM     17  O   LIG d   1       8.661  -8.897  -2.472  0.00  0.00    -0.502 OA
ATOM     18  H   LIG d   1       9.145  -8.585  -3.250  0.00  0.00     0.292 HD
ENDBRANCH   5  17
TORSDOF 4
ENDMDL
