MODEL 1
REMARK VINA RESULT:      -7.2      0.000      0.000
REMARK  6 active torsions:
REMARK  status: ('A' for Active; 'I' for Inactive)
REMARK    1  A    between atoms: C_1  and  C_2 
REMARK    2  A    between atoms: C_2  and  C_3 
REMARK    3  A    between atoms: C_2  and  C_4 
REMARK    4  A    between atoms: C_7  and  N_10 
REMARK       I    between atoms: N_10  and  C_11 
REMARK    5  A    between atoms: C_11  and  C_13 
REMARK    6  A    between atoms: N_19  and  C_20 
ROOT
ATOM      1  C   LIG d   1       4.379  -1.506  -3.579  0.00  0.00     0.106 C 
ATOM      2  H   LIG d   1       4.624  -2.527  -3.288  0.00  0.00     0.060 H 
ATOM      3  C   LIG d   1       3.049  -1.068  -2.927  0.00  0.00    -0.017 C 
ATOM      4  C   LIG d   1       3.316   0.428  -2.640  0.00  0.00     0.026 C 
ATOM      5  C   LIG d   1       4.822   0.524  -2.540  0.00  0.00     0.219 C 
ATOM      6  O   LIG d   1       5.428   1.455  -2.054  0.00  0.00    -0.276 OA
ATOM      7  N   LIG d   1       5.393  -0.576  -3.068  0.00  0.00    -0.251 N 
ATOM      8  H   LIG d   1       2.216  -1.189  -3.619  0.00  0.00     0.029 H 
ATOM      9  H   LIG d   1       2.869  -1.617  -2.002  0.00  0.00     0.029 H 
ATOM     10  H   LIG d   1       2.948   1.045  -3.460  0.00  0.00     0.036 H 
ATOM     11  H   LIG d   1       2.851   0.725  -1.700  0.00  0.00     0.036 H 
ENDROOT
BRANCH   1  12
ATOM     12  C   LIG d   1       4.283  -1.400  -5.079  0.00  0.00     0.238 C 
ATOM     13  N   LIG d   1       4.035  -0.207  -5.656  0.00  0.00    -0.284 N 
ATOM     14  H   LIG d   1       3.986   0.594  -5.112  0.00  0.00     0.155 HD
ATOM     15  O   LIG d   1       4.427  -2.389  -5.767  0.00  0.00    -0.273 OA
BRANCH  13  16
ATOM     16  C   LIG d   1       3.849  -0.125  -7.040  0.00  0.00     0.034 A 
ATOM     17  C   LIG d   1       4.948  -0.052  -7.887  0.00  0.00    -0.040 A 
ATOM     18  C   LIG d   1       4.761   0.028  -9.253  0.00  0.00    -0.057 A 
ATOM     19  H   LIG d   1       5.947  -0.059  -7.478  0.00  0.00     0.064 H 
ATOM     20  C   LIG d   1       3.482   0.037  -9.778  0.00  0.00    -0.045 A 
ATOM     21  H   LIG d   1       5.615   0.085  -9.912  0.00  0.00     0.062 H 
ATOM     22  C   LIG d   1       2.386  -0.030  -8.937  0.00  0.00    -0.057 A 
ATOM     23  C   LIG d   1       2.566  -0.116  -7.571  0.00  0.00    -0.040 A 
ATOM     24  H   LIG d   1       1.388  -0.019  -9.350  0.00  0.00     0.062 H 
ATOM     25  H   LIG d   1       1.710  -0.172  -6.915  0.00  0.00     0.064 H 
BRANCH  20  26
ATOM     26  C   LIG d   1       3.282   0.126 -11.269  0.00  0.00    -0.021 C 
ATOM     27  H   LIG d   1       2.939   1.128 -11.531  0.00  0.00     0.034 H 
BRANCH  26  28
ATOM     28  C   LIG d   1       4.605  -0.164 -11.981  0.00  0.00    -0.059 C 
ATOM     29  H   LIG d   1       4.543  -1.129 -12.482  0.00  0.00     0.024 H 
ATOM     30  H   LIG d   1       4.800   0.616 -12.716  0.00  0.00     0.024 H 
ATOM     31  H   LIG d   1       5.413  -0.185 -11.250  0.00  0.00     0.024 H 
ENDBRANCH  26  28
BRANCH  26  32
ATOM     32  C   LIG d   1       2.233  -0.900 -11.705  0.00  0.00    -0.059 C 
ATOM     33  H   LIG d   1       1.716  -1.287 -10.826  0.00  0.00     0.024 H 
ATOM     34  H   LIG d   1       1.512  -0.422 -12.368  0.00  0.00     0.024 H 
ATOM     35  H   LIG d   1       2.722  -1.719 -12.230  0.00  0.00     0.024 H 
ENDBRANCH  26  32
ENDBRANCH  20  26
ENDBRANCH  13  16
ENDBRANCH   1  12
BRANCH   7  36
ATOM     36  C   LIG d   1       6.837  -0.813  -3.126  0.00  0.00     0.201 A 
ATOM     37  H   LIG d   1       7.326  -0.340  -2.275  0.00  0.00     0.101 H 
ATOM     38  O   LIG d   1       7.102  -2.218  -3.123  0.00  0.00    -0.435 OA
ATOM     39  C   LIG d   1       7.748  -2.554  -4.252  0.00  0.00     0.342 A 
ATOM     40  C   LIG d   1       7.954  -1.358  -5.089  0.00  0.00     0.067 A 
ATOM     41  O   LIG d   1       8.110  -3.677  -4.541  0.00  0.00    -0.245 OA
ATOM     42  C   LIG d   1       7.398  -0.268  -4.413  0.00  0.00     0.025 A 
ATOM     43  C   LIG d   1       8.557  -1.161  -6.332  0.00  0.00    -0.047 A 
ATOM     44  C   LIG d   1       7.447   0.990  -4.969  0.00  0.00    -0.053 A 
ATOM     45  C   LIG d   1       8.048   1.178  -6.202  0.00  0.00    -0.061 A 
ATOM     46  H   LIG d   1       7.017   1.830  -4.444  0.00  0.00     0.062 H 
ATOM     47  C   LIG d   1       8.600   0.105  -6.880  0.00  0.00    -0.061 A 
ATOM     48  H   LIG d   1       8.085   2.165  -6.638  0.00  0.00     0.062 H 
ATOM     49  H   LIG d   1       9.067   0.258  -7.842  0.00  0.00     0.062 H 
ATOM     50  H   LIG d   1       8.990  -1.997  -6.863  0.00  0.00     0.063 H 
ENDBRANCH   7  36
TORSDOF 6
ENDMDL
MODEL 2
REMARK VINA RESULT:      -7.0      3.073      6.849
REMARK  6 active torsions:
REMARK  status: ('A' for Active; 'I' for Inactive)
REMARK    1  A    between atoms: C_1  and  C_2 
REMARK    2  A    between atoms: C_2  and  C_3 
REMARK    3  A    between atoms: C_2  and  C_4 
REMARK    4  A    between atoms: C_7  and  N_10 
REMARK       I    between atoms: N_10  and  C_11 
REMARK    5  A    between atoms: C_11  and  C_13 
REMARK    6  A    between atoms: N_19  and  C_20 
ROOT
ATOM      1  C   LIG d   1       2.253  -0.584 -10.033  0.00  0.00     0.106 C 
ATOM      2  H   LIG d   1       1.698   0.350 -10.112  0.00  0.00     0.060 H 
ATOM      3  C   LIG d   1       1.368  -1.770 -10.478  0.00  0.00    -0.017 C 
ATOM      4  C   LIG d   1       2.400  -2.691 -11.170  0.00  0.00     0.026 C 
ATOM      5  C   LIG d   1       3.503  -1.752 -11.605  0.00  0.00     0.219 C 
ATOM      6  O   LIG d   1       4.361  -2.018 -12.419  0.00  0.00    -0.276 OA
ATOM      7  N   LIG d   1       3.393  -0.576 -10.957  0.00  0.00    -0.251 N 
ATOM      8  H   LIG d   1       0.918  -2.265  -9.618  0.00  0.00     0.029 H 
ATOM      9  H   LIG d   1       0.603  -1.443 -11.182  0.00  0.00     0.029 H 
ATOM     10  H   LIG d   1       2.783  -3.430 -10.466  0.00  0.00     0.036 H 
ATOM     11  H   LIG d   1       1.953  -3.181 -12.035  0.00  0.00     0.036 H 
ENDROOT
BRANCH   1  12
ATOM     12  C   LIG d   1       2.729  -0.791  -8.619  0.00  0.00     0.238 C 
ATOM     13  N   LIG d   1       2.712   0.236  -7.745  0.00  0.00    -0.284 N 
ATOM     14  H   LIG d   1       2.331   1.089  -8.006  0.00  0.00     0.155 HD
ATOM     15  O   LIG d   1       3.128  -1.881  -8.266  0.00  0.00    -0.273 OA
BRANCH  13  16
ATOM     16  C   LIG d   1       3.244   0.071  -6.462  0.00  0.00     0.034 A 
ATOM     17  C   LIG d   1       4.557  -0.355  -6.302  0.00  0.00    -0.040 A 
ATOM     18  C   LIG d   1       5.079  -0.516  -5.033  0.00  0.00    -0.057 A 
ATOM     19  H   LIG d   1       5.168  -0.559  -7.168  0.00  0.00     0.064 H 
ATOM     20  C   LIG d   1       4.297  -0.254  -3.923  0.00  0.00    -0.045 A 
ATOM     21  H   LIG d   1       6.099  -0.847  -4.908  0.00  0.00     0.062 H 
ATOM     22  C   LIG d   1       2.988   0.164  -4.080  0.00  0.00    -0.057 A 
ATOM     23  C   LIG d   1       2.461   0.333  -5.345  0.00  0.00    -0.040 A 
ATOM     24  H   LIG d   1       2.378   0.363  -3.211  0.00  0.00     0.062 H 
ATOM     25  H   LIG d   1       1.440   0.663  -5.466  0.00  0.00     0.064 H 
BRANCH  20  26
ATOM     26  C   LIG d   1       4.869  -0.433  -2.541  0.00  0.00    -0.021 C 
ATOM     27  H   LIG d   1       5.953  -0.538  -2.607  0.00  0.00     0.034 H 
BRANCH  26  28
ATOM     28  C   LIG d   1       4.527   0.788  -1.685  0.00  0.00    -0.059 C 
ATOM     29  H   LIG d   1       5.418   1.121  -1.154  0.00  0.00     0.024 H 
ATOM     30  H   LIG d   1       4.164   1.591  -2.325  0.00  0.00     0.024 H 
ATOM     31  H   LIG d   1       3.754   0.520  -0.964  0.00  0.00     0.024 H 
ENDBRANCH  26  28
BRANCH  26  32
ATOM     32  C   LIG d   1       4.275  -1.689  -1.900  0.00  0.00    -0.059 C 
ATOM     33  H   LIG d   1       4.853  -2.562  -2.208  0.00  0.00     0.024 H 
ATOM     34  H   LIG d   1       4.310  -1.594  -0.815  0.00  0.00     0.024 H 
ATOM     35  H   LIG d   1       3.240  -1.806  -2.222  0.00  0.00     0.024 H 
ENDBRANCH  26  32
ENDBRANCH  20  26
ENDBRANCH  13  16
ENDBRANCH   1  12
BRANCH   7  36
ATOM     36  C   LIG d   1       4.295   0.562 -11.148  0.00  0.00     0.201 A 
ATOM     37  H   LIG d   1       4.566   0.650 -12.200  0.00  0.00     0.101 H 
ATOM     38  O   LIG d   1       3.663   1.766 -10.705  0.00  0.00    -0.435 OA
ATOM     39  C   LIG d   1       4.385   2.309  -9.710  0.00  0.00     0.342 A 
ATOM     40  C   LIG d   1       5.567   1.474  -9.430  0.00  0.00     0.067 A 
ATOM     41  O   LIG d   1       4.104   3.337  -9.126  0.00  0.00    -0.245 OA
ATOM     42  C   LIG d   1       5.533   0.386 -10.308  0.00  0.00     0.025 A 
ATOM     43  C   LIG d   1       6.614   1.586  -8.515  0.00  0.00    -0.047 A 
ATOM     44  C   LIG d   1       6.526  -0.566 -10.270  0.00  0.00    -0.053 A 
ATOM     45  C   LIG d   1       7.562  -0.447  -9.359  0.00  0.00    -0.061 A 
ATOM     46  H   LIG d   1       6.497  -1.404 -10.950  0.00  0.00     0.062 H 
ATOM     47  C   LIG d   1       7.604   0.625  -8.486  0.00  0.00    -0.061 A 
ATOM     48  H   LIG d   1       8.340  -1.195  -9.330  0.00  0.00     0.062 H 
ATOM     49  H   LIG d   1       8.415   0.711  -7.777  0.00  0.00     0.062 H 
ATOM     50  H   LIG d   1       6.649   2.422  -7.832  0.00  0.00     0.063 H 
ENDBRANCH   7  36
TORSDOF 6
ENDMDL
MODEL 3
REMARK VINA RESULT:      -6.7      3.232      7.107
REMARK  6 active torsions:
REMARK  status: ('A' for Active; 'I' for Inactive)
REMARK    1  A    between atoms: C_1  and  C_2 
REMARK    2  A    between atoms: C_2  and  C_3 
REMARK    3  A    between atoms: C_2  and  C_4 
REMARK    4  A    between atoms: C_7  and  N_10 
REMARK       I    between atoms: N_10  and  C_11 
REMARK    5  A    between atoms: C_11  and  C_13 
REMARK    6  A    between atoms: N_19  and  C_20 
ROOT
ATOM      1  C   LIG d   1       5.061  -2.870 -10.153  0.00  0.00     0.106 C 
ATOM      2  H   LIG d   1       4.285  -3.370 -10.731  0.00  0.00     0.060 H 
ATOM      3  C   LIG d   1       6.311  -3.772 -10.043  0.00  0.00    -0.017 C 
ATOM      4  C   LIG d   1       7.455  -2.734 -10.093  0.00  0.00     0.026 C 
ATOM      5  C   LIG d   1       6.854  -1.553 -10.823  0.00  0.00     0.219 C 
ATOM      6  O   LIG d   1       7.488  -0.645 -11.316  0.00  0.00    -0.276 OA
ATOM      7  N   LIG d   1       5.511  -1.658 -10.847  0.00  0.00    -0.251 N 
ATOM      8  H   LIG d   1       6.318  -4.316  -9.098  0.00  0.00     0.029 H 
ATOM      9  H   LIG d   1       6.370  -4.460 -10.887  0.00  0.00     0.029 H 
ATOM     10  H   LIG d   1       7.754  -2.447  -9.084  0.00  0.00     0.036 H 
ATOM     11  H   LIG d   1       8.307  -3.131 -10.646  0.00  0.00     0.036 H 
ENDROOT
BRANCH   1  12
ATOM     12  C   LIG d   1       4.547  -2.524  -8.779  0.00  0.00     0.238 C 
ATOM     13  N   LIG d   1       5.190  -1.606  -8.030  0.00  0.00    -0.284 N 
ATOM     14  H   LIG d   1       5.943  -1.119  -8.401  0.00  0.00     0.155 HD
ATOM     15  O   LIG d   1       3.555  -3.072  -8.347  0.00  0.00    -0.273 OA
BRANCH  13  16
ATOM     16  C   LIG d   1       4.771  -1.355  -6.719  0.00  0.00     0.034 A 
ATOM     17  C   LIG d   1       5.297  -2.093  -5.667  0.00  0.00    -0.040 A 
ATOM     18  C   LIG d   1       4.882  -1.843  -4.374  0.00  0.00    -0.057 A 
ATOM     19  H   LIG d   1       6.030  -2.862  -5.860  0.00  0.00     0.064 H 
ATOM     20  C   LIG d   1       3.944  -0.857  -4.126  0.00  0.00    -0.045 A 
ATOM     21  H   LIG d   1       5.291  -2.416  -3.556  0.00  0.00     0.062 H 
ATOM     22  C   LIG d   1       3.414  -0.124  -5.173  0.00  0.00    -0.057 A 
ATOM     23  C   LIG d   1       3.829  -0.366  -6.467  0.00  0.00    -0.040 A 
ATOM     24  H   LIG d   1       2.679   0.641  -4.976  0.00  0.00     0.062 H 
ATOM     25  H   LIG d   1       3.418   0.209  -7.283  0.00  0.00     0.064 H 
BRANCH  20  26
ATOM     26  C   LIG d   1       3.493  -0.587  -2.714  0.00  0.00    -0.021 C 
ATOM     27  H   LIG d   1       2.453  -0.895  -2.599  0.00  0.00     0.034 H 
BRANCH  26  28
ATOM     28  C   LIG d   1       4.369  -1.374  -1.738  0.00  0.00    -0.059 C 
ATOM     29  H   LIG d   1       4.901  -2.157  -2.278  0.00  0.00     0.024 H 
ATOM     30  H   LIG d   1       5.088  -0.701  -1.271  0.00  0.00     0.024 H 
ATOM     31  H   LIG d   1       3.742  -1.825  -0.970  0.00  0.00     0.024 H 
ENDBRANCH  26  28
BRANCH  26  32
ATOM     32  C   LIG d   1       3.615   0.909  -2.417  0.00  0.00    -0.059 C 
ATOM     33  H   LIG d   1       4.669   1.172  -2.306  0.00  0.00     0.024 H 
ATOM     34  H   LIG d   1       3.185   1.479  -3.240  0.00  0.00     0.024 H 
ATOM     35  H   LIG d   1       3.083   1.142  -1.495  0.00  0.00     0.024 H 
ENDBRANCH  26  32
ENDBRANCH  20  26
ENDBRANCH  13  16
ENDBRANCH   1  12
BRANCH   7  36
ATOM     36  C   LIG d   1       4.616  -0.689 -11.483  0.00  0.00     0.201 A 
ATOM     37  H   LIG d   1       5.068  -0.311 -12.400  0.00  0.00     0.101 H 
ATOM     38  O   LIG d   1       3.359  -1.304 -11.776  0.00  0.00    -0.435 OA
ATOM     39  C   LIG d   1       2.382  -0.659 -11.114  0.00  0.00     0.342 A 
ATOM     40  C   LIG d   1       2.952   0.448 -10.326  0.00  0.00     0.067 A 
ATOM     41  O   LIG d   1       1.202  -0.947 -11.160  0.00  0.00    -0.245 OA
ATOM     42  C   LIG d   1       4.334   0.450 -10.538  0.00  0.00     0.025 A 
ATOM     43  C   LIG d   1       2.385   1.403  -9.482  0.00  0.00    -0.047 A 
ATOM     44  C   LIG d   1       5.128   1.387  -9.918  0.00  0.00    -0.053 A 
ATOM     45  C   LIG d   1       4.558   2.332  -9.082  0.00  0.00    -0.061 A 
ATOM     46  H   LIG d   1       6.195   1.386 -10.085  0.00  0.00     0.062 H 
ATOM     47  C   LIG d   1       3.191   2.338  -8.866  0.00  0.00    -0.061 A 
ATOM     48  H   LIG d   1       5.182   3.067  -8.597  0.00  0.00     0.062 H 
ATOM     49  H   LIG d   1       2.753   3.078  -8.212  0.00  0.00     0.062 H 
ATOM     50  H   LIG d   1       1.318   1.410  -9.311  0.00  0.00     0.063 H 
ENDBRANCH   7  36
TORSDOF 6
ENDMDL
MODEL 4
REMARK VINA RESULT:      -6.3      2.758      6.243
REMARK  6 active torsions:
REMARK  status: ('A' for Active; 'I' for Inactive)
REMARK    1  A    between atoms: C_1  and  C_2 
REMARK    2  A    between atoms: C_2  and  C_3 
REMARK    3  A    between atoms: C_2  and  C_4 
REMARK    4  A    between atoms: C_7  and  N_10 
REMARK       I    between atoms: N_10  and  C_11 
REMARK    5  A    between atoms: C_11  and  C_13 
REMARK    6  A    between atoms: N_19  and  C_20 
ROOT
ATOM      1  C   LIG d   1       4.998   0.429  -3.540  0.00  0.00     0.106 C 
ATOM      2  H   LIG d   1       4.570   1.234  -4.136  0.00  0.00     0.060 H 
ATOM      3  C   LIG d   1       4.472   0.501  -2.089  0.00  0.00    -0.017 C 
ATOM      4  C   LIG d   1       4.361  -0.997  -1.719  0.00  0.00     0.026 C 
ATOM      5  C   LIG d   1       4.199  -1.697  -3.050  0.00  0.00     0.219 C 
ATOM      6  O   LIG d   1       3.804  -2.834  -3.194  0.00  0.00    -0.276 OA
ATOM      7  N   LIG d   1       4.558  -0.873  -4.054  0.00  0.00    -0.251 N 
ATOM      8  H   LIG d   1       5.184   1.011  -1.440  0.00  0.00     0.029 H 
ATOM      9  H   LIG d   1       3.496   0.985  -2.052  0.00  0.00     0.029 H 
ATOM     10  H   LIG d   1       5.269  -1.334  -1.218  0.00  0.00     0.036 H 
ATOM     11  H   LIG d   1       3.489  -1.170  -1.088  0.00  0.00     0.036 H 
ENDROOT
BRANCH   1  12
ATOM     12  C   LIG d   1       6.503   0.513  -3.553  0.00  0.00     0.238 C 
ATOM     13  N   LIG d   1       7.114   1.572  -4.122  0.00  0.00    -0.284 N 
ATOM     14  H   LIG d   1       6.586   2.311  -4.462  0.00  0.00     0.155 HD
ATOM     15  O   LIG d   1       7.164  -0.372  -3.053  0.00  0.00    -0.273 OA
BRANCH  13  16
ATOM     16  C   LIG d   1       8.509   1.604  -4.221  0.00  0.00     0.034 A 
ATOM     17  C   LIG d   1       9.160   0.794  -5.143  0.00  0.00    -0.040 A 
ATOM     18  C   LIG d   1      10.537   0.829  -5.239  0.00  0.00    -0.057 A 
ATOM     19  H   LIG d   1       8.589   0.139  -5.784  0.00  0.00     0.064 H 
ATOM     20  C   LIG d   1      11.268   1.668  -4.419  0.00  0.00    -0.045 A 
ATOM     21  H   LIG d   1      11.044   0.199  -5.956  0.00  0.00     0.062 H 
ATOM     22  C   LIG d   1      10.623   2.471  -3.496  0.00  0.00    -0.057 A 
ATOM     23  C   LIG d   1       9.246   2.445  -3.399  0.00  0.00    -0.040 A 
ATOM     24  H   LIG d   1      11.197   3.122  -2.853  0.00  0.00     0.062 H 
ATOM     25  H   LIG d   1       8.742   3.076  -2.680  0.00  0.00     0.064 H 
BRANCH  20  26
ATOM     26  C   LIG d   1      12.771   1.703  -4.525  0.00  0.00    -0.021 C 
ATOM     27  H   LIG d   1      13.064   1.602  -5.571  0.00  0.00     0.034 H 
BRANCH  26  28
ATOM     28  C   LIG d   1      13.292   3.031  -3.975  0.00  0.00    -0.059 C 
ATOM     29  H   LIG d   1      14.226   2.861  -3.440  0.00  0.00     0.024 H 
ATOM     30  H   LIG d   1      13.466   3.723  -4.799  0.00  0.00     0.024 H 
ATOM     31  H   LIG d   1      12.555   3.456  -3.293  0.00  0.00     0.024 H 
ENDBRANCH  26  28
BRANCH  26  32
ATOM     32  C   LIG d   1      13.366   0.547  -3.718  0.00  0.00    -0.059 C 
ATOM     33  H   LIG d   1      12.628  -0.252  -3.629  0.00  0.00     0.024 H 
ATOM     34  H   LIG d   1      14.252   0.168  -4.226  0.00  0.00     0.024 H 
ATOM     35  H   LIG d   1      13.640   0.901  -2.725  0.00  0.00     0.024 H 
ENDBRANCH  26  32
ENDBRANCH  20  26
ENDBRANCH  13  16
ENDBRANCH   1  12
BRANCH   7  36
ATOM     36  C   LIG d   1       4.515  -1.230  -5.474  0.00  0.00     0.201 A 
ATOM     37  H   LIG d   1       3.685  -1.911  -5.661  0.00  0.00     0.101 H 
ATOM     38  O   LIG d   1       4.368  -0.051  -6.270  0.00  0.00    -0.435 OA
ATOM     39  C   LIG d   1       5.425   0.067  -7.091  0.00  0.00     0.342 A 
ATOM     40  C   LIG d   1       6.356  -1.057  -6.881  0.00  0.00     0.067 A 
ATOM     41  O   LIG d   1       5.589   0.968  -7.891  0.00  0.00    -0.245 OA
ATOM     42  C   LIG d   1       5.814  -1.873  -5.884  0.00  0.00     0.025 A 
ATOM     43  C   LIG d   1       7.576  -1.401  -7.463  0.00  0.00    -0.047 A 
ATOM     44  C   LIG d   1       6.479  -3.008  -5.481  0.00  0.00    -0.053 A 
ATOM     45  C   LIG d   1       7.689  -3.344  -6.064  0.00  0.00    -0.061 A 
ATOM     46  H   LIG d   1       6.057  -3.637  -4.711  0.00  0.00     0.062 H 
ATOM     47  C   LIG d   1       8.234  -2.541  -7.051  0.00  0.00    -0.061 A 
ATOM     48  H   LIG d   1       8.211  -4.234  -5.747  0.00  0.00     0.062 H 
ATOM     49  H   LIG d   1       9.179  -2.808  -7.501  0.00  0.00     0.062 H 
ATOM     50  H   LIG d   1       8.003  -0.776  -8.234  0.00  0.00     0.063 H 
ENDBRANCH   7  36
TORSDOF 6
ENDMDL
MODEL 5
REMARK VINA RESULT:      -6.2      4.345      6.681
REMARK  6 active torsions:
REMARK  status: ('A' for Active; 'I' for Inactive)
REMARK    1  A    between atoms: C_1  and  C_2 
REMARK    2  A    between atoms: C_2  and  C_3 
REMARK    3  A    between atoms: C_2  and  C_4 
REMARK    4  A    between atoms: C_7  and  N_10 
REMARK       I    between atoms: N_10  and  C_11 
REMARK    5  A    between atoms: C_11  and  C_13 
REMARK    6  A    between atoms: N_19  and  C_20 
ROOT
ATOM      1  C   LIG d   1      10.515  -1.060  -6.462  0.00  0.00     0.106 C 
ATOM      2  H   LIG d   1      10.509  -0.821  -7.525  0.00  0.00     0.060 H 
ATOM      3  C   LIG d   1      10.868  -2.549  -6.251  0.00  0.00    -0.017 C 
ATOM      4  C   LIG d   1      11.697  -2.495  -4.947  0.00  0.00     0.026 C 
ATOM      5  C   LIG d   1      12.248  -1.087  -4.915  0.00  0.00     0.219 C 
ATOM      6  O   LIG d   1      13.165  -0.715  -4.215  0.00  0.00    -0.276 OA
ATOM      7  N   LIG d   1      11.571  -0.305  -5.778  0.00  0.00    -0.251 N 
ATOM      8  H   LIG d   1       9.968  -3.149  -6.117  0.00  0.00     0.029 H 
ATOM      9  H   LIG d   1      11.468  -2.929  -7.079  0.00  0.00     0.029 H 
ATOM     10  H   LIG d   1      11.058  -2.676  -4.082  0.00  0.00     0.036 H 
ATOM     11  H   LIG d   1      12.509  -3.222  -4.981  0.00  0.00     0.036 H 
ENDROOT
BRANCH   1  12
ATOM     12  C   LIG d   1       9.173  -0.751  -5.851  0.00  0.00     0.238 C 
ATOM     13  N   LIG d   1       9.014  -0.804  -4.513  0.00  0.00    -0.284 N 
ATOM     14  H   LIG d   1       9.778  -0.974  -3.940  0.00  0.00     0.155 HD
ATOM     15  O   LIG d   1       8.235  -0.457  -6.562  0.00  0.00    -0.273 OA
BRANCH  13  16
ATOM     16  C   LIG d   1       7.747  -0.614  -3.951  0.00  0.00     0.034 A 
ATOM     17  C   LIG d   1       6.955  -1.710  -3.633  0.00  0.00    -0.040 A 
ATOM     18  C   LIG d   1       5.705  -1.519  -3.078  0.00  0.00    -0.057 A 
ATOM     19  H   LIG d   1       7.317  -2.710  -3.819  0.00  0.00     0.064 H 
ATOM     20  C   LIG d   1       5.242  -0.238  -2.838  0.00  0.00    -0.045 A 
ATOM     21  H   LIG d   1       5.089  -2.370  -2.830  0.00  0.00     0.062 H 
ATOM     22  C   LIG d   1       6.026   0.855  -3.159  0.00  0.00    -0.057 A 
ATOM     23  C   LIG d   1       7.279   0.670  -3.710  0.00  0.00    -0.040 A 
ATOM     24  H   LIG d   1       5.659   1.854  -2.976  0.00  0.00     0.062 H 
ATOM     25  H   LIG d   1       7.892   1.525  -3.956  0.00  0.00     0.064 H 
BRANCH  20  26
ATOM     26  C   LIG d   1       3.877  -0.033  -2.233  0.00  0.00    -0.021 C 
ATOM     27  H   LIG d   1       3.908  -0.282  -1.172  0.00  0.00     0.034 H 
BRANCH  26  28
ATOM     28  C   LIG d   1       3.457   1.428  -2.403  0.00  0.00    -0.059 C 
ATOM     29  H   LIG d   1       2.557   1.617  -1.818  0.00  0.00     0.024 H 
ATOM     30  H   LIG d   1       4.259   2.079  -2.057  0.00  0.00     0.024 H 
ATOM     31  H   LIG d   1       3.254   1.628  -3.455  0.00  0.00     0.024 H 
ENDBRANCH  26  28
BRANCH  26  32
ATOM     32  C   LIG d   1       2.865  -0.940  -2.938  0.00  0.00    -0.059 C 
ATOM     33  H   LIG d   1       2.809  -0.670  -3.994  0.00  0.00     0.024 H 
ATOM     34  H   LIG d   1       3.182  -1.978  -2.846  0.00  0.00     0.024 H 
ATOM     35  H   LIG d   1       1.885  -0.817  -2.479  0.00  0.00     0.024 H 
ENDBRANCH  26  32
ENDBRANCH  20  26
ENDBRANCH  13  16
ENDBRANCH   1  12
BRANCH   7  36
ATOM     36  C   LIG d   1      11.851   1.115  -6.004  0.00  0.00     0.201 A 
ATOM     37  H   LIG d   1      12.920   1.303  -5.905  0.00  0.00     0.101 H 
ATOM     38  O   LIG d   1      11.407   1.499  -7.307  0.00  0.00    -0.435 OA
ATOM     39  C   LIG d   1      10.474   2.461  -7.195  0.00  0.00     0.342 A 
ATOM     40  C   LIG d   1      10.244   2.777  -5.774  0.00  0.00     0.067 A 
ATOM     41  O   LIG d   1       9.906   2.993  -8.129  0.00  0.00    -0.245 OA
ATOM     42  C   LIG d   1      11.085   1.956  -5.017  0.00  0.00     0.025 A 
ATOM     43  C   LIG d   1       9.399   3.678  -5.127  0.00  0.00    -0.047 A 
ATOM     44  C   LIG d   1      11.079   2.038  -3.644  0.00  0.00    -0.053 A 
ATOM     45  C   LIG d   1      10.238   2.935  -3.008  0.00  0.00    -0.061 A 
ATOM     46  H   LIG d   1      11.731   1.403  -3.062  0.00  0.00     0.062 H 
ATOM     47  C   LIG d   1       9.401   3.752  -3.749  0.00  0.00    -0.061 A 
ATOM     48  H   LIG d   1      10.234   2.999  -1.930  0.00  0.00     0.062 H 
ATOM     49  H   LIG d   1       8.747   4.449  -3.247  0.00  0.00     0.062 H 
ATOM     50  H   LIG d   1       8.745   4.317  -5.703  0.00  0.00     0.063 H 
ENDBRANCH   7  36
TORSDOF 6
ENDMDL
MODEL 6
REMARK VINA RESULT:      -6.0      3.200      6.749
REMARK  6 active torsions:
REMARK  status: ('A' for Active; 'I' for Inactive)
REMARK    1  A    between atoms: C_1  and  C_2 
REMARK    2  A    between atoms: C_2  and  C_3 
REMARK    3  A    between atoms: C_2  and  C_4 
REMARK    4  A    between atoms: C_7  and  N_10 
REMARK       I    between atoms: N_10  and  C_11 
REMARK    5  A    between atoms: C_11  and  C_13 
REMARK    6  A    between atoms: N_19  and  C_20 
ROOT
ATOM      1  C   LIG d   1       4.604  -0.424 -10.379  0.00  0.00     0.106 C 
ATOM      2  H   LIG d   1       5.596  -0.225 -10.781  0.00  0.00     0.060 H 
ATOM      3  C   LIG d   1       3.573   0.550 -10.991  0.00  0.00    -0.017 C 
ATOM      4  C   LIG d   1       2.318  -0.347 -11.104  0.00  0.00     0.026 C 
ATOM      5  C   LIG d   1       2.873  -1.752 -11.178  0.00  0.00     0.219 C 
ATOM      6  O   LIG d   1       2.252  -2.725 -11.549  0.00  0.00    -0.276 OA
ATOM      7  N   LIG d   1       4.157  -1.766 -10.772  0.00  0.00    -0.251 N 
ATOM      8  H   LIG d   1       3.390   1.394 -10.325  0.00  0.00     0.029 H 
ATOM      9  H   LIG d   1       3.897   0.894 -11.974  0.00  0.00     0.029 H 
ATOM     10  H   LIG d   1       1.686  -0.231 -10.223  0.00  0.00     0.036 H 
ATOM     11  H   LIG d   1       1.760  -0.109 -12.010  0.00  0.00     0.036 H 
ENDROOT
BRANCH   1  12
ATOM     12  C   LIG d   1       4.614  -0.297  -8.878  0.00  0.00     0.238 C 
ATOM     13  N   LIG d   1       3.609  -0.823  -8.150  0.00  0.00    -0.284 N 
ATOM     14  H   LIG d   1       2.915  -1.343  -8.585  0.00  0.00     0.155 HD
ATOM     15  O   LIG d   1       5.526   0.282  -8.325  0.00  0.00    -0.273 OA
BRANCH  13  16
ATOM     16  C   LIG d   1       3.568  -0.621  -6.766  0.00  0.00     0.034 A 
ATOM     17  C   LIG d   1       2.696   0.315  -6.225  0.00  0.00    -0.040 A 
ATOM     18  C   LIG d   1       2.656   0.512  -4.859  0.00  0.00    -0.057 A 
ATOM     19  H   LIG d   1       2.049   0.888  -6.873  0.00  0.00     0.064 H 
ATOM     20  C   LIG d   1       3.484  -0.222  -4.029  0.00  0.00    -0.045 A 
ATOM     21  H   LIG d   1       1.978   1.240  -4.438  0.00  0.00     0.062 H 
ATOM     22  C   LIG d   1       4.357  -1.150  -4.565  0.00  0.00    -0.057 A 
ATOM     23  C   LIG d   1       4.398  -1.356  -5.930  0.00  0.00    -0.040 A 
ATOM     24  H   LIG d   1       5.006  -1.719  -3.915  0.00  0.00     0.062 H 
ATOM     25  H   LIG d   1       5.077  -2.085  -6.347  0.00  0.00     0.064 H 
BRANCH  20  26
ATOM     26  C   LIG d   1       3.439  -0.003  -2.539  0.00  0.00    -0.021 C 
ATOM     27  H   LIG d   1       2.411  -0.096  -2.188  0.00  0.00     0.034 H 
BRANCH  26  28
ATOM     28  C   LIG d   1       4.311  -1.050  -1.843  0.00  0.00    -0.059 C 
ATOM     29  H   LIG d   1       3.680  -1.849  -1.454  0.00  0.00     0.024 H 
ATOM     30  H   LIG d   1       5.022  -1.463  -2.557  0.00  0.00     0.024 H 
ATOM     31  H   LIG d   1       4.852  -0.582  -1.020  0.00  0.00     0.024 H 
ENDBRANCH  26  28
BRANCH  26  32
ATOM     32  C   LIG d   1       3.964   1.396  -2.212  0.00  0.00    -0.059 C 
ATOM     33  H   LIG d   1       4.164   1.935  -3.140  0.00  0.00     0.024 H 
ATOM     34  H   LIG d   1       3.217   1.938  -1.633  0.00  0.00     0.024 H 
ATOM     35  H   LIG d   1       4.883   1.314  -1.634  0.00  0.00     0.024 H 
ENDBRANCH  26  32
ENDBRANCH  20  26
ENDBRANCH  13  16
ENDBRANCH   1  12
BRANCH   7  36
ATOM     36  C   LIG d   1       4.998  -2.964 -10.727  0.00  0.00     0.201 A 
ATOM     37  H   LIG d   1       4.733  -3.636 -11.543  0.00  0.00     0.101 H 
ATOM     38  O   LIG d   1       6.377  -2.597 -10.825  0.00  0.00    -0.435 OA
ATOM     39  C   LIG d   1       7.026  -3.000  -9.718  0.00  0.00     0.342 A 
ATOM     40  C   LIG d   1       6.089  -3.675  -8.802  0.00  0.00     0.067 A 
ATOM     41  O   LIG d   1       8.211  -2.833  -9.506  0.00  0.00    -0.245 OA
ATOM     42  C   LIG d   1       4.828  -3.665  -9.404  0.00  0.00     0.025 A 
ATOM     43  C   LIG d   1       6.248  -4.265  -7.548  0.00  0.00    -0.047 A 
ATOM     44  C   LIG d   1       3.751  -4.234  -8.764  0.00  0.00    -0.053 A 
ATOM     45  C   LIG d   1       3.916  -4.818  -7.520  0.00  0.00    -0.061 A 
ATOM     46  H   LIG d   1       2.778  -4.225  -9.233  0.00  0.00     0.062 H 
ATOM     47  C   LIG d   1       5.161  -4.832  -6.915  0.00  0.00    -0.061 A 
ATOM     48  H   LIG d   1       3.070  -5.264  -7.018  0.00  0.00     0.062 H 
ATOM     49  H   LIG d   1       5.282  -5.289  -5.944  0.00  0.00     0.062 H 
ATOM     50  H   LIG d   1       7.218  -4.278  -7.074  0.00  0.00     0.063 H 
ENDBRANCH   7  36
TORSDOF 6
ENDMDL
MODEL 7
REMARK VINA RESULT:      -5.9      2.511      6.296
REMARK  6 active torsions:
REMARK  status: ('A' for Active; 'I' for Inactive)
REMARK    1  A    between atoms: C_1  and  C_2 
REMARK    2  A    between atoms: C_2  and  C_3 
REMARK    3  A    between atoms: C_2  and  C_4 
REMARK    4  A    between atoms: C_7  and  N_10 
REMARK       I    between atoms: N_10  and  C_11 
REMARK    5  A    between atoms: C_11  and  C_13 
REMARK    6  A    between atoms: N_19  and  C_20 
ROOT
ATOM      1  C   LIG d   1       6.055  -0.930  -8.016  0.00  0.00     0.106 C 
ATOM      2  H   LIG d   1       6.712  -1.784  -7.856  0.00  0.00     0.060 H 
ATOM      3  C   LIG d   1       5.785  -0.738  -9.525  0.00  0.00    -0.017 C 
ATOM      4  C   LIG d   1       4.316  -0.252  -9.523  0.00  0.00     0.026 C 
ATOM      5  C   LIG d   1       3.746  -0.800  -8.234  0.00  0.00     0.219 C 
ATOM      6  O   LIG d   1       2.564  -0.887  -7.979  0.00  0.00    -0.276 OA
ATOM      7  N   LIG d   1       4.742  -1.177  -7.410  0.00  0.00    -0.251 N 
ATOM      8  H   LIG d   1       6.445   0.019  -9.947  0.00  0.00     0.029 H 
ATOM      9  H   LIG d   1       5.883  -1.682 -10.062  0.00  0.00     0.029 H 
ATOM     10  H   LIG d   1       4.275   0.837  -9.527  0.00  0.00     0.036 H 
ATOM     11  H   LIG d   1       3.779  -0.658 -10.381  0.00  0.00     0.036 H 
ENDROOT
BRANCH   1  12
ATOM     12  C   LIG d   1       6.671   0.317  -7.435  0.00  0.00     0.238 C 
ATOM     13  N   LIG d   1       7.834   0.242  -6.758  0.00  0.00    -0.284 N 
ATOM     14  H   LIG d   1       8.310  -0.602  -6.702  0.00  0.00     0.155 HD
ATOM     15  O   LIG d   1       6.120   1.388  -7.576  0.00  0.00    -0.273 OA
BRANCH  13  16
ATOM     16  C   LIG d   1       8.357   1.381  -6.136  0.00  0.00     0.034 A 
ATOM     17  C   LIG d   1       9.178   2.247  -6.846  0.00  0.00    -0.040 A 
ATOM     18  C   LIG d   1       9.691   3.371  -6.229  0.00  0.00    -0.057 A 
ATOM     19  H   LIG d   1       9.413   2.043  -7.879  0.00  0.00     0.064 H 
ATOM     20  C   LIG d   1       9.389   3.634  -4.905  0.00  0.00    -0.045 A 
ATOM     21  H   LIG d   1      10.330   4.045  -6.781  0.00  0.00     0.062 H 
ATOM     22  C   LIG d   1       8.576   2.770  -4.194  0.00  0.00    -0.057 A 
ATOM     23  C   LIG d   1       8.055   1.648  -4.807  0.00  0.00    -0.040 A 
ATOM     24  H   LIG d   1       8.345   2.976  -3.160  0.00  0.00     0.062 H 
ATOM     25  H   LIG d   1       7.417   0.975  -4.252  0.00  0.00     0.064 H 
BRANCH  20  26
ATOM     26  C   LIG d   1       9.951   4.861  -4.235  0.00  0.00    -0.021 C 
ATOM     27  H   LIG d   1      10.970   5.032  -4.586  0.00  0.00     0.034 H 
BRANCH  26  28
ATOM     28  C   LIG d   1       9.083   6.073  -4.576  0.00  0.00    -0.059 C 
ATOM     29  H   LIG d   1       8.999   6.167  -5.658  0.00  0.00     0.024 H 
ATOM     30  H   LIG d   1       8.092   5.943  -4.144  0.00  0.00     0.024 H 
ATOM     31  H   LIG d   1       9.542   6.974  -4.168  0.00  0.00     0.024 H 
ENDBRANCH  26  28
BRANCH  26  32
ATOM     32  C   LIG d   1       9.964   4.653  -2.719  0.00  0.00    -0.059 C 
ATOM     33  H   LIG d   1      10.814   4.025  -2.446  0.00  0.00     0.024 H 
ATOM     34  H   LIG d   1      10.053   5.618  -2.221  0.00  0.00     0.024 H 
ATOM     35  H   LIG d   1       9.039   4.168  -2.410  0.00  0.00     0.024 H 
ENDBRANCH  26  32
ENDBRANCH  20  26
ENDBRANCH  13  16
ENDBRANCH   1  12
BRANCH   7  36
ATOM     36  C   LIG d   1       4.542  -1.759  -6.081  0.00  0.00     0.201 A 
ATOM     37  H   LIG d   1       3.740  -2.497  -6.114  0.00  0.00     0.101 H 
ATOM     38  O   LIG d   1       5.752  -2.373  -5.628  0.00  0.00    -0.435 OA
ATOM     39  C   LIG d   1       6.158  -1.776  -4.494  0.00  0.00     0.342 A 
ATOM     40  C   LIG d   1       5.215  -0.706  -4.121  0.00  0.00     0.067 A 
ATOM     41  O   LIG d   1       7.156  -2.076  -3.869  0.00  0.00    -0.245 OA
ATOM     42  C   LIG d   1       4.206  -0.676  -5.088  0.00  0.00     0.025 A 
ATOM     43  C   LIG d   1       5.175   0.196  -3.058  0.00  0.00    -0.047 A 
ATOM     44  C   LIG d   1       3.181   0.236  -4.991  0.00  0.00    -0.053 A 
ATOM     45  C   LIG d   1       3.147   1.127  -3.932  0.00  0.00    -0.061 A 
ATOM     46  H   LIG d   1       2.402   0.255  -5.739  0.00  0.00     0.062 H 
ATOM     47  C   LIG d   1       4.142   1.106  -2.971  0.00  0.00    -0.061 A 
ATOM     48  H   LIG d   1       2.342   1.843  -3.857  0.00  0.00     0.062 H 
ATOM     49  H   LIG d   1       4.110   1.805  -2.147  0.00  0.00     0.062 H 
ATOM     50  H   LIG d   1       5.950   0.181  -2.306  0.00  0.00     0.063 H 
ENDBRANCH   7  36
TORSDOF 6
ENDMDL
MODEL 8
REMARK VINA RESULT:      -5.8      4.858      7.623
REMARK  6 active torsions:
REMARK  status: ('A' for Active; 'I' for Inactive)
REMARK    1  A    between atoms: C_1  and  C_2 
REMARK    2  A    between atoms: C_2  and  C_3 
REMARK    3  A    between atoms: C_2  and  C_4 
REMARK    4  A    between atoms: C_7  and  N_10 
REMARK       I    between atoms: N_10  and  C_11 
REMARK    5  A    between atoms: C_11  and  C_13 
REMARK    6  A    between atoms: N_19  and  C_20 
ROOT
ATOM      1  C   LIG d   1       9.519   3.379  -5.470  0.00  0.00     0.106 C 
ATOM      2  H   LIG d   1       9.120   4.211  -6.048  0.00  0.00     0.060 H 
ATOM      3  C   LIG d   1      10.656   2.682  -6.249  0.00  0.00    -0.017 C 
ATOM      4  C   LIG d   1      11.621   2.281  -5.109  0.00  0.00     0.026 C 
ATOM      5  C   LIG d   1      11.316   3.265  -4.001  0.00  0.00     0.219 C 
ATOM      6  O   LIG d   1      12.030   3.479  -3.046  0.00  0.00    -0.276 OA
ATOM      7  N   LIG d   1      10.135   3.871  -4.232  0.00  0.00    -0.251 N 
ATOM      8  H   LIG d   1      10.287   1.801  -6.775  0.00  0.00     0.029 H 
ATOM      9  H   LIG d   1      11.136   3.374  -6.941  0.00  0.00     0.029 H 
ATOM     10  H   LIG d   1      11.419   1.261  -4.780  0.00  0.00     0.036 H 
ATOM     11  H   LIG d   1      12.657   2.381  -5.433  0.00  0.00     0.036 H 
ENDROOT
BRANCH   1  12
ATOM     12  C   LIG d   1       8.425   2.393  -5.152  0.00  0.00     0.238 C 
ATOM     13  N   LIG d   1       8.214   2.007  -3.877  0.00  0.00    -0.284 N 
ATOM     14  H   LIG d   1       8.721   2.415  -3.157  0.00  0.00     0.155 HD
ATOM     15  O   LIG d   1       7.735   1.944  -6.043  0.00  0.00    -0.273 OA
BRANCH  13  16
ATOM     16  C   LIG d   1       7.265   1.020  -3.592  0.00  0.00     0.034 A 
ATOM     17  C   LIG d   1       7.569  -0.319  -3.804  0.00  0.00    -0.040 A 
ATOM     18  C   LIG d   1       6.630  -1.292  -3.522  0.00  0.00    -0.057 A 
ATOM     19  H   LIG d   1       8.538  -0.599  -4.189  0.00  0.00     0.064 H 
ATOM     20  C   LIG d   1       5.389  -0.934  -3.028  0.00  0.00    -0.045 A 
ATOM     21  H   LIG d   1       6.866  -2.333  -3.686  0.00  0.00     0.062 H 
ATOM     22  C   LIG d   1       5.082   0.398  -2.822  0.00  0.00    -0.057 A 
ATOM     23  C   LIG d   1       6.018   1.375  -3.097  0.00  0.00    -0.040 A 
ATOM     24  H   LIG d   1       4.110   0.675  -2.440  0.00  0.00     0.062 H 
ATOM     25  H   LIG d   1       5.779   2.416  -2.931  0.00  0.00     0.064 H 
BRANCH  20  26
ATOM     26  C   LIG d   1       4.366  -1.998  -2.722  0.00  0.00    -0.021 C 
ATOM     27  H   LIG d   1       4.567  -2.423  -1.738  0.00  0.00     0.034 H 
BRANCH  26  28
ATOM     28  C   LIG d   1       2.967  -1.381  -2.736  0.00  0.00    -0.059 C 
ATOM     29  H   LIG d   1       2.865  -0.732  -3.606  0.00  0.00     0.024 H 
ATOM     30  H   LIG d   1       2.221  -2.174  -2.784  0.00  0.00     0.024 H 
ATOM     31  H   LIG d   1       2.818  -0.797  -1.828  0.00  0.00     0.024 H 
ENDBRANCH  26  28
BRANCH  26  32
ATOM     32  C   LIG d   1       4.448  -3.102  -3.778  0.00  0.00    -0.059 C 
ATOM     33  H   LIG d   1       5.457  -3.136  -4.192  0.00  0.00     0.024 H 
ATOM     34  H   LIG d   1       4.213  -4.062  -3.318  0.00  0.00     0.024 H 
ATOM     35  H   LIG d   1       3.734  -2.897  -4.575  0.00  0.00     0.024 H 
ENDBRANCH  26  32
ENDBRANCH  20  26
ENDBRANCH  13  16
ENDBRANCH   1  12
BRANCH   7  36
ATOM     36  C   LIG d   1       9.542   4.888  -3.360  0.00  0.00     0.201 A 
ATOM     37  H   LIG d   1       8.493   4.654  -3.176  0.00  0.00     0.101 H 
ATOM     38  O   LIG d   1      10.253   4.946  -2.122  0.00  0.00    -0.435 OA
ATOM     39  C   LIG d   1      10.774   6.175  -1.964  0.00  0.00     0.342 A 
ATOM     40  C   LIG d   1      10.426   7.022  -3.119  0.00  0.00     0.067 A 
ATOM     41  O   LIG d   1      11.434   6.535  -1.008  0.00  0.00    -0.245 OA
ATOM     42  C   LIG d   1       9.664   6.248  -3.997  0.00  0.00     0.025 A 
ATOM     43  C   LIG d   1      10.712   8.349  -3.443  0.00  0.00    -0.047 A 
ATOM     44  C   LIG d   1       9.197   6.790  -5.172  0.00  0.00    -0.053 A 
ATOM     45  C   LIG d   1       9.484   8.107  -5.487  0.00  0.00    -0.061 A 
ATOM     46  H   LIG d   1       8.608   6.189  -5.848  0.00  0.00     0.062 H 
ATOM     47  C   LIG d   1      10.239   8.882  -4.624  0.00  0.00    -0.061 A 
ATOM     48  H   LIG d   1       9.118   8.532  -6.410  0.00  0.00     0.062 H 
ATOM     49  H   LIG d   1      10.460   9.909  -4.876  0.00  0.00     0.062 H 
ATOM     50  H   LIG d   1      11.301   8.956  -2.771  0.00  0.00     0.063 H 
ENDBRANCH   7  36
TORSDOF 6
ENDMDL
MODEL 9
REMARK VINA RESULT:      -5.7      3.852      6.341
REMARK  6 active torsions:
REMARK  status: ('A' for Active; 'I' for Inactive)
REMARK    1  A    between atoms: C_1  and  C_2 
REMARK    2  A    between atoms: C_2  and  C_3 
REMARK    3  A    between atoms: C_2  and  C_4 
REMARK    4  A    between atoms: C_7  and  N_10 
REMARK       I    between atoms: N_10  and  C_11 
REMARK    5  A    between atoms: C_11  and  C_13 
REMARK    6  A    between atoms: N_19  and  C_20 
ROOT
ATOM      1  C   LIG d   1      10.007   2.470  -5.652  0.00  0.00     0.106 C 
ATOM      2  H   LIG d   1      10.774   2.319  -4.893  0.00  0.00     0.060 H 
ATOM      3  C   LIG d   1       9.835   3.976  -5.947  0.00  0.00    -0.017 C 
ATOM      4  C   LIG d   1       9.539   3.970  -7.464  0.00  0.00     0.026 C 
ATOM      5  C   LIG d   1      10.168   2.686  -7.960  0.00  0.00     0.219 C 
ATOM      6  O   LIG d   1      10.406   2.433  -9.121  0.00  0.00    -0.276 OA
ATOM      7  N   LIG d   1      10.425   1.866  -6.923  0.00  0.00    -0.251 N 
ATOM      8  H   LIG d   1       8.996   4.390  -5.387  0.00  0.00     0.029 H 
ATOM      9  H   LIG d   1      10.754   4.523  -5.730  0.00  0.00     0.029 H 
ATOM     10  H   LIG d   1       8.463   3.962  -7.643  0.00  0.00     0.036 H 
ATOM     11  H   LIG d   1      10.000   4.832  -7.947  0.00  0.00     0.036 H 
ENDROOT
BRANCH   1  12
ATOM     12  C   LIG d   1       8.699   1.875  -5.198  0.00  0.00     0.238 C 
ATOM     13  N   LIG d   1       8.582   1.376  -3.951  0.00  0.00    -0.284 N 
ATOM     14  H   LIG d   1       9.317   1.461  -3.324  0.00  0.00     0.155 HD
ATOM     15  O   LIG d   1       7.752   1.844  -5.955  0.00  0.00    -0.273 OA
BRANCH  13  16
ATOM     16  C   LIG d   1       7.400   0.737  -3.561  0.00  0.00     0.034 A 
ATOM     17  C   LIG d   1       6.325   1.485  -3.098  0.00  0.00    -0.040 A 
ATOM     18  C   LIG d   1       5.159   0.851  -2.714  0.00  0.00    -0.057 A 
ATOM     19  H   LIG d   1       6.400   2.560  -3.039  0.00  0.00     0.064 H 
ATOM     20  C   LIG d   1       5.062  -0.526  -2.791  0.00  0.00    -0.045 A 
ATOM     21  H   LIG d   1       4.323   1.431  -2.354  0.00  0.00     0.062 H 
ATOM     22  C   LIG d   1       6.133  -1.273  -3.247  0.00  0.00    -0.057 A 
ATOM     23  C   LIG d   1       7.300  -0.645  -3.637  0.00  0.00    -0.040 A 
ATOM     24  H   LIG d   1       6.056  -2.349  -3.301  0.00  0.00     0.062 H 
ATOM     25  H   LIG d   1       8.134  -1.230  -3.996  0.00  0.00     0.064 H 
BRANCH  20  26
ATOM     26  C   LIG d   1       3.789  -1.215  -2.371  0.00  0.00    -0.021 C 
ATOM     27  H   LIG d   1       3.630  -1.064  -1.303  0.00  0.00     0.034 H 
BRANCH  26  28
ATOM     28  C   LIG d   1       2.611  -0.630  -3.151  0.00  0.00    -0.059 C 
ATOM     29  H   LIG d   1       1.765  -0.486  -2.478  0.00  0.00     0.024 H 
ATOM     30  H   LIG d   1       2.899   0.328  -3.581  0.00  0.00     0.024 H 
ATOM     31  H   LIG d   1       2.327  -1.316  -3.949  0.00  0.00     0.024 H 
ENDBRANCH  26  28
BRANCH  26  32
ATOM     32  C   LIG d   1       3.900  -2.713  -2.662  0.00  0.00    -0.059 C 
ATOM     33  H   LIG d   1       4.711  -2.887  -3.371  0.00  0.00     0.024 H 
ATOM     34  H   LIG d   1       4.108  -3.248  -1.736  0.00  0.00     0.024 H 
ATOM     35  H   LIG d   1       2.963  -3.071  -3.087  0.00  0.00     0.024 H 
ENDBRANCH  26  32
ENDBRANCH  20  26
ENDBRANCH  13  16
ENDBRANCH   1  12
BRANCH   7  36
ATOM     36  C   LIG d   1      11.042   0.543  -7.047  0.00  0.00     0.201 A 
ATOM     37  H   LIG d   1      11.665   0.505  -7.941  0.00  0.00     0.101 H 
ATOM     38  O   LIG d   1      11.832   0.262  -5.889  0.00  0.00    -0.435 OA
ATOM     39  C   LIG d   1      11.353  -0.834  -5.277  0.00  0.00     0.342 A 
ATOM     40  C   LIG d   1      10.188  -1.355  -6.015  0.00  0.00     0.067 A 
ATOM     41  O   LIG d   1      11.813  -1.324  -4.264  0.00  0.00    -0.245 OA
ATOM     42  C   LIG d   1       9.976  -0.519  -7.114  0.00  0.00     0.025 A 
ATOM     43  C   LIG d   1       9.343  -2.446  -5.808  0.00  0.00    -0.047 A 
ATOM     44  C   LIG d   1       8.942  -0.771  -7.987  0.00  0.00    -0.053 A 
ATOM     45  C   LIG d   1       8.109  -1.856  -7.776  0.00  0.00    -0.061 A 
ATOM     46  H   LIG d   1       8.782  -0.123  -8.836  0.00  0.00     0.062 H 
ATOM     47  C   LIG d   1       8.310  -2.689  -6.689  0.00  0.00    -0.061 A 
ATOM     48  H   LIG d   1       7.298  -2.053  -8.461  0.00  0.00     0.062 H 
ATOM     49  H   LIG d   1       7.655  -3.533  -6.530  0.00  0.00     0.062 H 
ATOM     50  H   LIG d   1       9.498  -3.098  -4.961  0.00  0.00     0.063 H 
ENDBRANCH   7  36
TORSDOF 6
ENDMDL
