MODEL 1
REMARK VINA RESULT:      -5.4      0.000      0.000
REMARK  3 active torsions:
REMARK  status: ('A' for Active; 'I' for Inactive)
REMARK    1  A    between atoms: C_5  and  C_7 
REMARK    2  A    between atoms: C_7  and  C_8 
REMARK    3  A    between atoms: C_7  and  C_10 
ROOT
ATOM      1  C   LIG d   1       5.900   0.905  -3.014  0.00  0.00    -0.061 A 
ATOM      2  C   LIG d   1       4.885   1.009  -2.081  0.00  0.00    -0.059 A 
ATOM      3  C   LIG d   1       4.133  -0.101  -1.750  0.00  0.00    -0.026 A 
ATOM      4  C   LIG d   1       4.396  -1.320  -2.354  0.00  0.00     0.128 A 
ATOM      5  C   LIG d   1       5.412  -1.422  -3.288  0.00  0.00     0.002 A 
ATOM      6  C   LIG d   1       6.167  -0.311  -3.613  0.00  0.00    -0.055 A 
ATOM      7  F   LIG d   1       3.662  -2.407  -2.031  0.00  0.00    -0.205 F 
ATOM      8  H   LIG d   1       6.487   1.775  -3.272  0.00  0.00     0.062 H 
ATOM      9  H   LIG d   1       4.680   1.960  -1.610  0.00  0.00     0.062 H 
ATOM     10  H   LIG d   1       3.340  -0.020  -1.021  0.00  0.00     0.065 H 
ATOM     11  H   LIG d   1       6.963  -0.392  -4.339  0.00  0.00     0.062 H 
ENDROOT
BRANCH   5  12
ATOM     12  C   LIG d   1       5.701  -2.748  -3.947  0.00  0.00     0.066 C 
ATOM     13  H   LIG d   1       5.542  -3.551  -3.228  0.00  0.00     0.047 H 
BRANCH  12  14
ATOM     14  C   LIG d   1       7.131  -2.773  -4.421  0.00  0.00     0.055 C 
ATOM     15  O   LIG d   1       8.021  -3.026  -3.645  0.00  0.00    -0.549 OA
ATOM     16  O   LIG d   1       7.414  -2.520  -5.709  0.00  0.00    -0.549 OA
ENDBRANCH  12  14
BRANCH  12  17
ATOM     17  C   LIG d   1       4.778  -2.936  -5.122  0.00  0.00     0.055 C 
ATOM     18  O   LIG d   1       4.336  -4.031  -5.375  0.00  0.00    -0.549 OA
ATOM     19  O   LIG d   1       4.446  -1.886  -5.889  0.00  0.00    -0.549 OA
ENDBRANCH  12  17
ENDBRANCH   5  12
TORSDOF 3
ENDMDL
MODEL 2
REMARK VINA RESULT:      -5.2      2.797      4.564
REMARK  3 active torsions:
REMARK  status: ('A' for Active; 'I' for Inactive)
REMARK    1  A    between atoms: C_5  and  C_7 
REMARK    2  A    between atoms: C_7  and  C_8 
REMARK    3  A    between atoms: C_7  and  C_10 
ROOT
ATOM      1  C   LIG d   1       5.635  -1.691  -5.716  0.00  0.00    -0.061 A 
ATOM      2  C   LIG d   1       5.548  -2.998  -5.274  0.00  0.00    -0.059 A 
ATOM      3  C   LIG d   1       4.891  -3.287  -4.093  0.00  0.00    -0.026 A 
ATOM      4  C   LIG d   1       4.320  -2.266  -3.352  0.00  0.00     0.128 A 
ATOM      5  C   LIG d   1       4.407  -0.958  -3.796  0.00  0.00     0.002 A 
ATOM      6  C   LIG d   1       5.060  -0.672  -4.980  0.00  0.00    -0.055 A 
ATOM      7  F   LIG d   1       3.676  -2.547  -2.198  0.00  0.00    -0.205 F 
ATOM      8  H   LIG d   1       6.149  -1.467  -6.639  0.00  0.00     0.062 H 
ATOM      9  H   LIG d   1       5.994  -3.794  -5.852  0.00  0.00     0.062 H 
ATOM     10  H   LIG d   1       4.824  -4.308  -3.749  0.00  0.00     0.065 H 
ATOM     11  H   LIG d   1       5.124   0.348  -5.328  0.00  0.00     0.062 H 
ENDROOT
BRANCH   5  12
ATOM     12  C   LIG d   1       3.785   0.155  -2.990  0.00  0.00     0.066 C 
ATOM     13  H   LIG d   1       3.126  -0.270  -2.234  0.00  0.00     0.047 H 
BRANCH  12  14
ATOM     14  C   LIG d   1       2.990   1.052  -3.904  0.00  0.00     0.055 C 
ATOM     15  O   LIG d   1       2.215   0.572  -4.697  0.00  0.00    -0.549 OA
ATOM     16  O   LIG d   1       3.138   2.384  -3.830  0.00  0.00    -0.549 OA
ENDBRANCH  12  14
BRANCH  12  17
ATOM     17  C   LIG d   1       4.870   0.956  -2.320  0.00  0.00     0.055 C 
ATOM     18  O   LIG d   1       4.848   1.120  -1.123  0.00  0.00    -0.549 OA
ATOM     19  O   LIG d   1       5.862   1.487  -3.051  0.00  0.00    -0.549 OA
ENDBRANCH  12  17
ENDBRANCH   5  12
TORSDOF 3
ENDMDL
MODEL 3
REMARK VINA RESULT:      -5.0      2.020      2.590
REMARK  3 active torsions:
REMARK  status: ('A' for Active; 'I' for Inactive)
REMARK    1  A    between atoms: C_5  and  C_7 
REMARK    2  A    between atoms: C_7  and  C_8 
REMARK    3  A    between atoms: C_7  and  C_10 
ROOT
ATOM      1  C   LIG d   1       5.445   0.191  -2.273  0.00  0.00    -0.061 A 
ATOM      2  C   LIG d   1       4.433   1.065  -1.920  0.00  0.00    -0.059 A 
ATOM      3  C   LIG d   1       3.305   1.174  -2.710  0.00  0.00    -0.026 A 
ATOM      4  C   LIG d   1       3.188   0.406  -3.857  0.00  0.00     0.128 A 
ATOM      5  C   LIG d   1       4.201  -0.468  -4.209  0.00  0.00     0.002 A 
ATOM      6  C   LIG d   1       5.326  -0.579  -3.414  0.00  0.00    -0.055 A 
ATOM      7  F   LIG d   1       2.085   0.511  -4.631  0.00  0.00    -0.205 F 
ATOM      8  H   LIG d   1       6.326   0.107  -1.654  0.00  0.00     0.062 H 
ATOM      9  H   LIG d   1       4.525   1.664  -1.025  0.00  0.00     0.062 H 
ATOM     10  H   LIG d   1       2.516   1.857  -2.434  0.00  0.00     0.065 H 
ATOM     11  H   LIG d   1       6.114  -1.266  -3.687  0.00  0.00     0.062 H 
ENDROOT
BRANCH   5  12
ATOM     12  C   LIG d   1       4.075  -1.305  -5.457  0.00  0.00     0.066 C 
ATOM     13  H   LIG d   1       3.024  -1.520  -5.645  0.00  0.00     0.047 H 
BRANCH  12  14
ATOM     14  C   LIG d   1       4.828  -2.598  -5.274  0.00  0.00     0.055 C 
ATOM     15  O   LIG d   1       4.339  -3.495  -4.628  0.00  0.00    -0.549 OA
ATOM     16  O   LIG d   1       6.037  -2.755  -5.834  0.00  0.00    -0.549 OA
ENDBRANCH  12  14
BRANCH  12  17
ATOM     17  C   LIG d   1       4.650  -0.551  -6.627  0.00  0.00     0.055 C 
ATOM     18  O   LIG d   1       4.250  -0.773  -7.746  0.00  0.00    -0.549 OA
ATOM     19  O   LIG d   1       5.608   0.368  -6.428  0.00  0.00    -0.549 OA
ENDBRANCH  12  17
ENDBRANCH   5  12
TORSDOF 3
ENDMDL
MODEL 4
REMARK VINA RESULT:      -5.0      3.313      4.270
REMARK  3 active torsions:
REMARK  status: ('A' for Active; 'I' for Inactive)
REMARK    1  A    between atoms: C_5  and  C_7 
REMARK    2  A    between atoms: C_7  and  C_8 
REMARK    3  A    between atoms: C_7  and  C_10 
ROOT
ATOM      1  C   LIG d   1       4.991  -0.635  -6.959  0.00  0.00    -0.061 A 
ATOM      2  C   LIG d   1       3.940  -0.046  -7.636  0.00  0.00    -0.059 A 
ATOM      3  C   LIG d   1       2.833   0.402  -6.940  0.00  0.00    -0.026 A 
ATOM      4  C   LIG d   1       2.778   0.260  -5.564  0.00  0.00     0.128 A 
ATOM      5  C   LIG d   1       3.831  -0.331  -4.888  0.00  0.00     0.002 A 
ATOM      6  C   LIG d   1       4.939  -0.773  -5.585  0.00  0.00    -0.055 A 
ATOM      7  F   LIG d   1       1.697   0.698  -4.882  0.00  0.00    -0.205 F 
ATOM      8  H   LIG d   1       5.855  -0.985  -7.505  0.00  0.00     0.062 H 
ATOM      9  H   LIG d   1       3.983   0.066  -8.710  0.00  0.00     0.062 H 
ATOM     10  H   LIG d   1       2.012   0.863  -7.470  0.00  0.00     0.065 H 
ATOM     11  H   LIG d   1       5.763  -1.229  -5.057  0.00  0.00     0.062 H 
ENDROOT
BRANCH   5  12
ATOM     12  C   LIG d   1       3.773  -0.486  -3.389  0.00  0.00     0.066 C 
ATOM     13  H   LIG d   1       2.735  -0.603  -3.077  0.00  0.00     0.047 H 
BRANCH  12  14
ATOM     14  C   LIG d   1       4.360   0.737  -2.734  0.00  0.00     0.055 C 
ATOM     15  O   LIG d   1       4.012   1.053  -1.621  0.00  0.00    -0.549 OA
ATOM     16  O   LIG d   1       5.275   1.473  -3.385  0.00  0.00    -0.549 OA
ENDBRANCH  12  14
BRANCH  12  17
ATOM     17  C   LIG d   1       4.561  -1.702  -2.979  0.00  0.00     0.055 C 
ATOM     18  O   LIG d   1       5.698  -1.583  -2.589  0.00  0.00    -0.549 OA
ATOM     19  O   LIG d   1       4.000  -2.920  -3.048  0.00  0.00    -0.549 OA
ENDBRANCH  12  17
ENDBRANCH   5  12
TORSDOF 3
ENDMDL
MODEL 5
REMARK VINA RESULT:      -4.9      2.782      4.189
REMARK  3 active torsions:
REMARK  status: ('A' for Active; 'I' for Inactive)
REMARK    1  A    between atoms: C_5  and  C_7 
REMARK    2  A    between atoms: C_7  and  C_8 
REMARK    3  A    between atoms: C_7  and  C_10 
ROOT
ATOM      1  C   LIG d   1       5.289  -3.490  -4.769  0.00  0.00    -0.061 A 
ATOM      2  C   LIG d   1       6.663  -3.553  -4.633  0.00  0.00    -0.059 A 
ATOM      3  C   LIG d   1       7.363  -2.456  -4.168  0.00  0.00    -0.026 A 
ATOM      4  C   LIG d   1       6.686  -1.294  -3.837  0.00  0.00     0.128 A 
ATOM      5  C   LIG d   1       5.311  -1.232  -3.974  0.00  0.00     0.002 A 
ATOM      6  C   LIG d   1       4.612  -2.333  -4.434  0.00  0.00    -0.055 A 
ATOM      7  F   LIG d   1       7.370  -0.221  -3.381  0.00  0.00    -0.205 F 
ATOM      8  H   LIG d   1       4.743  -4.349  -5.133  0.00  0.00     0.062 H 
ATOM      9  H   LIG d   1       7.191  -4.460  -4.891  0.00  0.00     0.062 H 
ATOM     10  H   LIG d   1       8.437  -2.506  -4.062  0.00  0.00     0.065 H 
ATOM     11  H   LIG d   1       3.538  -2.286  -4.536  0.00  0.00     0.062 H 
ENDROOT
BRANCH   5  12
ATOM     12  C   LIG d   1       4.573   0.032  -3.614  0.00  0.00     0.066 C 
ATOM     13  H   LIG d   1       5.166   0.896  -3.914  0.00  0.00     0.047 H 
BRANCH  12  14
ATOM     14  C   LIG d   1       4.342   0.073  -2.126  0.00  0.00     0.055 C 
ATOM     15  O   LIG d   1       4.431  -0.940  -1.473  0.00  0.00    -0.549 OA
ATOM     16  O   LIG d   1       4.043   1.235  -1.525  0.00  0.00    -0.549 OA
ENDBRANCH  12  14
BRANCH  12  17
ATOM     17  C   LIG d   1       3.247   0.060  -4.329  0.00  0.00     0.055 C 
ATOM     18  O   LIG d   1       2.260  -0.380  -3.790  0.00  0.00    -0.549 OA
ATOM     19  O   LIG d   1       3.162   0.575  -5.566  0.00  0.00    -0.549 OA
ENDBRANCH  12  17
ENDBRANCH   5  12
TORSDOF 3
ENDMDL
MODEL 6
REMARK VINA RESULT:      -4.7      1.540      2.077
REMARK  3 active torsions:
REMARK  status: ('A' for Active; 'I' for Inactive)
REMARK    1  A    between atoms: C_5  and  C_7 
REMARK    2  A    between atoms: C_7  and  C_8 
REMARK    3  A    between atoms: C_7  and  C_10 
ROOT
ATOM      1  C   LIG d   1       5.223   0.915  -2.458  0.00  0.00    -0.061 A 
ATOM      2  C   LIG d   1       4.488   0.102  -1.616  0.00  0.00    -0.059 A 
ATOM      3  C   LIG d   1       4.227  -1.208  -1.971  0.00  0.00    -0.026 A 
ATOM      4  C   LIG d   1       4.703  -1.706  -3.172  0.00  0.00     0.128 A 
ATOM      5  C   LIG d   1       5.439  -0.891  -4.015  0.00  0.00     0.002 A 
ATOM      6  C   LIG d   1       5.703   0.416  -3.655  0.00  0.00    -0.055 A 
ATOM      7  F   LIG d   1       4.450  -2.987  -3.520  0.00  0.00    -0.205 F 
ATOM      8  H   LIG d   1       5.426   1.938  -2.180  0.00  0.00     0.062 H 
ATOM      9  H   LIG d   1       4.117   0.491  -0.678  0.00  0.00     0.062 H 
ATOM     10  H   LIG d   1       3.653  -1.842  -1.312  0.00  0.00     0.065 H 
ATOM     11  H   LIG d   1       6.281   1.050  -4.311  0.00  0.00     0.062 H 
ENDROOT
BRANCH   5  12
ATOM     12  C   LIG d   1       5.958  -1.433  -5.323  0.00  0.00     0.066 C 
ATOM     13  H   LIG d   1       5.216  -2.101  -5.759  0.00  0.00     0.047 H 
BRANCH  12  14
ATOM     14  C   LIG d   1       7.237  -2.191  -5.080  0.00  0.00     0.055 C 
ATOM     15  O   LIG d   1       7.871  -1.999  -4.070  0.00  0.00    -0.549 OA
ATOM     16  O   LIG d   1       7.668  -3.085  -5.984  0.00  0.00    -0.549 OA
ENDBRANCH  12  14
BRANCH  12  17
ATOM     17  C   LIG d   1       6.223  -0.291  -6.269  0.00  0.00     0.055 C 
ATOM     18  O   LIG d   1       5.313   0.204  -6.890  0.00  0.00    -0.549 OA
ATOM     19  O   LIG d   1       7.471   0.179  -6.422  0.00  0.00    -0.549 OA
ENDBRANCH  12  17
ENDBRANCH   5  12
TORSDOF 3
ENDMDL
MODEL 7
REMARK VINA RESULT:      -4.4      2.464      4.489
REMARK  3 active torsions:
REMARK  status: ('A' for Active; 'I' for Inactive)
REMARK    1  A    between atoms: C_5  and  C_7 
REMARK    2  A    between atoms: C_7  and  C_8 
REMARK    3  A    between atoms: C_7  and  C_10 
ROOT
ATOM      1  C   LIG d   1       5.241  -4.349  -5.455  0.00  0.00    -0.061 A 
ATOM      2  C   LIG d   1       6.595  -4.628  -5.469  0.00  0.00    -0.059 A 
ATOM      3  C   LIG d   1       7.474  -3.824  -4.769  0.00  0.00    -0.026 A 
ATOM      4  C   LIG d   1       6.998  -2.737  -4.054  0.00  0.00     0.128 A 
ATOM      5  C   LIG d   1       5.642  -2.459  -4.042  0.00  0.00     0.002 A 
ATOM      6  C   LIG d   1       4.764  -3.269  -4.737  0.00  0.00    -0.055 A 
ATOM      7  F   LIG d   1       7.857  -1.951  -3.369  0.00  0.00    -0.205 F 
ATOM      8  H   LIG d   1       4.555  -4.979  -6.002  0.00  0.00     0.062 H 
ATOM      9  H   LIG d   1       6.966  -5.476  -6.027  0.00  0.00     0.062 H 
ATOM     10  H   LIG d   1       8.532  -4.042  -4.780  0.00  0.00     0.065 H 
ATOM     11  H   LIG d   1       3.706  -3.054  -4.723  0.00  0.00     0.062 H 
ENDROOT
BRANCH   5  12
ATOM     12  C   LIG d   1       5.122  -1.277  -3.263  0.00  0.00     0.066 C 
ATOM     13  H   LIG d   1       5.741  -1.125  -2.379  0.00  0.00     0.047 H 
BRANCH  12  14
ATOM     14  C   LIG d   1       3.699  -1.539  -2.842  0.00  0.00     0.055 C 
ATOM     15  O   LIG d   1       2.822  -0.777  -3.172  0.00  0.00    -0.549 OA
ATOM     16  O   LIG d   1       3.406  -2.623  -2.107  0.00  0.00    -0.549 OA
ENDBRANCH  12  14
BRANCH  12  17
ATOM     17  C   LIG d   1       5.172  -0.046  -4.129  0.00  0.00     0.055 C 
ATOM     18  O   LIG d   1       5.512   1.013  -3.656  0.00  0.00    -0.549 OA
ATOM     19  O   LIG d   1       4.837  -0.123  -5.426  0.00  0.00    -0.549 OA
ENDBRANCH  12  17
ENDBRANCH   5  12
TORSDOF 3
ENDMDL
MODEL 8
REMARK VINA RESULT:      -4.3      6.135      7.676
REMARK  3 active torsions:
REMARK  status: ('A' for Active; 'I' for Inactive)
REMARK    1  A    between atoms: C_5  and  C_7 
REMARK    2  A    between atoms: C_7  and  C_8 
REMARK    3  A    between atoms: C_7  and  C_10 
ROOT
ATOM      1  C   LIG d   1       4.060  -0.321 -12.227  0.00  0.00    -0.061 A 
ATOM      2  C   LIG d   1       2.961  -1.109 -12.511  0.00  0.00    -0.059 A 
ATOM      3  C   LIG d   1       1.916  -1.191 -11.610  0.00  0.00    -0.026 A 
ATOM      4  C   LIG d   1       1.972  -0.482 -10.421  0.00  0.00     0.128 A 
ATOM      5  C   LIG d   1       3.073   0.306 -10.138  0.00  0.00     0.002 A 
ATOM      6  C   LIG d   1       4.114   0.391 -11.043  0.00  0.00    -0.055 A 
ATOM      7  F   LIG d   1       0.951  -0.561  -9.540  0.00  0.00    -0.205 F 
ATOM      8  H   LIG d   1       4.876  -0.258 -12.932  0.00  0.00     0.062 H 
ATOM      9  H   LIG d   1       2.918  -1.662 -13.439  0.00  0.00     0.062 H 
ATOM     10  H   LIG d   1       1.057  -1.807 -11.833  0.00  0.00     0.065 H 
ATOM     11  H   LIG d   1       4.971   1.010 -10.824  0.00  0.00     0.062 H 
ENDROOT
BRANCH   5  12
ATOM     12  C   LIG d   1       3.135   1.079  -8.844  0.00  0.00     0.066 C 
ATOM     13  H   LIG d   1       2.186   1.590  -8.682  0.00  0.00     0.047 H 
BRANCH  12  14
ATOM     14  C   LIG d   1       4.247   2.092  -8.917  0.00  0.00     0.055 C 
ATOM     15  O   LIG d   1       4.031   3.196  -9.359  0.00  0.00    -0.549 OA
ATOM     16  O   LIG d   1       5.476   1.771  -8.484  0.00  0.00    -0.549 OA
ENDBRANCH  12  14
BRANCH  12  17
ATOM     17  C   LIG d   1       3.394   0.129  -7.705  0.00  0.00     0.055 C 
ATOM     18  O   LIG d   1       3.157   0.467  -6.569  0.00  0.00    -0.549 OA
ATOM     19  O   LIG d   1       3.889  -1.095  -7.950  0.00  0.00    -0.549 OA
ENDBRANCH  12  17
ENDBRANCH   5  12
TORSDOF 3
ENDMDL
MODEL 9
REMARK VINA RESULT:      -4.3      8.091      9.163
REMARK  3 active torsions:
REMARK  status: ('A' for Active; 'I' for Inactive)
REMARK    1  A    between atoms: C_5  and  C_7 
REMARK    2  A    between atoms: C_7  and  C_8 
REMARK    3  A    between atoms: C_7  and  C_10 
ROOT
ATOM      1  C   LIG d   1       7.714  -8.833  -3.653  0.00  0.00    -0.061 A 
ATOM      2  C   LIG d   1       8.063  -8.834  -2.316  0.00  0.00    -0.059 A 
ATOM      3  C   LIG d   1       7.380  -9.636  -1.422  0.00  0.00    -0.026 A 
ATOM      4  C   LIG d   1       6.344 -10.441  -1.868  0.00  0.00     0.128 A 
ATOM      5  C   LIG d   1       5.995 -10.439  -3.207  0.00  0.00     0.002 A 
ATOM      6  C   LIG d   1       6.684  -9.640  -4.100  0.00  0.00    -0.055 A 
ATOM      7  F   LIG d   1       5.676 -11.227  -0.996  0.00  0.00    -0.205 F 
ATOM      8  H   LIG d   1       8.248  -8.205  -4.350  0.00  0.00     0.062 H 
ATOM      9  H   LIG d   1       8.871  -8.206  -1.969  0.00  0.00     0.062 H 
ATOM     10  H   LIG d   1       7.654  -9.636  -0.378  0.00  0.00     0.065 H 
ATOM     11  H   LIG d   1       6.414  -9.642  -5.145  0.00  0.00     0.062 H 
ENDROOT
BRANCH   5  12
ATOM     12  C   LIG d   1       4.869 -11.315  -3.694  0.00  0.00     0.066 C 
ATOM     13  H   LIG d   1       4.749 -12.160  -3.017  0.00  0.00     0.047 H 
BRANCH  12  14
ATOM     14  C   LIG d   1       5.186 -11.819  -5.078  0.00  0.00     0.055 C 
ATOM     15  O   LIG d   1       4.640 -11.331  -6.039  0.00  0.00    -0.549 OA
ATOM     16  O   LIG d   1       6.080 -12.806  -5.244  0.00  0.00    -0.549 OA
ENDBRANCH  12  14
BRANCH  12  17
ATOM     17  C   LIG d   1       3.592 -10.516  -3.731  0.00  0.00     0.055 C 
ATOM     18  O   LIG d   1       2.524 -11.081  -3.731  0.00  0.00    -0.549 OA
ATOM     19  O   LIG d   1       3.640  -9.175  -3.764  0.00  0.00    -0.549 OA
ENDBRANCH  12  17
ENDBRANCH   5  12
TORSDOF 3
ENDMDL
MODEL 10
REMARK VINA RESULT:      -4.2      3.344      4.468
REMARK  3 active torsions:
REMARK  status: ('A' for Active; 'I' for Inactive)
REMARK    1  A    between atoms: C_5  and  C_7 
REMARK    2  A    between atoms: C_7  and  C_8 
REMARK    3  A    between atoms: C_7  and  C_10 
ROOT
ATOM      1  C   LIG d   1       7.229   0.347  -6.799  0.00  0.00    -0.061 A 
ATOM      2  C   LIG d   1       8.075   1.439  -6.863  0.00  0.00    -0.059 A 
ATOM      3  C   LIG d   1       8.429   2.109  -5.708  0.00  0.00    -0.026 A 
ATOM      4  C   LIG d   1       7.936   1.686  -4.484  0.00  0.00     0.128 A 
ATOM      5  C   LIG d   1       7.089   0.593  -4.422  0.00  0.00     0.002 A 
ATOM      6  C   LIG d   1       6.741  -0.079  -5.578  0.00  0.00    -0.055 A 
ATOM      7  F   LIG d   1       8.281   2.339  -3.354  0.00  0.00    -0.205 F 
ATOM      8  H   LIG d   1       6.954  -0.175  -7.703  0.00  0.00     0.062 H 
ATOM      9  H   LIG d   1       8.460   1.769  -7.817  0.00  0.00     0.062 H 
ATOM     10  H   LIG d   1       9.090   2.962  -5.758  0.00  0.00     0.065 H 
ATOM     11  H   LIG d   1       6.084  -0.935  -5.529  0.00  0.00     0.062 H 
ENDROOT
BRANCH   5  12
ATOM     12  C   LIG d   1       6.551   0.130  -3.091  0.00  0.00     0.066 C 
ATOM     13  H   LIG d   1       7.292   0.321  -2.315  0.00  0.00     0.047 H 
BRANCH  12  14
ATOM     14  C   LIG d   1       6.257  -1.346  -3.154  0.00  0.00     0.055 C 
ATOM     15  O   LIG d   1       5.114  -1.737  -3.109  0.00  0.00    -0.549 OA
ATOM     16  O   LIG d   1       7.264  -2.227  -3.266  0.00  0.00    -0.549 OA
ENDBRANCH  12  14
BRANCH  12  17
ATOM     17  C   LIG d   1       5.285   0.882  -2.773  0.00  0.00     0.055 C 
ATOM     18  O   LIG d   1       5.025   1.172  -1.629  0.00  0.00    -0.549 OA
ATOM     19  O   LIG d   1       4.445   1.230  -3.760  0.00  0.00    -0.549 OA
ENDBRANCH  12  17
ENDBRANCH   5  12
TORSDOF 3
ENDMDL
