MODEL 1
REMARK VINA RESULT:      -7.0      0.000      0.000
REMARK  9 active torsions:
REMARK  status: ('A' for Active; 'I' for Inactive)
REMARK    1  A    between atoms: C_1  and  O_2 
REMARK    2  A    between atoms: O_2  and  C_3 
REMARK    3  A    between atoms: C_6  and  C_11 
REMARK    4  A    between atoms: C_8  and  O_9 
REMARK    5  A    between atoms: O_9  and  C_10 
REMARK    6  A    between atoms: C_17  and  O_26 
REMARK    7  A    between atoms: C_21  and  C_22 
REMARK    8  A    between atoms: O_26  and  C_27 
REMARK    9  A    between atoms: C_27  and  C_28 
ROOT
ATOM      1  C   LIG d   1      10.202   6.482  -4.203  0.00  0.00     0.076 A 
ATOM      2  C   LIG d   1       9.959   5.633  -5.382  0.00  0.00     0.201 A 
ATOM      3  O   LIG d   1      10.090   6.062  -6.516  0.00  0.00    -0.286 OA
ATOM      4  C   LIG d   1       9.548   4.241  -5.124  0.00  0.00     0.065 A 
ATOM      5  C   LIG d   1       9.292   3.356  -6.172  0.00  0.00    -0.044 A 
ATOM      6  C   LIG d   1       8.919   2.071  -5.898  0.00  0.00    -0.019 A 
ATOM      7  C   LIG d   1       8.781   1.645  -4.578  0.00  0.00     0.124 A 
ATOM      8  C   LIG d   1       9.032   2.512  -3.527  0.00  0.00     0.023 A 
ATOM      9  C   LIG d   1       9.417   3.820  -3.789  0.00  0.00     0.143 A 
ATOM     10  O   LIG d   1       9.664   4.677  -2.779  0.00  0.00    -0.450 OA
ATOM     11  C   LIG d   1      10.038   5.945  -2.967  0.00  0.00     0.219 A 
ATOM     12  H   LIG d   1       9.394   3.684  -7.196  0.00  0.00     0.063 H 
ATOM     13  H   LIG d   1       8.727   1.383  -6.707  0.00  0.00     0.065 H 
ATOM     14  H   LIG d   1       8.926   2.172  -2.508  0.00  0.00     0.069 H 
ENDROOT
BRANCH   1  15
ATOM     15  C   LIG d   1      10.620   7.896  -4.364  0.00  0.00    -0.007 A 
ATOM     16  C   LIG d   1      11.974   8.223  -4.418  0.00  0.00    -0.050 A 
ATOM     17  C   LIG d   1      12.361   9.539  -4.572  0.00  0.00    -0.016 A 
ATOM     18  H   LIG d   1      12.720   7.445  -4.345  0.00  0.00     0.062 H 
ATOM     19  C   LIG d   1      11.406  10.539  -4.662  0.00  0.00     0.162 A 
ATOM     20  H   LIG d   1      13.410   9.789  -4.618  0.00  0.00     0.066 H 
ATOM     21  C   LIG d   1      10.052  10.220  -4.603  0.00  0.00     0.162 A 
ATOM     22  C   LIG d   1       9.659   8.902  -4.454  0.00  0.00    -0.008 A 
ATOM     23  H   LIG d   1       8.609   8.653  -4.408  0.00  0.00     0.066 H 
BRANCH  19  24
ATOM     24  O   LIG d   1      11.792  11.835  -4.809  0.00  0.00    -0.491 OA
BRANCH  24  25
ATOM     25  C   LIG d   1      12.243  12.515  -3.636  0.00  0.00     0.079 C 
ATOM     26  H   LIG d   1      13.235  12.929  -3.815  0.00  0.00     0.066 H 
ATOM     27  H   LIG d   1      11.551  13.321  -3.395  0.00  0.00     0.066 H 
ATOM     28  H   LIG d   1      12.287  11.813  -2.804  0.00  0.00     0.066 H 
ENDBRANCH  24  25
ENDBRANCH  19  24
BRANCH  21  29
ATOM     29  O   LIG d   1       9.117  11.203  -4.691  0.00  0.00    -0.491 OA
BRANCH  29  30
ATOM     30  C   LIG d   1       8.519  11.642  -3.469  0.00  0.00     0.079 C 
ATOM     31  H   LIG d   1       8.825  12.667  -3.264  0.00  0.00     0.066 H 
ATOM     32  H   LIG d   1       7.434  11.597  -3.560  0.00  0.00     0.066 H 
ATOM     33  H   LIG d   1       8.841  10.996  -2.653  0.00  0.00     0.066 H 
ENDBRANCH  29  30
ENDBRANCH  21  29
ENDBRANCH   1  15
BRANCH  11  34
ATOM     34  C   LIG d   1      10.288   6.813  -1.761  0.00  0.00     0.451 C 
ATOM     35  F   LIG d   1      10.089   6.063  -0.597  0.00  0.00    -0.163 F 
ATOM     36  F   LIG d   1      11.604   7.287  -1.791  0.00  0.00    -0.163 F 
ATOM     37  F   LIG d   1       9.402   7.897  -1.774  0.00  0.00    -0.163 F 
ENDBRANCH  11  34
BRANCH   7  38
ATOM     38  O   LIG d   1       8.405   0.367  -4.319  0.00  0.00    -0.487 OA
BRANCH  38  39
ATOM     39  C   LIG d   1       7.146  -0.057  -4.846  0.00  0.00     0.117 C 
ATOM     40  H   LIG d   1       6.786   0.678  -5.567  0.00  0.00     0.075 H 
ATOM     41  H   LIG d   1       7.265  -1.021  -5.342  0.00  0.00     0.075 H 
BRANCH  39  42
ATOM     42  C   LIG d   1       6.149  -0.189  -3.723  0.00  0.00     0.025 A 
ATOM     43  C   LIG d   1       5.673  -1.439  -3.363  0.00  0.00     0.130 A 
ATOM     44  C   LIG d   1       4.758  -1.558  -2.331  0.00  0.00    -0.026 A 
ATOM     45  F   LIG d   1       6.103  -2.540  -4.018  0.00  0.00    -0.205 F 
ATOM     46  C   LIG d   1       4.320  -0.432  -1.663  0.00  0.00    -0.059 A 
ATOM     47  H   LIG d   1       4.387  -2.532  -2.049  0.00  0.00     0.065 H 
ATOM     48  C   LIG d   1       4.796   0.816  -2.023  0.00  0.00    -0.061 A 
ATOM     49  H   LIG d   1       3.606  -0.524  -0.857  0.00  0.00     0.062 H 
ATOM     50  C   LIG d   1       5.714   0.936  -3.049  0.00  0.00    -0.053 A 
ATOM     51  H   LIG d   1       4.453   1.696  -1.500  0.00  0.00     0.062 H 
ATOM     52  H   LIG d   1       6.089   1.910  -3.327  0.00  0.00     0.062 H 
ENDBRANCH  39  42
ENDBRANCH  38  39
ENDBRANCH   7  38
TORSDOF 9
ENDMDL
MODEL 2
REMARK VINA RESULT:      -7.0      8.172     11.544
REMARK  9 active torsions:
REMARK  status: ('A' for Active; 'I' for Inactive)
REMARK    1  A    between atoms: C_1  and  O_2 
REMARK    2  A    between atoms: O_2  and  C_3 
REMARK    3  A    between atoms: C_6  and  C_11 
REMARK    4  A    between atoms: C_8  and  O_9 
REMARK    5  A    between atoms: O_9  and  C_10 
REMARK    6  A    between atoms: C_17  and  O_26 
REMARK    7  A    between atoms: C_21  and  C_22 
REMARK    8  A    between atoms: O_26  and  C_27 
REMARK    9  A    between atoms: C_27  and  C_28 
ROOT
ATOM      1  C   LIG d   1       3.754  -1.371  -9.644  0.00  0.00     0.076 A 
ATOM      2  C   LIG d   1       4.494  -2.483  -9.022  0.00  0.00     0.201 A 
ATOM      3  O   LIG d   1       4.467  -3.609  -9.491  0.00  0.00    -0.286 OA
ATOM      4  C   LIG d   1       5.267  -2.170  -7.807  0.00  0.00     0.065 A 
ATOM      5  C   LIG d   1       6.000  -3.152  -7.142  0.00  0.00    -0.044 A 
ATOM      6  C   LIG d   1       6.711  -2.826  -6.022  0.00  0.00    -0.019 A 
ATOM      7  C   LIG d   1       6.695  -1.521  -5.534  0.00  0.00     0.124 A 
ATOM      8  C   LIG d   1       5.971  -0.535  -6.183  0.00  0.00     0.023 A 
ATOM      9  C   LIG d   1       5.248  -0.849  -7.327  0.00  0.00     0.143 A 
ATOM     10  O   LIG d   1       4.538   0.099  -7.970  0.00  0.00    -0.450 OA
ATOM     11  C   LIG d   1       3.825  -0.141  -9.073  0.00  0.00     0.219 A 
ATOM     12  H   LIG d   1       6.012  -4.166  -7.515  0.00  0.00     0.063 H 
ATOM     13  H   LIG d   1       7.284  -3.584  -5.510  0.00  0.00     0.065 H 
ATOM     14  H   LIG d   1       5.968   0.475  -5.801  0.00  0.00     0.069 H 
ENDROOT
BRANCH   1  15
ATOM     15  C   LIG d   1       2.949  -1.591 -10.870  0.00  0.00    -0.007 A 
ATOM     16  C   LIG d   1       1.613  -1.975 -10.769  0.00  0.00    -0.050 A 
ATOM     17  C   LIG d   1       0.864  -2.175 -11.911  0.00  0.00    -0.016 A 
ATOM     18  H   LIG d   1       1.163  -2.113  -9.796  0.00  0.00     0.062 H 
ATOM     19  C   LIG d   1       1.440  -2.004 -13.160  0.00  0.00     0.162 A 
ATOM     20  H   LIG d   1      -0.172  -2.469 -11.830  0.00  0.00     0.066 H 
ATOM     21  C   LIG d   1       2.775  -1.624 -13.267  0.00  0.00     0.162 A 
ATOM     22  C   LIG d   1       3.529  -1.418 -12.126  0.00  0.00    -0.008 A 
ATOM     23  H   LIG d   1       4.565  -1.124 -12.208  0.00  0.00     0.066 H 
BRANCH  19  24
ATOM     24  O   LIG d   1       0.699  -2.205 -14.282  0.00  0.00    -0.491 OA
BRANCH  24  25
ATOM     25  C   LIG d   1      -0.716  -2.320 -14.114  0.00  0.00     0.079 C 
ATOM     26  H   LIG d   1      -1.086  -1.465 -13.550  0.00  0.00     0.066 H 
ATOM     27  H   LIG d   1      -1.196  -2.347 -15.092  0.00  0.00     0.066 H 
ATOM     28  H   LIG d   1      -0.943  -3.239 -13.572  0.00  0.00     0.066 H 
ENDBRANCH  24  25
ENDBRANCH  19  24
BRANCH  21  29
ATOM     29  O   LIG d   1       3.338  -1.457 -14.493  0.00  0.00    -0.491 OA
BRANCH  29  30
ATOM     30  C   LIG d   1       4.401  -0.507 -14.596  0.00  0.00     0.079 C 
ATOM     31  H   LIG d   1       5.322  -0.951 -14.220  0.00  0.00     0.066 H 
ATOM     32  H   LIG d   1       4.534  -0.223 -15.640  0.00  0.00     0.066 H 
ATOM     33  H   LIG d   1       4.157   0.378 -14.008  0.00  0.00     0.066 H 
ENDBRANCH  29  30
ENDBRANCH  21  29
ENDBRANCH   1  15
BRANCH  11  34
ATOM     34  C   LIG d   1       3.069   0.997  -9.709  0.00  0.00     0.451 C 
ATOM     35  F   LIG d   1       3.559   1.219 -11.000  0.00  0.00    -0.163 F 
ATOM     36  F   LIG d   1       1.709   0.674  -9.776  0.00  0.00    -0.163 F 
ATOM     37  F   LIG d   1       3.236   2.155  -8.942  0.00  0.00    -0.163 F 
ENDBRANCH  11  34
BRANCH   7  38
ATOM     38  O   LIG d   1       7.401  -1.211  -4.417  0.00  0.00    -0.487 OA
BRANCH  38  39
ATOM     39  C   LIG d   1       6.878  -1.676  -3.171  0.00  0.00     0.117 C 
ATOM     40  H   LIG d   1       6.765  -2.759  -3.204  0.00  0.00     0.075 H 
ATOM     41  H   LIG d   1       7.564  -1.407  -2.367  0.00  0.00     0.075 H 
BRANCH  39  42
ATOM     42  C   LIG d   1       5.535  -1.038  -2.920  0.00  0.00     0.025 A 
ATOM     43  C   LIG d   1       4.377  -1.785  -3.057  0.00  0.00     0.130 A 
ATOM     44  C   LIG d   1       3.145  -1.198  -2.826  0.00  0.00    -0.026 A 
ATOM     45  F   LIG d   1       4.451  -3.085  -3.416  0.00  0.00    -0.205 F 
ATOM     46  C   LIG d   1       3.072   0.132  -2.460  0.00  0.00    -0.059 A 
ATOM     47  H   LIG d   1       2.241  -1.779  -2.933  0.00  0.00     0.065 H 
ATOM     48  C   LIG d   1       4.229   0.878  -2.323  0.00  0.00    -0.061 A 
ATOM     49  H   LIG d   1       2.111   0.591  -2.279  0.00  0.00     0.062 H 
ATOM     50  C   LIG d   1       5.460   0.291  -2.547  0.00  0.00    -0.053 A 
ATOM     51  H   LIG d   1       4.170   1.917  -2.036  0.00  0.00     0.062 H 
ATOM     52  H   LIG d   1       6.364   0.872  -2.436  0.00  0.00     0.062 H 
ENDBRANCH  39  42
ENDBRANCH  38  39
ENDBRANCH   7  38
TORSDOF 9
ENDMDL
MODEL 3
REMARK VINA RESULT:      -6.9      1.455      1.955
REMARK  9 active torsions:
REMARK  status: ('A' for Active; 'I' for Inactive)
REMARK    1  A    between atoms: C_1  and  O_2 
REMARK    2  A    between atoms: O_2  and  C_3 
REMARK    3  A    between atoms: C_6  and  C_11 
REMARK    4  A    between atoms: C_8  and  O_9 
REMARK    5  A    between atoms: O_9  and  C_10 
REMARK    6  A    between atoms: C_17  and  O_26 
REMARK    7  A    between atoms: C_21  and  C_22 
REMARK    8  A    between atoms: O_26  and  C_27 
REMARK    9  A    between atoms: C_27  and  C_28 
ROOT
ATOM      1  C   LIG d   1       9.989   5.360  -4.980  0.00  0.00     0.076 A 
ATOM      2  C   LIG d   1       9.587   4.458  -6.074  0.00  0.00     0.201 A 
ATOM      3  O   LIG d   1       9.729   4.771  -7.244  0.00  0.00    -0.286 OA
ATOM      4  C   LIG d   1       9.006   3.161  -5.685  0.00  0.00     0.065 A 
ATOM      5  C   LIG d   1       8.592   2.237  -6.645  0.00  0.00    -0.044 A 
ATOM      6  C   LIG d   1       8.063   1.041  -6.250  0.00  0.00    -0.019 A 
ATOM      7  C   LIG d   1       7.922   0.746  -4.895  0.00  0.00     0.124 A 
ATOM      8  C   LIG d   1       8.328   1.654  -3.931  0.00  0.00     0.023 A 
ATOM      9  C   LIG d   1       8.873   2.872  -4.316  0.00  0.00     0.143 A 
ATOM     10  O   LIG d   1       9.272   3.767  -3.390  0.00  0.00    -0.450 OA
ATOM     11  C   LIG d   1       9.804   4.953  -3.698  0.00  0.00     0.219 A 
ATOM     12  H   LIG d   1       8.696   2.462  -7.696  0.00  0.00     0.063 H 
ATOM     13  H   LIG d   1       7.748   0.322  -6.992  0.00  0.00     0.065 H 
ATOM     14  H   LIG d   1       8.219   1.416  -2.884  0.00  0.00     0.069 H 
ENDROOT
BRANCH   1  15
ATOM     15  C   LIG d   1      10.584   6.686  -5.274  0.00  0.00    -0.007 A 
ATOM     16  C   LIG d   1      11.962   6.812  -5.440  0.00  0.00    -0.050 A 
ATOM     17  C   LIG d   1      12.515   8.046  -5.718  0.00  0.00    -0.016 A 
ATOM     18  H   LIG d   1      12.597   5.942  -5.356  0.00  0.00     0.062 H 
ATOM     19  C   LIG d   1      11.702   9.164  -5.822  0.00  0.00     0.162 A 
ATOM     20  H   LIG d   1      13.582   8.140  -5.850  0.00  0.00     0.066 H 
ATOM     21  C   LIG d   1      10.326   9.046  -5.652  0.00  0.00     0.162 A 
ATOM     22  C   LIG d   1       9.766   7.810  -5.378  0.00  0.00    -0.008 A 
ATOM     23  H   LIG d   1       8.698   7.717  -5.246  0.00  0.00     0.066 H 
BRANCH  19  24
ATOM     24  O   LIG d   1      12.251  10.379  -6.091  0.00  0.00    -0.491 OA
BRANCH  24  25
ATOM     25  C   LIG d   1      12.956  11.023  -5.028  0.00  0.00     0.079 C 
ATOM     26  H   LIG d   1      12.444  11.947  -4.760  0.00  0.00     0.066 H 
ATOM     27  H   LIG d   1      12.991  10.362  -4.163  0.00  0.00     0.066 H 
ATOM     28  H   LIG d   1      13.972  11.251  -5.352  0.00  0.00     0.066 H 
ENDBRANCH  24  25
ENDBRANCH  19  24
BRANCH  21  29
ATOM     29  O   LIG d   1       9.531  10.144  -5.754  0.00  0.00    -0.491 OA
BRANCH  29  30
ATOM     30  C   LIG d   1       9.205  10.825  -4.540  0.00  0.00     0.079 C 
ATOM     31  H   LIG d   1      10.075  11.380  -4.191  0.00  0.00     0.066 H 
ATOM     32  H   LIG d   1       8.382  11.517  -4.722  0.00  0.00     0.066 H 
ATOM     33  H   LIG d   1       8.908  10.100  -3.784  0.00  0.00     0.066 H 
ENDBRANCH  29  30
ENDBRANCH  21  29
ENDBRANCH   1  15
BRANCH  11  34
ATOM     34  C   LIG d   1      10.216   5.874  -2.579  0.00  0.00     0.451 C 
ATOM     35  F   LIG d   1      11.542   6.276  -2.769  0.00  0.00    -0.163 F 
ATOM     36  F   LIG d   1       9.384   6.999  -2.571  0.00  0.00    -0.163 F 
ATOM     37  F   LIG d   1      10.103   5.203  -1.356  0.00  0.00    -0.163 F 
ENDBRANCH  11  34
BRANCH   7  38
ATOM     38  O   LIG d   1       7.390  -0.443  -4.517  0.00  0.00    -0.487 OA
BRANCH  38  39
ATOM     39  C   LIG d   1       7.064  -0.597  -3.134  0.00  0.00     0.117 C 
ATOM     40  H   LIG d   1       7.509  -1.517  -2.756  0.00  0.00     0.075 H 
ATOM     41  H   LIG d   1       7.456   0.251  -2.571  0.00  0.00     0.075 H 
BRANCH  39  42
ATOM     42  C   LIG d   1       5.567  -0.658  -2.973  0.00  0.00     0.025 A 
ATOM     43  C   LIG d   1       4.844   0.505  -2.770  0.00  0.00     0.130 A 
ATOM     44  C   LIG d   1       3.469   0.447  -2.623  0.00  0.00    -0.026 A 
ATOM     45  F   LIG d   1       5.481   1.696  -2.718  0.00  0.00    -0.205 F 
ATOM     46  C   LIG d   1       2.820  -0.771  -2.676  0.00  0.00    -0.059 A 
ATOM     47  H   LIG d   1       2.904   1.354  -2.465  0.00  0.00     0.065 H 
ATOM     48  C   LIG d   1       3.543  -1.932  -2.879  0.00  0.00    -0.061 A 
ATOM     49  H   LIG d   1       1.746  -0.816  -2.561  0.00  0.00     0.062 H 
ATOM     50  C   LIG d   1       4.915  -1.875  -3.032  0.00  0.00    -0.053 A 
ATOM     51  H   LIG d   1       3.034  -2.884  -2.921  0.00  0.00     0.062 H 
ATOM     52  H   LIG d   1       5.478  -2.782  -3.195  0.00  0.00     0.062 H 
ENDBRANCH  39  42
ENDBRANCH  38  39
ENDBRANCH   7  38
TORSDOF 9
ENDMDL
MODEL 4
REMARK VINA RESULT:      -6.9      8.089     12.667
REMARK  9 active torsions:
REMARK  status: ('A' for Active; 'I' for Inactive)
REMARK    1  A    between atoms: C_1  and  O_2 
REMARK    2  A    between atoms: O_2  and  C_3 
REMARK    3  A    between atoms: C_6  and  C_11 
REMARK    4  A    between atoms: C_8  and  O_9 
REMARK    5  A    between atoms: O_9  and  C_10 
REMARK    6  A    between atoms: C_17  and  O_26 
REMARK    7  A    between atoms: C_21  and  C_22 
REMARK    8  A    between atoms: O_26  and  C_27 
REMARK    9  A    between atoms: C_27  and  C_28 
ROOT
ATOM      1  C   LIG d   1       3.034  -2.518  -9.590  0.00  0.00     0.076 A 
ATOM      2  C   LIG d   1       3.894  -3.533  -8.958  0.00  0.00     0.201 A 
ATOM      3  O   LIG d   1       3.905  -4.690  -9.343  0.00  0.00    -0.286 OA
ATOM      4  C   LIG d   1       4.739  -3.083  -7.837  0.00  0.00     0.065 A 
ATOM      5  C   LIG d   1       5.587  -3.967  -7.170  0.00  0.00    -0.044 A 
ATOM      6  C   LIG d   1       6.362  -3.516  -6.139  0.00  0.00    -0.019 A 
ATOM      7  C   LIG d   1       6.298  -2.181  -5.743  0.00  0.00     0.124 A 
ATOM      8  C   LIG d   1       5.460  -1.292  -6.396  0.00  0.00     0.023 A 
ATOM      9  C   LIG d   1       4.671  -1.734  -7.449  0.00  0.00     0.143 A 
ATOM     10  O   LIG d   1       3.850  -0.881  -8.094  0.00  0.00    -0.450 OA
ATOM     11  C   LIG d   1       3.068  -1.246  -9.114  0.00  0.00     0.219 A 
ATOM     12  H   LIG d   1       5.637  -5.003  -7.471  0.00  0.00     0.063 H 
ATOM     13  H   LIG d   1       7.023  -4.197  -5.626  0.00  0.00     0.065 H 
ATOM     14  H   LIG d   1       5.420  -0.258  -6.085  0.00  0.00     0.069 H 
ENDROOT
BRANCH   1  15
ATOM     15  C   LIG d   1       2.150  -2.877 -10.725  0.00  0.00    -0.007 A 
ATOM     16  C   LIG d   1       2.553  -2.616 -12.034  0.00  0.00    -0.050 A 
ATOM     17  C   LIG d   1       1.731  -2.954 -13.090  0.00  0.00    -0.016 A 
ATOM     18  H   LIG d   1       3.511  -2.153 -12.221  0.00  0.00     0.062 H 
ATOM     19  C   LIG d   1       0.500  -3.545 -12.852  0.00  0.00     0.162 A 
ATOM     20  H   LIG d   1       2.047  -2.755 -14.103  0.00  0.00     0.066 H 
ATOM     21  C   LIG d   1       0.090  -3.803 -11.547  0.00  0.00     0.162 A 
ATOM     22  C   LIG d   1       0.912  -3.470 -10.485  0.00  0.00    -0.008 A 
ATOM     23  H   LIG d   1       0.595  -3.670  -9.472  0.00  0.00     0.066 H 
BRANCH  19  24
ATOM     24  O   LIG d   1      -0.308  -3.873 -13.895  0.00  0.00    -0.491 OA
BRANCH  24  25
ATOM     25  C   LIG d   1      -1.023  -2.807 -14.523  0.00  0.00     0.079 C 
ATOM     26  H   LIG d   1      -0.633  -1.852 -14.173  0.00  0.00     0.066 H 
ATOM     27  H   LIG d   1      -0.902  -2.875 -15.604  0.00  0.00     0.066 H 
ATOM     28  H   LIG d   1      -2.081  -2.881 -14.271  0.00  0.00     0.066 H 
ENDBRANCH  24  25
ENDBRANCH  19  24
BRANCH  21  29
ATOM     29  O   LIG d   1      -1.118  -4.382 -11.315  0.00  0.00    -0.491 OA
BRANCH  29  30
ATOM     30  C   LIG d   1      -1.233  -5.203 -10.151  0.00  0.00     0.079 C 
ATOM     31  H   LIG d   1      -1.420  -4.575  -9.281  0.00  0.00     0.066 H 
ATOM     32  H   LIG d   1      -2.060  -5.901 -10.280  0.00  0.00     0.066 H 
ATOM     33  H   LIG d   1      -0.308  -5.760 -10.006  0.00  0.00     0.066 H 
ENDBRANCH  29  30
ENDBRANCH  21  29
ENDBRANCH   1  15
BRANCH  11  34
ATOM     34  C   LIG d   1       2.190  -0.207  -9.761  0.00  0.00     0.451 C 
ATOM     35  F   LIG d   1       2.650   0.052 -11.057  0.00  0.00    -0.163 F 
ATOM     36  F   LIG d   1       0.874  -0.679  -9.820  0.00  0.00    -0.163 F 
ATOM     37  F   LIG d   1       2.229   0.972  -9.009  0.00  0.00    -0.163 F 
ENDBRANCH  11  34
BRANCH   7  38
ATOM     38  O   LIG d   1       7.068  -1.747  -4.714  0.00  0.00    -0.487 OA
BRANCH  38  39
ATOM     39  C   LIG d   1       6.592  -2.009  -3.392  0.00  0.00     0.117 C 
ATOM     40  H   LIG d   1       6.145  -3.002  -3.357  0.00  0.00     0.075 H 
ATOM     41  H   LIG d   1       7.425  -1.961  -2.690  0.00  0.00     0.075 H 
BRANCH  39  42
ATOM     42  C   LIG d   1       5.559  -0.978  -3.016  0.00  0.00     0.025 A 
ATOM     43  C   LIG d   1       4.274  -1.374  -2.684  0.00  0.00     0.130 A 
ATOM     44  C   LIG d   1       3.326  -0.426  -2.339  0.00  0.00    -0.026 A 
ATOM     45  F   LIG d   1       3.947  -2.685  -2.696  0.00  0.00    -0.205 F 
ATOM     46  C   LIG d   1       3.662   0.914  -2.327  0.00  0.00    -0.059 A 
ATOM     47  H   LIG d   1       2.324  -0.734  -2.079  0.00  0.00     0.065 H 
ATOM     48  C   LIG d   1       4.946   1.309  -2.659  0.00  0.00    -0.061 A 
ATOM     49  H   LIG d   1       2.923   1.654  -2.058  0.00  0.00     0.062 H 
ATOM     50  C   LIG d   1       5.894   0.363  -2.998  0.00  0.00    -0.053 A 
ATOM     51  H   LIG d   1       5.207   2.356  -2.649  0.00  0.00     0.062 H 
ATOM     52  H   LIG d   1       6.898   0.671  -3.253  0.00  0.00     0.062 H 
ENDBRANCH  39  42
ENDBRANCH  38  39
ENDBRANCH   7  38
TORSDOF 9
ENDMDL
MODEL 5
REMARK VINA RESULT:      -6.7      3.127     10.120
REMARK  9 active torsions:
REMARK  status: ('A' for Active; 'I' for Inactive)
REMARK    1  A    between atoms: C_1  and  O_2 
REMARK    2  A    between atoms: O_2  and  C_3 
REMARK    3  A    between atoms: C_6  and  C_11 
REMARK    4  A    between atoms: C_8  and  O_9 
REMARK    5  A    between atoms: O_9  and  C_10 
REMARK    6  A    between atoms: C_17  and  O_26 
REMARK    7  A    between atoms: C_21  and  C_22 
REMARK    8  A    between atoms: O_26  and  C_27 
REMARK    9  A    between atoms: C_27  and  C_28 
ROOT
ATOM      1  C   LIG d   1       7.036  -0.208  -4.636  0.00  0.00     0.076 A 
ATOM      2  C   LIG d   1       8.372  -0.016  -5.226  0.00  0.00     0.201 A 
ATOM      3  O   LIG d   1       8.829  -0.800  -6.041  0.00  0.00    -0.286 OA
ATOM      4  C   LIG d   1       9.130   1.168  -4.784  0.00  0.00     0.065 A 
ATOM      5  C   LIG d   1      10.405   1.439  -5.282  0.00  0.00    -0.044 A 
ATOM      6  C   LIG d   1      11.077   2.549  -4.856  0.00  0.00    -0.019 A 
ATOM      7  C   LIG d   1      10.501   3.403  -3.917  0.00  0.00     0.124 A 
ATOM      8  C   LIG d   1       9.237   3.147  -3.413  0.00  0.00     0.023 A 
ATOM      9  C   LIG d   1       8.538   2.026  -3.841  0.00  0.00     0.143 A 
ATOM     10  O   LIG d   1       7.306   1.762  -3.360  0.00  0.00    -0.450 OA
ATOM     11  C   LIG d   1       6.585   0.701  -3.734  0.00  0.00     0.219 A 
ATOM     12  H   LIG d   1      10.856   0.778  -6.007  0.00  0.00     0.063 H 
ATOM     13  H   LIG d   1      12.061   2.764  -5.244  0.00  0.00     0.065 H 
ATOM     14  H   LIG d   1       8.797   3.817  -2.690  0.00  0.00     0.069 H 
ENDROOT
BRANCH   1  15
ATOM     15  C   LIG d   1       6.200  -1.370  -5.021  0.00  0.00    -0.007 A 
ATOM     16  C   LIG d   1       6.171  -2.507  -4.215  0.00  0.00    -0.050 A 
ATOM     17  C   LIG d   1       5.388  -3.587  -4.572  0.00  0.00    -0.016 A 
ATOM     18  H   LIG d   1       6.758  -2.542  -3.309  0.00  0.00     0.062 H 
ATOM     19  C   LIG d   1       4.638  -3.547  -5.737  0.00  0.00     0.162 A 
ATOM     20  H   LIG d   1       5.365  -4.465  -3.945  0.00  0.00     0.066 H 
ATOM     21  C   LIG d   1       4.666  -2.416  -6.548  0.00  0.00     0.162 A 
ATOM     22  C   LIG d   1       5.445  -1.329  -6.192  0.00  0.00    -0.008 A 
ATOM     23  H   LIG d   1       5.468  -0.452  -6.821  0.00  0.00     0.066 H 
BRANCH  19  24
ATOM     24  O   LIG d   1       3.871  -4.615  -6.086  0.00  0.00    -0.491 OA
BRANCH  24  25
ATOM     25  C   LIG d   1       4.543  -5.860  -6.284  0.00  0.00     0.079 C 
ATOM     26  H   LIG d   1       4.248  -6.561  -5.503  0.00  0.00     0.066 H 
ATOM     27  H   LIG d   1       4.275  -6.267  -7.258  0.00  0.00     0.066 H 
ATOM     28  H   LIG d   1       5.621  -5.701  -6.241  0.00  0.00     0.066 H 
ENDBRANCH  24  25
ENDBRANCH  19  24
BRANCH  21  29
ATOM     29  O   LIG d   1       3.929  -2.379  -7.690  0.00  0.00    -0.491 OA
BRANCH  29  30
ATOM     30  C   LIG d   1       4.210  -1.323  -8.611  0.00  0.00     0.079 C 
ATOM     31  H   LIG d   1       4.250  -1.725  -9.622  0.00  0.00     0.066 H 
ATOM     32  H   LIG d   1       3.424  -0.570  -8.549  0.00  0.00     0.066 H 
ATOM     33  H   LIG d   1       5.168  -0.868  -8.361  0.00  0.00     0.066 H 
ENDBRANCH  29  30
ENDBRANCH  21  29
ENDBRANCH   1  15
BRANCH  11  34
ATOM     34  C   LIG d   1       5.219   0.506  -3.131  0.00  0.00     0.451 C 
ATOM     35  F   LIG d   1       4.873   1.637  -2.383  0.00  0.00    -0.163 F 
ATOM     36  F   LIG d   1       4.280   0.317  -4.151  0.00  0.00    -0.163 F 
ATOM     37  F   LIG d   1       5.233  -0.617  -2.296  0.00  0.00    -0.163 F 
ENDBRANCH  11  34
BRANCH   7  38
ATOM     38  O   LIG d   1      11.182   4.499  -3.497  0.00  0.00    -0.487 OA
BRANCH  38  39
ATOM     39  C   LIG d   1      10.412   5.662  -3.188  0.00  0.00     0.117 C 
ATOM     40  H   LIG d   1      10.684   6.471  -3.866  0.00  0.00     0.075 H 
ATOM     41  H   LIG d   1       9.351   5.437  -3.301  0.00  0.00     0.075 H 
BRANCH  39  42
ATOM     42  C   LIG d   1      10.686   6.084  -1.767  0.00  0.00     0.025 A 
ATOM     43  C   LIG d   1      10.304   7.342  -1.332  0.00  0.00     0.130 A 
ATOM     44  C   LIG d   1      10.557   7.727  -0.026  0.00  0.00    -0.026 A 
ATOM     45  F   LIG d   1       9.683   8.191  -2.180  0.00  0.00    -0.205 F 
ATOM     46  C   LIG d   1      11.191   6.858   0.839  0.00  0.00    -0.059 A 
ATOM     47  H   LIG d   1      10.258   8.708   0.314  0.00  0.00     0.065 H 
ATOM     48  C   LIG d   1      11.573   5.602   0.404  0.00  0.00    -0.061 A 
ATOM     49  H   LIG d   1      11.389   7.159   1.858  0.00  0.00     0.062 H 
ATOM     50  C   LIG d   1      11.316   5.214  -0.897  0.00  0.00    -0.053 A 
ATOM     51  H   LIG d   1      12.069   4.924   1.082  0.00  0.00     0.062 H 
ATOM     52  H   LIG d   1      11.610   4.231  -1.236  0.00  0.00     0.062 H 
ENDBRANCH  39  42
ENDBRANCH  38  39
ENDBRANCH   7  38
TORSDOF 9
ENDMDL
MODEL 6
REMARK VINA RESULT:      -6.6      8.412     13.438
REMARK  9 active torsions:
REMARK  status: ('A' for Active; 'I' for Inactive)
REMARK    1  A    between atoms: C_1  and  O_2 
REMARK    2  A    between atoms: O_2  and  C_3 
REMARK    3  A    between atoms: C_6  and  C_11 
REMARK    4  A    between atoms: C_8  and  O_9 
REMARK    5  A    between atoms: O_9  and  C_10 
REMARK    6  A    between atoms: C_17  and  O_26 
REMARK    7  A    between atoms: C_21  and  C_22 
REMARK    8  A    between atoms: O_26  and  C_27 
REMARK    9  A    between atoms: C_27  and  C_28 
ROOT
ATOM      1  C   LIG d   1       2.630  -1.790 -11.762  0.00  0.00     0.076 A 
ATOM      2  C   LIG d   1       3.111  -0.425 -11.487  0.00  0.00     0.201 A 
ATOM      3  O   LIG d   1       3.508   0.304 -12.379  0.00  0.00    -0.286 OA
ATOM      4  C   LIG d   1       3.089   0.016 -10.080  0.00  0.00     0.065 A 
ATOM      5  C   LIG d   1       3.524   1.290  -9.714  0.00  0.00    -0.044 A 
ATOM      6  C   LIG d   1       3.484   1.669  -8.403  0.00  0.00    -0.019 A 
ATOM      7  C   LIG d   1       3.024   0.785  -7.428  0.00  0.00     0.124 A 
ATOM      8  C   LIG d   1       2.589  -0.484  -7.777  0.00  0.00     0.023 A 
ATOM      9  C   LIG d   1       2.617  -0.882  -9.107  0.00  0.00     0.143 A 
ATOM     10  O   LIG d   1       2.198  -2.113  -9.462  0.00  0.00    -0.450 OA
ATOM     11  C   LIG d   1       2.201  -2.552 -10.723  0.00  0.00     0.219 A 
ATOM     12  H   LIG d   1       3.885   1.976 -10.465  0.00  0.00     0.063 H 
ATOM     13  H   LIG d   1       3.815   2.656  -8.118  0.00  0.00     0.065 H 
ATOM     14  H   LIG d   1       2.230  -1.160  -7.016  0.00  0.00     0.069 H 
ENDROOT
BRANCH   1  15
ATOM     15  C   LIG d   1       2.614  -2.321 -13.146  0.00  0.00    -0.007 A 
ATOM     16  C   LIG d   1       1.444  -2.269 -13.901  0.00  0.00    -0.050 A 
ATOM     17  C   LIG d   1       1.432  -2.759 -15.192  0.00  0.00    -0.016 A 
ATOM     18  H   LIG d   1       0.547  -1.840 -13.478  0.00  0.00     0.062 H 
ATOM     19  C   LIG d   1       2.579  -3.314 -15.736  0.00  0.00     0.162 A 
ATOM     20  H   LIG d   1       0.524  -2.714 -15.776  0.00  0.00     0.066 H 
ATOM     21  C   LIG d   1       3.750  -3.374 -14.985  0.00  0.00     0.162 A 
ATOM     22  C   LIG d   1       3.769  -2.879 -13.693  0.00  0.00    -0.008 A 
ATOM     23  H   LIG d   1       4.677  -2.925 -13.110  0.00  0.00     0.066 H 
BRANCH  19  24
ATOM     24  O   LIG d   1       2.561  -3.800 -17.006  0.00  0.00    -0.491 OA
BRANCH  24  25
ATOM     25  C   LIG d   1       2.737  -2.856 -18.065  0.00  0.00     0.079 C 
ATOM     26  H   LIG d   1       1.813  -2.774 -18.636  0.00  0.00     0.066 H 
ATOM     27  H   LIG d   1       2.993  -1.883 -17.645  0.00  0.00     0.066 H 
ATOM     28  H   LIG d   1       3.541  -3.191 -18.720  0.00  0.00     0.066 H 
ENDBRANCH  24  25
ENDBRANCH  19  24
BRANCH  21  29
ATOM     29  O   LIG d   1       4.875  -3.918 -15.521  0.00  0.00    -0.491 OA
BRANCH  29  30
ATOM     30  C   LIG d   1       5.924  -3.018 -15.881  0.00  0.00     0.079 C 
ATOM     31  H   LIG d   1       6.351  -2.579 -14.980  0.00  0.00     0.066 H 
ATOM     32  H   LIG d   1       6.698  -3.562 -16.423  0.00  0.00     0.066 H 
ATOM     33  H   LIG d   1       5.525  -2.228 -16.517  0.00  0.00     0.066 H 
ENDBRANCH  29  30
ENDBRANCH  21  29
ENDBRANCH   1  15
BRANCH  11  34
ATOM     34  C   LIG d   1       1.709  -3.948 -11.005  0.00  0.00     0.451 C 
ATOM     35  F   LIG d   1       0.476  -3.884 -11.663  0.00  0.00    -0.163 F 
ATOM     36  F   LIG d   1       2.634  -4.616 -11.813  0.00  0.00    -0.163 F 
ATOM     37  F   LIG d   1       1.557  -4.642  -9.799  0.00  0.00    -0.163 F 
ENDBRANCH  11  34
BRANCH   7  38
ATOM     38  O   LIG d   1       2.995   1.171  -6.128  0.00  0.00    -0.487 OA
BRANCH  38  39
ATOM     39  C   LIG d   1       2.205   0.384  -5.235  0.00  0.00     0.117 C 
ATOM     40  H   LIG d   1       1.299   0.931  -4.972  0.00  0.00     0.075 H 
ATOM     41  H   LIG d   1       1.933  -0.554  -5.720  0.00  0.00     0.075 H 
BRANCH  39  42
ATOM     42  C   LIG d   1       2.996   0.093  -3.986  0.00  0.00     0.025 A 
ATOM     43  C   LIG d   1       3.431   1.134  -3.183  0.00  0.00     0.130 A 
ATOM     44  C   LIG d   1       4.159   0.866  -2.036  0.00  0.00    -0.026 A 
ATOM     45  F   LIG d   1       3.145   2.412  -3.520  0.00  0.00    -0.205 F 
ATOM     46  C   LIG d   1       4.450  -0.440  -1.695  0.00  0.00    -0.059 A 
ATOM     47  H   LIG d   1       4.498   1.677  -1.410  0.00  0.00     0.065 H 
ATOM     48  C   LIG d   1       4.015  -1.480  -2.497  0.00  0.00    -0.061 A 
ATOM     49  H   LIG d   1       5.018  -0.651  -0.799  0.00  0.00     0.062 H 
ATOM     50  C   LIG d   1       3.284  -1.213  -3.639  0.00  0.00    -0.053 A 
ATOM     51  H   LIG d   1       4.244  -2.501  -2.228  0.00  0.00     0.062 H 
ATOM     52  H   LIG d   1       2.941  -2.026  -4.262  0.00  0.00     0.062 H 
ENDBRANCH  39  42
ENDBRANCH  38  39
ENDBRANCH   7  38
TORSDOF 9
ENDMDL
MODEL 7
REMARK VINA RESULT:      -6.5      1.637      2.553
REMARK  9 active torsions:
REMARK  status: ('A' for Active; 'I' for Inactive)
REMARK    1  A    between atoms: C_1  and  O_2 
REMARK    2  A    between atoms: O_2  and  C_3 
REMARK    3  A    between atoms: C_6  and  C_11 
REMARK    4  A    between atoms: C_8  and  O_9 
REMARK    5  A    between atoms: O_9  and  C_10 
REMARK    6  A    between atoms: C_17  and  O_26 
REMARK    7  A    between atoms: C_21  and  C_22 
REMARK    8  A    between atoms: O_26  and  C_27 
REMARK    9  A    between atoms: C_27  and  C_28 
ROOT
ATOM      1  C   LIG d   1       9.862   5.166  -5.024  0.00  0.00     0.076 A 
ATOM      2  C   LIG d   1       9.464   4.252  -6.108  0.00  0.00     0.201 A 
ATOM      3  O   LIG d   1       9.577   4.565  -7.281  0.00  0.00    -0.286 OA
ATOM      4  C   LIG d   1       8.923   2.941  -5.707  0.00  0.00     0.065 A 
ATOM      5  C   LIG d   1       8.516   2.004  -6.657  0.00  0.00    -0.044 A 
ATOM      6  C   LIG d   1       8.024   0.796  -6.251  0.00  0.00    -0.019 A 
ATOM      7  C   LIG d   1       7.916   0.501  -4.893  0.00  0.00     0.124 A 
ATOM      8  C   LIG d   1       8.315   1.421  -3.938  0.00  0.00     0.023 A 
ATOM      9  C   LIG d   1       8.822   2.652  -4.335  0.00  0.00     0.143 A 
ATOM     10  O   LIG d   1       9.215   3.558  -3.418  0.00  0.00    -0.450 OA
ATOM     11  C   LIG d   1       9.711   4.757  -3.738  0.00  0.00     0.219 A 
ATOM     12  H   LIG d   1       8.595   2.230  -7.710  0.00  0.00     0.063 H 
ATOM     13  H   LIG d   1       7.715   0.068  -6.985  0.00  0.00     0.065 H 
ATOM     14  H   LIG d   1       8.231   1.182  -2.889  0.00  0.00     0.069 H 
ENDROOT
BRANCH   1  15
ATOM     15  C   LIG d   1      10.418   6.506  -5.330  0.00  0.00    -0.007 A 
ATOM     16  C   LIG d   1       9.576   7.616  -5.383  0.00  0.00    -0.050 A 
ATOM     17  C   LIG d   1      10.096   8.864  -5.664  0.00  0.00    -0.016 A 
ATOM     18  H   LIG d   1       8.518   7.500  -5.200  0.00  0.00     0.062 H 
ATOM     19  C   LIG d   1      11.452   9.014  -5.905  0.00  0.00     0.162 A 
ATOM     20  H   LIG d   1       9.442   9.722  -5.701  0.00  0.00     0.066 H 
ATOM     21  C   LIG d   1      12.297   7.908  -5.858  0.00  0.00     0.162 A 
ATOM     22  C   LIG d   1      11.782   6.656  -5.572  0.00  0.00    -0.008 A 
ATOM     23  H   LIG d   1      12.437   5.798  -5.535  0.00  0.00     0.066 H 
BRANCH  19  24
ATOM     24  O   LIG d   1      11.959  10.245  -6.185  0.00  0.00    -0.491 OA
BRANCH  24  25
ATOM     25  C   LIG d   1      11.162  11.104  -7.003  0.00  0.00     0.079 C 
ATOM     26  H   LIG d   1      11.691  11.315  -7.932  0.00  0.00     0.066 H 
ATOM     27  H   LIG d   1      10.214  10.615  -7.227  0.00  0.00     0.066 H 
ATOM     28  H   LIG d   1      10.974  12.037  -6.473  0.00  0.00     0.066 H 
ENDBRANCH  24  25
ENDBRANCH  19  24
BRANCH  21  29
ATOM     29  O   LIG d   1      13.627   8.058  -6.094  0.00  0.00    -0.491 OA
BRANCH  29  30
ATOM     30  C   LIG d   1      14.514   7.177  -5.401  0.00  0.00     0.079 C 
ATOM     31  H   LIG d   1      15.242   6.770  -6.101  0.00  0.00     0.066 H 
ATOM     32  H   LIG d   1      15.032   7.729  -4.616  0.00  0.00     0.066 H 
ATOM     33  H   LIG d   1      13.943   6.363  -4.955  0.00  0.00     0.066 H 
ENDBRANCH  29  30
ENDBRANCH  21  29
ENDBRANCH   1  15
BRANCH  11  34
ATOM     34  C   LIG d   1      10.118   5.691  -2.628  0.00  0.00     0.451 C 
ATOM     35  F   LIG d   1      11.389   6.209  -2.898  0.00  0.00    -0.163 F 
ATOM     36  F   LIG d   1       9.197   6.739  -2.538  0.00  0.00    -0.163 F 
ATOM     37  F   LIG d   1      10.148   4.991  -1.416  0.00  0.00    -0.163 F 
ENDBRANCH  11  34
BRANCH   7  38
ATOM     38  O   LIG d   1       7.420  -0.700  -4.503  0.00  0.00    -0.487 OA
BRANCH  38  39
ATOM     39  C   LIG d   1       7.064  -0.839  -3.126  0.00  0.00     0.117 C 
ATOM     40  H   LIG d   1       7.334  -1.836  -2.779  0.00  0.00     0.075 H 
ATOM     41  H   LIG d   1       7.598  -0.093  -2.536  0.00  0.00     0.075 H 
BRANCH  39  42
ATOM     42  C   LIG d   1       5.579  -0.636  -2.968  0.00  0.00     0.025 A 
ATOM     43  C   LIG d   1       4.703  -1.662  -3.277  0.00  0.00     0.130 A 
ATOM     44  C   LIG d   1       3.339  -1.474  -3.131  0.00  0.00    -0.026 A 
ATOM     45  F   LIG d   1       5.179  -2.846  -3.721  0.00  0.00    -0.205 F 
ATOM     46  C   LIG d   1       2.855  -0.263  -2.678  0.00  0.00    -0.059 A 
ATOM     47  H   LIG d   1       2.655  -2.274  -3.372  0.00  0.00     0.065 H 
ATOM     48  C   LIG d   1       3.730   0.762  -2.368  0.00  0.00    -0.061 A 
ATOM     49  H   LIG d   1       1.790  -0.115  -2.563  0.00  0.00     0.062 H 
ATOM     50  C   LIG d   1       5.092   0.573  -2.509  0.00  0.00    -0.053 A 
ATOM     51  H   LIG d   1       3.350   1.708  -2.014  0.00  0.00     0.062 H 
ATOM     52  H   LIG d   1       5.776   1.373  -2.263  0.00  0.00     0.062 H 
ENDBRANCH  39  42
ENDBRANCH  38  39
ENDBRANCH   7  38
TORSDOF 9
ENDMDL
MODEL 8
REMARK VINA RESULT:      -6.4      8.093     11.849
REMARK  9 active torsions:
REMARK  status: ('A' for Active; 'I' for Inactive)
REMARK    1  A    between atoms: C_1  and  O_2 
REMARK    2  A    between atoms: O_2  and  C_3 
REMARK    3  A    between atoms: C_6  and  C_11 
REMARK    4  A    between atoms: C_8  and  O_9 
REMARK    5  A    between atoms: O_9  and  C_10 
REMARK    6  A    between atoms: C_17  and  O_26 
REMARK    7  A    between atoms: C_21  and  C_22 
REMARK    8  A    between atoms: O_26  and  C_27 
REMARK    9  A    between atoms: C_27  and  C_28 
ROOT
ATOM      1  C   LIG d   1       4.044  -1.742 -10.460  0.00  0.00     0.076 A 
ATOM      2  C   LIG d   1       4.887  -2.841  -9.958  0.00  0.00     0.201 A 
ATOM      3  O   LIG d   1       5.453  -3.610 -10.717  0.00  0.00    -0.286 OA
ATOM      4  C   LIG d   1       5.013  -2.967  -8.495  0.00  0.00     0.065 A 
ATOM      5  C   LIG d   1       5.786  -3.974  -7.919  0.00  0.00    -0.044 A 
ATOM      6  C   LIG d   1       5.886  -4.059  -6.560  0.00  0.00    -0.019 A 
ATOM      7  C   LIG d   1       5.209  -3.151  -5.746  0.00  0.00     0.124 A 
ATOM      8  C   LIG d   1       4.437  -2.146  -6.304  0.00  0.00     0.023 A 
ATOM      9  C   LIG d   1       4.330  -2.043  -7.685  0.00  0.00     0.143 A 
ATOM     10  O   LIG d   1       3.582  -1.070  -8.243  0.00  0.00    -0.450 OA
ATOM     11  C   LIG d   1       3.441  -0.920  -9.563  0.00  0.00     0.219 A 
ATOM     12  H   LIG d   1       6.309  -4.682  -8.545  0.00  0.00     0.063 H 
ATOM     13  H   LIG d   1       6.490  -4.834  -6.112  0.00  0.00     0.065 H 
ATOM     14  H   LIG d   1       3.920  -1.444  -5.666  0.00  0.00     0.069 H 
ENDROOT
BRANCH   1  15
ATOM     15  C   LIG d   1       3.859  -1.536 -11.917  0.00  0.00    -0.007 A 
ATOM     16  C   LIG d   1       4.765  -0.756 -12.633  0.00  0.00    -0.050 A 
ATOM     17  C   LIG d   1       4.594  -0.569 -13.990  0.00  0.00    -0.016 A 
ATOM     18  H   LIG d   1       5.605  -0.302 -12.127  0.00  0.00     0.062 H 
ATOM     19  C   LIG d   1       3.516  -1.147 -14.641  0.00  0.00     0.162 A 
ATOM     20  H   LIG d   1       5.300   0.033 -14.543  0.00  0.00     0.066 H 
ATOM     21  C   LIG d   1       2.604  -1.922 -13.931  0.00  0.00     0.162 A 
ATOM     22  C   LIG d   1       2.774  -2.117 -12.571  0.00  0.00    -0.008 A 
ATOM     23  H   LIG d   1       2.067  -2.719 -12.019  0.00  0.00     0.066 H 
BRANCH  19  24
ATOM     24  O   LIG d   1       3.349  -0.956 -15.978  0.00  0.00    -0.491 OA
BRANCH  24  25
ATOM     25  C   LIG d   1       4.221  -1.677 -16.850  0.00  0.00     0.079 C 
ATOM     26  H   LIG d   1       4.851  -2.345 -16.264  0.00  0.00     0.066 H 
ATOM     27  H   LIG d   1       3.628  -2.261 -17.554  0.00  0.00     0.066 H 
ATOM     28  H   LIG d   1       4.848  -0.975 -17.399  0.00  0.00     0.066 H 
ENDBRANCH  24  25
ENDBRANCH  19  24
BRANCH  21  29
ATOM     29  O   LIG d   1       1.547  -2.488 -14.572  0.00  0.00    -0.491 OA
BRANCH  29  30
ATOM     30  C   LIG d   1       0.542  -3.095 -13.757  0.00  0.00     0.079 C 
ATOM     31  H   LIG d   1      -0.344  -2.461 -13.740  0.00  0.00     0.066 H 
ATOM     32  H   LIG d   1       0.283  -4.071 -14.167  0.00  0.00     0.066 H 
ATOM     33  H   LIG d   1       0.921  -3.218 -12.742  0.00  0.00     0.066 H 
ENDBRANCH  29  30
ENDBRANCH  21  29
ENDBRANCH   1  15
BRANCH  11  34
ATOM     34  C   LIG d   1       2.580   0.205 -10.076  0.00  0.00     0.451 C 
ATOM     35  F   LIG d   1       2.183   1.014  -9.005  0.00  0.00    -0.163 F 
ATOM     36  F   LIG d   1       3.308   0.970 -10.993  0.00  0.00    -0.163 F 
ATOM     37  F   LIG d   1       1.447  -0.324 -10.705  0.00  0.00    -0.163 F 
ENDBRANCH  11  34
BRANCH   7  38
ATOM     38  O   LIG d   1       5.313  -3.250  -4.397  0.00  0.00    -0.487 OA
BRANCH  38  39
ATOM     39  C   LIG d   1       6.344  -2.486  -3.768  0.00  0.00     0.117 C 
ATOM     40  H   LIG d   1       6.798  -3.075  -2.971  0.00  0.00     0.075 H 
ATOM     41  H   LIG d   1       7.105  -2.227  -4.505  0.00  0.00     0.075 H 
BRANCH  39  42
ATOM     42  C   LIG d   1       5.755  -1.225  -3.190  0.00  0.00     0.025 A 
ATOM     43  C   LIG d   1       4.626  -1.291  -2.391  0.00  0.00     0.130 A 
ATOM     44  C   LIG d   1       4.087  -0.132  -1.861  0.00  0.00    -0.026 A 
ATOM     45  F   LIG d   1       4.052  -2.486  -2.130  0.00  0.00    -0.205 F 
ATOM     46  C   LIG d   1       4.675   1.089  -2.130  0.00  0.00    -0.059 A 
ATOM     47  H   LIG d   1       3.206  -0.182  -1.238  0.00  0.00     0.065 H 
ATOM     48  C   LIG d   1       5.803   1.154  -2.927  0.00  0.00    -0.061 A 
ATOM     49  H   LIG d   1       4.254   1.994  -1.715  0.00  0.00     0.062 H 
ATOM     50  C   LIG d   1       6.346  -0.003  -3.453  0.00  0.00    -0.053 A 
ATOM     51  H   LIG d   1       6.261   2.109  -3.136  0.00  0.00     0.062 H 
ATOM     52  H   LIG d   1       7.229   0.047  -4.072  0.00  0.00     0.062 H 
ENDBRANCH  39  42
ENDBRANCH  38  39
ENDBRANCH   7  38
TORSDOF 9
ENDMDL
MODEL 9
REMARK VINA RESULT:      -6.3      3.229      4.317
REMARK  9 active torsions:
REMARK  status: ('A' for Active; 'I' for Inactive)
REMARK    1  A    between atoms: C_1  and  O_2 
REMARK    2  A    between atoms: O_2  and  C_3 
REMARK    3  A    between atoms: C_6  and  C_11 
REMARK    4  A    between atoms: C_8  and  O_9 
REMARK    5  A    between atoms: O_9  and  C_10 
REMARK    6  A    between atoms: C_17  and  O_26 
REMARK    7  A    between atoms: C_21  and  C_22 
REMARK    8  A    between atoms: O_26  and  C_27 
REMARK    9  A    between atoms: C_27  and  C_28 
ROOT
ATOM      1  C   LIG d   1       9.543   4.177  -7.790  0.00  0.00     0.076 A 
ATOM      2  C   LIG d   1       8.543   3.241  -8.330  0.00  0.00     0.201 A 
ATOM      3  O   LIG d   1       8.055   3.396  -9.437  0.00  0.00    -0.286 OA
ATOM      4  C   LIG d   1       8.159   2.109  -7.468  0.00  0.00     0.065 A 
ATOM      5  C   LIG d   1       7.219   1.167  -7.886  0.00  0.00    -0.044 A 
ATOM      6  C   LIG d   1       6.891   0.126  -7.064  0.00  0.00    -0.019 A 
ATOM      7  C   LIG d   1       7.481   0.009  -5.807  0.00  0.00     0.124 A 
ATOM      8  C   LIG d   1       8.416   0.937  -5.378  0.00  0.00     0.023 A 
ATOM      9  C   LIG d   1       8.765   1.997  -6.204  0.00  0.00     0.143 A 
ATOM     10  O   LIG d   1       9.672   2.909  -5.801  0.00  0.00    -0.450 OA
ATOM     11  C   LIG d   1      10.048   3.949  -6.550  0.00  0.00     0.219 A 
ATOM     12  H   LIG d   1       6.757   1.255  -8.858  0.00  0.00     0.063 H 
ATOM     13  H   LIG d   1       6.169  -0.608  -7.388  0.00  0.00     0.065 H 
ATOM     14  H   LIG d   1       8.871   0.836  -4.404  0.00  0.00     0.069 H 
ENDROOT
BRANCH   1  15
ATOM     15  C   LIG d   1       9.992   5.346  -8.585  0.00  0.00    -0.007 A 
ATOM     16  C   LIG d   1      10.954   5.186  -9.581  0.00  0.00    -0.050 A 
ATOM     17  C   LIG d   1      11.367   6.274 -10.324  0.00  0.00    -0.016 A 
ATOM     18  H   LIG d   1      11.372   4.209  -9.775  0.00  0.00     0.062 H 
ATOM     19  C   LIG d   1      10.834   7.529 -10.074  0.00  0.00     0.162 A 
ATOM     20  H   LIG d   1      12.109   6.146 -11.097  0.00  0.00     0.066 H 
ATOM     21  C   LIG d   1       9.877   7.696  -9.078  0.00  0.00     0.162 A 
ATOM     22  C   LIG d   1       9.456   6.608  -8.334  0.00  0.00    -0.008 A 
ATOM     23  H   LIG d   1       8.713   6.737  -7.560  0.00  0.00     0.066 H 
BRANCH  19  24
ATOM     24  O   LIG d   1      11.248   8.598 -10.806  0.00  0.00    -0.491 OA
BRANCH  24  25
ATOM     25  C   LIG d   1      11.846   8.325 -12.074  0.00  0.00     0.079 C 
ATOM     26  H   LIG d   1      11.202   7.657 -12.645  0.00  0.00     0.066 H 
ATOM     27  H   LIG d   1      11.979   9.258 -12.622  0.00  0.00     0.066 H 
ATOM     28  H   LIG d   1      12.817   7.852 -11.923  0.00  0.00     0.066 H 
ENDBRANCH  24  25
ENDBRANCH  19  24
BRANCH  21  29
ATOM     29  O   LIG d   1       9.356   8.928  -8.835  0.00  0.00    -0.491 OA
BRANCH  29  30
ATOM     30  C   LIG d   1       9.698   9.544  -7.592  0.00  0.00     0.079 C 
ATOM     31  H   LIG d   1       9.348   8.921  -6.769  0.00  0.00     0.066 H 
ATOM     32  H   LIG d   1      10.781   9.656  -7.528  0.00  0.00     0.066 H 
ATOM     33  H   LIG d   1       9.229  10.526  -7.530  0.00  0.00     0.066 H 
ENDBRANCH  29  30
ENDBRANCH  21  29
ENDBRANCH   1  15
BRANCH  11  34
ATOM     34  C   LIG d   1      11.072   4.907  -5.998  0.00  0.00     0.451 C 
ATOM     35  F   LIG d   1      10.475   6.152  -5.776  0.00  0.00    -0.163 F 
ATOM     36  F   LIG d   1      11.573   4.409  -4.791  0.00  0.00    -0.163 F 
ATOM     37  F   LIG d   1      12.120   5.049  -6.914  0.00  0.00    -0.163 F 
ENDBRANCH  11  34
BRANCH   7  38
ATOM     38  O   LIG d   1       7.143  -1.026  -4.998  0.00  0.00    -0.487 OA
BRANCH  38  39
ATOM     39  C   LIG d   1       7.141  -0.777  -3.591  0.00  0.00     0.117 C 
ATOM     40  H   LIG d   1       7.496  -1.661  -3.064  0.00  0.00     0.075 H 
ATOM     41  H   LIG d   1       7.798   0.065  -3.370  0.00  0.00     0.075 H 
BRANCH  39  42
ATOM     42  C   LIG d   1       5.740  -0.451  -3.140  0.00  0.00     0.025 A 
ATOM     43  C   LIG d   1       4.777  -1.445  -3.100  0.00  0.00     0.130 A 
ATOM     44  C   LIG d   1       3.491  -1.145  -2.685  0.00  0.00    -0.026 A 
ATOM     45  F   LIG d   1       5.093  -2.707  -3.464  0.00  0.00    -0.205 F 
ATOM     46  C   LIG d   1       3.170   0.146  -2.313  0.00  0.00    -0.059 A 
ATOM     47  H   LIG d   1       2.739  -1.919  -2.653  0.00  0.00     0.065 H 
ATOM     48  C   LIG d   1       4.132   1.139  -2.353  0.00  0.00    -0.061 A 
ATOM     49  H   LIG d   1       2.166   0.381  -1.989  0.00  0.00     0.062 H 
ATOM     50  C   LIG d   1       5.418   0.838  -2.761  0.00  0.00    -0.053 A 
ATOM     51  H   LIG d   1       3.880   2.147  -2.061  0.00  0.00     0.062 H 
ATOM     52  H   LIG d   1       6.170   1.613  -2.788  0.00  0.00     0.062 H 
ENDBRANCH  39  42
ENDBRANCH  38  39
ENDBRANCH   7  38
TORSDOF 9
ENDMDL
