MODEL 1
REMARK VINA RESULT:      -6.9      0.000      0.000
REMARK  6 active torsions:
REMARK  status: ('A' for Active; 'I' for Inactive)
REMARK    1  A    between atoms: C_1  and  O_2 
REMARK    2  A    between atoms: O_2  and  C_3 
REMARK    3  A    between atoms: C_7  and  O_9 
REMARK    4  A    between atoms: O_9  and  C_10 
REMARK    5  A    between atoms: C_15  and  O_21 
REMARK    6  A    between atoms: O_21  and  C_22 
REMARK       I    between atoms: C_22  and  N_24 
ROOT
ATOM      1  C   LIG d   1       5.329  -3.982  -5.461  0.00  0.00     0.210 A 
ATOM      2  C   LIG d   1       6.653  -3.997  -5.207  0.00  0.00     0.138 A 
ATOM      3  O   LIG d   1       7.367  -5.130  -5.154  0.00  0.00    -0.459 OA
ATOM      4  C   LIG d   1       6.813  -6.343  -5.350  0.00  0.00     0.142 A 
ATOM      5  C   LIG d   1       7.582  -7.497  -5.287  0.00  0.00     0.024 A 
ATOM      6  C   LIG d   1       6.988  -8.730  -5.491  0.00  0.00     0.137 A 
ATOM      7  C   LIG d   1       5.623  -8.824  -5.760  0.00  0.00    -0.018 A 
ATOM      8  C   LIG d   1       4.854  -7.698  -5.827  0.00  0.00    -0.044 A 
ATOM      9  C   LIG d   1       5.439  -6.447  -5.622  0.00  0.00     0.068 A 
ATOM     10  C   LIG d   1       4.641  -5.209  -5.678  0.00  0.00     0.234 A 
ATOM     11  O   LIG d   1       3.443  -5.235  -5.904  0.00  0.00    -0.283 OA
ATOM     12  H   LIG d   1       7.159  -3.058  -5.042  0.00  0.00     0.107 H 
ATOM     13  H   LIG d   1       8.641  -7.433  -5.079  0.00  0.00     0.069 H 
ATOM     14  H   LIG d   1       5.173  -9.793  -5.919  0.00  0.00     0.065 H 
ATOM     15  H   LIG d   1       3.797  -7.775  -6.036  0.00  0.00     0.063 H 
ENDROOT
BRANCH   6  16
ATOM     16  O   LIG d   1       7.741  -9.860  -5.430  0.00  0.00    -0.411 OA
BRANCH  16  17
ATOM     17  C   LIG d   1       7.280 -10.887  -4.691  0.00  0.00     0.408 C 
ATOM     18  O   LIG d   1       6.632 -11.770  -5.215  0.00  0.00    -0.226 OA
ATOM     19  N   LIG d   1       7.539 -10.934  -3.368  0.00  0.00    -0.263 N 
ATOM     20  C   LIG d   1       7.047 -12.046  -2.540  0.00  0.00     0.041 C 
ATOM     21  C   LIG d   1       8.317  -9.873  -2.711  0.00  0.00     0.041 C 
ATOM     22  C   LIG d   1       6.334 -11.465  -1.318  0.00  0.00     0.064 C 
ATOM     23  H   LIG d   1       6.348 -12.652  -3.116  0.00  0.00     0.049 H 
ATOM     24  H   LIG d   1       7.885 -12.661  -2.214  0.00  0.00     0.049 H 
ATOM     25  O   LIG d   1       7.195 -10.524  -0.672  0.00  0.00    -0.377 OA
ATOM     26  H   LIG d   1       6.086 -12.268  -0.624  0.00  0.00     0.058 H 
ATOM     27  H   LIG d   1       5.421 -10.964  -1.637  0.00  0.00     0.058 H 
ATOM     28  C   LIG d   1       7.538  -9.395  -1.479  0.00  0.00     0.064 C 
ATOM     29  H   LIG d   1       8.157  -8.708  -0.901  0.00  0.00     0.058 H 
ATOM     30  H   LIG d   1       6.629  -8.886  -1.799  0.00  0.00     0.058 H 
ATOM     31  H   LIG d   1       9.286 -10.266  -2.402  0.00  0.00     0.049 H 
ATOM     32  H   LIG d   1       8.460  -9.041  -3.400  0.00  0.00     0.049 H 
ENDBRANCH  16  17
ENDBRANCH   6  16
BRANCH   1  33
ATOM     33  O   LIG d   1       4.654  -2.801  -5.503  0.00  0.00    -0.449 OA
BRANCH  33  34
ATOM     34  C   LIG d   1       4.671  -2.017  -4.392  0.00  0.00     0.132 A 
ATOM     35  C   LIG d   1       4.115  -2.478  -3.208  0.00  0.00    -0.019 A 
ATOM     36  C   LIG d   1       4.133  -1.682  -2.079  0.00  0.00    -0.055 A 
ATOM     37  H   LIG d   1       3.668  -3.461  -3.169  0.00  0.00     0.065 H 
ATOM     38  C   LIG d   1       4.705  -0.425  -2.126  0.00  0.00    -0.020 A 
ATOM     39  H   LIG d   1       3.700  -2.043  -1.158  0.00  0.00     0.062 H 
ATOM     40  C   LIG d   1       5.262   0.040  -3.309  0.00  0.00     0.124 A 
ATOM     41  H   LIG d   1       4.718   0.195  -1.242  0.00  0.00     0.065 H 
ATOM     42  C   LIG d   1       5.241  -0.753  -4.444  0.00  0.00     0.022 A 
ATOM     43  H   LIG d   1       5.671  -0.391  -5.366  0.00  0.00     0.069 H 
BRANCH  40  44
ATOM     44  O   LIG d   1       5.824   1.277  -3.354  0.00  0.00    -0.495 OA
BRANCH  44  45
ATOM     45  C   LIG d   1       7.196   1.354  -3.743  0.00  0.00     0.079 C 
ATOM     46  H   LIG d   1       7.821   0.923  -2.961  0.00  0.00     0.066 H 
ATOM     47  H   LIG d   1       7.342   0.799  -4.671  0.00  0.00     0.066 H 
ATOM     48  H   LIG d   1       7.473   2.397  -3.896  0.00  0.00     0.066 H 
ENDBRANCH  44  45
ENDBRANCH  40  44
ENDBRANCH  33  34
ENDBRANCH   1  33
TORSDOF 6
ENDMDL
MODEL 2
REMARK VINA RESULT:      -6.7      7.066     11.637
REMARK  6 active torsions:
REMARK  status: ('A' for Active; 'I' for Inactive)
REMARK    1  A    between atoms: C_1  and  O_2 
REMARK    2  A    between atoms: O_2  and  C_3 
REMARK    3  A    between atoms: C_7  and  O_9 
REMARK    4  A    between atoms: O_9  and  C_10 
REMARK    5  A    between atoms: C_15  and  O_21 
REMARK    6  A    between atoms: O_21  and  C_22 
REMARK       I    between atoms: C_22  and  N_24 
ROOT
ATOM      1  C   LIG d   1       7.400   0.206  -4.554  0.00  0.00     0.210 A 
ATOM      2  C   LIG d   1       7.511   1.008  -3.476  0.00  0.00     0.138 A 
ATOM      3  O   LIG d   1       8.094   2.213  -3.527  0.00  0.00    -0.459 OA
ATOM      4  C   LIG d   1       8.616   2.716  -4.663  0.00  0.00     0.142 A 
ATOM      5  C   LIG d   1       9.214   3.968  -4.682  0.00  0.00     0.024 A 
ATOM      6  C   LIG d   1       9.744   4.460  -5.862  0.00  0.00     0.137 A 
ATOM      7  C   LIG d   1       9.681   3.709  -7.034  0.00  0.00    -0.018 A 
ATOM      8  C   LIG d   1       9.095   2.475  -7.034  0.00  0.00    -0.044 A 
ATOM      9  C   LIG d   1       8.558   1.965  -5.850  0.00  0.00     0.068 A 
ATOM     10  C   LIG d   1       7.923   0.636  -5.806  0.00  0.00     0.234 A 
ATOM     11  O   LIG d   1       7.847  -0.065  -6.802  0.00  0.00    -0.283 OA
ATOM     12  H   LIG d   1       7.112   0.666  -2.533  0.00  0.00     0.107 H 
ATOM     13  H   LIG d   1       9.267   4.558  -3.777  0.00  0.00     0.069 H 
ATOM     14  H   LIG d   1      10.097   4.105  -7.949  0.00  0.00     0.065 H 
ATOM     15  H   LIG d   1       9.048   1.896  -7.944  0.00  0.00     0.063 H 
ENDROOT
BRANCH   6  16
ATOM     16  O   LIG d   1      10.329   5.686  -5.879  0.00  0.00    -0.411 OA
BRANCH  16  17
ATOM     17  C   LIG d   1      11.400   5.886  -5.087  0.00  0.00     0.408 C 
ATOM     18  O   LIG d   1      12.446   5.318  -5.325  0.00  0.00    -0.226 OA
ATOM     19  N   LIG d   1      11.309   6.717  -4.030  0.00  0.00    -0.263 N 
ATOM     20  C   LIG d   1      12.465   6.953  -3.150  0.00  0.00     0.041 C 
ATOM     21  C   LIG d   1      10.050   7.412  -3.718  0.00  0.00     0.041 C 
ATOM     22  C   LIG d   1      12.024   6.749  -1.700  0.00  0.00     0.064 C 
ATOM     23  H   LIG d   1      13.260   6.247  -3.392  0.00  0.00     0.049 H 
ATOM     24  H   LIG d   1      12.825   7.972  -3.281  0.00  0.00     0.049 H 
ATOM     25  O   LIG d   1      10.860   7.540  -1.446  0.00  0.00    -0.377 OA
ATOM     26  H   LIG d   1      12.825   7.054  -1.028  0.00  0.00     0.058 H 
ATOM     27  H   LIG d   1      11.791   5.697  -1.537  0.00  0.00     0.058 H 
ATOM     28  C   LIG d   1       9.724   7.183  -2.238  0.00  0.00     0.064 C 
ATOM     29  H   LIG d   1       8.872   7.800  -1.952  0.00  0.00     0.058 H 
ATOM     30  H   LIG d   1       9.484   6.131  -2.077  0.00  0.00     0.058 H 
ATOM     31  H   LIG d   1      10.164   8.480  -3.908  0.00  0.00     0.049 H 
ATOM     32  H   LIG d   1       9.247   7.012  -4.337  0.00  0.00     0.049 H 
ENDBRANCH  16  17
ENDBRANCH   6  16
BRANCH   1  33
ATOM     33  O   LIG d   1       6.798  -1.010  -4.444  0.00  0.00    -0.449 OA
BRANCH  33  34
ATOM     34  C   LIG d   1       5.524  -1.050  -3.972  0.00  0.00     0.132 A 
ATOM     35  C   LIG d   1       5.233  -1.758  -2.815  0.00  0.00    -0.019 A 
ATOM     36  C   LIG d   1       3.938  -1.798  -2.334  0.00  0.00    -0.055 A 
ATOM     37  H   LIG d   1       6.021  -2.277  -2.289  0.00  0.00     0.065 H 
ATOM     38  C   LIG d   1       2.929  -1.134  -3.005  0.00  0.00    -0.020 A 
ATOM     39  H   LIG d   1       3.715  -2.349  -1.433  0.00  0.00     0.062 H 
ATOM     40  C   LIG d   1       3.215  -0.425  -4.163  0.00  0.00     0.124 A 
ATOM     41  H   LIG d   1       1.918  -1.167  -2.628  0.00  0.00     0.065 H 
ATOM     42  C   LIG d   1       4.512  -0.386  -4.650  0.00  0.00     0.022 A 
ATOM     43  H   LIG d   1       4.734   0.162  -5.554  0.00  0.00     0.069 H 
BRANCH  40  44
ATOM     44  O   LIG d   1       2.221   0.228  -4.822  0.00  0.00    -0.495 OA
BRANCH  44  45
ATOM     45  C   LIG d   1       2.434   0.507  -6.207  0.00  0.00     0.079 C 
ATOM     46  H   LIG d   1       1.914   1.425  -6.477  0.00  0.00     0.066 H 
ATOM     47  H   LIG d   1       3.502   0.626  -6.393  0.00  0.00     0.066 H 
ATOM     48  H   LIG d   1       2.050  -0.318  -6.807  0.00  0.00     0.066 H 
ENDBRANCH  44  45
ENDBRANCH  40  44
ENDBRANCH  33  34
ENDBRANCH   1  33
TORSDOF 6
ENDMDL
MODEL 3
REMARK VINA RESULT:      -6.6      4.890      8.764
REMARK  6 active torsions:
REMARK  status: ('A' for Active; 'I' for Inactive)
REMARK    1  A    between atoms: C_1  and  O_2 
REMARK    2  A    between atoms: O_2  and  C_3 
REMARK    3  A    between atoms: C_7  and  O_9 
REMARK    4  A    between atoms: O_9  and  C_10 
REMARK    5  A    between atoms: C_15  and  O_21 
REMARK    6  A    between atoms: O_21  and  C_22 
REMARK       I    between atoms: C_22  and  N_24 
ROOT
ATOM      1  C   LIG d   1       2.836  -4.712  -9.707  0.00  0.00     0.210 A 
ATOM      2  C   LIG d   1       2.996  -3.377  -9.618  0.00  0.00     0.138 A 
ATOM      3  O   LIG d   1       3.582  -2.786  -8.568  0.00  0.00    -0.459 OA
ATOM      4  C   LIG d   1       4.056  -3.484  -7.518  0.00  0.00     0.142 A 
ATOM      5  C   LIG d   1       4.658  -2.841  -6.445  0.00  0.00     0.024 A 
ATOM      6  C   LIG d   1       5.136  -3.583  -5.379  0.00  0.00     0.137 A 
ATOM      7  C   LIG d   1       5.018  -4.971  -5.372  0.00  0.00    -0.018 A 
ATOM      8  C   LIG d   1       4.430  -5.620  -6.420  0.00  0.00    -0.044 A 
ATOM      9  C   LIG d   1       3.943  -4.885  -7.502  0.00  0.00     0.068 A 
ATOM     10  C   LIG d   1       3.295  -5.546  -8.649  0.00  0.00     0.234 A 
ATOM     11  O   LIG d   1       3.162  -6.759  -8.691  0.00  0.00    -0.283 OA
ATOM     12  H   LIG d   1       2.639  -2.758 -10.428  0.00  0.00     0.107 H 
ATOM     13  H   LIG d   1       4.753  -1.764  -6.442  0.00  0.00     0.069 H 
ATOM     14  H   LIG d   1       5.397  -5.538  -4.534  0.00  0.00     0.065 H 
ATOM     15  H   LIG d   1       4.342  -6.696  -6.412  0.00  0.00     0.063 H 
ENDROOT
BRANCH   6  16
ATOM     16  O   LIG d   1       5.725  -2.952  -4.329  0.00  0.00    -0.411 OA
BRANCH  16  17
ATOM     17  C   LIG d   1       4.927  -2.361  -3.419  0.00  0.00     0.408 C 
ATOM     18  O   LIG d   1       3.857  -2.860  -3.134  0.00  0.00    -0.226 OA
ATOM     19  N   LIG d   1       5.317  -1.216  -2.825  0.00  0.00    -0.263 N 
ATOM     20  C   LIG d   1       4.463  -0.552  -1.826  0.00  0.00     0.041 C 
ATOM     21  C   LIG d   1       6.606  -0.590  -3.158  0.00  0.00     0.041 C 
ATOM     22  C   LIG d   1       4.320   0.921  -2.210  0.00  0.00     0.064 C 
ATOM     23  H   LIG d   1       3.480  -1.023  -1.813  0.00  0.00     0.049 H 
ATOM     24  H   LIG d   1       4.922  -0.629  -0.841  0.00  0.00     0.049 H 
ATOM     25  O   LIG d   1       5.618   1.485  -2.411  0.00  0.00    -0.377 OA
ATOM     26  H   LIG d   1       3.810   1.459  -1.411  0.00  0.00     0.058 H 
ATOM     27  H   LIG d   1       3.742   1.001  -3.130  0.00  0.00     0.058 H 
ATOM     28  C   LIG d   1       6.356   0.888  -3.481  0.00  0.00     0.064 C 
ATOM     29  H   LIG d   1       7.311   1.402  -3.596  0.00  0.00     0.058 H 
ATOM     30  H   LIG d   1       5.785   0.967  -4.406  0.00  0.00     0.058 H 
ATOM     31  H   LIG d   1       7.284  -0.671  -2.308  0.00  0.00     0.049 H 
ATOM     32  H   LIG d   1       7.042  -1.086  -4.025  0.00  0.00     0.049 H 
ENDBRANCH  16  17
ENDBRANCH   6  16
BRANCH   1  33
ATOM     33  O   LIG d   1       2.231  -5.258 -10.798  0.00  0.00    -0.449 OA
BRANCH  33  34
ATOM     34  C   LIG d   1       0.892  -5.078 -10.942  0.00  0.00     0.132 A 
ATOM     35  C   LIG d   1       0.393  -4.460 -12.080  0.00  0.00    -0.019 A 
ATOM     36  C   LIG d   1      -0.969  -4.277 -12.227  0.00  0.00    -0.055 A 
ATOM     37  H   LIG d   1       1.070  -4.124 -12.852  0.00  0.00     0.065 H 
ATOM     38  C   LIG d   1      -1.836  -4.707 -11.242  0.00  0.00    -0.020 A 
ATOM     39  H   LIG d   1      -1.355  -3.797 -13.114  0.00  0.00     0.062 H 
ATOM     40  C   LIG d   1      -1.342  -5.324 -10.102  0.00  0.00     0.124 A 
ATOM     41  H   LIG d   1      -2.900  -4.562 -11.359  0.00  0.00     0.065 H 
ATOM     42  C   LIG d   1       0.024  -5.505  -9.949  0.00  0.00     0.022 A 
ATOM     43  H   LIG d   1       0.410  -5.982  -9.060  0.00  0.00     0.069 H 
BRANCH  40  44
ATOM     44  O   LIG d   1      -2.197  -5.747  -9.133  0.00  0.00    -0.495 OA
BRANCH  44  45
ATOM     45  C   LIG d   1      -3.191  -6.699  -9.514  0.00  0.00     0.079 C 
ATOM     46  H   LIG d   1      -4.132  -6.459  -9.020  0.00  0.00     0.066 H 
ATOM     47  H   LIG d   1      -3.329  -6.667 -10.595  0.00  0.00     0.066 H 
ATOM     48  H   LIG d   1      -2.870  -7.697  -9.218  0.00  0.00     0.066 H 
ENDBRANCH  44  45
ENDBRANCH  40  44
ENDBRANCH  33  34
ENDBRANCH   1  33
TORSDOF 6
ENDMDL
MODEL 4
REMARK VINA RESULT:      -6.6      6.374      9.208
REMARK  6 active torsions:
REMARK  status: ('A' for Active; 'I' for Inactive)
REMARK    1  A    between atoms: C_1  and  O_2 
REMARK    2  A    between atoms: O_2  and  C_3 
REMARK    3  A    between atoms: C_7  and  O_9 
REMARK    4  A    between atoms: O_9  and  C_10 
REMARK    5  A    between atoms: C_15  and  O_21 
REMARK    6  A    between atoms: O_21  and  C_22 
REMARK       I    between atoms: C_22  and  N_24 
ROOT
ATOM      1  C   LIG d   1       3.623  -0.611  -7.601  0.00  0.00     0.210 A 
ATOM      2  C   LIG d   1       3.878  -1.935  -7.637  0.00  0.00     0.138 A 
ATOM      3  O   LIG d   1       3.361  -2.747  -8.569  0.00  0.00    -0.459 OA
ATOM      4  C   LIG d   1       2.545  -2.300  -9.544  0.00  0.00     0.142 A 
ATOM      5  C   LIG d   1       2.026  -3.168 -10.495  0.00  0.00     0.024 A 
ATOM      6  C   LIG d   1       1.190  -2.683 -11.485  0.00  0.00     0.137 A 
ATOM      7  C   LIG d   1       0.864  -1.329 -11.537  0.00  0.00    -0.018 A 
ATOM      8  C   LIG d   1       1.367  -0.462 -10.610  0.00  0.00    -0.044 A 
ATOM      9  C   LIG d   1       2.210  -0.936  -9.605  0.00  0.00     0.068 A 
ATOM     10  C   LIG d   1       2.768  -0.034  -8.582  0.00  0.00     0.234 A 
ATOM     11  O   LIG d   1       2.510   1.158  -8.578  0.00  0.00    -0.283 OA
ATOM     12  H   LIG d   1       4.525  -2.358  -6.884  0.00  0.00     0.107 H 
ATOM     13  H   LIG d   1       2.274  -4.220 -10.462  0.00  0.00     0.069 H 
ATOM     14  H   LIG d   1       0.211  -0.964 -12.316  0.00  0.00     0.065 H 
ATOM     15  H   LIG d   1       1.112   0.587 -10.654  0.00  0.00     0.063 H 
ENDROOT
BRANCH   6  16
ATOM     16  O   LIG d   1       0.683  -3.534 -12.416  0.00  0.00    -0.411 OA
BRANCH  16  17
ATOM     17  C   LIG d   1      -0.652  -3.553 -12.593  0.00  0.00     0.408 C 
ATOM     18  O   LIG d   1      -1.182  -2.726 -13.308  0.00  0.00    -0.226 OA
ATOM     19  N   LIG d   1      -1.400  -4.491 -11.978  0.00  0.00    -0.263 N 
ATOM     20  C   LIG d   1      -2.860  -4.533 -12.157  0.00  0.00     0.041 C 
ATOM     21  C   LIG d   1      -0.781  -5.499 -11.104  0.00  0.00     0.041 C 
ATOM     22  C   LIG d   1      -3.518  -4.600 -10.778  0.00  0.00     0.064 C 
ATOM     23  H   LIG d   1      -3.192  -3.634 -12.676  0.00  0.00     0.049 H 
ATOM     24  H   LIG d   1      -3.134  -5.415 -12.735  0.00  0.00     0.049 H 
ATOM     25  O   LIG d   1      -2.938  -5.672 -10.030  0.00  0.00    -0.377 OA
ATOM     26  H   LIG d   1      -4.588  -4.773 -10.892  0.00  0.00     0.058 H 
ATOM     27  H   LIG d   1      -3.354  -3.660 -10.253  0.00  0.00     0.058 H 
ATOM     28  C   LIG d   1      -1.540  -5.517  -9.772  0.00  0.00     0.064 C 
ATOM     29  H   LIG d   1      -1.188  -6.349  -9.162  0.00  0.00     0.058 H 
ATOM     30  H   LIG d   1      -1.370  -4.579  -9.243  0.00  0.00     0.058 H 
ATOM     31  H   LIG d   1      -0.843  -6.481 -11.574  0.00  0.00     0.049 H 
ATOM     32  H   LIG d   1       0.264  -5.241 -10.927  0.00  0.00     0.049 H 
ENDBRANCH  16  17
ENDBRANCH   6  16
BRANCH   1  33
ATOM     33  O   LIG d   1       4.175   0.166  -6.629  0.00  0.00    -0.449 OA
BRANCH  33  34
ATOM     34  C   LIG d   1       4.015  -0.221  -5.337  0.00  0.00     0.132 A 
ATOM     35  C   LIG d   1       2.789  -0.054  -4.708  0.00  0.00    -0.019 A 
ATOM     36  C   LIG d   1       2.626  -0.447  -3.394  0.00  0.00    -0.055 A 
ATOM     37  H   LIG d   1       1.962   0.384  -5.248  0.00  0.00     0.065 H 
ATOM     38  C   LIG d   1       3.682  -1.008  -2.702  0.00  0.00    -0.020 A 
ATOM     39  H   LIG d   1       1.671  -0.317  -2.907  0.00  0.00     0.062 H 
ATOM     40  C   LIG d   1       4.910  -1.176  -3.326  0.00  0.00     0.124 A 
ATOM     41  H   LIG d   1       3.552  -1.314  -1.674  0.00  0.00     0.065 H 
ATOM     42  C   LIG d   1       5.079  -0.778  -4.642  0.00  0.00     0.022 A 
ATOM     43  H   LIG d   1       6.035  -0.905  -5.128  0.00  0.00     0.069 H 
BRANCH  40  44
ATOM     44  O   LIG d   1       5.949  -1.727  -2.643  0.00  0.00    -0.495 OA
BRANCH  44  45
ATOM     45  C   LIG d   1       7.111  -2.073  -3.398  0.00  0.00     0.079 C 
ATOM     46  H   LIG d   1       6.911  -2.969  -3.985  0.00  0.00     0.066 H 
ATOM     47  H   LIG d   1       7.368  -1.251  -4.067  0.00  0.00     0.066 H 
ATOM     48  H   LIG d   1       7.942  -2.263  -2.719  0.00  0.00     0.066 H 
ENDBRANCH  44  45
ENDBRANCH  40  44
ENDBRANCH  33  34
ENDBRANCH   1  33
TORSDOF 6
ENDMDL
MODEL 5
REMARK VINA RESULT:      -6.5      7.201     12.106
REMARK  6 active torsions:
REMARK  status: ('A' for Active; 'I' for Inactive)
REMARK    1  A    between atoms: C_1  and  O_2 
REMARK    2  A    between atoms: O_2  and  C_3 
REMARK    3  A    between atoms: C_7  and  O_9 
REMARK    4  A    between atoms: O_9  and  C_10 
REMARK    5  A    between atoms: C_15  and  O_21 
REMARK    6  A    between atoms: O_21  and  C_22 
REMARK       I    between atoms: C_22  and  N_24 
ROOT
ATOM      1  C   LIG d   1       7.467   0.107  -4.373  0.00  0.00     0.210 A 
ATOM      2  C   LIG d   1       7.464   1.061  -3.421  0.00  0.00     0.138 A 
ATOM      3  O   LIG d   1       8.096   2.234  -3.569  0.00  0.00    -0.459 OA
ATOM      4  C   LIG d   1       8.784   2.548  -4.684  0.00  0.00     0.142 A 
ATOM      5  C   LIG d   1       9.428   3.772  -4.805  0.00  0.00     0.024 A 
ATOM      6  C   LIG d   1      10.128   4.068  -5.961  0.00  0.00     0.137 A 
ATOM      7  C   LIG d   1      10.194   3.149  -7.006  0.00  0.00    -0.018 A 
ATOM      8  C   LIG d   1       9.565   1.940  -6.903  0.00  0.00    -0.044 A 
ATOM      9  C   LIG d   1       8.856   1.627  -5.743  0.00  0.00     0.068 A 
ATOM     10  C   LIG d   1       8.170   0.332  -5.590  0.00  0.00     0.234 A 
ATOM     11  O   LIG d   1       8.200  -0.511  -6.472  0.00  0.00    -0.283 OA
ATOM     12  H   LIG d   1       6.930   0.874  -2.501  0.00  0.00     0.107 H 
ATOM     13  H   LIG d   1       9.382   4.491  -3.999  0.00  0.00     0.069 H 
ATOM     14  H   LIG d   1      10.743   3.394  -7.903  0.00  0.00     0.065 H 
ATOM     15  H   LIG d   1       9.618   1.231  -7.716  0.00  0.00     0.063 H 
ENDROOT
BRANCH   6  16
ATOM     16  O   LIG d   1      10.758   5.267  -6.079  0.00  0.00    -0.411 OA
BRANCH  16  17
ATOM     17  C   LIG d   1      10.035   6.321  -6.504  0.00  0.00     0.408 C 
ATOM     18  O   LIG d   1       9.610   6.346  -7.642  0.00  0.00    -0.226 OA
ATOM     19  N   LIG d   1       9.784   7.347  -5.667  0.00  0.00    -0.263 N 
ATOM     20  C   LIG d   1       8.996   8.509  -6.108  0.00  0.00     0.041 C 
ATOM     21  C   LIG d   1      10.293   7.340  -4.287  0.00  0.00     0.041 C 
ATOM     22  C   LIG d   1       9.768   9.781  -5.760  0.00  0.00     0.064 C 
ATOM     23  H   LIG d   1       8.841   8.459  -7.186  0.00  0.00     0.049 H 
ATOM     24  H   LIG d   1       8.033   8.515  -5.598  0.00  0.00     0.049 H 
ATOM     25  O   LIG d   1      10.133   9.749  -4.378  0.00  0.00    -0.377 OA
ATOM     26  H   LIG d   1       9.142  10.653  -5.951  0.00  0.00     0.058 H 
ATOM     27  H   LIG d   1      10.667   9.838  -6.373  0.00  0.00     0.058 H 
ATOM     28  C   LIG d   1      11.006   8.672  -4.028  0.00  0.00     0.064 C 
ATOM     29  H   LIG d   1      11.270   8.746  -2.973  0.00  0.00     0.058 H 
ATOM     30  H   LIG d   1      11.910   8.725  -4.635  0.00  0.00     0.058 H 
ATOM     31  H   LIG d   1       9.462   7.227  -3.590  0.00  0.00     0.049 H 
ATOM     32  H   LIG d   1      10.995   6.517  -4.158  0.00  0.00     0.049 H 
ENDBRANCH  16  17
ENDBRANCH   6  16
BRANCH   1  33
ATOM     33  O   LIG d   1       6.809  -1.067  -4.167  0.00  0.00    -0.449 OA
BRANCH  33  34
ATOM     34  C   LIG d   1       5.487  -1.010  -3.856  0.00  0.00     0.132 A 
ATOM     35  C   LIG d   1       5.025  -1.588  -2.682  0.00  0.00    -0.019 A 
ATOM     36  C   LIG d   1       3.681  -1.530  -2.365  0.00  0.00    -0.055 A 
ATOM     37  H   LIG d   1       5.717  -2.082  -2.016  0.00  0.00     0.065 H 
ATOM     38  C   LIG d   1       2.795  -0.897  -3.215  0.00  0.00    -0.020 A 
ATOM     39  H   LIG d   1       3.324  -1.980  -1.450  0.00  0.00     0.062 H 
ATOM     40  C   LIG d   1       3.253  -0.319  -4.390  0.00  0.00     0.124 A 
ATOM     41  H   LIG d   1       1.745  -0.854  -2.964  0.00  0.00     0.065 H 
ATOM     42  C   LIG d   1       4.598  -0.379  -4.714  0.00  0.00     0.022 A 
ATOM     43  H   LIG d   1       4.955   0.067  -5.630  0.00  0.00     0.069 H 
BRANCH  40  44
ATOM     44  O   LIG d   1       2.379   0.303  -5.226  0.00  0.00    -0.495 OA
BRANCH  44  45
ATOM     45  C   LIG d   1       2.732   0.360  -6.609  0.00  0.00     0.079 C 
ATOM     46  H   LIG d   1       3.315   1.261  -6.798  0.00  0.00     0.066 H 
ATOM     47  H   LIG d   1       3.325  -0.517  -6.869  0.00  0.00     0.066 H 
ATOM     48  H   LIG d   1       1.827   0.379  -7.215  0.00  0.00     0.066 H 
ENDBRANCH  44  45
ENDBRANCH  40  44
ENDBRANCH  33  34
ENDBRANCH   1  33
TORSDOF 6
ENDMDL
MODEL 6
REMARK VINA RESULT:      -6.5      6.390      9.951
REMARK  6 active torsions:
REMARK  status: ('A' for Active; 'I' for Inactive)
REMARK    1  A    between atoms: C_1  and  O_2 
REMARK    2  A    between atoms: O_2  and  C_3 
REMARK    3  A    between atoms: C_7  and  O_9 
REMARK    4  A    between atoms: O_9  and  C_10 
REMARK    5  A    between atoms: C_15  and  O_21 
REMARK    6  A    between atoms: O_21  and  C_22 
REMARK       I    between atoms: C_22  and  N_24 
ROOT
ATOM      1  C   LIG d   1      10.235   4.219  -4.094  0.00  0.00     0.210 A 
ATOM      2  C   LIG d   1       9.767   3.467  -3.078  0.00  0.00     0.138 A 
ATOM      3  O   LIG d   1       8.969   2.408  -3.268  0.00  0.00    -0.459 OA
ATOM      4  C   LIG d   1       8.573   2.013  -4.495  0.00  0.00     0.142 A 
ATOM      5  C   LIG d   1       7.745   0.911  -4.658  0.00  0.00     0.024 A 
ATOM      6  C   LIG d   1       7.352   0.528  -5.928  0.00  0.00     0.137 A 
ATOM      7  C   LIG d   1       7.781   1.240  -7.047  0.00  0.00    -0.018 A 
ATOM      8  C   LIG d   1       8.596   2.326  -6.904  0.00  0.00    -0.044 A 
ATOM      9  C   LIG d   1       9.000   2.724  -5.629  0.00  0.00     0.068 A 
ATOM     10  C   LIG d   1       9.874   3.895  -5.432  0.00  0.00     0.234 A 
ATOM     11  O   LIG d   1      10.273   4.555  -6.376  0.00  0.00    -0.283 OA
ATOM     12  H   LIG d   1      10.048   3.728  -2.068  0.00  0.00     0.107 H 
ATOM     13  H   LIG d   1       7.407   0.354  -3.795  0.00  0.00     0.069 H 
ATOM     14  H   LIG d   1       7.467   0.929  -8.033  0.00  0.00     0.065 H 
ATOM     15  H   LIG d   1       8.927   2.874  -7.774  0.00  0.00     0.063 H 
ENDROOT
BRANCH   6  16
ATOM     16  O   LIG d   1       6.542  -0.551  -6.087  0.00  0.00    -0.411 OA
BRANCH  16  17
ATOM     17  C   LIG d   1       5.228  -0.397  -5.832  0.00  0.00     0.408 C 
ATOM     18  O   LIG d   1       4.550   0.316  -6.545  0.00  0.00    -0.226 OA
ATOM     19  N   LIG d   1       4.666  -1.034  -4.786  0.00  0.00    -0.263 N 
ATOM     20  C   LIG d   1       3.233  -0.883  -4.488  0.00  0.00     0.041 C 
ATOM     21  C   LIG d   1       5.468  -1.898  -3.906  0.00  0.00     0.041 C 
ATOM     22  C   LIG d   1       3.077  -0.523  -3.011  0.00  0.00     0.064 C 
ATOM     23  H   LIG d   1       2.812  -0.088  -5.104  0.00  0.00     0.049 H 
ATOM     24  H   LIG d   1       2.714  -1.820  -4.691  0.00  0.00     0.049 H 
ATOM     25  O   LIG d   1       3.795  -1.470  -2.216  0.00  0.00    -0.377 OA
ATOM     26  H   LIG d   1       2.022  -0.544  -2.738  0.00  0.00     0.058 H 
ATOM     27  H   LIG d   1       3.479   0.476  -2.838  0.00  0.00     0.058 H 
ATOM     28  C   LIG d   1       5.205  -1.485  -2.453  0.00  0.00     0.064 C 
ATOM     29  H   LIG d   1       5.680  -2.198  -1.779  0.00  0.00     0.058 H 
ATOM     30  H   LIG d   1       5.614  -0.489  -2.278  0.00  0.00     0.058 H 
ATOM     31  H   LIG d   1       5.177  -2.939  -4.049  0.00  0.00     0.049 H 
ATOM     32  H   LIG d   1       6.526  -1.776  -4.136  0.00  0.00     0.049 H 
ENDBRANCH  16  17
ENDBRANCH   6  16
BRANCH   1  33
ATOM     33  O   LIG d   1      11.043   5.285  -3.841  0.00  0.00    -0.449 OA
BRANCH  33  34
ATOM     34  C   LIG d   1      10.910   5.915  -2.644  0.00  0.00     0.132 A 
ATOM     35  C   LIG d   1      11.904   5.799  -1.683  0.00  0.00    -0.019 A 
ATOM     36  C   LIG d   1      11.769   6.440  -0.467  0.00  0.00    -0.055 A 
ATOM     37  H   LIG d   1      12.784   5.207  -1.888  0.00  0.00     0.065 H 
ATOM     38  C   LIG d   1      10.645   7.198  -0.203  0.00  0.00    -0.020 A 
ATOM     39  H   LIG d   1      12.545   6.348   0.279  0.00  0.00     0.062 H 
ATOM     40  C   LIG d   1       9.648   7.317  -1.161  0.00  0.00     0.124 A 
ATOM     41  H   LIG d   1      10.542   7.698   0.749  0.00  0.00     0.065 H 
ATOM     42  C   LIG d   1       9.777   6.671  -2.380  0.00  0.00     0.022 A 
ATOM     43  H   LIG d   1       9.000   6.760  -3.125  0.00  0.00     0.069 H 
BRANCH  40  44
ATOM     44  O   LIG d   1       8.542   8.063  -0.900  0.00  0.00    -0.495 OA
BRANCH  44  45
ATOM     45  C   LIG d   1       8.727   9.472  -0.759  0.00  0.00     0.079 C 
ATOM     46  H   LIG d   1       8.710   9.941  -1.743  0.00  0.00     0.066 H 
ATOM     47  H   LIG d   1       7.926   9.885  -0.146  0.00  0.00     0.066 H 
ATOM     48  H   LIG d   1       9.687   9.666  -0.282  0.00  0.00     0.066 H 
ENDBRANCH  44  45
ENDBRANCH  40  44
ENDBRANCH  33  34
ENDBRANCH   1  33
TORSDOF 6
ENDMDL
MODEL 7
REMARK VINA RESULT:      -6.4      6.605      9.915
REMARK  6 active torsions:
REMARK  status: ('A' for Active; 'I' for Inactive)
REMARK    1  A    between atoms: C_1  and  O_2 
REMARK    2  A    between atoms: O_2  and  C_3 
REMARK    3  A    between atoms: C_7  and  O_9 
REMARK    4  A    between atoms: O_9  and  C_10 
REMARK    5  A    between atoms: C_15  and  O_21 
REMARK    6  A    between atoms: O_21  and  C_22 
REMARK       I    between atoms: C_22  and  N_24 
ROOT
ATOM      1  C   LIG d   1       1.616  -4.374 -10.628  0.00  0.00     0.210 A 
ATOM      2  C   LIG d   1       2.539  -4.825  -9.755  0.00  0.00     0.138 A 
ATOM      3  O   LIG d   1       3.217  -4.013  -8.934  0.00  0.00    -0.459 OA
ATOM      4  C   LIG d   1       3.027  -2.678  -8.918  0.00  0.00     0.142 A 
ATOM      5  C   LIG d   1       3.747  -1.864  -8.054  0.00  0.00     0.024 A 
ATOM      6  C   LIG d   1       3.532  -0.497  -8.060  0.00  0.00     0.137 A 
ATOM      7  C   LIG d   1       2.599   0.071  -8.926  0.00  0.00    -0.018 A 
ATOM      8  C   LIG d   1       1.882  -0.716  -9.781  0.00  0.00    -0.044 A 
ATOM      9  C   LIG d   1       2.088  -2.097  -9.788  0.00  0.00     0.068 A 
ATOM     10  C   LIG d   1       1.340  -2.980 -10.700  0.00  0.00     0.234 A 
ATOM     11  O   LIG d   1       0.516  -2.534 -11.481  0.00  0.00    -0.283 OA
ATOM     12  H   LIG d   1       2.740  -5.886  -9.715  0.00  0.00     0.107 H 
ATOM     13  H   LIG d   1       4.472  -2.296  -7.380  0.00  0.00     0.069 H 
ATOM     14  H   LIG d   1       2.441   1.139  -8.919  0.00  0.00     0.065 H 
ATOM     15  H   LIG d   1       1.160  -0.273 -10.450  0.00  0.00     0.063 H 
ENDROOT
BRANCH   6  16
ATOM     16  O   LIG d   1       4.237   0.299  -7.214  0.00  0.00    -0.411 OA
BRANCH  16  17
ATOM     17  C   LIG d   1       3.956   0.228  -5.899  0.00  0.00     0.408 C 
ATOM     18  O   LIG d   1       2.873   0.595  -5.488  0.00  0.00    -0.226 OA
ATOM     19  N   LIG d   1       4.877  -0.250  -5.038  0.00  0.00    -0.263 N 
ATOM     20  C   LIG d   1       4.593  -0.339  -3.597  0.00  0.00     0.041 C 
ATOM     21  C   LIG d   1       6.197  -0.695  -5.512  0.00  0.00     0.041 C 
ATOM     22  C   LIG d   1       5.744   0.317  -2.833  0.00  0.00     0.064 C 
ATOM     23  H   LIG d   1       3.662   0.183  -3.374  0.00  0.00     0.049 H 
ATOM     24  H   LIG d   1       4.509  -1.384  -3.303  0.00  0.00     0.049 H 
ATOM     25  O   LIG d   1       6.983  -0.245  -3.272  0.00  0.00    -0.377 OA
ATOM     26  H   LIG d   1       5.622   0.138  -1.765  0.00  0.00     0.058 H 
ATOM     27  H   LIG d   1       5.742   1.389  -3.026  0.00  0.00     0.058 H 
ATOM     28  C   LIG d   1       7.272  -0.018  -4.654  0.00  0.00     0.064 C 
ATOM     29  H   LIG d   1       8.249  -0.437  -4.896  0.00  0.00     0.058 H 
ATOM     30  H   LIG d   1       7.275   1.054  -4.854  0.00  0.00     0.058 H 
ATOM     31  H   LIG d   1       6.277  -1.778  -5.413  0.00  0.00     0.049 H 
ATOM     32  H   LIG d   1       6.328  -0.410  -6.556  0.00  0.00     0.049 H 
ENDBRANCH  16  17
ENDBRANCH   6  16
BRANCH   1  33
ATOM     33  O   LIG d   1       0.958  -5.247 -11.440  0.00  0.00    -0.449 OA
BRANCH  33  34
ATOM     34  C   LIG d   1       0.019  -6.053 -10.880  0.00  0.00     0.132 A 
ATOM     35  C   LIG d   1       0.120  -7.431 -11.010  0.00  0.00    -0.019 A 
ATOM     36  C   LIG d   1      -0.835  -8.252 -10.441  0.00  0.00    -0.055 A 
ATOM     37  H   LIG d   1       0.946  -7.862 -11.556  0.00  0.00     0.065 H 
ATOM     38  C   LIG d   1      -1.893  -7.703  -9.742  0.00  0.00    -0.020 A 
ATOM     39  H   LIG d   1      -0.754  -9.324 -10.543  0.00  0.00     0.062 H 
ATOM     40  C   LIG d   1      -1.998  -6.326  -9.609  0.00  0.00     0.124 A 
ATOM     41  H   LIG d   1      -2.638  -8.347  -9.298  0.00  0.00     0.065 H 
ATOM     42  C   LIG d   1      -1.045  -5.500 -10.183  0.00  0.00     0.022 A 
ATOM     43  H   LIG d   1      -1.128  -4.428 -10.084  0.00  0.00     0.069 H 
BRANCH  40  44
ATOM     44  O   LIG d   1      -3.040  -5.788  -8.921  0.00  0.00    -0.495 OA
BRANCH  44  45
ATOM     45  C   LIG d   1      -3.898  -4.897  -9.635  0.00  0.00     0.079 C 
ATOM     46  H   LIG d   1      -4.863  -5.376  -9.801  0.00  0.00     0.066 H 
ATOM     47  H   LIG d   1      -4.041  -3.986  -9.054  0.00  0.00     0.066 H 
ATOM     48  H   LIG d   1      -3.447  -4.648 -10.596  0.00  0.00     0.066 H 
ENDBRANCH  44  45
ENDBRANCH  40  44
ENDBRANCH  33  34
ENDBRANCH   1  33
TORSDOF 6
ENDMDL
MODEL 8
REMARK VINA RESULT:      -6.3      6.308      9.822
REMARK  6 active torsions:
REMARK  status: ('A' for Active; 'I' for Inactive)
REMARK    1  A    between atoms: C_1  and  O_2 
REMARK    2  A    between atoms: O_2  and  C_3 
REMARK    3  A    between atoms: C_7  and  O_9 
REMARK    4  A    between atoms: O_9  and  C_10 
REMARK    5  A    between atoms: C_15  and  O_21 
REMARK    6  A    between atoms: O_21  and  C_22 
REMARK       I    between atoms: C_22  and  N_24 
ROOT
ATOM      1  C   LIG d   1       1.563  -3.124 -10.939  0.00  0.00     0.210 A 
ATOM      2  C   LIG d   1       2.354  -3.853 -10.126  0.00  0.00     0.138 A 
ATOM      3  O   LIG d   1       3.087  -3.305  -9.148  0.00  0.00    -0.459 OA
ATOM      4  C   LIG d   1       3.090  -1.980  -8.902  0.00  0.00     0.142 A 
ATOM      5  C   LIG d   1       3.862  -1.444  -7.881  0.00  0.00     0.024 A 
ATOM      6  C   LIG d   1       3.847  -0.079  -7.651  0.00  0.00     0.137 A 
ATOM      7  C   LIG d   1       3.063   0.763  -8.436  0.00  0.00    -0.018 A 
ATOM      8  C   LIG d   1       2.297   0.252  -9.445  0.00  0.00    -0.044 A 
ATOM      9  C   LIG d   1       2.303  -1.122  -9.689  0.00  0.00     0.068 A 
ATOM     10  C   LIG d   1       1.495  -1.712 -10.772  0.00  0.00     0.234 A 
ATOM     11  O   LIG d   1       0.795  -1.019 -11.492  0.00  0.00    -0.283 OA
ATOM     12  H   LIG d   1       2.397  -4.922 -10.268  0.00  0.00     0.107 H 
ATOM     13  H   LIG d   1       4.474  -2.091  -7.267  0.00  0.00     0.069 H 
ATOM     14  H   LIG d   1       3.060   1.826  -8.245  0.00  0.00     0.065 H 
ATOM     15  H   LIG d   1       1.690   0.908 -10.051  0.00  0.00     0.063 H 
ENDROOT
BRANCH   6  16
ATOM     16  O   LIG d   1       4.604   0.444  -6.650  0.00  0.00    -0.411 OA
BRANCH  16  17
ATOM     17  C   LIG d   1       5.204  -0.410  -5.800  0.00  0.00     0.408 C 
ATOM     18  O   LIG d   1       6.164  -1.059  -6.166  0.00  0.00    -0.226 OA
ATOM     19  N   LIG d   1       4.739  -0.545  -4.541  0.00  0.00    -0.263 N 
ATOM     20  C   LIG d   1       5.378  -1.471  -3.593  0.00  0.00     0.041 C 
ATOM     21  C   LIG d   1       3.576   0.226  -4.077  0.00  0.00     0.041 C 
ATOM     22  C   LIG d   1       4.297  -2.355  -2.971  0.00  0.00     0.064 C 
ATOM     23  H   LIG d   1       6.102  -2.094  -4.119  0.00  0.00     0.049 H 
ATOM     24  H   LIG d   1       5.881  -0.905  -2.809  0.00  0.00     0.049 H 
ATOM     25  O   LIG d   1       3.255  -1.529  -2.448  0.00  0.00    -0.377 OA
ATOM     26  H   LIG d   1       4.729  -2.950  -2.167  0.00  0.00     0.058 H 
ATOM     27  H   LIG d   1       3.888  -3.017  -3.735  0.00  0.00     0.058 H 
ATOM     28  C   LIG d   1       2.578  -0.745  -3.433  0.00  0.00     0.064 C 
ATOM     29  H   LIG d   1       1.774  -0.181  -2.961  0.00  0.00     0.058 H 
ATOM     30  H   LIG d   1       2.163  -1.401  -4.199  0.00  0.00     0.058 H 
ATOM     31  H   LIG d   1       3.894   0.965  -3.342  0.00  0.00     0.049 H 
ATOM     32  H   LIG d   1       3.105   0.727  -4.923  0.00  0.00     0.049 H 
ENDBRANCH  16  17
ENDBRANCH   6  16
BRANCH   1  33
ATOM     33  O   LIG d   1       0.840  -3.734 -11.918  0.00  0.00    -0.449 OA
BRANCH  33  34
ATOM     34  C   LIG d   1      -0.430  -4.120 -11.626  0.00  0.00     0.132 A 
ATOM     35  C   LIG d   1      -1.462  -3.837 -12.508  0.00  0.00    -0.019 A 
ATOM     36  C   LIG d   1      -2.754  -4.230 -12.211  0.00  0.00    -0.055 A 
ATOM     37  H   LIG d   1      -1.256  -3.310 -13.428  0.00  0.00     0.065 H 
ATOM     38  C   LIG d   1      -3.020  -4.905 -11.036  0.00  0.00    -0.020 A 
ATOM     39  H   LIG d   1      -3.556  -4.009 -12.900  0.00  0.00     0.062 H 
ATOM     40  C   LIG d   1      -1.990  -5.190 -10.150  0.00  0.00     0.124 A 
ATOM     41  H   LIG d   1      -4.030  -5.210 -10.806  0.00  0.00     0.065 H 
ATOM     42  C   LIG d   1      -0.695  -4.793 -10.442  0.00  0.00     0.022 A 
ATOM     43  H   LIG d   1       0.106  -5.011  -9.752  0.00  0.00     0.069 H 
BRANCH  40  44
ATOM     44  O   LIG d   1      -2.254  -5.854  -8.993  0.00  0.00    -0.495 OA
BRANCH  44  45
ATOM     45  C   LIG d   1      -2.437  -7.268  -9.083  0.00  0.00     0.079 C 
ATOM     46  H   LIG d   1      -1.892  -7.756  -8.276  0.00  0.00     0.066 H 
ATOM     47  H   LIG d   1      -3.498  -7.503  -9.000  0.00  0.00     0.066 H 
ATOM     48  H   LIG d   1      -2.060  -7.623 -10.042  0.00  0.00     0.066 H 
ENDBRANCH  44  45
ENDBRANCH  40  44
ENDBRANCH  33  34
ENDBRANCH   1  33
TORSDOF 6
ENDMDL
MODEL 9
REMARK VINA RESULT:      -6.3      8.981     12.316
REMARK  6 active torsions:
REMARK  status: ('A' for Active; 'I' for Inactive)
REMARK    1  A    between atoms: C_1  and  O_2 
REMARK    2  A    between atoms: O_2  and  C_3 
REMARK    3  A    between atoms: C_7  and  O_9 
REMARK    4  A    between atoms: O_9  and  C_10 
REMARK    5  A    between atoms: C_15  and  O_21 
REMARK    6  A    between atoms: O_21  and  C_22 
REMARK       I    between atoms: C_22  and  N_24 
ROOT
ATOM      1  C   LIG d   1       7.595   1.557  -8.067  0.00  0.00     0.210 A 
ATOM      2  C   LIG d   1       7.535   1.251  -6.755  0.00  0.00     0.138 A 
ATOM      3  O   LIG d   1       8.208   1.936  -5.820  0.00  0.00    -0.459 OA
ATOM      4  C   LIG d   1       8.998   2.985  -6.122  0.00  0.00     0.142 A 
ATOM      5  C   LIG d   1       9.681   3.673  -5.129  0.00  0.00     0.024 A 
ATOM      6  C   LIG d   1      10.487   4.747  -5.466  0.00  0.00     0.137 A 
ATOM      7  C   LIG d   1      10.618   5.145  -6.796  0.00  0.00    -0.018 A 
ATOM      8  C   LIG d   1       9.951   4.479  -7.784  0.00  0.00    -0.044 A 
ATOM      9  C   LIG d   1       9.136   3.394  -7.459  0.00  0.00     0.068 A 
ATOM     10  C   LIG d   1       8.405   2.645  -8.497  0.00  0.00     0.234 A 
ATOM     11  O   LIG d   1       8.489   2.948  -9.676  0.00  0.00    -0.283 OA
ATOM     12  H   LIG d   1       6.919   0.420  -6.445  0.00  0.00     0.107 H 
ATOM     13  H   LIG d   1       9.586   3.371  -4.095  0.00  0.00     0.069 H 
ATOM     14  H   LIG d   1      11.249   5.985  -7.045  0.00  0.00     0.065 H 
ATOM     15  H   LIG d   1      10.054   4.791  -8.813  0.00  0.00     0.063 H 
ENDROOT
BRANCH   6  16
ATOM     16  O   LIG d   1      11.155   5.420  -4.493  0.00  0.00    -0.411 OA
BRANCH  16  17
ATOM     17  C   LIG d   1      10.485   6.362  -3.802  0.00  0.00     0.408 C 
ATOM     18  O   LIG d   1      10.131   7.384  -4.354  0.00  0.00    -0.226 OA
ATOM     19  N   LIG d   1      10.207   6.169  -2.497  0.00  0.00    -0.263 N 
ATOM     20  C   LIG d   1       9.475   7.182  -1.720  0.00  0.00     0.041 C 
ATOM     21  C   LIG d   1      10.631   4.941  -1.806  0.00  0.00     0.041 C 
ATOM     22  C   LIG d   1      10.255   7.468  -0.437  0.00  0.00     0.064 C 
ATOM     23  H   LIG d   1       9.385   8.098  -2.305  0.00  0.00     0.049 H 
ATOM     24  H   LIG d   1       8.484   6.807  -1.469  0.00  0.00     0.049 H 
ATOM     25  O   LIG d   1      10.534   6.236   0.231  0.00  0.00    -0.377 OA
ATOM     26  H   LIG d   1       9.662   8.110   0.215  0.00  0.00     0.058 H 
ATOM     27  H   LIG d   1      11.191   7.967  -0.685  0.00  0.00     0.058 H 
ATOM     28  C   LIG d   1      11.359   5.338  -0.516  0.00  0.00     0.064 C 
ATOM     29  H   LIG d   1      11.559   4.447   0.078  0.00  0.00     0.058 H 
ATOM     30  H   LIG d   1      12.299   5.830  -0.766  0.00  0.00     0.058 H 
ATOM     31  H   LIG d   1       9.757   4.336  -1.563  0.00  0.00     0.049 H 
ATOM     32  H   LIG d   1      11.305   4.372  -2.447  0.00  0.00     0.049 H 
ENDBRANCH  16  17
ENDBRANCH   6  16
BRANCH   1  33
ATOM     33  O   LIG d   1       6.891   0.825  -8.973  0.00  0.00    -0.449 OA
BRANCH  33  34
ATOM     34  C   LIG d   1       5.542   0.989  -9.015  0.00  0.00     0.132 A 
ATOM     35  C   LIG d   1       5.002   2.246  -9.246  0.00  0.00    -0.019 A 
ATOM     36  C   LIG d   1       3.631   2.413  -9.289  0.00  0.00    -0.055 A 
ATOM     37  H   LIG d   1       5.654   3.094  -9.393  0.00  0.00     0.065 H 
ATOM     38  C   LIG d   1       2.795   1.329  -9.101  0.00  0.00    -0.020 A 
ATOM     39  H   LIG d   1       3.213   3.392  -9.470  0.00  0.00     0.062 H 
ATOM     40  C   LIG d   1       3.331   0.070  -8.869  0.00  0.00     0.124 A 
ATOM     41  H   LIG d   1       1.724   1.463  -9.135  0.00  0.00     0.065 H 
ATOM     42  C   LIG d   1       4.705  -0.100  -8.821  0.00  0.00     0.022 A 
ATOM     43  H   LIG d   1       5.123  -1.078  -8.636  0.00  0.00     0.069 H 
BRANCH  40  44
ATOM     44  O   LIG d   1       2.507  -0.995  -8.684  0.00  0.00    -0.495 OA
BRANCH  44  45
ATOM     45  C   LIG d   1       1.724  -1.413  -9.804  0.00  0.00     0.079 C 
ATOM     46  H   LIG d   1       1.066  -0.600 -10.111  0.00  0.00     0.066 H 
ATOM     47  H   LIG d   1       2.385  -1.677 -10.630  0.00  0.00     0.066 H 
ATOM     48  H   LIG d   1       1.125  -2.279  -9.526  0.00  0.00     0.066 H 
ENDBRANCH  44  45
ENDBRANCH  40  44
ENDBRANCH  33  34
ENDBRANCH   1  33
TORSDOF 6
ENDMDL
