MODEL 1
REMARK VINA RESULT:      -4.3      0.000      0.000
REMARK  0 active torsions:
REMARK  status: ('A' for Active; 'I' for Inactive)
ROOT
ATOM      1  C   LIG d   1       4.734  -1.637  -5.889  0.00  0.00    -0.034 A 
ATOM      2  C   LIG d   1       5.465  -2.073  -4.799  0.00  0.00     0.020 A 
ATOM      3  C   LIG d   1       5.393  -1.391  -3.597  0.00  0.00    -0.034 A 
ATOM      4  C   LIG d   1       4.589  -0.273  -3.483  0.00  0.00     0.012 A 
ATOM      5  C   LIG d   1       3.854   0.166  -4.575  0.00  0.00    -0.080 A 
ATOM      6  C   LIG d   1       3.928  -0.520  -5.780  0.00  0.00     0.012 A 
ATOM      7 BR   LIG d   1       2.927   0.075  -7.270  0.00  0.00    -0.051 Br
ATOM      8  O   LIG d   1       3.061   1.266  -4.465  0.00  0.00    -0.872 OA
ATOM      9 BR   LIG d   1       4.489   0.659  -1.841  0.00  0.00    -0.051 Br
ATOM     10 BR   LIG d   1       6.567  -3.602  -4.951  0.00  0.00    -0.050 Br
ATOM     11  H   LIG d   1       4.795  -2.169  -6.826  0.00  0.00     0.064 H 
ATOM     12  H   LIG d   1       5.965  -1.733  -2.748  0.00  0.00     0.064 H 
ENDROOT
TORSDOF 0
ENDMDL
MODEL 2
REMARK VINA RESULT:      -4.3      0.041      2.959
REMARK  0 active torsions:
REMARK  status: ('A' for Active; 'I' for Inactive)
ROOT
ATOM      1  C   LIG d   1       5.390  -1.386  -3.587  0.00  0.00    -0.034 A 
ATOM      2  C   LIG d   1       5.482  -2.078  -4.781  0.00  0.00     0.020 A 
ATOM      3  C   LIG d   1       4.758  -1.660  -5.883  0.00  0.00    -0.034 A 
ATOM      4  C   LIG d   1       3.942  -0.548  -5.795  0.00  0.00     0.012 A 
ATOM      5  C   LIG d   1       3.848   0.148  -4.598  0.00  0.00    -0.080 A 
ATOM      6  C   LIG d   1       4.575  -0.273  -3.493  0.00  0.00     0.012 A 
ATOM      7 BR   LIG d   1       4.449   0.674  -1.861  0.00  0.00    -0.051 Br
ATOM      8  O   LIG d   1       3.046   1.243  -4.509  0.00  0.00    -0.872 OA
ATOM      9 BR   LIG d   1       2.955   0.024  -7.303  0.00  0.00    -0.051 Br
ATOM     10 BR   LIG d   1       6.597  -3.600  -4.906  0.00  0.00    -0.050 Br
ATOM     11  H   LIG d   1       5.952  -1.717  -2.727  0.00  0.00     0.064 H 
ATOM     12  H   LIG d   1       4.833  -2.202  -6.814  0.00  0.00     0.064 H 
ENDROOT
TORSDOF 0
ENDMDL
MODEL 3
REMARK VINA RESULT:      -4.1      2.165      2.619
REMARK  0 active torsions:
REMARK  status: ('A' for Active; 'I' for Inactive)
ROOT
ATOM      1  C   LIG d   1       5.299  -2.106  -3.829  0.00  0.00    -0.034 A 
ATOM      2  C   LIG d   1       6.631  -2.170  -4.196  0.00  0.00     0.020 A 
ATOM      3  C   LIG d   1       7.397  -1.018  -4.230  0.00  0.00    -0.034 A 
ATOM      4  C   LIG d   1       6.834   0.199  -3.896  0.00  0.00     0.012 A 
ATOM      5  C   LIG d   1       5.498   0.265  -3.527  0.00  0.00    -0.080 A 
ATOM      6  C   LIG d   1       4.731  -0.891  -3.494  0.00  0.00     0.012 A 
ATOM      7 BR   LIG d   1       2.909  -0.804  -2.992  0.00  0.00    -0.051 Br
ATOM      8  O   LIG d   1       4.941   1.462  -3.198  0.00  0.00    -0.872 OA
ATOM      9 BR   LIG d   1       7.882   1.772  -3.941  0.00  0.00    -0.051 Br
ATOM     10 BR   LIG d   1       7.406  -3.833  -4.653  0.00  0.00    -0.050 Br
ATOM     11  H   LIG d   1       4.702  -3.005  -3.807  0.00  0.00     0.064 H 
ATOM     12  H   LIG d   1       8.437  -1.071  -4.516  0.00  0.00     0.064 H 
ENDROOT
TORSDOF 0
ENDMDL
MODEL 4
REMARK VINA RESULT:      -4.1      2.265      2.930
REMARK  0 active torsions:
REMARK  status: ('A' for Active; 'I' for Inactive)
ROOT
ATOM      1  C   LIG d   1       7.605  -0.985  -4.190  0.00  0.00    -0.034 A 
ATOM      2  C   LIG d   1       6.878  -2.161  -4.126  0.00  0.00     0.020 A 
ATOM      3  C   LIG d   1       5.551  -2.136  -3.736  0.00  0.00    -0.034 A 
ATOM      4  C   LIG d   1       4.948  -0.936  -3.409  0.00  0.00     0.012 A 
ATOM      5  C   LIG d   1       5.675   0.244  -3.471  0.00  0.00    -0.080 A 
ATOM      6  C   LIG d   1       7.006   0.217  -3.864  0.00  0.00     0.012 A 
ATOM      7 BR   LIG d   1       7.999   1.824  -3.950  0.00  0.00    -0.051 Br
ATOM      8  O   LIG d   1       5.083   1.426  -3.150  0.00  0.00    -0.872 OA
ATOM      9 BR   LIG d   1       3.134  -0.903  -2.876  0.00  0.00    -0.051 Br
ATOM     10 BR   LIG d   1       7.700  -3.804  -4.573  0.00  0.00    -0.050 Br
ATOM     11  H   LIG d   1       8.641  -1.008  -4.491  0.00  0.00     0.064 H 
ATOM     12  H   LIG d   1       4.986  -3.055  -3.688  0.00  0.00     0.064 H 
ENDROOT
TORSDOF 0
ENDMDL
MODEL 5
REMARK VINA RESULT:      -4.0      2.529      3.725
REMARK  0 active torsions:
REMARK  status: ('A' for Active; 'I' for Inactive)
ROOT
ATOM      1  C   LIG d   1       7.307  -1.092  -4.302  0.00  0.00    -0.034 A 
ATOM      2  C   LIG d   1       6.774   0.123  -3.908  0.00  0.00     0.020 A 
ATOM      3  C   LIG d   1       5.452   0.204  -3.511  0.00  0.00    -0.034 A 
ATOM      4  C   LIG d   1       4.659  -0.928  -3.507  0.00  0.00     0.012 A 
ATOM      5  C   LIG d   1       5.191  -2.147  -3.901  0.00  0.00    -0.080 A 
ATOM      6  C   LIG d   1       6.518  -2.227  -4.299  0.00  0.00     0.012 A 
ATOM      7 BR   LIG d   1       7.246  -3.887  -4.838  0.00  0.00    -0.051 Br
ATOM      8  O   LIG d   1       4.412  -3.262  -3.898  0.00  0.00    -0.872 OA
ATOM      9 BR   LIG d   1       2.851  -0.815  -2.963  0.00  0.00    -0.051 Br
ATOM     10 BR   LIG d   1       7.856   1.674  -3.913  0.00  0.00    -0.050 Br
ATOM     11  H   LIG d   1       8.338  -1.152  -4.615  0.00  0.00     0.064 H 
ATOM     12  H   LIG d   1       5.039   1.154  -3.204  0.00  0.00     0.064 H 
ENDROOT
TORSDOF 0
ENDMDL
MODEL 6
REMARK VINA RESULT:      -3.9      2.907      4.330
REMARK  0 active torsions:
REMARK  status: ('A' for Active; 'I' for Inactive)
ROOT
ATOM      1  C   LIG d   1       6.816   1.217  -3.522  0.00  0.00    -0.034 A 
ATOM      2  C   LIG d   1       7.841   0.790  -4.347  0.00  0.00     0.020 A 
ATOM      3  C   LIG d   1       7.971  -0.553  -4.654  0.00  0.00    -0.034 A 
ATOM      4  C   LIG d   1       7.076  -1.471  -4.138  0.00  0.00     0.012 A 
ATOM      5  C   LIG d   1       6.047  -1.044  -3.310  0.00  0.00    -0.080 A 
ATOM      6  C   LIG d   1       5.919   0.303  -3.004  0.00  0.00     0.012 A 
ATOM      7 BR   LIG d   1       4.517   0.888  -1.876  0.00  0.00    -0.051 Br
ATOM      8  O   LIG d   1       5.164  -1.946  -2.802  0.00  0.00    -0.872 OA
ATOM      9 BR   LIG d   1       7.252  -3.306  -4.559  0.00  0.00    -0.051 Br
ATOM     10 BR   LIG d   1       9.069   2.043  -5.055  0.00  0.00    -0.050 Br
ATOM     11  H   LIG d   1       6.720   2.265  -3.281  0.00  0.00     0.064 H 
ATOM     12  H   LIG d   1       8.772  -0.884  -5.299  0.00  0.00     0.064 H 
ENDROOT
TORSDOF 0
ENDMDL
MODEL 7
REMARK VINA RESULT:      -3.9      3.326      4.701
REMARK  0 active torsions:
REMARK  status: ('A' for Active; 'I' for Inactive)
ROOT
ATOM      1  C   LIG d   1       6.668   1.287  -3.545  0.00  0.00    -0.034 A 
ATOM      2  C   LIG d   1       5.900   0.296  -2.960  0.00  0.00     0.020 A 
ATOM      3  C   LIG d   1       6.184  -1.036  -3.203  0.00  0.00    -0.034 A 
ATOM      4  C   LIG d   1       7.237  -1.380  -4.029  0.00  0.00     0.012 A 
ATOM      5  C   LIG d   1       8.008  -0.388  -4.617  0.00  0.00    -0.080 A 
ATOM      6  C   LIG d   1       7.722   0.948  -4.373  0.00  0.00     0.012 A 
ATOM      7 BR   LIG d   1       8.771   2.303  -5.172  0.00  0.00    -0.051 Br
ATOM      8  O   LIG d   1       9.045  -0.724  -5.431  0.00  0.00    -0.872 OA
ATOM      9 BR   LIG d   1       7.626  -3.201  -4.359  0.00  0.00    -0.051 Br
ATOM     10 BR   LIG d   1       4.459   0.763  -1.828  0.00  0.00    -0.050 Br
ATOM     11  H   LIG d   1       6.441   2.326  -3.358  0.00  0.00     0.064 H 
ATOM     12  H   LIG d   1       5.583  -1.808  -2.744  0.00  0.00     0.064 H 
ENDROOT
TORSDOF 0
ENDMDL
MODEL 8
REMARK VINA RESULT:      -3.8      1.422      3.268
REMARK  0 active torsions:
REMARK  status: ('A' for Active; 'I' for Inactive)
ROOT
ATOM      1  C   LIG d   1       4.520  -1.602  -6.199  0.00  0.00    -0.034 A 
ATOM      2  C   LIG d   1       3.659  -0.520  -6.253  0.00  0.00     0.020 A 
ATOM      3  C   LIG d   1       3.426   0.238  -5.120  0.00  0.00    -0.034 A 
ATOM      4  C   LIG d   1       4.052  -0.083  -3.931  0.00  0.00     0.012 A 
ATOM      5  C   LIG d   1       4.915  -1.168  -3.874  0.00  0.00    -0.080 A 
ATOM      6  C   LIG d   1       5.149  -1.927  -5.012  0.00  0.00     0.012 A 
ATOM      7 BR   LIG d   1       6.325  -3.406  -4.938  0.00  0.00    -0.051 Br
ATOM      8  O   LIG d   1       5.533  -1.486  -2.705  0.00  0.00    -0.872 OA
ATOM      9 BR   LIG d   1       3.734   0.955  -2.383  0.00  0.00    -0.051 Br
ATOM     10 BR   LIG d   1       2.800  -0.078  -7.879  0.00  0.00    -0.050 Br
ATOM     11  H   LIG d   1       4.697  -2.195  -7.084  0.00  0.00     0.064 H 
ATOM     12  H   LIG d   1       2.754   1.083  -5.166  0.00  0.00     0.064 H 
ENDROOT
TORSDOF 0
ENDMDL
MODEL 9
REMARK VINA RESULT:      -3.8      1.422      3.780
REMARK  0 active torsions:
REMARK  status: ('A' for Active; 'I' for Inactive)
ROOT
ATOM      1  C   LIG d   1       3.491   0.238  -5.051  0.00  0.00    -0.034 A 
ATOM      2  C   LIG d   1       3.690  -0.507  -6.200  0.00  0.00     0.020 A 
ATOM      3  C   LIG d   1       4.524  -1.610  -6.176  0.00  0.00    -0.034 A 
ATOM      4  C   LIG d   1       5.159  -1.972  -5.003  0.00  0.00     0.012 A 
ATOM      5  C   LIG d   1       4.961  -1.227  -3.850  0.00  0.00    -0.080 A 
ATOM      6  C   LIG d   1       4.125  -0.120  -3.876  0.00  0.00     0.012 A 
ATOM      7 BR   LIG d   1       3.852   0.899  -2.306  0.00  0.00    -0.051 Br
ATOM      8  O   LIG d   1       5.586  -1.581  -2.694  0.00  0.00    -0.872 OA
ATOM      9 BR   LIG d   1       6.298  -3.482  -4.970  0.00  0.00    -0.051 Br
ATOM     10 BR   LIG d   1       2.822  -0.015  -7.807  0.00  0.00    -0.050 Br
ATOM     11  H   LIG d   1       2.843   1.101  -5.074  0.00  0.00     0.064 H 
ATOM     12  H   LIG d   1       4.677  -2.191  -7.074  0.00  0.00     0.064 H 
ENDROOT
TORSDOF 0
ENDMDL
MODEL 10
REMARK VINA RESULT:      -3.8      1.608      4.035
REMARK  0 active torsions:
REMARK  status: ('A' for Active; 'I' for Inactive)
ROOT
ATOM      1  C   LIG d   1       5.736  -1.210  -3.396  0.00  0.00    -0.034 A 
ATOM      2  C   LIG d   1       4.799  -0.193  -3.364  0.00  0.00     0.020 A 
ATOM      3  C   LIG d   1       4.057   0.103  -4.494  0.00  0.00    -0.034 A 
ATOM      4  C   LIG d   1       4.250  -0.617  -5.657  0.00  0.00     0.012 A 
ATOM      5  C   LIG d   1       5.190  -1.637  -5.692  0.00  0.00    -0.080 A 
ATOM      6  C   LIG d   1       5.933  -1.933  -4.558  0.00  0.00     0.012 A 
ATOM      7 BR   LIG d   1       7.215  -3.322  -4.602  0.00  0.00    -0.051 Br
ATOM      8  O   LIG d   1       5.383  -2.348  -6.836  0.00  0.00    -0.872 OA
ATOM      9 BR   LIG d   1       3.235  -0.213  -7.201  0.00  0.00    -0.051 Br
ATOM     10 BR   LIG d   1       4.531   0.795  -1.774  0.00  0.00    -0.050 Br
ATOM     11  H   LIG d   1       6.317  -1.436  -2.515  0.00  0.00     0.064 H 
ATOM     12  H   LIG d   1       3.325   0.897  -4.466  0.00  0.00     0.064 H 
ENDROOT
TORSDOF 0
ENDMDL
