MODEL 1
REMARK VINA RESULT:      -6.1      0.000      0.000
REMARK  11 active torsions:
REMARK  status: ('A' for Active; 'I' for Inactive)
REMARK    1  A    between atoms: C_1  and  C_2 
REMARK    2  A    between atoms: C_3  and  C_12 
REMARK    3  A    between atoms: C_4  and  C_10 
REMARK    4  A    between atoms: C_4  and  C_11 
REMARK    5  A    between atoms: C_6  and  O_9 
REMARK    6  A    between atoms: C_13  and  C_14 
REMARK    7  A    between atoms: C_14  and  C_23 
REMARK    8  A    between atoms: C_15  and  C_16 
REMARK    9  A    between atoms: C_17  and  C_18 
REMARK   10  A    between atoms: C_18  and  C_22 
REMARK   11  A    between atoms: C_19  and  C_20 
ROOT
ATOM      1  C   LIG d   1       3.477   1.170  -9.723  0.00  0.00    -0.067 C 
ATOM      2  C   LIG d   1       3.101   0.010  -9.211  0.00  0.00    -0.043 C 
ATOM      3  C   LIG d   1       3.036  -1.267  -9.997  0.00  0.00    -0.008 C 
ATOM      4  C   LIG d   1       3.039  -0.961 -11.497  0.00  0.00    -0.017 C 
ATOM      5  C   LIG d   1       4.194   0.001 -11.796  0.00  0.00     0.060 C 
ATOM      6  H   LIG d   1       5.118  -0.394 -11.374  0.00  0.00     0.060 H 
ATOM      7  C   LIG d   1       3.872   1.356 -11.160  0.00  0.00    -0.005 C 
ATOM      8  H   LIG d   1       3.178  -1.886 -12.058  0.00  0.00     0.030 H 
ATOM      9  H   LIG d   1       2.094  -0.498 -11.777  0.00  0.00     0.030 H 
ATOM     10  H   LIG d   1       3.051   1.827 -11.701  0.00  0.00     0.034 H 
ATOM     11  H   LIG d   1       4.751   1.997 -11.212  0.00  0.00     0.034 H 
ENDROOT
BRANCH   2  12
ATOM     12  C   LIG d   1       2.740  -0.030  -7.840  0.00  0.00    -0.058 C 
ATOM     13  C   LIG d   1       3.659  -0.383  -6.905  0.00  0.00    -0.059 C 
ATOM     14  H   LIG d   1       4.651  -0.684  -7.209  0.00  0.00     0.062 H 
ATOM     15  H   LIG d   1       1.732   0.221  -7.541  0.00  0.00     0.062 H 
BRANCH  13  16
ATOM     16  C   LIG d   1       3.319  -0.358  -5.541  0.00  0.00    -0.050 C 
ATOM     17  C   LIG d   1       3.796  -1.324  -4.700  0.00  0.00    -0.059 C 
ATOM     18  H   LIG d   1       4.433  -2.107  -5.085  0.00  0.00     0.062 H 
BRANCH  17  19
ATOM     19  C   LIG d   1       3.457  -1.299  -3.342  0.00  0.00    -0.061 C 
ATOM     20  C   LIG d   1       4.346  -0.791  -2.419  0.00  0.00    -0.059 C 
ATOM     21  H   LIG d   1       4.059  -0.706  -1.382  0.00  0.00     0.062 H 
ATOM     22  H   LIG d   1       2.499  -1.678  -3.017  0.00  0.00     0.062 H 
BRANCH  20  23
ATOM     23  C   LIG d   1       5.622  -0.385  -2.828  0.00  0.00    -0.047 C 
ATOM     24  C   LIG d   1       5.881   0.950  -3.057  0.00  0.00    -0.019 C 
ATOM     25  H   LIG d   1       5.099   1.682  -2.921  0.00  0.00     0.065 H 
BRANCH  24  26
ATOM     26  C   LIG d   1       7.155   1.354  -3.465  0.00  0.00     0.143 C 
ATOM     27  O   LIG d   1       7.293   1.971  -4.504  0.00  0.00    -0.296 OA
ATOM     28  H   LIG d   1       8.017   1.118  -2.859  0.00  0.00     0.107 H 
ENDBRANCH  24  26
BRANCH  23  29
ATOM     29  C   LIG d   1       6.712  -1.408  -3.018  0.00  0.00    -0.040 C 
ATOM     30  H   LIG d   1       6.357  -2.383  -2.687  0.00  0.00     0.028 H 
ATOM     31  H   LIG d   1       6.983  -1.458  -4.072  0.00  0.00     0.028 H 
ATOM     32  H   LIG d   1       7.586  -1.122  -2.431  0.00  0.00     0.028 H 
ENDBRANCH  23  29
ENDBRANCH  20  23
ENDBRANCH  17  19
BRANCH  16  33
ATOM     33  C   LIG d   1       2.432   0.735  -5.005  0.00  0.00    -0.040 C 
ATOM     34  H   LIG d   1       1.453   0.674  -5.482  0.00  0.00     0.028 H 
ATOM     35  H   LIG d   1       2.319   0.617  -3.928  0.00  0.00     0.028 H 
ATOM     36  H   LIG d   1       2.879   1.705  -5.219  0.00  0.00     0.028 H 
ENDBRANCH  16  33
ENDBRANCH  13  16
ENDBRANCH   2  12
BRANCH   1  37
ATOM     37  C   LIG d   1       3.506   2.372  -8.816  0.00  0.00    -0.043 C 
ATOM     38  H   LIG d   1       2.510   2.811  -8.762  0.00  0.00     0.028 H 
ATOM     39  H   LIG d   1       3.823   2.068  -7.818  0.00  0.00     0.028 H 
ATOM     40  H   LIG d   1       4.206   3.108  -9.210  0.00  0.00     0.028 H 
ENDBRANCH   1  37
BRANCH   3  41
ATOM     41  C   LIG d   1       4.247  -2.137  -9.655  0.00  0.00    -0.056 C 
ATOM     42  H   LIG d   1       4.258  -2.337  -8.583  0.00  0.00     0.024 H 
ATOM     43  H   LIG d   1       4.184  -3.078 -10.200  0.00  0.00     0.024 H 
ATOM     44  H   LIG d   1       5.161  -1.615  -9.936  0.00  0.00     0.024 H 
ENDBRANCH   3  41
BRANCH   3  45
ATOM     45  C   LIG d   1       1.755  -2.020  -9.635  0.00  0.00    -0.056 C 
ATOM     46  H   LIG d   1       1.963  -2.729  -8.834  0.00  0.00     0.024 H 
ATOM     47  H   LIG d   1       0.997  -1.310  -9.305  0.00  0.00     0.024 H 
ATOM     48  H   LIG d   1       1.391  -2.559 -10.510  0.00  0.00     0.024 H 
ENDBRANCH   3  45
BRANCH   5  49
ATOM     49  O   LIG d   1       4.338   0.154 -13.209  0.00  0.00    -0.391 OA
ATOM     50  H   LIG d   1       4.192  -0.660 -13.710  0.00  0.00     0.210 HD
ENDBRANCH   5  49
TORSDOF 11
ENDMDL
MODEL 2
REMARK VINA RESULT:      -6.0      1.523      2.526
REMARK  11 active torsions:
REMARK  status: ('A' for Active; 'I' for Inactive)
REMARK    1  A    between atoms: C_1  and  C_2 
REMARK    2  A    between atoms: C_3  and  C_12 
REMARK    3  A    between atoms: C_4  and  C_10 
REMARK    4  A    between atoms: C_4  and  C_11 
REMARK    5  A    between atoms: C_6  and  O_9 
REMARK    6  A    between atoms: C_13  and  C_14 
REMARK    7  A    between atoms: C_14  and  C_23 
REMARK    8  A    between atoms: C_15  and  C_16 
REMARK    9  A    between atoms: C_17  and  C_18 
REMARK   10  A    between atoms: C_18  and  C_22 
REMARK   11  A    between atoms: C_19  and  C_20 
ROOT
ATOM      1  C   LIG d   1       5.772  -0.630  -8.959  0.00  0.00    -0.067 C 
ATOM      2  C   LIG d   1       4.718  -0.413  -8.190  0.00  0.00    -0.043 C 
ATOM      3  C   LIG d   1       3.428   0.170  -8.688  0.00  0.00    -0.008 C 
ATOM      4  C   LIG d   1       3.647   0.851 -10.040  0.00  0.00    -0.017 C 
ATOM      5  C   LIG d   1       4.391  -0.122 -10.962  0.00  0.00     0.060 C 
ATOM      6  H   LIG d   1       3.874  -1.082 -10.974  0.00  0.00     0.060 H 
ATOM      7  C   LIG d   1       5.813  -0.306 -10.424  0.00  0.00    -0.005 C 
ATOM      8  H   LIG d   1       2.682   1.108 -10.480  0.00  0.00     0.030 H 
ATOM      9  H   LIG d   1       4.242   1.753  -9.903  0.00  0.00     0.030 H 
ATOM     10  H   LIG d   1       6.381   0.612 -10.575  0.00  0.00     0.034 H 
ATOM     11  H   LIG d   1       6.298  -1.121 -10.961  0.00  0.00     0.034 H 
ENDROOT
BRANCH   2  12
ATOM     12  C   LIG d   1       4.813  -0.752  -6.816  0.00  0.00    -0.058 C 
ATOM     13  C   LIG d   1       4.500  -2.007  -6.402  0.00  0.00    -0.059 C 
ATOM     14  H   LIG d   1       4.129  -2.733  -7.110  0.00  0.00     0.062 H 
ATOM     15  H   LIG d   1       5.135  -0.011  -6.099  0.00  0.00     0.062 H 
BRANCH  13  16
ATOM     16  C   LIG d   1       4.657  -2.361  -5.051  0.00  0.00    -0.050 C 
ATOM     17  C   LIG d   1       3.820  -1.840  -4.106  0.00  0.00    -0.059 C 
ATOM     18  H   LIG d   1       3.037  -1.154  -4.398  0.00  0.00     0.062 H 
BRANCH  17  19
ATOM     19  C   LIG d   1       3.976  -2.193  -2.760  0.00  0.00    -0.061 C 
ATOM     20  C   LIG d   1       4.496  -1.283  -1.864  0.00  0.00    -0.059 C 
ATOM     21  H   LIG d   1       4.551  -1.529  -0.815  0.00  0.00     0.062 H 
ATOM     22  H   LIG d   1       3.688  -3.178  -2.423  0.00  0.00     0.062 H 
BRANCH  20  23
ATOM     23  C   LIG d   1       4.953  -0.040  -2.317  0.00  0.00    -0.047 C 
ATOM     24  C   LIG d   1       6.171   0.056  -2.956  0.00  0.00    -0.019 C 
ATOM     25  H   LIG d   1       6.772  -0.828  -3.107  0.00  0.00     0.065 H 
BRANCH  24  26
ATOM     26  C   LIG d   1       6.626   1.298  -3.407  0.00  0.00     0.143 C 
ATOM     27  O   LIG d   1       6.883   1.459  -4.586  0.00  0.00    -0.296 OA
ATOM     28  H   LIG d   1       6.750   2.114  -2.711  0.00  0.00     0.107 H 
ENDBRANCH  24  26
BRANCH  23  29
ATOM     29  C   LIG d   1       4.113   1.194  -2.105  0.00  0.00    -0.040 C 
ATOM     30  H   LIG d   1       3.824   1.607  -3.070  0.00  0.00     0.028 H 
ATOM     31  H   LIG d   1       3.220   0.932  -1.538  0.00  0.00     0.028 H 
ATOM     32  H   LIG d   1       4.690   1.935  -1.551  0.00  0.00     0.028 H 
ENDBRANCH  23  29
ENDBRANCH  20  23
ENDBRANCH  17  19
BRANCH  16  33
ATOM     33  C   LIG d   1       5.748  -3.317  -4.644  0.00  0.00    -0.040 C 
ATOM     34  H   LIG d   1       6.720  -2.863  -4.838  0.00  0.00     0.028 H 
ATOM     35  H   LIG d   1       5.658  -3.542  -3.581  0.00  0.00     0.028 H 
ATOM     36  H   LIG d   1       5.657  -4.239  -5.219  0.00  0.00     0.028 H 
ENDBRANCH  16  33
ENDBRANCH  13  16
ENDBRANCH   2  12
BRANCH   1  37
ATOM     37  C   LIG d   1       7.001  -1.232  -8.329  0.00  0.00    -0.043 C 
ATOM     38  H   LIG d   1       7.094  -0.876  -7.303  0.00  0.00     0.028 H 
ATOM     39  H   LIG d   1       6.917  -2.318  -8.331  0.00  0.00     0.028 H 
ATOM     40  H   LIG d   1       7.883  -0.935  -8.897  0.00  0.00     0.028 H 
ENDBRANCH   1  37
BRANCH   3  41
ATOM     41  C   LIG d   1       2.393  -0.945  -8.843  0.00  0.00    -0.056 C 
ATOM     42  H   LIG d   1       1.777  -0.749  -9.721  0.00  0.00     0.024 H 
ATOM     43  H   LIG d   1       2.903  -1.900  -8.962  0.00  0.00     0.024 H 
ATOM     44  H   LIG d   1       1.761  -0.980  -7.955  0.00  0.00     0.024 H 
ENDBRANCH   3  41
BRANCH   3  45
ATOM     45  C   LIG d   1       2.914   1.199  -7.679  0.00  0.00    -0.056 C 
ATOM     46  H   LIG d   1       2.009   0.822  -7.204  0.00  0.00     0.024 H 
ATOM     47  H   LIG d   1       3.677   1.375  -6.919  0.00  0.00     0.024 H 
ATOM     48  H   LIG d   1       2.692   2.133  -8.194  0.00  0.00     0.024 H 
ENDBRANCH   3  45
BRANCH   5  49
ATOM     49  O   LIG d   1       4.441   0.412 -12.285  0.00  0.00    -0.391 OA
ATOM     50  H   LIG d   1       3.611   0.811 -12.581  0.00  0.00     0.210 HD
ENDBRANCH   5  49
TORSDOF 11
ENDMDL
MODEL 3
REMARK VINA RESULT:      -5.9      1.014      1.999
REMARK  11 active torsions:
REMARK  status: ('A' for Active; 'I' for Inactive)
REMARK    1  A    between atoms: C_1  and  C_2 
REMARK    2  A    between atoms: C_3  and  C_12 
REMARK    3  A    between atoms: C_4  and  C_10 
REMARK    4  A    between atoms: C_4  and  C_11 
REMARK    5  A    between atoms: C_6  and  O_9 
REMARK    6  A    between atoms: C_13  and  C_14 
REMARK    7  A    between atoms: C_14  and  C_23 
REMARK    8  A    between atoms: C_15  and  C_16 
REMARK    9  A    between atoms: C_17  and  C_18 
REMARK   10  A    between atoms: C_18  and  C_22 
REMARK   11  A    between atoms: C_19  and  C_20 
ROOT
ATOM      1  C   LIG d   1       5.419  -0.478  -9.182  0.00  0.00    -0.067 C 
ATOM      2  C   LIG d   1       4.448   0.268  -8.681  0.00  0.00    -0.043 C 
ATOM      3  C   LIG d   1       3.478   1.047  -9.521  0.00  0.00    -0.008 C 
ATOM      4  C   LIG d   1       4.019   1.200 -10.944  0.00  0.00    -0.017 C 
ATOM      5  C   LIG d   1       4.451  -0.180 -11.452  0.00  0.00     0.060 C 
ATOM      6  H   LIG d   1       3.639  -0.894 -11.309  0.00  0.00     0.060 H 
ATOM      7  C   LIG d   1       5.679  -0.627 -10.653  0.00  0.00    -0.005 C 
ATOM      8  H   LIG d   1       3.237   1.600 -11.591  0.00  0.00     0.030 H 
ATOM      9  H   LIG d   1       4.875   1.874 -10.939  0.00  0.00     0.030 H 
ATOM     10  H   LIG d   1       6.537  -0.015 -10.931  0.00  0.00     0.034 H 
ATOM     11  H   LIG d   1       5.895  -1.671 -10.878  0.00  0.00     0.034 H 
ENDROOT
BRANCH   2  12
ATOM     12  C   LIG d   1       4.317   0.335  -7.271  0.00  0.00    -0.058 C 
ATOM     13  C   LIG d   1       3.344  -0.376  -6.644  0.00  0.00    -0.059 C 
ATOM     14  H   LIG d   1       2.637  -0.951  -7.224  0.00  0.00     0.062 H 
ATOM     15  H   LIG d   1       4.992   0.952  -6.695  0.00  0.00     0.062 H 
BRANCH  13  16
ATOM     16  C   LIG d   1       3.255  -0.361  -5.241  0.00  0.00    -0.050 C 
ATOM     17  C   LIG d   1       3.830  -1.362  -4.510  0.00  0.00    -0.059 C 
ATOM     18  H   LIG d   1       4.351  -2.165  -5.012  0.00  0.00     0.062 H 
BRANCH  17  19
ATOM     19  C   LIG d   1       3.743  -1.347  -3.112  0.00  0.00    -0.061 C 
ATOM     20  C   LIG d   1       4.791  -0.861  -2.361  0.00  0.00    -0.059 C 
ATOM     21  H   LIG d   1       4.697  -0.784  -1.289  0.00  0.00     0.062 H 
ATOM     22  H   LIG d   1       2.853  -1.716  -2.623  0.00  0.00     0.062 H 
BRANCH  20  23
ATOM     23  C   LIG d   1       5.978  -0.469  -2.990  0.00  0.00    -0.047 C 
ATOM     24  C   LIG d   1       6.220   0.866  -3.236  0.00  0.00    -0.019 C 
ATOM     25  H   LIG d   1       5.493   1.609  -2.944  0.00  0.00     0.065 H 
BRANCH  24  26
ATOM     26  C   LIG d   1       7.407   1.256  -3.864  0.00  0.00     0.143 C 
ATOM     27  O   LIG d   1       7.377   1.695  -4.999  0.00  0.00    -0.296 OA
ATOM     28  H   LIG d   1       8.349   1.169  -3.344  0.00  0.00     0.107 H 
ENDBRANCH  24  26
BRANCH  23  29
ATOM     29  C   LIG d   1       6.993  -1.507  -3.398  0.00  0.00    -0.040 C 
ATOM     30  H   LIG d   1       7.752  -1.598  -2.623  0.00  0.00     0.028 H 
ATOM     31  H   LIG d   1       6.495  -2.466  -3.535  0.00  0.00     0.028 H 
ATOM     32  H   LIG d   1       7.464  -1.205  -4.334  0.00  0.00     0.028 H 
ENDBRANCH  23  29
ENDBRANCH  20  23
ENDBRANCH  17  19
BRANCH  16  33
ATOM     33  C   LIG d   1       2.529   0.759  -4.543  0.00  0.00    -0.040 C 
ATOM     34  H   LIG d   1       1.886   1.275  -5.256  0.00  0.00     0.028 H 
ATOM     35  H   LIG d   1       1.922   0.352  -3.735  0.00  0.00     0.028 H 
ATOM     36  H   LIG d   1       3.254   1.463  -4.133  0.00  0.00     0.028 H 
ENDBRANCH  16  33
ENDBRANCH  13  16
ENDBRANCH   2  12
BRANCH   1  37
ATOM     37  C   LIG d   1       6.316  -1.216  -8.222  0.00  0.00    -0.043 C 
ATOM     38  H   LIG d   1       7.120  -1.700  -8.777  0.00  0.00     0.028 H 
ATOM     39  H   LIG d   1       6.740  -0.512  -7.507  0.00  0.00     0.028 H 
ATOM     40  H   LIG d   1       5.737  -1.970  -7.690  0.00  0.00     0.028 H 
ENDBRANCH   1  37
BRANCH   3  41
ATOM     41  C   LIG d   1       2.138   0.311  -9.563  0.00  0.00    -0.056 C 
ATOM     42  H   LIG d   1       1.348   0.974  -9.210  0.00  0.00     0.024 H 
ATOM     43  H   LIG d   1       1.924   0.004 -10.586  0.00  0.00     0.024 H 
ATOM     44  H   LIG d   1       2.187  -0.570  -8.923  0.00  0.00     0.024 H 
ENDBRANCH   3  41
BRANCH   3  45
ATOM     45  C   LIG d   1       3.273   2.432  -8.904  0.00  0.00    -0.056 C 
ATOM     46  H   LIG d   1       2.221   2.710  -8.975  0.00  0.00     0.024 H 
ATOM     47  H   LIG d   1       3.574   2.412  -7.857  0.00  0.00     0.024 H 
ATOM     48  H   LIG d   1       3.878   3.162  -9.442  0.00  0.00     0.024 H 
ENDBRANCH   3  45
BRANCH   5  49
ATOM     49  O   LIG d   1       4.782  -0.100 -12.839  0.00  0.00    -0.391 OA
ATOM     50  H   LIG d   1       5.533   0.478 -13.032  0.00  0.00     0.210 HD
ENDBRANCH   5  49
TORSDOF 11
ENDMDL
MODEL 4
REMARK VINA RESULT:      -5.4      3.727      5.750
REMARK  11 active torsions:
REMARK  status: ('A' for Active; 'I' for Inactive)
REMARK    1  A    between atoms: C_1  and  C_2 
REMARK    2  A    between atoms: C_3  and  C_12 
REMARK    3  A    between atoms: C_4  and  C_10 
REMARK    4  A    between atoms: C_4  and  C_11 
REMARK    5  A    between atoms: C_6  and  O_9 
REMARK    6  A    between atoms: C_13  and  C_14 
REMARK    7  A    between atoms: C_14  and  C_23 
REMARK    8  A    between atoms: C_15  and  C_16 
REMARK    9  A    between atoms: C_17  and  C_18 
REMARK   10  A    between atoms: C_18  and  C_22 
REMARK   11  A    between atoms: C_19  and  C_20 
ROOT
ATOM      1  C   LIG d   1       8.924   2.432  -5.260  0.00  0.00    -0.067 C 
ATOM      2  C   LIG d   1       8.210   1.567  -5.960  0.00  0.00    -0.043 C 
ATOM      3  C   LIG d   1       8.295   1.431  -7.452  0.00  0.00    -0.008 C 
ATOM      4  C   LIG d   1       8.958   2.670  -8.056  0.00  0.00    -0.017 C 
ATOM      5  C   LIG d   1      10.258   2.949  -7.292  0.00  0.00     0.060 C 
ATOM      6  H   LIG d   1      10.860   2.041  -7.250  0.00  0.00     0.060 H 
ATOM      7  C   LIG d   1       9.897   3.397  -5.872  0.00  0.00    -0.005 C 
ATOM      8  H   LIG d   1       9.184   2.489  -9.108  0.00  0.00     0.030 H 
ATOM      9  H   LIG d   1       8.289   3.525  -7.965  0.00  0.00     0.030 H 
ATOM     10  H   LIG d   1       9.448   4.390  -5.907  0.00  0.00     0.034 H 
ATOM     11  H   LIG d   1      10.801   3.432  -5.265  0.00  0.00     0.034 H 
ENDROOT
BRANCH   2  12
ATOM     12  C   LIG d   1       7.314   0.719  -5.261  0.00  0.00    -0.058 C 
ATOM     13  C   LIG d   1       7.716  -0.518  -4.868  0.00  0.00    -0.059 C 
ATOM     14  H   LIG d   1       8.699  -0.876  -5.133  0.00  0.00     0.062 H 
ATOM     15  H   LIG d   1       6.312   1.057  -5.041  0.00  0.00     0.062 H 
BRANCH  13  16
ATOM     16  C   LIG d   1       6.850  -1.332  -4.117  0.00  0.00    -0.050 C 
ATOM     17  C   LIG d   1       6.174  -0.811  -3.051  0.00  0.00    -0.059 C 
ATOM     18  H   LIG d   1       6.307   0.228  -2.784  0.00  0.00     0.062 H 
BRANCH  17  19
ATOM     19  C   LIG d   1       5.311  -1.622  -2.303  0.00  0.00    -0.061 C 
ATOM     20  C   LIG d   1       3.959  -1.359  -2.289  0.00  0.00    -0.059 C 
ATOM     21  H   LIG d   1       3.285  -2.025  -1.771  0.00  0.00     0.062 H 
ATOM     22  H   LIG d   1       5.706  -2.453  -1.738  0.00  0.00     0.062 H 
BRANCH  20  23
ATOM     23  C   LIG d   1       3.459  -0.229  -2.946  0.00  0.00    -0.047 C 
ATOM     24  C   LIG d   1       2.899  -0.352  -4.200  0.00  0.00    -0.019 C 
ATOM     25  H   LIG d   1       2.846  -1.320  -4.675  0.00  0.00     0.065 H 
BRANCH  24  26
ATOM     26  C   LIG d   1       2.400   0.778  -4.855  0.00  0.00     0.143 C 
ATOM     27  O   LIG d   1       2.848   1.098  -5.941  0.00  0.00    -0.296 OA
ATOM     28  H   LIG d   1       1.619   1.367  -4.399  0.00  0.00     0.107 H 
ENDBRANCH  24  26
BRANCH  23  29
ATOM     29  C   LIG d   1       3.534   1.122  -2.282  0.00  0.00    -0.040 C 
ATOM     30  H   LIG d   1       4.575   1.374  -2.088  0.00  0.00     0.028 H 
ATOM     31  H   LIG d   1       3.093   1.873  -2.938  0.00  0.00     0.028 H 
ATOM     32  H   LIG d   1       2.985   1.095  -1.340  0.00  0.00     0.028 H 
ENDBRANCH  23  29
ENDBRANCH  20  23
ENDBRANCH  17  19
BRANCH  16  33
ATOM     33  C   LIG d   1       6.664  -2.780  -4.490  0.00  0.00    -0.040 C 
ATOM     34  H   LIG d   1       7.640  -3.247  -4.628  0.00  0.00     0.028 H 
ATOM     35  H   LIG d   1       6.125  -3.294  -3.695  0.00  0.00     0.028 H 
ATOM     36  H   LIG d   1       6.096  -2.847  -5.417  0.00  0.00     0.028 H 
ENDBRANCH  16  33
ENDBRANCH  13  16
ENDBRANCH   2  12
BRANCH   1  37
ATOM     37  C   LIG d   1       8.746   2.455  -3.764  0.00  0.00    -0.043 C 
ATOM     38  H   LIG d   1       7.735   2.786  -3.523  0.00  0.00     0.028 H 
ATOM     39  H   LIG d   1       8.906   1.455  -3.363  0.00  0.00     0.028 H 
ATOM     40  H   LIG d   1       9.467   3.143  -3.323  0.00  0.00     0.028 H 
ENDBRANCH   1  37
BRANCH   3  41
ATOM     41  C   LIG d   1       9.120   0.191  -7.803  0.00  0.00    -0.056 C 
ATOM     42  H   LIG d   1       9.854   0.010  -7.018  0.00  0.00     0.024 H 
ATOM     43  H   LIG d   1       8.460  -0.671  -7.890  0.00  0.00     0.024 H 
ATOM     44  H   LIG d   1       9.633   0.353  -8.751  0.00  0.00     0.024 H 
ENDBRANCH   3  41
BRANCH   3  45
ATOM     45  C   LIG d   1       6.885   1.279  -8.028  0.00  0.00    -0.056 C 
ATOM     46  H   LIG d   1       6.178   1.106  -7.218  0.00  0.00     0.024 H 
ATOM     47  H   LIG d   1       6.611   2.188  -8.563  0.00  0.00     0.024 H 
ATOM     48  H   LIG d   1       6.863   0.433  -8.715  0.00  0.00     0.024 H 
ENDBRANCH   3  45
BRANCH   5  49
ATOM     49  O   LIG d   1      10.991   3.982  -7.952  0.00  0.00    -0.391 OA
ATOM     50  H   LIG d   1      10.714   4.140  -8.865  0.00  0.00     0.210 HD
ENDBRANCH   5  49
TORSDOF 11
ENDMDL
MODEL 5
REMARK VINA RESULT:      -5.4      1.717      2.452
REMARK  11 active torsions:
REMARK  status: ('A' for Active; 'I' for Inactive)
REMARK    1  A    between atoms: C_1  and  C_2 
REMARK    2  A    between atoms: C_3  and  C_12 
REMARK    3  A    between atoms: C_4  and  C_10 
REMARK    4  A    between atoms: C_4  and  C_11 
REMARK    5  A    between atoms: C_6  and  O_9 
REMARK    6  A    between atoms: C_13  and  C_14 
REMARK    7  A    between atoms: C_14  and  C_23 
REMARK    8  A    between atoms: C_15  and  C_16 
REMARK    9  A    between atoms: C_17  and  C_18 
REMARK   10  A    between atoms: C_18  and  C_22 
REMARK   11  A    between atoms: C_19  and  C_20 
ROOT
ATOM      1  C   LIG d   1       3.699  -0.210  -8.905  0.00  0.00    -0.067 C 
ATOM      2  C   LIG d   1       4.211  -1.417  -8.728  0.00  0.00    -0.043 C 
ATOM      3  C   LIG d   1       4.793  -2.246  -9.836  0.00  0.00    -0.008 C 
ATOM      4  C   LIG d   1       4.332  -1.709 -11.192  0.00  0.00    -0.017 C 
ATOM      5  C   LIG d   1       4.580  -0.197 -11.228  0.00  0.00     0.060 C 
ATOM      6  H   LIG d   1       5.612   0.012 -10.943  0.00  0.00     0.060 H 
ATOM      7  C   LIG d   1       3.624   0.475 -10.238  0.00  0.00    -0.005 C 
ATOM      8  H   LIG d   1       4.898  -2.193 -11.989  0.00  0.00     0.030 H 
ATOM      9  H   LIG d   1       3.269  -1.909 -11.322  0.00  0.00     0.030 H 
ATOM     10  H   LIG d   1       2.604   0.413 -10.618  0.00  0.00     0.034 H 
ATOM     11  H   LIG d   1       3.902   1.522 -10.123  0.00  0.00     0.034 H 
ENDROOT
BRANCH   2  12
ATOM     12  C   LIG d   1       4.210  -1.958  -7.417  0.00  0.00    -0.058 C 
ATOM     13  C   LIG d   1       5.359  -1.988  -6.694  0.00  0.00    -0.059 C 
ATOM     14  H   LIG d   1       6.284  -1.648  -7.135  0.00  0.00     0.062 H 
ATOM     15  H   LIG d   1       3.295  -2.346  -6.995  0.00  0.00     0.062 H 
BRANCH  13  16
ATOM     16  C   LIG d   1       5.344  -2.464  -5.371  0.00  0.00    -0.050 C 
ATOM     17  C   LIG d   1       4.282  -2.187  -4.558  0.00  0.00    -0.059 C 
ATOM     18  H   LIG d   1       3.454  -1.602  -4.932  0.00  0.00     0.062 H 
BRANCH  17  19
ATOM     19  C   LIG d   1       4.266  -2.661  -3.240  0.00  0.00    -0.061 C 
ATOM     20  C   LIG d   1       4.341  -1.775  -2.188  0.00  0.00    -0.059 C 
ATOM     21  H   LIG d   1       4.258  -2.133  -1.173  0.00  0.00     0.062 H 
ATOM     22  H   LIG d   1       4.195  -3.722  -3.049  0.00  0.00     0.062 H 
BRANCH  20  23
ATOM     23  C   LIG d   1       4.526  -0.410  -2.436  0.00  0.00    -0.047 C 
ATOM     24  C   LIG d   1       3.444   0.445  -2.431  0.00  0.00    -0.019 C 
ATOM     25  H   LIG d   1       2.454   0.061  -2.236  0.00  0.00     0.065 H 
BRANCH  24  26
ATOM     26  C   LIG d   1       3.631   1.808  -2.679  0.00  0.00     0.143 C 
ATOM     27  O   LIG d   1       3.269   2.288  -3.737  0.00  0.00    -0.296 OA
ATOM     28  H   LIG d   1       4.095   2.435  -1.933  0.00  0.00     0.107 H 
ENDBRANCH  24  26
BRANCH  23  29
ATOM     29  C   LIG d   1       5.909   0.125  -2.708  0.00  0.00    -0.040 C 
ATOM     30  H   LIG d   1       5.941   0.555  -3.709  0.00  0.00     0.028 H 
ATOM     31  H   LIG d   1       6.152   0.894  -1.975  0.00  0.00     0.028 H 
ATOM     32  H   LIG d   1       6.633  -0.687  -2.638  0.00  0.00     0.028 H 
ENDBRANCH  23  29
ENDBRANCH  20  23
ENDBRANCH  17  19
BRANCH  16  33
ATOM     33  C   LIG d   1       6.498  -3.279  -4.849  0.00  0.00    -0.040 C 
ATOM     34  H   LIG d   1       7.198  -2.626  -4.327  0.00  0.00     0.028 H 
ATOM     35  H   LIG d   1       6.126  -4.038  -4.162  0.00  0.00     0.028 H 
ATOM     36  H   LIG d   1       7.008  -3.763  -5.683  0.00  0.00     0.028 H 
ENDBRANCH  16  33
ENDBRANCH  13  16
ENDBRANCH   2  12
BRANCH   1  37
ATOM     37  C   LIG d   1       3.157   0.515  -7.701  0.00  0.00    -0.043 C 
ATOM     38  H   LIG d   1       2.748  -0.208  -6.995  0.00  0.00     0.028 H 
ATOM     39  H   LIG d   1       3.959   1.077  -7.223  0.00  0.00     0.028 H 
ATOM     40  H   LIG d   1       2.370   1.201  -8.014  0.00  0.00     0.028 H 
ENDBRANCH   1  37
BRANCH   3  41
ATOM     41  C   LIG d   1       6.321  -2.192  -9.762  0.00  0.00    -0.056 C 
ATOM     42  H   LIG d   1       6.709  -1.695 -10.651  0.00  0.00     0.024 H 
ATOM     43  H   LIG d   1       6.621  -1.637  -8.874  0.00  0.00     0.024 H 
ATOM     44  H   LIG d   1       6.717  -3.206  -9.708  0.00  0.00     0.024 H 
ENDBRANCH   3  41
BRANCH   3  45
ATOM     45  C   LIG d   1       4.331  -3.696  -9.680  0.00  0.00    -0.056 C 
ATOM     46  H   LIG d   1       4.110  -3.897  -8.632  0.00  0.00     0.024 H 
ATOM     47  H   LIG d   1       3.435  -3.858 -10.279  0.00  0.00     0.024 H 
ATOM     48  H   LIG d   1       5.120  -4.367 -10.019  0.00  0.00     0.024 H 
ENDBRANCH   3  45
BRANCH   5  49
ATOM     49  O   LIG d   1       4.337   0.299 -12.546  0.00  0.00    -0.391 OA
ATOM     50  H   LIG d   1       3.575  -0.106 -12.984  0.00  0.00     0.210 HD
ENDBRANCH   5  49
TORSDOF 11
ENDMDL
MODEL 6
REMARK VINA RESULT:      -5.2      3.462      6.814
REMARK  11 active torsions:
REMARK  status: ('A' for Active; 'I' for Inactive)
REMARK    1  A    between atoms: C_1  and  C_2 
REMARK    2  A    between atoms: C_3  and  C_12 
REMARK    3  A    between atoms: C_4  and  C_10 
REMARK    4  A    between atoms: C_4  and  C_11 
REMARK    5  A    between atoms: C_6  and  O_9 
REMARK    6  A    between atoms: C_13  and  C_14 
REMARK    7  A    between atoms: C_14  and  C_23 
REMARK    8  A    between atoms: C_15  and  C_16 
REMARK    9  A    between atoms: C_17  and  C_18 
REMARK   10  A    between atoms: C_18  and  C_22 
REMARK   11  A    between atoms: C_19  and  C_20 
ROOT
ATOM      1  C   LIG d   1       8.771   2.222  -6.548  0.00  0.00    -0.067 C 
ATOM      2  C   LIG d   1       8.765   2.465  -5.248  0.00  0.00    -0.043 C 
ATOM      3  C   LIG d   1       9.821   3.267  -4.545  0.00  0.00    -0.008 C 
ATOM      4  C   LIG d   1      11.069   3.377  -5.424  0.00  0.00    -0.017 C 
ATOM      5  C   LIG d   1      10.641   3.836  -6.823  0.00  0.00     0.060 C 
ATOM      6  H   LIG d   1      10.018   4.726  -6.741  0.00  0.00     0.060 H 
ATOM      7  C   LIG d   1       9.845   2.704  -7.480  0.00  0.00    -0.005 C 
ATOM      8  H   LIG d   1      11.756   4.107  -4.993  0.00  0.00     0.030 H 
ATOM      9  H   LIG d   1      11.557   2.405  -5.490  0.00  0.00     0.030 H 
ATOM     10  H   LIG d   1      10.515   1.878  -7.718  0.00  0.00     0.034 H 
ATOM     11  H   LIG d   1       9.388   3.072  -8.398  0.00  0.00     0.034 H 
ENDROOT
BRANCH   2  12
ATOM     12  C   LIG d   1       7.699   1.940  -4.475  0.00  0.00    -0.058 C 
ATOM     13  C   LIG d   1       7.668   0.616  -4.171  0.00  0.00    -0.059 C 
ATOM     14  H   LIG d   1       8.428  -0.045  -4.560  0.00  0.00     0.062 H 
ATOM     15  H   LIG d   1       6.910   2.592  -4.129  0.00  0.00     0.062 H 
BRANCH  13  16
ATOM     16  C   LIG d   1       6.647   0.108  -3.349  0.00  0.00    -0.050 C 
ATOM     17  C   LIG d   1       5.748   0.958  -2.771  0.00  0.00    -0.059 C 
ATOM     18  H   LIG d   1       5.824   2.023  -2.944  0.00  0.00     0.062 H 
BRANCH  17  19
ATOM     19  C   LIG d   1       4.730   0.452  -1.953  0.00  0.00    -0.061 C 
ATOM     20  C   LIG d   1       3.454   0.306  -2.452  0.00  0.00    -0.059 C 
ATOM     21  H   LIG d   1       2.686  -0.149  -1.845  0.00  0.00     0.062 H 
ATOM     22  H   LIG d   1       4.946   0.176  -0.931  0.00  0.00     0.062 H 
BRANCH  20  23
ATOM     23  C   LIG d   1       3.154   0.749  -3.745  0.00  0.00    -0.047 C 
ATOM     24  C   LIG d   1       3.200  -0.132  -4.804  0.00  0.00    -0.019 C 
ATOM     25  H   LIG d   1       3.468  -1.165  -4.636  0.00  0.00     0.065 H 
BRANCH  24  26
ATOM     26  C   LIG d   1       2.900   0.312  -6.095  0.00  0.00     0.143 C 
ATOM     27  O   LIG d   1       3.797   0.508  -6.894  0.00  0.00    -0.296 OA
ATOM     28  H   LIG d   1       1.874   0.482  -6.384  0.00  0.00     0.107 H 
ENDBRANCH  24  26
BRANCH  23  29
ATOM     29  C   LIG d   1       2.781   2.191  -3.979  0.00  0.00    -0.040 C 
ATOM     30  H   LIG d   1       3.538   2.665  -4.602  0.00  0.00     0.028 H 
ATOM     31  H   LIG d   1       1.815   2.239  -4.481  0.00  0.00     0.028 H 
ATOM     32  H   LIG d   1       2.720   2.710  -3.022  0.00  0.00     0.028 H 
ENDBRANCH  23  29
ENDBRANCH  20  23
ENDBRANCH  17  19
BRANCH  16  33
ATOM     33  C   LIG d   1       6.541  -1.375  -3.109  0.00  0.00    -0.040 C 
ATOM     34  H   LIG d   1       7.415  -1.717  -2.554  0.00  0.00     0.028 H 
ATOM     35  H   LIG d   1       5.640  -1.588  -2.534  0.00  0.00     0.028 H 
ATOM     36  H   LIG d   1       6.493  -1.897  -4.065  0.00  0.00     0.028 H 
ENDBRANCH  16  33
ENDBRANCH  13  16
ENDBRANCH   2  12
BRANCH   1  37
ATOM     37  C   LIG d   1       7.641   1.410  -7.125  0.00  0.00    -0.043 C 
ATOM     38  H   LIG d   1       6.779   2.056  -7.294  0.00  0.00     0.028 H 
ATOM     39  H   LIG d   1       7.955   0.969  -8.071  0.00  0.00     0.028 H 
ATOM     40  H   LIG d   1       7.369   0.618  -6.428  0.00  0.00     0.028 H 
ENDBRANCH   1  37
BRANCH   3  41
ATOM     41  C   LIG d   1       9.283   4.668  -4.249  0.00  0.00    -0.056 C 
ATOM     42  H   LIG d   1       9.247   4.821  -3.170  0.00  0.00     0.024 H 
ATOM     43  H   LIG d   1       9.939   5.411  -4.700  0.00  0.00     0.024 H 
ATOM     44  H   LIG d   1       8.281   4.767  -4.665  0.00  0.00     0.024 H 
ENDBRANCH   3  41
BRANCH   3  45
ATOM     45  C   LIG d   1      10.188   2.578  -3.229  0.00  0.00    -0.056 C 
ATOM     46  H   LIG d   1       9.346   1.977  -2.886  0.00  0.00     0.024 H 
ATOM     47  H   LIG d   1      11.054   1.935  -3.384  0.00  0.00     0.024 H 
ATOM     48  H   LIG d   1      10.424   3.331  -2.478  0.00  0.00     0.024 H 
ENDBRANCH   3  45
BRANCH   5  49
ATOM     49  O   LIG d   1      11.798   4.129  -7.607  0.00  0.00    -0.391 OA
ATOM     50  H   LIG d   1      11.722   3.869  -8.535  0.00  0.00     0.210 HD
ENDBRANCH   5  49
TORSDOF 11
ENDMDL
MODEL 7
REMARK VINA RESULT:      -5.0      2.116      3.036
REMARK  11 active torsions:
REMARK  status: ('A' for Active; 'I' for Inactive)
REMARK    1  A    between atoms: C_1  and  C_2 
REMARK    2  A    between atoms: C_3  and  C_12 
REMARK    3  A    between atoms: C_4  and  C_10 
REMARK    4  A    between atoms: C_4  and  C_11 
REMARK    5  A    between atoms: C_6  and  O_9 
REMARK    6  A    between atoms: C_13  and  C_14 
REMARK    7  A    between atoms: C_14  and  C_23 
REMARK    8  A    between atoms: C_15  and  C_16 
REMARK    9  A    between atoms: C_17  and  C_18 
REMARK   10  A    between atoms: C_18  and  C_22 
REMARK   11  A    between atoms: C_19  and  C_20 
ROOT
ATOM      1  C   LIG d   1       5.899  -0.230  -9.158  0.00  0.00    -0.067 C 
ATOM      2  C   LIG d   1       4.830  -0.613  -8.480  0.00  0.00    -0.043 C 
ATOM      3  C   LIG d   1       3.455  -0.707  -9.074  0.00  0.00    -0.008 C 
ATOM      4  C   LIG d   1       3.392   0.086 -10.381  0.00  0.00    -0.017 C 
ATOM      5  C   LIG d   1       4.578  -0.329 -11.260  0.00  0.00     0.060 C 
ATOM      6  H   LIG d   1       4.607  -1.416 -11.346  0.00  0.00     0.060 H 
ATOM      7  C   LIG d   1       5.867   0.173 -10.603  0.00  0.00    -0.005 C 
ATOM      8  H   LIG d   1       2.458  -0.134 -10.898  0.00  0.00     0.030 H 
ATOM      9  H   LIG d   1       3.452   1.153 -10.165  0.00  0.00     0.030 H 
ATOM     10  H   LIG d   1       5.913   1.260 -10.676  0.00  0.00     0.034 H 
ATOM     11  H   LIG d   1       6.725  -0.258 -11.118  0.00  0.00     0.034 H 
ENDROOT
BRANCH   2  12
ATOM     12  C   LIG d   1       4.993  -0.956  -7.113  0.00  0.00    -0.058 C 
ATOM     13  C   LIG d   1       5.214  -2.249  -6.759  0.00  0.00    -0.059 C 
ATOM     14  H   LIG d   1       5.213  -3.023  -7.511  0.00  0.00     0.062 H 
ATOM     15  H   LIG d   1       4.942  -0.189  -6.355  0.00  0.00     0.062 H 
BRANCH  13  16
ATOM     16  C   LIG d   1       5.441  -2.578  -5.411  0.00  0.00    -0.050 C 
ATOM     17  C   LIG d   1       5.860  -1.618  -4.534  0.00  0.00    -0.059 C 
ATOM     18  H   LIG d   1       6.018  -0.606  -4.878  0.00  0.00     0.062 H 
BRANCH  17  19
ATOM     19  C   LIG d   1       6.086  -1.946  -3.192  0.00  0.00    -0.061 C 
ATOM     20  C   LIG d   1       5.222  -1.496  -2.217  0.00  0.00    -0.059 C 
ATOM     21  H   LIG d   1       5.356  -1.806  -1.192  0.00  0.00     0.062 H 
ATOM     22  H   LIG d   1       6.938  -2.553  -2.920  0.00  0.00     0.062 H 
BRANCH  20  23
ATOM     23  C   LIG d   1       4.173  -0.634  -2.557  0.00  0.00    -0.047 C 
ATOM     24  C   LIG d   1       3.079  -1.117  -3.244  0.00  0.00    -0.019 C 
ATOM     25  H   LIG d   1       3.032  -2.160  -3.519  0.00  0.00     0.065 H 
BRANCH  24  26
ATOM     26  C   LIG d   1       2.032  -0.256  -3.583  0.00  0.00     0.143 C 
ATOM     27  O   LIG d   1       1.944   0.177  -4.717  0.00  0.00    -0.296 OA
ATOM     28  H   LIG d   1       1.300   0.026  -2.840  0.00  0.00     0.107 H 
ENDBRANCH  24  26
BRANCH  23  29
ATOM     29  C   LIG d   1       4.239   0.822  -2.173  0.00  0.00    -0.040 C 
ATOM     30  H   LIG d   1       3.326   1.323  -2.492  0.00  0.00     0.028 H 
ATOM     31  H   LIG d   1       4.343   0.907  -1.092  0.00  0.00     0.028 H 
ATOM     32  H   LIG d   1       5.098   1.287  -2.659  0.00  0.00     0.028 H 
ENDBRANCH  23  29
ENDBRANCH  20  23
ENDBRANCH  17  19
BRANCH  16  33
ATOM     33  C   LIG d   1       5.220  -3.989  -4.932  0.00  0.00    -0.040 C 
ATOM     34  H   LIG d   1       4.869  -4.604  -5.762  0.00  0.00     0.028 H 
ATOM     35  H   LIG d   1       6.157  -4.395  -4.551  0.00  0.00     0.028 H 
ATOM     36  H   LIG d   1       4.473  -3.992  -4.139  0.00  0.00     0.028 H 
ENDBRANCH  16  33
ENDBRANCH  13  16
ENDBRANCH   2  12
BRANCH   1  37
ATOM     37  C   LIG d   1       7.222  -0.192  -8.438  0.00  0.00    -0.043 C 
ATOM     38  H   LIG d   1       7.980   0.236  -9.094  0.00  0.00     0.028 H 
ATOM     39  H   LIG d   1       7.130   0.421  -7.541  0.00  0.00     0.028 H 
ATOM     40  H   LIG d   1       7.513  -1.204  -8.158  0.00  0.00     0.028 H 
ENDBRANCH   1  37
BRANCH   3  41
ATOM     41  C   LIG d   1       3.121  -2.173  -9.353  0.00  0.00    -0.056 C 
ATOM     42  H   LIG d   1       2.081  -2.254  -9.670  0.00  0.00     0.024 H 
ATOM     43  H   LIG d   1       3.771  -2.550 -10.142  0.00  0.00     0.024 H 
ATOM     44  H   LIG d   1       3.272  -2.759  -8.447  0.00  0.00     0.024 H 
ENDBRANCH   3  41
BRANCH   3  45
ATOM     45  C   LIG d   1       2.436  -0.136  -8.086  0.00  0.00    -0.056 C 
ATOM     46  H   LIG d   1       1.521  -0.727  -8.125  0.00  0.00     0.024 H 
ATOM     47  H   LIG d   1       2.849  -0.173  -7.077  0.00  0.00     0.024 H 
ATOM     48  H   LIG d   1       2.213   0.897  -8.350  0.00  0.00     0.024 H 
ENDBRANCH   3  45
BRANCH   5  49
ATOM     49  O   LIG d   1       4.440   0.252 -12.558  0.00  0.00    -0.391 OA
ATOM     50  H   LIG d   1       4.460   1.219 -12.561  0.00  0.00     0.210 HD
ENDBRANCH   5  49
TORSDOF 11
ENDMDL
MODEL 8
REMARK VINA RESULT:      -4.9      1.913      7.331
REMARK  11 active torsions:
REMARK  status: ('A' for Active; 'I' for Inactive)
REMARK    1  A    between atoms: C_1  and  C_2 
REMARK    2  A    between atoms: C_3  and  C_12 
REMARK    3  A    between atoms: C_4  and  C_10 
REMARK    4  A    between atoms: C_4  and  C_11 
REMARK    5  A    between atoms: C_6  and  O_9 
REMARK    6  A    between atoms: C_13  and  C_14 
REMARK    7  A    between atoms: C_14  and  C_23 
REMARK    8  A    between atoms: C_15  and  C_16 
REMARK    9  A    between atoms: C_17  and  C_18 
REMARK   10  A    between atoms: C_18  and  C_22 
REMARK   11  A    between atoms: C_19  and  C_20 
ROOT
ATOM      1  C   LIG d   1       6.024  -0.006  -4.169  0.00  0.00    -0.067 C 
ATOM      2  C   LIG d   1       5.173  -1.015  -4.246  0.00  0.00    -0.043 C 
ATOM      3  C   LIG d   1       4.116  -1.296  -3.217  0.00  0.00    -0.008 C 
ATOM      4  C   LIG d   1       4.438  -0.553  -1.918  0.00  0.00    -0.017 C 
ATOM      5  C   LIG d   1       4.732   0.914  -2.255  0.00  0.00     0.060 C 
ATOM      6  H   LIG d   1       3.923   1.318  -2.865  0.00  0.00     0.060 H 
ATOM      7  C   LIG d   1       6.049   0.976  -3.034  0.00  0.00    -0.005 C 
ATOM      8  H   LIG d   1       3.582  -0.610  -1.244  0.00  0.00     0.030 H 
ATOM      9  H   LIG d   1       5.310  -1.002  -1.446  0.00  0.00     0.030 H 
ATOM     10  H   LIG d   1       6.878   0.737  -2.367  0.00  0.00     0.034 H 
ATOM     11  H   LIG d   1       6.186   1.982  -3.430  0.00  0.00     0.034 H 
ENDROOT
BRANCH   2  12
ATOM     12  C   LIG d   1       5.263  -1.881  -5.365  0.00  0.00    -0.058 C 
ATOM     13  C   LIG d   1       4.512  -1.642  -6.472  0.00  0.00    -0.059 C 
ATOM     14  H   LIG d   1       3.808  -0.823  -6.480  0.00  0.00     0.062 H 
ATOM     15  H   LIG d   1       5.929  -2.731  -5.338  0.00  0.00     0.062 H 
BRANCH  13  16
ATOM     16  C   LIG d   1       4.650  -2.462  -7.606  0.00  0.00    -0.050 C 
ATOM     17  C   LIG d   1       5.415  -2.048  -8.658  0.00  0.00    -0.059 C 
ATOM     18  H   LIG d   1       5.913  -1.089  -8.619  0.00  0.00     0.062 H 
BRANCH  17  19
ATOM     19  C   LIG d   1       5.554  -2.864  -9.788  0.00  0.00    -0.061 C 
ATOM     20  C   LIG d   1       4.955  -2.505 -10.976  0.00  0.00    -0.059 C 
ATOM     21  H   LIG d   1       5.120  -3.096 -11.864  0.00  0.00     0.062 H 
ATOM     22  H   LIG d   1       6.130  -3.776  -9.727  0.00  0.00     0.062 H 
BRANCH  20  23
ATOM     23  C   LIG d   1       4.134  -1.373 -11.030  0.00  0.00    -0.047 C 
ATOM     24  C   LIG d   1       4.685  -0.130 -11.261  0.00  0.00    -0.019 C 
ATOM     25  H   LIG d   1       5.751  -0.030 -11.399  0.00  0.00     0.065 H 
BRANCH  24  26
ATOM     26  C   LIG d   1       3.863   0.999 -11.315  0.00  0.00     0.143 C 
ATOM     27  O   LIG d   1       3.918   1.833 -10.431  0.00  0.00    -0.296 OA
ATOM     28  H   LIG d   1       3.179   1.132 -12.140  0.00  0.00     0.107 H 
ENDBRANCH  24  26
BRANCH  23  29
ATOM     29  C   LIG d   1       2.646  -1.513 -10.836  0.00  0.00    -0.040 C 
ATOM     30  H   LIG d   1       2.270  -2.313 -11.473  0.00  0.00     0.028 H 
ATOM     31  H   LIG d   1       2.437  -1.750  -9.793  0.00  0.00     0.028 H 
ATOM     32  H   LIG d   1       2.155  -0.576 -11.101  0.00  0.00     0.028 H 
ENDBRANCH  23  29
ENDBRANCH  20  23
ENDBRANCH  17  19
BRANCH  16  33
ATOM     33  C   LIG d   1       3.956  -3.797  -7.659  0.00  0.00    -0.040 C 
ATOM     34  H   LIG d   1       3.431  -3.896  -8.610  0.00  0.00     0.028 H 
ATOM     35  H   LIG d   1       4.693  -4.595  -7.567  0.00  0.00     0.028 H 
ATOM     36  H   LIG d   1       3.240  -3.869  -6.841  0.00  0.00     0.028 H 
ENDBRANCH  16  33
ENDBRANCH  13  16
ENDBRANCH   2  12
BRANCH   1  37
ATOM     37  C   LIG d   1       7.028   0.164  -5.279  0.00  0.00    -0.043 C 
ATOM     38  H   LIG d   1       7.065  -0.746  -5.878  0.00  0.00     0.028 H 
ATOM     39  H   LIG d   1       6.735   1.003  -5.909  0.00  0.00     0.028 H 
ATOM     40  H   LIG d   1       8.012   0.357  -4.852  0.00  0.00     0.028 H 
ENDBRANCH   1  37
BRANCH   3  41
ATOM     41  C   LIG d   1       2.757  -0.832  -3.745  0.00  0.00    -0.056 C 
ATOM     42  H   LIG d   1       1.967  -1.416  -3.273  0.00  0.00     0.024 H 
ATOM     43  H   LIG d   1       2.618   0.223  -3.511  0.00  0.00     0.024 H 
ATOM     44  H   LIG d   1       2.720  -0.973  -4.824  0.00  0.00     0.024 H 
ENDBRANCH   3  41
BRANCH   3  45
ATOM     45  C   LIG d   1       4.064  -2.800  -2.941  0.00  0.00    -0.056 C 
ATOM     46  H   LIG d   1       4.674  -3.326  -3.676  0.00  0.00     0.024 H 
ATOM     47  H   LIG d   1       4.448  -2.999  -1.941  0.00  0.00     0.024 H 
ATOM     48  H   LIG d   1       3.033  -3.146  -3.011  0.00  0.00     0.024 H 
ENDBRANCH   3  45
BRANCH   5  49
ATOM     49  O   LIG d   1       4.848   1.670  -1.049  0.00  0.00    -0.391 OA
ATOM     50  H   LIG d   1       4.505   2.572  -1.115  0.00  0.00     0.210 HD
ENDBRANCH   5  49
TORSDOF 11
ENDMDL
MODEL 9
REMARK VINA RESULT:      -4.6      3.387      7.067
REMARK  11 active torsions:
REMARK  status: ('A' for Active; 'I' for Inactive)
REMARK    1  A    between atoms: C_1  and  C_2 
REMARK    2  A    between atoms: C_3  and  C_12 
REMARK    3  A    between atoms: C_4  and  C_10 
REMARK    4  A    between atoms: C_4  and  C_11 
REMARK    5  A    between atoms: C_6  and  O_9 
REMARK    6  A    between atoms: C_13  and  C_14 
REMARK    7  A    between atoms: C_14  and  C_23 
REMARK    8  A    between atoms: C_15  and  C_16 
REMARK    9  A    between atoms: C_17  and  C_18 
REMARK   10  A    between atoms: C_18  and  C_22 
REMARK   11  A    between atoms: C_19  and  C_20 
ROOT
ATOM      1  C   LIG d   1       9.094   2.690  -6.462  0.00  0.00    -0.067 C 
ATOM      2  C   LIG d   1       9.290   2.432  -5.180  0.00  0.00    -0.043 C 
ATOM      3  C   LIG d   1      10.281   3.166  -4.324  0.00  0.00    -0.008 C 
ATOM      4  C   LIG d   1      11.289   3.907  -5.206  0.00  0.00    -0.017 C 
ATOM      5  C   LIG d   1      10.517   4.716  -6.254  0.00  0.00     0.060 C 
ATOM      6  H   LIG d   1       9.757   5.323  -5.761  0.00  0.00     0.060 H 
ATOM      7  C   LIG d   1       9.850   3.738  -7.226  0.00  0.00    -0.005 C 
ATOM      8  H   LIG d   1      11.887   4.581  -4.591  0.00  0.00     0.030 H 
ATOM      9  H   LIG d   1      11.938   3.188  -5.704  0.00  0.00     0.030 H 
ATOM     10  H   LIG d   1      10.612   3.258  -7.840  0.00  0.00     0.034 H 
ATOM     11  H   LIG d   1       9.161   4.283  -7.869  0.00  0.00     0.034 H 
ENDROOT
BRANCH   2  12
ATOM     12  C   LIG d   1       8.519   1.405  -4.579  0.00  0.00    -0.058 C 
ATOM     13  C   LIG d   1       7.391   1.718  -3.888  0.00  0.00    -0.059 C 
ATOM     14  H   LIG d   1       7.110   2.751  -3.752  0.00  0.00     0.062 H 
ATOM     15  H   LIG d   1       8.828   0.374  -4.671  0.00  0.00     0.062 H 
BRANCH  13  16
ATOM     16  C   LIG d   1       6.592   0.695  -3.349  0.00  0.00    -0.050 C 
ATOM     17  C   LIG d   1       6.895  -0.613  -3.599  0.00  0.00    -0.059 C 
ATOM     18  H   LIG d   1       7.750  -0.861  -4.213  0.00  0.00     0.062 H 
BRANCH  17  19
ATOM     19  C   LIG d   1       6.099  -1.633  -3.062  0.00  0.00    -0.061 C 
ATOM     20  C   LIG d   1       5.181  -2.282  -3.858  0.00  0.00    -0.059 C 
ATOM     21  H   LIG d   1       4.618  -3.114  -3.464  0.00  0.00     0.062 H 
ATOM     22  H   LIG d   1       6.205  -1.910  -2.023  0.00  0.00     0.062 H 
BRANCH  20  23
ATOM     23  C   LIG d   1       4.979  -1.862  -5.177  0.00  0.00    -0.047 C 
ATOM     24  C   LIG d   1       4.053  -0.879  -5.454  0.00  0.00    -0.019 C 
ATOM     25  H   LIG d   1       3.484  -0.433  -4.653  0.00  0.00     0.065 H 
BRANCH  24  26
ATOM     26  C   LIG d   1       3.852  -0.460  -6.773  0.00  0.00     0.143 C 
ATOM     27  O   LIG d   1       2.793   0.046  -7.095  0.00  0.00    -0.296 OA
ATOM     28  H   LIG d   1       4.635  -0.586  -7.506  0.00  0.00     0.107 H 
ENDBRANCH  24  26
BRANCH  23  29
ATOM     29  C   LIG d   1       5.774  -2.486  -6.296  0.00  0.00    -0.040 C 
ATOM     30  H   LIG d   1       5.815  -3.565  -6.155  0.00  0.00     0.028 H 
ATOM     31  H   LIG d   1       5.296  -2.262  -7.250  0.00  0.00     0.028 H 
ATOM     32  H   LIG d   1       6.786  -2.080  -6.293  0.00  0.00     0.028 H 
ENDBRANCH  23  29
ENDBRANCH  20  23
ENDBRANCH  17  19
BRANCH  16  33
ATOM     33  C   LIG d   1       5.402   1.040  -2.493  0.00  0.00    -0.040 C 
ATOM     34  H   LIG d   1       4.962   1.975  -2.843  0.00  0.00     0.028 H 
ATOM     35  H   LIG d   1       4.661   0.243  -2.560  0.00  0.00     0.028 H 
ATOM     36  H   LIG d   1       5.719   1.155  -1.457  0.00  0.00     0.028 H 
ENDBRANCH  16  33
ENDBRANCH  13  16
ENDBRANCH   2  12
BRANCH   1  37
ATOM     37  C   LIG d   1       8.058   1.881  -7.199  0.00  0.00    -0.043 C 
ATOM     38  H   LIG d   1       7.411   2.551  -7.766  0.00  0.00     0.028 H 
ATOM     39  H   LIG d   1       8.553   1.191  -7.882  0.00  0.00     0.028 H 
ATOM     40  H   LIG d   1       7.459   1.319  -6.484  0.00  0.00     0.028 H 
ENDBRANCH   1  37
BRANCH   3  41
ATOM     41  C   LIG d   1       9.543   4.173  -3.441  0.00  0.00    -0.056 C 
ATOM     42  H   LIG d   1       8.559   3.778  -3.186  0.00  0.00     0.024 H 
ATOM     43  H   LIG d   1      10.114   4.343  -2.529  0.00  0.00     0.024 H 
ATOM     44  H   LIG d   1       9.430   5.114  -3.979  0.00  0.00     0.024 H 
ENDBRANCH   3  41
BRANCH   3  45
ATOM     45  C   LIG d   1      11.024   2.165  -3.437  0.00  0.00    -0.056 C 
ATOM     46  H   LIG d   1      11.860   2.663  -2.946  0.00  0.00     0.024 H 
ATOM     47  H   LIG d   1      10.341   1.772  -2.683  0.00  0.00     0.024 H 
ATOM     48  H   LIG d   1      11.400   1.346  -4.050  0.00  0.00     0.024 H 
ENDBRANCH   3  45
BRANCH   5  49
ATOM     49  O   LIG d   1      11.419   5.564  -6.967  0.00  0.00    -0.391 OA
ATOM     50  H   LIG d   1      11.032   5.986  -7.746  0.00  0.00     0.210 HD
ENDBRANCH   5  49
TORSDOF 11
ENDMDL
MODEL 10
REMARK VINA RESULT:      -4.6      8.117      9.716
REMARK  11 active torsions:
REMARK  status: ('A' for Active; 'I' for Inactive)
REMARK    1  A    between atoms: C_1  and  C_2 
REMARK    2  A    between atoms: C_3  and  C_12 
REMARK    3  A    between atoms: C_4  and  C_10 
REMARK    4  A    between atoms: C_4  and  C_11 
REMARK    5  A    between atoms: C_6  and  O_9 
REMARK    6  A    between atoms: C_13  and  C_14 
REMARK    7  A    between atoms: C_14  and  C_23 
REMARK    8  A    between atoms: C_15  and  C_16 
REMARK    9  A    between atoms: C_17  and  C_18 
REMARK   10  A    between atoms: C_18  and  C_22 
REMARK   11  A    between atoms: C_19  and  C_20 
ROOT
ATOM      1  C   LIG d   1       9.475   7.882  -7.145  0.00  0.00    -0.067 C 
ATOM      2  C   LIG d   1       9.849   6.614  -7.107  0.00  0.00    -0.043 C 
ATOM      3  C   LIG d   1      10.078   5.775  -8.330  0.00  0.00    -0.008 C 
ATOM      4  C   LIG d   1       9.423   6.430  -9.547  0.00  0.00    -0.017 C 
ATOM      5  C   LIG d   1       9.856   7.901  -9.601  0.00  0.00     0.060 C 
ATOM      6  H   LIG d   1      10.942   7.965  -9.533  0.00  0.00     0.060 H 
ATOM      7  C   LIG d   1       9.218   8.635  -8.418  0.00  0.00    -0.005 C 
ATOM      8  H   LIG d   1       9.746   5.920 -10.456  0.00  0.00     0.030 H 
ATOM      9  H   LIG d   1       8.339   6.370  -9.456  0.00  0.00     0.030 H 
ATOM     10  H   LIG d   1       8.144   8.719  -8.577  0.00  0.00     0.034 H 
ATOM     11  H   LIG d   1       9.649   9.633  -8.339  0.00  0.00     0.034 H 
ENDROOT
BRANCH   2  12
ATOM     12  C   LIG d   1      10.045   6.013  -5.837  0.00  0.00    -0.058 C 
ATOM     13  C   LIG d   1      11.290   5.954  -5.298  0.00  0.00    -0.059 C 
ATOM     14  H   LIG d   1      12.139   6.317  -5.858  0.00  0.00     0.062 H 
ATOM     15  H   LIG d   1       9.203   5.602  -5.299  0.00  0.00     0.062 H 
BRANCH  13  16
ATOM     16  C   LIG d   1      11.475   5.418  -4.012  0.00  0.00    -0.050 C 
ATOM     17  C   LIG d   1      10.440   5.413  -3.119  0.00  0.00    -0.059 C 
ATOM     18  H   LIG d   1       9.481   5.822  -3.404  0.00  0.00     0.062 H 
BRANCH  17  19
ATOM     19  C   LIG d   1      10.623   4.879  -1.838  0.00  0.00    -0.061 C 
ATOM     20  C   LIG d   1      10.677   5.715  -0.744  0.00  0.00    -0.059 C 
ATOM     21  H   LIG d   1      10.747   5.300   0.250  0.00  0.00     0.062 H 
ATOM     22  H   LIG d   1      10.722   3.811  -1.707  0.00  0.00     0.062 H 
BRANCH  20  23
ATOM     23  C   LIG d   1      10.642   7.103  -0.922  0.00  0.00    -0.047 C 
ATOM     24  C   LIG d   1       9.432   7.764  -0.954  0.00  0.00    -0.019 C 
ATOM     25  H   LIG d   1       8.512   7.210  -0.841  0.00  0.00     0.065 H 
BRANCH  24  26
ATOM     26  C   LIG d   1       9.398   9.150  -1.132  0.00  0.00     0.143 C 
ATOM     27  O   LIG d   1       8.427   9.785  -0.768  0.00  0.00    -0.296 OA
ATOM     28  H   LIG d   1      10.233   9.656  -1.593  0.00  0.00     0.107 H 
ENDBRANCH  24  26
BRANCH  23  29
ATOM     29  C   LIG d   1      11.927   7.874  -1.081  0.00  0.00    -0.040 C 
ATOM     30  H   LIG d   1      11.778   8.685  -1.793  0.00  0.00     0.028 H 
ATOM     31  H   LIG d   1      12.224   8.287  -0.117  0.00  0.00     0.028 H 
ATOM     32  H   LIG d   1      12.708   7.208  -1.448  0.00  0.00     0.028 H 
ENDBRANCH  23  29
ENDBRANCH  20  23
ENDBRANCH  17  19
BRANCH  16  33
ATOM     33  C   LIG d   1      12.812   4.848  -3.617  0.00  0.00    -0.040 C 
ATOM     34  H   LIG d   1      13.282   4.389  -4.486  0.00  0.00     0.028 H 
ATOM     35  H   LIG d   1      13.450   5.646  -3.237  0.00  0.00     0.028 H 
ATOM     36  H   LIG d   1      12.671   4.095  -2.841  0.00  0.00     0.028 H 
ENDBRANCH  16  33
ENDBRANCH  13  16
ENDBRANCH   2  12
BRANCH   1  37
ATOM     37  C   LIG d   1       9.290   8.609  -5.838  0.00  0.00    -0.043 C 
ATOM     38  H   LIG d   1       8.503   8.123  -5.261  0.00  0.00     0.028 H 
ATOM     39  H   LIG d   1      10.222   8.586  -5.274  0.00  0.00     0.028 H 
ATOM     40  H   LIG d   1       9.009   9.643  -6.035  0.00  0.00     0.028 H 
ENDBRANCH   1  37
BRANCH   3  41
ATOM     41  C   LIG d   1      11.582   5.635  -8.576  0.00  0.00    -0.056 C 
ATOM     42  H   LIG d   1      11.865   6.236  -9.440  0.00  0.00     0.024 H 
ATOM     43  H   LIG d   1      12.126   5.982  -7.698  0.00  0.00     0.024 H 
ATOM     44  H   LIG d   1      11.823   4.590  -8.764  0.00  0.00     0.024 H 
ENDBRANCH   3  41
BRANCH   3  45
ATOM     45  C   LIG d   1       9.471   4.387  -8.114  0.00  0.00    -0.056 C 
ATOM     46  H   LIG d   1       8.775   4.164  -8.922  0.00  0.00     0.024 H 
ATOM     47  H   LIG d   1      10.266   3.641  -8.102  0.00  0.00     0.024 H 
ATOM     48  H   LIG d   1       8.940   4.367  -7.162  0.00  0.00     0.024 H 
ENDBRANCH   3  45
BRANCH   5  49
ATOM     49  O   LIG d   1       9.415   8.487 -10.826  0.00  0.00    -0.391 OA
ATOM     50  H   LIG d   1       9.545   9.444 -10.875  0.00  0.00     0.210 HD
ENDBRANCH   5  49
TORSDOF 11
ENDMDL
