MODEL 1
REMARK VINA RESULT:      -8.2      0.000      0.000
REMARK  6 active torsions:
REMARK  status: ('A' for Active; 'I' for Inactive)
REMARK    1  A    between atoms: C_4  and  C_7 
REMARK    2  A    between atoms: C_7  and  C_8 
REMARK       I    between atoms: C_8  and  N_10 
REMARK    3  A    between atoms: N_10  and  N_11 
REMARK    4  A    between atoms: N_19  and  C_22 
REMARK    5  A    between atoms: C_22  and  N_23 
REMARK    6  A    between atoms: C_28  and  C_30 
ROOT
ATOM      1  N   LIG d   1       4.538  -3.744  -4.376  0.00  0.00    -0.174 NA
ATOM      2  C   LIG d   1       5.164  -2.601  -4.243  0.00  0.00     0.153 A 
ATOM      3  C   LIG d   1       4.668  -1.372  -3.581  0.00  0.00     0.028 A 
ATOM      4  C   LIG d   1       3.478  -1.050  -2.938  0.00  0.00    -0.051 A 
ATOM      5  C   LIG d   1       3.305   0.212  -2.406  0.00  0.00    -0.061 A 
ATOM      6  C   LIG d   1       4.314   1.154  -2.515  0.00  0.00    -0.060 A 
ATOM      7  C   LIG d   1       5.500   0.845  -3.151  0.00  0.00    -0.040 A 
ATOM      8  C   LIG d   1       5.692  -0.422  -3.693  0.00  0.00     0.047 A 
ATOM      9  N   LIG d   1       6.768  -0.982  -4.371  0.00  0.00    -0.252 N 
ATOM     10  C   LIG d   1       6.522  -2.259  -4.713  0.00  0.00     0.272 A 
ATOM     11  O   LIG d   1       7.282  -3.000  -5.309  0.00  0.00    -0.268 OA
ATOM     12  H   LIG d   1       2.692  -1.786  -2.855  0.00  0.00     0.062 H 
ATOM     13  H   LIG d   1       2.382   0.465  -1.907  0.00  0.00     0.062 H 
ATOM     14  H   LIG d   1       4.172   2.140  -2.098  0.00  0.00     0.062 H 
ATOM     15  H   LIG d   1       6.279   1.588  -3.230  0.00  0.00     0.064 H 
ENDROOT
BRANCH   9  16
ATOM     16  C   LIG d   1       8.016  -0.274  -4.668  0.00  0.00     0.073 C 
ATOM     17  H   LIG d   1       8.352   0.269  -3.772  0.00  0.00     0.064 H 
ATOM     18  H   LIG d   1       8.787  -1.001  -4.966  0.00  0.00     0.064 H 
BRANCH  16  19
ATOM     19  N   LIG d   1       7.791   0.677  -5.763  0.00  0.00    -0.280 N 
ATOM     20  C   LIG d   1       9.040   1.353  -6.138  0.00  0.00     0.038 C 
ATOM     21  C   LIG d   1       8.743   2.437  -7.177  0.00  0.00    -0.033 C 
ATOM     22  H   LIG d   1       9.720   0.591  -6.548  0.00  0.00     0.051 H 
ATOM     23  C   LIG d   1       8.097   1.795  -8.408  0.00  0.00    -0.050 C 
ATOM     24  H   LIG d   1       9.680   2.933  -7.470  0.00  0.00     0.028 H 
ATOM     25  H   LIG d   1       8.055   3.180  -6.747  0.00  0.00     0.028 H 
ATOM     26  C   LIG d   1       6.825   1.059  -7.981  0.00  0.00    -0.040 C 
ATOM     27  H   LIG d   1       8.800   1.081  -8.863  0.00  0.00     0.027 H 
ATOM     28  H   LIG d   1       7.842   2.575  -9.140  0.00  0.00     0.027 H 
ATOM     29  C   LIG d   1       7.178   0.014  -6.920  0.00  0.00     0.001 C 
ATOM     30  H   LIG d   1       6.379   0.559  -8.854  0.00  0.00     0.028 H 
ATOM     31  H   LIG d   1       6.105   1.778  -7.563  0.00  0.00     0.028 H 
ATOM     32  H   LIG d   1       7.885  -0.714  -7.343  0.00  0.00     0.043 H 
ATOM     33  H   LIG d   1       6.263  -0.507  -6.601  0.00  0.00     0.043 H 
BRANCH  20  34
ATOM     34  C   LIG d   1       9.657   1.983  -4.916  0.00  0.00    -0.012 A 
ATOM     35  C   LIG d   1      10.865   1.525  -4.428  0.00  0.00     0.032 A 
ATOM     36  N   LIG d   1      11.412   2.071  -3.360  0.00  0.00    -0.263 NA
ATOM     37  H   LIG d   1      11.368   0.709  -4.926  0.00  0.00     0.083 H 
ATOM     38  C   LIG d   1      10.835   3.069  -2.719  0.00  0.00     0.028 A 
ATOM     39  C   LIG d   1       9.625   3.580  -3.149  0.00  0.00    -0.043 A 
ATOM     40  H   LIG d   1      11.314   3.491  -1.847  0.00  0.00     0.083 H 
ATOM     41  C   LIG d   1       9.023   3.034  -4.272  0.00  0.00    -0.054 A 
ATOM     42  H   LIG d   1       9.158   4.398  -2.620  0.00  0.00     0.063 H 
ATOM     43  H   LIG d   1       8.080   3.416  -4.633  0.00  0.00     0.062 H 
ENDBRANCH  20  34
ENDBRANCH  16  19
ENDBRANCH   9  16
BRANCH   1  44
ATOM     44  N   LIG d   1       5.161  -4.811  -5.036  0.00  0.00    -0.206 N 
ATOM     45  C   LIG d   1       4.462  -5.564  -5.910  0.00  0.00     0.236 C 
ATOM     46  O   LIG d   1       3.295  -5.316  -6.124  0.00  0.00    -0.274 OA
ATOM     47  H   LIG d   1       6.220  -5.036  -4.842  0.00  0.00     0.177 HD
BRANCH  45  48
ATOM     48  C   LIG d   1       5.132  -6.711  -6.621  0.00  0.00     0.051 C 
ATOM     49  H   LIG d   1       5.986  -6.332  -7.204  0.00  0.00     0.041 H 
ATOM     50  H   LIG d   1       4.413  -7.195  -7.296  0.00  0.00     0.041 H 
BRANCH  48  51
ATOM     51  C   LIG d   1       5.622  -7.712  -5.606  0.00  0.00    -0.039 A 
ATOM     52  C   LIG d   1       6.949  -7.713  -5.220  0.00  0.00    -0.058 A 
ATOM     53  C   LIG d   1       7.397  -8.628  -4.286  0.00  0.00    -0.061 A 
ATOM     54  H   LIG d   1       7.636  -6.997  -5.646  0.00  0.00     0.062 H 
ATOM     55  C   LIG d   1       6.520  -9.550  -3.746  0.00  0.00    -0.062 A 
ATOM     56  H   LIG d   1       8.433  -8.627  -3.982  0.00  0.00     0.062 H 
ATOM     57  C   LIG d   1       5.192  -9.549  -4.131  0.00  0.00    -0.061 A 
ATOM     58  H   LIG d   1       6.870 -10.268  -3.020  0.00  0.00     0.062 H 
ATOM     59  C   LIG d   1       4.743  -8.630  -5.062  0.00  0.00    -0.058 A 
ATOM     60  H   LIG d   1       4.505 -10.266  -3.707  0.00  0.00     0.062 H 
ATOM     61  H   LIG d   1       3.706  -8.629  -5.363  0.00  0.00     0.062 H 
ENDBRANCH  48  51
ENDBRANCH  45  48
ENDBRANCH   1  44
TORSDOF 6
ENDMDL
MODEL 2
REMARK VINA RESULT:      -8.1      4.309      8.116
REMARK  6 active torsions:
REMARK  status: ('A' for Active; 'I' for Inactive)
REMARK    1  A    between atoms: C_4  and  C_7 
REMARK    2  A    between atoms: C_7  and  C_8 
REMARK       I    between atoms: C_8  and  N_10 
REMARK    3  A    between atoms: N_10  and  N_11 
REMARK    4  A    between atoms: N_19  and  C_22 
REMARK    5  A    between atoms: C_22  and  N_23 
REMARK    6  A    between atoms: C_28  and  C_30 
ROOT
ATOM      1  N   LIG d   1       9.141   2.186  -5.918  0.00  0.00    -0.174 NA
ATOM      2  C   LIG d   1       9.382   3.360  -5.387  0.00  0.00     0.153 A 
ATOM      3  C   LIG d   1       9.648   4.634  -6.096  0.00  0.00     0.028 A 
ATOM      4  C   LIG d   1       9.725   4.976  -7.442  0.00  0.00    -0.051 A 
ATOM      5  C   LIG d   1       9.995   6.282  -7.802  0.00  0.00    -0.061 A 
ATOM      6  C   LIG d   1      10.190   7.244  -6.826  0.00  0.00    -0.060 A 
ATOM      7  C   LIG d   1      10.115   6.914  -5.488  0.00  0.00    -0.040 A 
ATOM      8  C   LIG d   1       9.844   5.604  -5.106  0.00  0.00     0.047 A 
ATOM      9  N   LIG d   1       9.716   5.016  -3.852  0.00  0.00    -0.252 N 
ATOM     10  C   LIG d   1       9.439   3.705  -3.952  0.00  0.00     0.272 A 
ATOM     11  O   LIG d   1       9.269   2.936  -3.023  0.00  0.00    -0.268 OA
ATOM     12  H   LIG d   1       9.574   4.225  -8.202  0.00  0.00     0.062 H 
ATOM     13  H   LIG d   1      10.056   6.551  -8.845  0.00  0.00     0.062 H 
ATOM     14  H   LIG d   1      10.402   8.263  -7.115  0.00  0.00     0.062 H 
ATOM     15  H   LIG d   1      10.269   7.674  -4.735  0.00  0.00     0.064 H 
ENDROOT
BRANCH   9  16
ATOM     16  C   LIG d   1       9.858   5.736  -2.584  0.00  0.00     0.073 C 
ATOM     17  H   LIG d   1       9.303   6.684  -2.637  0.00  0.00     0.064 H 
ATOM     18  H   LIG d   1       9.453   5.120  -1.767  0.00  0.00     0.064 H 
BRANCH  16  19
ATOM     19  N   LIG d   1      11.278   6.010  -2.332  0.00  0.00    -0.280 N 
ATOM     20  C   LIG d   1      11.441   6.965  -1.229  0.00  0.00     0.038 C 
ATOM     21  C   LIG d   1      12.919   7.339  -1.090  0.00  0.00    -0.033 C 
ATOM     22  H   LIG d   1      11.070   6.481  -0.312  0.00  0.00     0.051 H 
ATOM     23  C   LIG d   1      13.738   6.073  -0.822  0.00  0.00    -0.050 C 
ATOM     24  H   LIG d   1      13.045   8.041  -0.253  0.00  0.00     0.028 H 
ATOM     25  H   LIG d   1      13.268   7.811  -2.020  0.00  0.00     0.028 H 
ATOM     26  C   LIG d   1      13.512   5.077  -1.962  0.00  0.00    -0.040 C 
ATOM     27  H   LIG d   1      13.418   5.621   0.129  0.00  0.00     0.027 H 
ATOM     28  H   LIG d   1      14.806   6.329  -0.765  0.00  0.00     0.027 H 
ATOM     29  C   LIG d   1      12.017   4.769  -2.075  0.00  0.00     0.001 C 
ATOM     30  H   LIG d   1      14.064   4.148  -1.754  0.00  0.00     0.028 H 
ATOM     31  H   LIG d   1      13.869   5.512  -2.908  0.00  0.00     0.028 H 
ATOM     32  H   LIG d   1      11.664   4.319  -1.135  0.00  0.00     0.043 H 
ATOM     33  H   LIG d   1      11.850   4.064  -2.903  0.00  0.00     0.043 H 
BRANCH  20  34
ATOM     34  C   LIG d   1      10.634   8.205  -1.513  0.00  0.00    -0.012 A 
ATOM     35  C   LIG d   1       9.587   8.563  -0.686  0.00  0.00     0.032 A 
ATOM     36  N   LIG d   1       8.876   9.646  -0.927  0.00  0.00    -0.263 NA
ATOM     37  H   LIG d   1       9.346   7.947   0.169  0.00  0.00     0.083 H 
ATOM     38  C   LIG d   1       9.132  10.428  -1.958  0.00  0.00     0.028 A 
ATOM     39  C   LIG d   1      10.164  10.134  -2.829  0.00  0.00    -0.043 A 
ATOM     40  H   LIG d   1       8.527  11.308  -2.124  0.00  0.00     0.083 H 
ATOM     41  C   LIG d   1      10.936   9.006  -2.604  0.00  0.00    -0.054 A 
ATOM     42  H   LIG d   1      10.370  10.779  -3.670  0.00  0.00     0.063 H 
ATOM     43  H   LIG d   1      11.752   8.754  -3.265  0.00  0.00     0.062 H 
ENDBRANCH  20  34
ENDBRANCH  16  19
ENDBRANCH   9  16
BRANCH   1  44
ATOM     44  N   LIG d   1       8.909   1.079  -5.092  0.00  0.00    -0.206 N 
ATOM     45  C   LIG d   1       7.762   0.380  -5.209  0.00  0.00     0.236 C 
ATOM     46  O   LIG d   1       6.933   0.709  -6.029  0.00  0.00    -0.274 OA
ATOM     47  H   LIG d   1       9.662   0.780  -4.347  0.00  0.00     0.177 HD
BRANCH  45  48
ATOM     48  C   LIG d   1       7.512  -0.812  -4.321  0.00  0.00     0.051 C 
ATOM     49  H   LIG d   1       8.407  -1.007  -3.710  0.00  0.00     0.041 H 
ATOM     50  H   LIG d   1       7.293  -1.693  -4.941  0.00  0.00     0.041 H 
BRANCH  48  51
ATOM     51  C   LIG d   1       6.339  -0.528  -3.418  0.00  0.00    -0.039 A 
ATOM     52  C   LIG d   1       5.529  -1.563  -2.990  0.00  0.00    -0.058 A 
ATOM     53  C   LIG d   1       4.457  -1.302  -2.158  0.00  0.00    -0.061 A 
ATOM     54  H   LIG d   1       5.735  -2.575  -3.304  0.00  0.00     0.062 H 
ATOM     55  C   LIG d   1       4.188  -0.005  -1.762  0.00  0.00    -0.062 A 
ATOM     56  H   LIG d   1       3.825  -2.111  -1.822  0.00  0.00     0.062 H 
ATOM     57  C   LIG d   1       4.999   1.030  -2.189  0.00  0.00    -0.061 A 
ATOM     58  H   LIG d   1       3.347   0.199  -1.116  0.00  0.00     0.062 H 
ATOM     59  C   LIG d   1       6.074   0.768  -3.017  0.00  0.00    -0.058 A 
ATOM     60  H   LIG d   1       4.792   2.043  -1.876  0.00  0.00     0.062 H 
ATOM     61  H   LIG d   1       6.708   1.577  -3.350  0.00  0.00     0.062 H 
ENDBRANCH  48  51
ENDBRANCH  45  48
ENDBRANCH   1  44
TORSDOF 6
ENDMDL
MODEL 3
REMARK VINA RESULT:      -8.0      3.262      9.562
REMARK  6 active torsions:
REMARK  status: ('A' for Active; 'I' for Inactive)
REMARK    1  A    between atoms: C_4  and  C_7 
REMARK    2  A    between atoms: C_7  and  C_8 
REMARK       I    between atoms: C_8  and  N_10 
REMARK    3  A    between atoms: N_10  and  N_11 
REMARK    4  A    between atoms: N_19  and  C_22 
REMARK    5  A    between atoms: C_22  and  N_23 
REMARK    6  A    between atoms: C_28  and  C_30 
ROOT
ATOM      1  N   LIG d   1       7.596   2.542  -9.024  0.00  0.00    -0.174 NA
ATOM      2  C   LIG d   1       7.153   1.637  -8.185  0.00  0.00     0.153 A 
ATOM      3  C   LIG d   1       5.962   0.770  -8.341  0.00  0.00     0.028 A 
ATOM      4  C   LIG d   1       5.002   0.640  -9.338  0.00  0.00    -0.051 A 
ATOM      5  C   LIG d   1       3.984  -0.282  -9.194  0.00  0.00    -0.061 A 
ATOM      6  C   LIG d   1       3.920  -1.072  -8.059  0.00  0.00    -0.060 A 
ATOM      7  C   LIG d   1       4.868  -0.951  -7.063  0.00  0.00    -0.040 A 
ATOM      8  C   LIG d   1       5.901  -0.027  -7.191  0.00  0.00     0.047 A 
ATOM      9  N   LIG d   1       6.963   0.290  -6.352  0.00  0.00    -0.252 N 
ATOM     10  C   LIG d   1       7.736   1.253  -6.884  0.00  0.00     0.272 A 
ATOM     11  O   LIG d   1       8.737   1.729  -6.379  0.00  0.00    -0.268 OA
ATOM     12  H   LIG d   1       5.053   1.257 -10.223  0.00  0.00     0.062 H 
ATOM     13  H   LIG d   1       3.237  -0.385  -9.966  0.00  0.00     0.062 H 
ATOM     14  H   LIG d   1       3.121  -1.790  -7.952  0.00  0.00     0.062 H 
ATOM     15  H   LIG d   1       4.807  -1.572  -6.182  0.00  0.00     0.064 H 
ENDROOT
BRANCH   9  16
ATOM     16  C   LIG d   1       7.215  -0.349  -5.058  0.00  0.00     0.073 C 
ATOM     17  H   LIG d   1       7.381  -1.426  -5.208  0.00  0.00     0.064 H 
ATOM     18  H   LIG d   1       8.108   0.098  -4.596  0.00  0.00     0.064 H 
BRANCH  16  19
ATOM     19  N   LIG d   1       6.056  -0.149  -4.180  0.00  0.00    -0.280 N 
ATOM     20  C   LIG d   1       5.897  -1.277  -3.253  0.00  0.00     0.038 C 
ATOM     21  C   LIG d   1       4.602  -1.105  -2.455  0.00  0.00    -0.033 C 
ATOM     22  H   LIG d   1       6.772  -1.286  -2.586  0.00  0.00     0.051 H 
ATOM     23  C   LIG d   1       4.657   0.214  -1.680  0.00  0.00    -0.050 C 
ATOM     24  H   LIG d   1       4.490  -1.941  -1.750  0.00  0.00     0.028 H 
ATOM     25  H   LIG d   1       3.745  -1.090  -3.144  0.00  0.00     0.028 H 
ATOM     26  C   LIG d   1       4.872   1.367  -2.663  0.00  0.00    -0.040 C 
ATOM     27  H   LIG d   1       5.490   0.185  -0.961  0.00  0.00     0.027 H 
ATOM     28  H   LIG d   1       3.712   0.364  -1.139  0.00  0.00     0.027 H 
ATOM     29  C   LIG d   1       6.158   1.123  -3.455  0.00  0.00     0.001 C 
ATOM     30  H   LIG d   1       4.955   2.313  -2.108  0.00  0.00     0.028 H 
ATOM     31  H   LIG d   1       4.019   1.423  -3.357  0.00  0.00     0.028 H 
ATOM     32  H   LIG d   1       7.012   1.084  -2.762  0.00  0.00     0.043 H 
ATOM     33  H   LIG d   1       6.308   1.943  -4.173  0.00  0.00     0.043 H 
BRANCH  20  34
ATOM     34  C   LIG d   1       5.839  -2.564  -4.034  0.00  0.00    -0.012 A 
ATOM     35  C   LIG d   1       4.622  -3.124  -4.369  0.00  0.00     0.032 A 
ATOM     36  N   LIG d   1       4.562  -4.251  -5.052  0.00  0.00    -0.263 NA
ATOM     37  H   LIG d   1       3.707  -2.634  -4.068  0.00  0.00     0.083 H 
ATOM     38  C   LIG d   1       5.651  -4.884  -5.442  0.00  0.00     0.028 A 
ATOM     39  C   LIG d   1       6.904  -4.384  -5.142  0.00  0.00    -0.043 A 
ATOM     40  H   LIG d   1       5.563  -5.805  -5.999  0.00  0.00     0.083 H 
ATOM     41  C   LIG d   1       7.006  -3.199  -4.430  0.00  0.00    -0.054 A 
ATOM     42  H   LIG d   1       7.793  -4.907  -5.465  0.00  0.00     0.063 H 
ATOM     43  H   LIG d   1       7.972  -2.782  -4.186  0.00  0.00     0.062 H 
ENDBRANCH  20  34
ENDBRANCH  16  19
ENDBRANCH   9  16
BRANCH   1  44
ATOM     44  N   LIG d   1       8.748   3.277  -8.716  0.00  0.00    -0.206 N 
ATOM     45  C   LIG d   1       8.885   4.538  -9.172  0.00  0.00     0.236 C 
ATOM     46  O   LIG d   1       8.011   5.036  -9.848  0.00  0.00    -0.274 OA
ATOM     47  H   LIG d   1       9.542   2.825  -8.102  0.00  0.00     0.177 HD
BRANCH  45  48
ATOM     48  C   LIG d   1      10.124   5.330  -8.840  0.00  0.00     0.051 C 
ATOM     49  H   LIG d   1      10.466   5.867  -9.737  0.00  0.00     0.041 H 
ATOM     50  H   LIG d   1      10.914   4.647  -8.497  0.00  0.00     0.041 H 
BRANCH  48  51
ATOM     51  C   LIG d   1       9.808   6.322  -7.750  0.00  0.00    -0.039 A 
ATOM     52  C   LIG d   1       9.497   7.629  -8.074  0.00  0.00    -0.058 A 
ATOM     53  C   LIG d   1       9.204   8.537  -7.074  0.00  0.00    -0.061 A 
ATOM     54  H   LIG d   1       9.481   7.940  -9.108  0.00  0.00     0.062 H 
ATOM     55  C   LIG d   1       9.232   8.141  -5.750  0.00  0.00    -0.062 A 
ATOM     56  H   LIG d   1       8.957   9.558  -7.327  0.00  0.00     0.062 H 
ATOM     57  C   LIG d   1       9.542   6.834  -5.426  0.00  0.00    -0.061 A 
ATOM     58  H   LIG d   1       9.006   8.852  -4.969  0.00  0.00     0.062 H 
ATOM     59  C   LIG d   1       9.831   5.924  -6.426  0.00  0.00    -0.058 A 
ATOM     60  H   LIG d   1       9.560   6.523  -4.392  0.00  0.00     0.062 H 
ATOM     61  H   LIG d   1      10.073   4.902  -6.173  0.00  0.00     0.062 H 
ENDBRANCH  48  51
ENDBRANCH  45  48
ENDBRANCH   1  44
TORSDOF 6
ENDMDL
MODEL 4
REMARK VINA RESULT:      -7.9      2.679      9.271
REMARK  6 active torsions:
REMARK  status: ('A' for Active; 'I' for Inactive)
REMARK    1  A    between atoms: C_4  and  C_7 
REMARK    2  A    between atoms: C_7  and  C_8 
REMARK       I    between atoms: C_8  and  N_10 
REMARK    3  A    between atoms: N_10  and  N_11 
REMARK    4  A    between atoms: N_19  and  C_22 
REMARK    5  A    between atoms: C_22  and  N_23 
REMARK    6  A    between atoms: C_28  and  C_30 
ROOT
ATOM      1  N   LIG d   1       7.388   2.140  -3.791  0.00  0.00    -0.174 NA
ATOM      2  C   LIG d   1       6.991   0.910  -4.009  0.00  0.00     0.153 A 
ATOM      3  C   LIG d   1       5.943   0.157  -3.281  0.00  0.00     0.028 A 
ATOM      4  C   LIG d   1       5.107   0.477  -2.217  0.00  0.00    -0.051 A 
ATOM      5  C   LIG d   1       4.209  -0.460  -1.746  0.00  0.00    -0.061 A 
ATOM      6  C   LIG d   1       4.143  -1.713  -2.331  0.00  0.00    -0.060 A 
ATOM      7  C   LIG d   1       4.968  -2.040  -3.389  0.00  0.00    -0.040 A 
ATOM      8  C   LIG d   1       5.880  -1.109  -3.877  0.00  0.00     0.047 A 
ATOM      9  N   LIG d   1       6.808  -1.179  -4.909  0.00  0.00    -0.252 N 
ATOM     10  C   LIG d   1       7.484  -0.025  -5.041  0.00  0.00     0.272 A 
ATOM     11  O   LIG d   1       8.354   0.206  -5.861  0.00  0.00    -0.268 OA
ATOM     12  H   LIG d   1       5.160   1.454  -1.760  0.00  0.00     0.062 H 
ATOM     13  H   LIG d   1       3.559  -0.216  -0.920  0.00  0.00     0.062 H 
ATOM     14  H   LIG d   1       3.439  -2.441  -1.958  0.00  0.00     0.062 H 
ATOM     15  H   LIG d   1       4.908  -3.020  -3.838  0.00  0.00     0.064 H 
ENDROOT
BRANCH   9  16
ATOM     16  C   LIG d   1       7.016  -2.359  -5.754  0.00  0.00     0.073 C 
ATOM     17  H   LIG d   1       6.073  -2.622  -6.255  0.00  0.00     0.064 H 
ATOM     18  H   LIG d   1       7.783  -2.136  -6.511  0.00  0.00     0.064 H 
BRANCH  16  19
ATOM     19  N   LIG d   1       7.460  -3.484  -4.922  0.00  0.00    -0.280 N 
ATOM     20  C   LIG d   1       7.461  -4.736  -5.688  0.00  0.00     0.038 C 
ATOM     21  C   LIG d   1       7.788  -5.907  -4.757  0.00  0.00    -0.033 C 
ATOM     22  H   LIG d   1       8.218  -4.642  -6.481  0.00  0.00     0.051 H 
ATOM     23  C   LIG d   1       9.159  -5.676  -4.118  0.00  0.00    -0.050 C 
ATOM     24  H   LIG d   1       7.804  -6.843  -5.333  0.00  0.00     0.028 H 
ATOM     25  H   LIG d   1       7.023  -5.974  -3.969  0.00  0.00     0.028 H 
ATOM     26  C   LIG d   1       9.146  -4.343  -3.366  0.00  0.00    -0.040 C 
ATOM     27  H   LIG d   1       9.932  -5.648  -4.901  0.00  0.00     0.027 H 
ATOM     28  H   LIG d   1       9.381  -6.491  -3.414  0.00  0.00     0.027 H 
ATOM     29  C   LIG d   1       8.781  -3.218  -4.338  0.00  0.00     0.001 C 
ATOM     30  H   LIG d   1      10.142  -4.150  -2.940  0.00  0.00     0.028 H 
ATOM     31  H   LIG d   1       8.403  -4.383  -2.556  0.00  0.00     0.028 H 
ATOM     32  H   LIG d   1       9.533  -3.168  -5.139  0.00  0.00     0.043 H 
ATOM     33  H   LIG d   1       8.756  -2.260  -3.798  0.00  0.00     0.043 H 
BRANCH  20  34
ATOM     34  C   LIG d   1       6.102  -4.949  -6.305  0.00  0.00    -0.012 A 
ATOM     35  C   LIG d   1       4.999  -5.172  -5.505  0.00  0.00     0.032 A 
ATOM     36  N   LIG d   1       3.806  -5.360  -6.036  0.00  0.00    -0.263 NA
ATOM     37  H   LIG d   1       5.113  -5.195  -4.431  0.00  0.00     0.083 H 
ATOM     38  C   LIG d   1       3.618  -5.341  -7.341  0.00  0.00     0.028 A 
ATOM     39  C   LIG d   1       4.676  -5.123  -8.204  0.00  0.00    -0.043 A 
ATOM     40  H   LIG d   1       2.627  -5.499  -7.740  0.00  0.00     0.083 H 
ATOM     41  C   LIG d   1       5.943  -4.917  -7.682  0.00  0.00    -0.054 A 
ATOM     42  H   LIG d   1       4.515  -5.108  -9.272  0.00  0.00     0.063 H 
ATOM     43  H   LIG d   1       6.787  -4.740  -8.332  0.00  0.00     0.062 H 
ENDBRANCH  20  34
ENDBRANCH  16  19
ENDBRANCH   9  16
BRANCH   1  44
ATOM     44  N   LIG d   1       8.400   2.700  -4.582  0.00  0.00    -0.206 N 
ATOM     45  C   LIG d   1       9.516   3.187  -4.003  0.00  0.00     0.236 C 
ATOM     46  O   LIG d   1       9.644   3.140  -2.799  0.00  0.00    -0.274 OA
ATOM     47  H   LIG d   1       8.284   2.742  -5.676  0.00  0.00     0.177 HD
BRANCH  45  48
ATOM     48  C   LIG d   1      10.605   3.789  -4.854  0.00  0.00     0.051 C 
ATOM     49  H   LIG d   1      10.819   3.120  -5.702  0.00  0.00     0.041 H 
ATOM     50  H   LIG d   1      11.514   3.917  -4.250  0.00  0.00     0.041 H 
BRANCH  48  51
ATOM     51  C   LIG d   1      10.152   5.129  -5.374  0.00  0.00    -0.039 A 
ATOM     52  C   LIG d   1      10.227   5.408  -6.726  0.00  0.00    -0.058 A 
ATOM     53  C   LIG d   1       9.808   6.635  -7.203  0.00  0.00    -0.061 A 
ATOM     54  H   LIG d   1      10.611   4.666  -7.410  0.00  0.00     0.062 H 
ATOM     55  C   LIG d   1       9.324   7.589  -6.327  0.00  0.00    -0.062 A 
ATOM     56  H   LIG d   1       9.863   6.852  -8.259  0.00  0.00     0.062 H 
ATOM     57  C   LIG d   1       9.248   7.310  -4.975  0.00  0.00    -0.061 A 
ATOM     58  H   LIG d   1       9.000   8.550  -6.698  0.00  0.00     0.062 H 
ATOM     59  C   LIG d   1       9.663   6.080  -4.499  0.00  0.00    -0.058 A 
ATOM     60  H   LIG d   1       8.866   8.053  -4.290  0.00  0.00     0.062 H 
ATOM     61  H   LIG d   1       9.604   5.862  -3.442  0.00  0.00     0.062 H 
ENDBRANCH  48  51
ENDBRANCH  45  48
ENDBRANCH   1  44
TORSDOF 6
ENDMDL
MODEL 5
REMARK VINA RESULT:      -7.9      3.467      8.670
REMARK  6 active torsions:
REMARK  status: ('A' for Active; 'I' for Inactive)
REMARK    1  A    between atoms: C_4  and  C_7 
REMARK    2  A    between atoms: C_7  and  C_8 
REMARK       I    between atoms: C_8  and  N_10 
REMARK    3  A    between atoms: N_10  and  N_11 
REMARK    4  A    between atoms: N_19  and  C_22 
REMARK    5  A    between atoms: C_22  and  N_23 
REMARK    6  A    between atoms: C_28  and  C_30 
ROOT
ATOM      1  N   LIG d   1       6.900   2.145  -9.100  0.00  0.00    -0.174 NA
ATOM      2  C   LIG d   1       6.089   1.247  -8.595  0.00  0.00     0.153 A 
ATOM      3  C   LIG d   1       4.782   0.806  -9.136  0.00  0.00     0.028 A 
ATOM      4  C   LIG d   1       4.046   1.167 -10.259  0.00  0.00    -0.051 A 
ATOM      5  C   LIG d   1       2.829   0.562 -10.504  0.00  0.00    -0.061 A 
ATOM      6  C   LIG d   1       2.344  -0.397  -9.632  0.00  0.00    -0.060 A 
ATOM      7  C   LIG d   1       3.067  -0.763  -8.515  0.00  0.00    -0.040 A 
ATOM      8  C   LIG d   1       4.296  -0.165  -8.252  0.00  0.00     0.047 A 
ATOM      9  N   LIG d   1       5.207  -0.346  -7.219  0.00  0.00    -0.252 N 
ATOM     10  C   LIG d   1       6.282   0.448  -7.368  0.00  0.00     0.272 A 
ATOM     11  O   LIG d   1       7.242   0.503  -6.621  0.00  0.00    -0.268 OA
ATOM     12  H   LIG d   1       4.424   1.917 -10.938  0.00  0.00     0.062 H 
ATOM     13  H   LIG d   1       2.254   0.841 -11.374  0.00  0.00     0.062 H 
ATOM     14  H   LIG d   1       1.391  -0.866  -9.829  0.00  0.00     0.062 H 
ATOM     15  H   LIG d   1       2.679  -1.513  -7.842  0.00  0.00     0.064 H 
ENDROOT
BRANCH   9  16
ATOM     16  C   LIG d   1       5.026  -1.288  -6.112  0.00  0.00     0.073 C 
ATOM     17  H   LIG d   1       4.512  -0.783  -5.281  0.00  0.00     0.064 H 
ATOM     18  H   LIG d   1       4.419  -2.141  -6.453  0.00  0.00     0.064 H 
BRANCH  16  19
ATOM     19  N   LIG d   1       6.336  -1.770  -5.658  0.00  0.00    -0.280 N 
ATOM     20  C   LIG d   1       6.281  -2.202  -4.256  0.00  0.00     0.038 C 
ATOM     21  C   LIG d   1       7.690  -2.560  -3.775  0.00  0.00    -0.033 C 
ATOM     22  H   LIG d   1       5.614  -3.077  -4.203  0.00  0.00     0.051 H 
ATOM     23  C   LIG d   1       8.255  -3.679  -4.653  0.00  0.00    -0.050 C 
ATOM     24  H   LIG d   1       7.647  -2.899  -2.729  0.00  0.00     0.028 H 
ATOM     25  H   LIG d   1       8.338  -1.674  -3.846  0.00  0.00     0.028 H 
ATOM     26  C   LIG d   1       8.257  -3.220  -6.113  0.00  0.00    -0.040 C 
ATOM     27  H   LIG d   1       7.631  -4.579  -4.552  0.00  0.00     0.027 H 
ATOM     28  H   LIG d   1       9.284  -3.909  -4.340  0.00  0.00     0.027 H 
ATOM     29  C   LIG d   1       6.832  -2.844  -6.526  0.00  0.00     0.001 C 
ATOM     30  H   LIG d   1       8.623  -4.035  -6.755  0.00  0.00     0.028 H 
ATOM     31  H   LIG d   1       8.914  -2.344  -6.224  0.00  0.00     0.028 H 
ATOM     32  H   LIG d   1       6.180  -3.724  -6.431  0.00  0.00     0.043 H 
ATOM     33  H   LIG d   1       6.832  -2.500  -7.571  0.00  0.00     0.043 H 
BRANCH  20  34
ATOM     34  C   LIG d   1       5.728  -1.087  -3.407  0.00  0.00    -0.012 A 
ATOM     35  C   LIG d   1       6.344   0.149  -3.388  0.00  0.00     0.032 A 
ATOM     36  N   LIG d   1       5.867   1.130  -2.647  0.00  0.00    -0.263 NA
ATOM     37  H   LIG d   1       7.229   0.314  -3.985  0.00  0.00     0.083 H 
ATOM     38  C   LIG d   1       4.790   0.975  -1.902  0.00  0.00     0.028 A 
ATOM     39  C   LIG d   1       4.120  -0.234  -1.871  0.00  0.00    -0.043 A 
ATOM     40  H   LIG d   1       4.428   1.801  -1.308  0.00  0.00     0.083 H 
ATOM     41  C   LIG d   1       4.590  -1.287  -2.640  0.00  0.00    -0.054 A 
ATOM     42  H   LIG d   1       3.238  -0.354  -1.259  0.00  0.00     0.063 H 
ATOM     43  H   LIG d   1       4.084  -2.241  -2.639  0.00  0.00     0.062 H 
ENDBRANCH  20  34
ENDBRANCH  16  19
ENDBRANCH   9  16
BRANCH   1  44
ATOM     44  N   LIG d   1       8.106   2.441  -8.452  0.00  0.00    -0.206 N 
ATOM     45  C   LIG d   1       8.808   3.538  -8.802  0.00  0.00     0.236 C 
ATOM     46  O   LIG d   1       8.394   4.267  -9.678  0.00  0.00    -0.274 OA
ATOM     47  H   LIG d   1       8.482   1.779  -7.657  0.00  0.00     0.177 HD
BRANCH  45  48
ATOM     48  C   LIG d   1      10.105   3.857  -8.105  0.00  0.00     0.051 C 
ATOM     49  H   LIG d   1      10.781   4.370  -8.806  0.00  0.00     0.041 H 
ATOM     50  H   LIG d   1      10.574   2.926  -7.759  0.00  0.00     0.041 H 
BRANCH  48  51
ATOM     51  C   LIG d   1       9.833   4.753  -6.924  0.00  0.00    -0.039 A 
ATOM     52  C   LIG d   1       9.579   4.201  -5.682  0.00  0.00    -0.058 A 
ATOM     53  C   LIG d   1       9.334   5.023  -4.598  0.00  0.00    -0.061 A 
ATOM     54  H   LIG d   1       9.575   3.129  -5.558  0.00  0.00     0.062 H 
ATOM     55  C   LIG d   1       9.332   6.396  -4.758  0.00  0.00    -0.062 A 
ATOM     56  H   LIG d   1       9.140   4.593  -3.627  0.00  0.00     0.062 H 
ATOM     57  C   LIG d   1       9.586   6.948  -6.000  0.00  0.00    -0.061 A 
ATOM     58  H   LIG d   1       9.136   7.038  -3.912  0.00  0.00     0.062 H 
ATOM     59  C   LIG d   1       9.836   6.126  -7.083  0.00  0.00    -0.058 A 
ATOM     60  H   LIG d   1       9.588   8.021  -6.125  0.00  0.00     0.062 H 
ATOM     61  H   LIG d   1      10.035   6.557  -8.053  0.00  0.00     0.062 H 
ENDBRANCH  48  51
ENDBRANCH  45  48
ENDBRANCH   1  44
TORSDOF 6
ENDMDL
MODEL 6
REMARK VINA RESULT:      -7.8      4.560      7.357
REMARK  6 active torsions:
REMARK  status: ('A' for Active; 'I' for Inactive)
REMARK    1  A    between atoms: C_4  and  C_7 
REMARK    2  A    between atoms: C_7  and  C_8 
REMARK       I    between atoms: C_8  and  N_10 
REMARK    3  A    between atoms: N_10  and  N_11 
REMARK    4  A    between atoms: N_19  and  C_22 
REMARK    5  A    between atoms: C_22  and  N_23 
REMARK    6  A    between atoms: C_28  and  C_30 
ROOT
ATOM      1  N   LIG d   1       9.020   2.565  -3.099  0.00  0.00    -0.174 NA
ATOM      2  C   LIG d   1       9.676   3.516  -3.719  0.00  0.00     0.153 A 
ATOM      3  C   LIG d   1      10.270   4.737  -3.125  0.00  0.00     0.028 A 
ATOM      4  C   LIG d   1      10.322   5.237  -1.829  0.00  0.00    -0.051 A 
ATOM      5  C   LIG d   1      10.964   6.434  -1.581  0.00  0.00    -0.061 A 
ATOM      6  C   LIG d   1      11.552   7.134  -2.621  0.00  0.00    -0.060 A 
ATOM      7  C   LIG d   1      11.506   6.646  -3.912  0.00  0.00    -0.040 A 
ATOM      8  C   LIG d   1      10.863   5.441  -4.181  0.00  0.00     0.047 A 
ATOM      9  N   LIG d   1      10.675   4.740  -5.366  0.00  0.00    -0.252 N 
ATOM     10  C   LIG d   1       9.993   3.600  -5.159  0.00  0.00     0.272 A 
ATOM     11  O   LIG d   1       9.686   2.785  -6.009  0.00  0.00    -0.268 OA
ATOM     12  H   LIG d   1       9.862   4.691  -1.019  0.00  0.00     0.062 H 
ATOM     13  H   LIG d   1      11.006   6.825  -0.576  0.00  0.00     0.062 H 
ATOM     14  H   LIG d   1      12.052   8.069  -2.421  0.00  0.00     0.062 H 
ATOM     15  H   LIG d   1      11.968   7.200  -4.715  0.00  0.00     0.064 H 
ENDROOT
BRANCH   9  16
ATOM     16  C   LIG d   1      11.166   5.182  -6.674  0.00  0.00     0.073 C 
ATOM     17  H   LIG d   1      11.733   6.117  -6.556  0.00  0.00     0.064 H 
ATOM     18  H   LIG d   1      11.821   4.407  -7.100  0.00  0.00     0.064 H 
BRANCH  16  19
ATOM     19  N   LIG d   1      10.028   5.409  -7.573  0.00  0.00    -0.280 N 
ATOM     20  C   LIG d   1      10.149   6.701  -8.259  0.00  0.00     0.038 C 
ATOM     21  C   LIG d   1       8.880   6.970  -9.074  0.00  0.00    -0.033 C 
ATOM     22  H   LIG d   1      11.032   6.649  -8.914  0.00  0.00     0.051 H 
ATOM     23  C   LIG d   1       8.686   5.844 -10.093  0.00  0.00    -0.050 C 
ATOM     24  H   LIG d   1       8.978   7.930  -9.601  0.00  0.00     0.028 H 
ATOM     25  H   LIG d   1       8.012   7.008  -8.399  0.00  0.00     0.028 H 
ATOM     26  C   LIG d   1       8.611   4.505  -9.355  0.00  0.00    -0.040 C 
ATOM     27  H   LIG d   1       9.534   5.829 -10.793  0.00  0.00     0.027 H 
ATOM     28  H   LIG d   1       7.753   6.008 -10.651  0.00  0.00     0.027 H 
ATOM     29  C   LIG d   1       9.887   4.308  -8.534  0.00  0.00     0.001 C 
ATOM     30  H   LIG d   1       8.514   3.688 -10.085  0.00  0.00     0.028 H 
ATOM     31  H   LIG d   1       7.738   4.503  -8.684  0.00  0.00     0.028 H 
ATOM     32  H   LIG d   1      10.757   4.295  -9.207  0.00  0.00     0.043 H 
ATOM     33  H   LIG d   1       9.829   3.353  -7.990  0.00  0.00     0.043 H 
BRANCH  20  34
ATOM     34  C   LIG d   1      10.334   7.796  -7.241  0.00  0.00    -0.012 A 
ATOM     35  C   LIG d   1      11.543   8.455  -7.134  0.00  0.00     0.032 A 
ATOM     36  N   LIG d   1      11.713   9.414  -6.246  0.00  0.00    -0.263 NA
ATOM     37  H   LIG d   1      12.361   8.180  -7.785  0.00  0.00     0.083 H 
ATOM     38  C   LIG d   1      10.745   9.784  -5.430  0.00  0.00     0.028 A 
ATOM     39  C   LIG d   1       9.507   9.170  -5.479  0.00  0.00    -0.043 A 
ATOM     40  H   LIG d   1      10.921  10.574  -4.715  0.00  0.00     0.083 H 
ATOM     41  C   LIG d   1       9.290   8.160  -6.404  0.00  0.00    -0.054 A 
ATOM     42  H   LIG d   1       8.718   9.477  -4.809  0.00  0.00     0.063 H 
ATOM     43  H   LIG d   1       8.332   7.666  -6.468  0.00  0.00     0.062 H 
ENDBRANCH  20  34
ENDBRANCH  16  19
ENDBRANCH   9  16
BRANCH   1  44
ATOM     44  N   LIG d   1       8.524   1.473  -3.822  0.00  0.00    -0.206 N 
ATOM     45  C   LIG d   1       7.205   1.195  -3.803  0.00  0.00     0.236 C 
ATOM     46  O   LIG d   1       6.448   1.892  -3.161  0.00  0.00    -0.274 OA
ATOM     47  H   LIG d   1       9.211   0.840  -4.405  0.00  0.00     0.177 HD
BRANCH  45  48
ATOM     48  C   LIG d   1       6.671   0.020  -4.580  0.00  0.00     0.051 C 
ATOM     49  H   LIG d   1       7.422  -0.785  -4.589  0.00  0.00     0.041 H 
ATOM     50  H   LIG d   1       6.454   0.330  -5.612  0.00  0.00     0.041 H 
BRANCH  48  51
ATOM     51  C   LIG d   1       5.406  -0.480  -3.930  0.00  0.00    -0.039 A 
ATOM     52  C   LIG d   1       5.479  -1.317  -2.832  0.00  0.00    -0.058 A 
ATOM     53  C   LIG d   1       4.319  -1.771  -2.233  0.00  0.00    -0.061 A 
ATOM     54  H   LIG d   1       6.440  -1.614  -2.441  0.00  0.00     0.062 H 
ATOM     55  C   LIG d   1       3.088  -1.398  -2.737  0.00  0.00    -0.062 A 
ATOM     56  H   LIG d   1       4.375  -2.423  -1.373  0.00  0.00     0.062 H 
ATOM     57  C   LIG d   1       3.015  -0.559  -3.834  0.00  0.00    -0.061 A 
ATOM     58  H   LIG d   1       2.181  -1.756  -2.271  0.00  0.00     0.062 H 
ATOM     59  C   LIG d   1       4.175  -0.101  -4.430  0.00  0.00    -0.058 A 
ATOM     60  H   LIG d   1       2.053  -0.263  -4.226  0.00  0.00     0.062 H 
ATOM     61  H   LIG d   1       4.119   0.554  -5.288  0.00  0.00     0.062 H 
ENDBRANCH  48  51
ENDBRANCH  45  48
ENDBRANCH   1  44
TORSDOF 6
ENDMDL
MODEL 7
REMARK VINA RESULT:      -7.7      2.558      8.675
REMARK  6 active torsions:
REMARK  status: ('A' for Active; 'I' for Inactive)
REMARK    1  A    between atoms: C_4  and  C_7 
REMARK    2  A    between atoms: C_7  and  C_8 
REMARK       I    between atoms: C_8  and  N_10 
REMARK    3  A    between atoms: N_10  and  N_11 
REMARK    4  A    between atoms: N_19  and  C_22 
REMARK    5  A    between atoms: C_22  and  N_23 
REMARK    6  A    between atoms: C_28  and  C_30 
ROOT
ATOM      1  N   LIG d   1       7.082   1.847  -4.038  0.00  0.00    -0.174 NA
ATOM      2  C   LIG d   1       6.755   0.586  -4.184  0.00  0.00     0.153 A 
ATOM      3  C   LIG d   1       5.724  -0.172  -3.437  0.00  0.00     0.028 A 
ATOM      4  C   LIG d   1       4.839   0.172  -2.421  0.00  0.00    -0.051 A 
ATOM      5  C   LIG d   1       3.975  -0.778  -1.914  0.00  0.00    -0.061 A 
ATOM      6  C   LIG d   1       3.992  -2.068  -2.414  0.00  0.00    -0.060 A 
ATOM      7  C   LIG d   1       4.866  -2.420  -3.424  0.00  0.00    -0.040 A 
ATOM      8  C   LIG d   1       5.744  -1.476  -3.947  0.00  0.00     0.047 A 
ATOM      9  N   LIG d   1       6.707  -1.565  -4.946  0.00  0.00    -0.252 N 
ATOM     10  C   LIG d   1       7.328  -0.388  -5.136  0.00  0.00     0.272 A 
ATOM     11  O   LIG d   1       8.210  -0.166  -5.945  0.00  0.00    -0.268 OA
ATOM     12  H   LIG d   1       4.828   1.179  -2.030  0.00  0.00     0.062 H 
ATOM     13  H   LIG d   1       3.288  -0.514  -1.124  0.00  0.00     0.062 H 
ATOM     14  H   LIG d   1       3.314  -2.806  -2.013  0.00  0.00     0.062 H 
ATOM     15  H   LIG d   1       4.870  -3.429  -3.807  0.00  0.00     0.064 H 
ENDROOT
BRANCH   9  16
ATOM     16  C   LIG d   1       7.002  -2.785  -5.702  0.00  0.00     0.073 C 
ATOM     17  H   LIG d   1       7.467  -2.517  -6.663  0.00  0.00     0.064 H 
ATOM     18  H   LIG d   1       7.693  -3.416  -5.124  0.00  0.00     0.064 H 
BRANCH  16  19
ATOM     19  N   LIG d   1       5.756  -3.522  -5.949  0.00  0.00    -0.280 N 
ATOM     20  C   LIG d   1       5.349  -3.411  -7.355  0.00  0.00     0.038 C 
ATOM     21  C   LIG d   1       3.978  -4.065  -7.545  0.00  0.00    -0.033 C 
ATOM     22  H   LIG d   1       6.113  -3.916  -7.965  0.00  0.00     0.051 H 
ATOM     23  C   LIG d   1       4.058  -5.536  -7.131  0.00  0.00    -0.050 C 
ATOM     24  H   LIG d   1       3.679  -3.996  -8.601  0.00  0.00     0.028 H 
ATOM     25  H   LIG d   1       3.235  -3.548  -6.919  0.00  0.00     0.028 H 
ATOM     26  C   LIG d   1       4.531  -5.625  -5.678  0.00  0.00    -0.040 C 
ATOM     27  H   LIG d   1       4.772  -6.064  -7.781  0.00  0.00     0.027 H 
ATOM     28  H   LIG d   1       3.066  -6.001  -7.223  0.00  0.00     0.027 H 
ATOM     29  C   LIG d   1       5.885  -4.927  -5.543  0.00  0.00     0.001 C 
ATOM     30  H   LIG d   1       4.632  -6.681  -5.388  0.00  0.00     0.028 H 
ATOM     31  H   LIG d   1       3.797  -5.133  -5.021  0.00  0.00     0.028 H 
ATOM     32  H   LIG d   1       6.622  -5.429  -6.188  0.00  0.00     0.043 H 
ATOM     33  H   LIG d   1       6.221  -4.976  -4.496  0.00  0.00     0.043 H 
BRANCH  20  34
ATOM     34  C   LIG d   1       5.270  -1.956  -7.742  0.00  0.00    -0.012 A 
ATOM     35  C   LIG d   1       6.216  -1.403  -8.583  0.00  0.00     0.032 A 
ATOM     36  N   LIG d   1       6.154  -0.132  -8.926  0.00  0.00    -0.263 NA
ATOM     37  H   LIG d   1       7.018  -2.020  -8.963  0.00  0.00     0.083 H 
ATOM     38  C   LIG d   1       5.194   0.658  -8.487  0.00  0.00     0.028 A 
ATOM     39  C   LIG d   1       4.212   0.176  -7.642  0.00  0.00    -0.043 A 
ATOM     40  H   LIG d   1       5.175   1.695  -8.790  0.00  0.00     0.083 H 
ATOM     41  C   LIG d   1       4.242  -1.157  -7.264  0.00  0.00    -0.054 A 
ATOM     42  H   LIG d   1       3.428   0.828  -7.287  0.00  0.00     0.063 H 
ATOM     43  H   LIG d   1       3.485  -1.563  -6.609  0.00  0.00     0.062 H 
ENDBRANCH  20  34
ENDBRANCH  16  19
ENDBRANCH   9  16
BRANCH   1  44
ATOM     44  N   LIG d   1       8.088   2.406  -4.836  0.00  0.00    -0.206 N 
ATOM     45  C   LIG d   1       9.225   2.857  -4.269  0.00  0.00     0.236 C 
ATOM     46  O   LIG d   1       9.376   2.779  -3.069  0.00  0.00    -0.274 OA
ATOM     47  H   LIG d   1       7.951   2.477  -5.926  0.00  0.00     0.177 HD
BRANCH  45  48
ATOM     48  C   LIG d   1      10.308   3.458  -5.128  0.00  0.00     0.051 C 
ATOM     49  H   LIG d   1      10.390   2.888  -6.066  0.00  0.00     0.041 H 
ATOM     50  H   LIG d   1      11.266   3.420  -4.590  0.00  0.00     0.041 H 
BRANCH  48  51
ATOM     51  C   LIG d   1       9.963   4.892  -5.440  0.00  0.00    -0.039 A 
ATOM     52  C   LIG d   1       9.557   5.741  -4.428  0.00  0.00    -0.058 A 
ATOM     53  C   LIG d   1       9.246   7.057  -4.714  0.00  0.00    -0.061 A 
ATOM     54  H   LIG d   1       9.486   5.378  -3.414  0.00  0.00     0.062 H 
ATOM     55  C   LIG d   1       9.330   7.521  -6.013  0.00  0.00    -0.062 A 
ATOM     56  H   LIG d   1       8.932   7.722  -3.923  0.00  0.00     0.062 H 
ATOM     57  C   LIG d   1       9.737   6.672  -7.025  0.00  0.00    -0.061 A 
ATOM     58  H   LIG d   1       9.082   8.548  -6.238  0.00  0.00     0.062 H 
ATOM     59  C   LIG d   1      10.053   5.357  -6.738  0.00  0.00    -0.058 A 
ATOM     60  H   LIG d   1       9.806   7.035  -8.041  0.00  0.00     0.062 H 
ATOM     61  H   LIG d   1      10.371   4.693  -7.529  0.00  0.00     0.062 H 
ENDBRANCH  48  51
ENDBRANCH  45  48
ENDBRANCH   1  44
TORSDOF 6
ENDMDL
MODEL 8
REMARK VINA RESULT:      -7.6      3.179      7.412
REMARK  6 active torsions:
REMARK  status: ('A' for Active; 'I' for Inactive)
REMARK    1  A    between atoms: C_4  and  C_7 
REMARK    2  A    between atoms: C_7  and  C_8 
REMARK       I    between atoms: C_8  and  N_10 
REMARK    3  A    between atoms: N_10  and  N_11 
REMARK    4  A    between atoms: N_19  and  C_22 
REMARK    5  A    between atoms: C_22  and  N_23 
REMARK    6  A    between atoms: C_28  and  C_30 
ROOT
ATOM      1  N   LIG d   1       6.126   1.742  -9.160  0.00  0.00    -0.174 NA
ATOM      2  C   LIG d   1       6.815   1.411  -8.095  0.00  0.00     0.153 A 
ATOM      3  C   LIG d   1       8.133   1.941  -7.673  0.00  0.00     0.028 A 
ATOM      4  C   LIG d   1       9.001   2.880  -8.218  0.00  0.00    -0.051 A 
ATOM      5  C   LIG d   1      10.188   3.170  -7.575  0.00  0.00    -0.061 A 
ATOM      6  C   LIG d   1      10.513   2.525  -6.394  0.00  0.00    -0.060 A 
ATOM      7  C   LIG d   1       9.658   1.591  -5.845  0.00  0.00    -0.040 A 
ATOM      8  C   LIG d   1       8.457   1.286  -6.478  0.00  0.00     0.047 A 
ATOM      9  N   LIG d   1       7.437   0.403  -6.144  0.00  0.00    -0.252 N 
ATOM     10  C   LIG d   1       6.443   0.436  -7.050  0.00  0.00     0.272 A 
ATOM     11  O   LIG d   1       5.421  -0.225  -7.017  0.00  0.00    -0.268 OA
ATOM     12  H   LIG d   1       8.747   3.382  -9.140  0.00  0.00     0.062 H 
ATOM     13  H   LIG d   1      10.864   3.898  -7.996  0.00  0.00     0.062 H 
ATOM     14  H   LIG d   1      11.444   2.755  -5.898  0.00  0.00     0.062 H 
ATOM     15  H   LIG d   1       9.922   1.094  -4.923  0.00  0.00     0.064 H 
ENDROOT
BRANCH   9  16
ATOM     16  C   LIG d   1       7.439  -0.451  -4.953  0.00  0.00     0.073 C 
ATOM     17  H   LIG d   1       7.461  -1.507  -5.259  0.00  0.00     0.064 H 
ATOM     18  H   LIG d   1       8.327  -0.227  -4.344  0.00  0.00     0.064 H 
BRANCH  16  19
ATOM     19  N   LIG d   1       6.227  -0.193  -4.164  0.00  0.00    -0.280 N 
ATOM     20  C   LIG d   1       5.895  -1.348  -3.321  0.00  0.00     0.038 C 
ATOM     21  C   LIG d   1       4.552  -1.103  -2.625  0.00  0.00    -0.033 C 
ATOM     22  H   LIG d   1       6.703  -1.466  -2.583  0.00  0.00     0.051 H 
ATOM     23  C   LIG d   1       4.648   0.165  -1.774  0.00  0.00    -0.050 C 
ATOM     24  H   LIG d   1       4.310  -1.961  -1.980  0.00  0.00     0.028 H 
ATOM     25  H   LIG d   1       3.764  -0.979  -3.381  0.00  0.00     0.028 H 
ATOM     26  C   LIG d   1       5.043   1.343  -2.669  0.00  0.00    -0.040 C 
ATOM     27  H   LIG d   1       5.409   0.029  -0.991  0.00  0.00     0.027 H 
ATOM     28  H   LIG d   1       3.674   0.371  -1.306  0.00  0.00     0.027 H 
ATOM     29  C   LIG d   1       6.370   1.027  -3.362  0.00  0.00     0.001 C 
ATOM     30  H   LIG d   1       5.155   2.249  -2.056  0.00  0.00     0.028 H 
ATOM     31  H   LIG d   1       4.263   1.507  -3.427  0.00  0.00     0.028 H 
ATOM     32  H   LIG d   1       7.153   0.879  -2.604  0.00  0.00     0.043 H 
ATOM     33  H   LIG d   1       6.649   1.866  -4.018  0.00  0.00     0.043 H 
BRANCH  20  34
ATOM     34  C   LIG d   1       5.799  -2.585  -4.175  0.00  0.00    -0.012 A 
ATOM     35  C   LIG d   1       4.591  -2.962  -4.728  0.00  0.00     0.032 A 
ATOM     36  N   LIG d   1       4.498  -4.043  -5.477  0.00  0.00    -0.263 NA
ATOM     37  H   LIG d   1       3.709  -2.364  -4.543  0.00  0.00     0.083 H 
ATOM     38  C   LIG d   1       5.546  -4.803  -5.729  0.00  0.00     0.028 A 
ATOM     39  C   LIG d   1       6.789  -4.488  -5.211  0.00  0.00    -0.043 A 
ATOM     40  H   LIG d   1       5.432  -5.682  -6.347  0.00  0.00     0.083 H 
ATOM     41  C   LIG d   1       6.924  -3.357  -4.423  0.00  0.00    -0.054 A 
ATOM     42  H   LIG d   1       7.643  -5.115  -5.422  0.00  0.00     0.063 H 
ATOM     43  H   LIG d   1       7.884  -3.084  -4.008  0.00  0.00     0.062 H 
ENDBRANCH  20  34
ENDBRANCH  16  19
ENDBRANCH   9  16
BRANCH   1  44
ATOM     44  N   LIG d   1       4.887   1.138  -9.407  0.00  0.00    -0.206 N 
ATOM     45  C   LIG d   1       3.746   1.809  -9.152  0.00  0.00     0.236 C 
ATOM     46  O   LIG d   1       3.793   2.936  -8.709  0.00  0.00    -0.274 OA
ATOM     47  H   LIG d   1       4.844   0.114  -9.810  0.00  0.00     0.177 HD
BRANCH  45  48
ATOM     48  C   LIG d   1       2.413   1.159  -9.419  0.00  0.00     0.051 C 
ATOM     49  H   LIG d   1       1.861   1.748 -10.167  0.00  0.00     0.041 H 
ATOM     50  H   LIG d   1       1.832   1.116  -8.487  0.00  0.00     0.041 H 
BRANCH  48  51
ATOM     51  C   LIG d   1       2.631  -0.238  -9.941  0.00  0.00    -0.039 A 
ATOM     52  C   LIG d   1       2.682  -1.304  -9.062  0.00  0.00    -0.058 A 
ATOM     53  C   LIG d   1       2.878  -2.586  -9.542  0.00  0.00    -0.061 A 
ATOM     54  H   LIG d   1       2.566  -1.136  -8.002  0.00  0.00     0.062 H 
ATOM     55  C   LIG d   1       3.034  -2.800 -10.899  0.00  0.00    -0.062 A 
ATOM     56  H   LIG d   1       2.914  -3.419  -8.857  0.00  0.00     0.062 H 
ATOM     57  C   LIG d   1       2.983  -1.734 -11.777  0.00  0.00    -0.061 A 
ATOM     58  H   LIG d   1       3.191  -3.800 -11.273  0.00  0.00     0.062 H 
ATOM     59  C   LIG d   1       2.782  -0.453 -11.298  0.00  0.00    -0.058 A 
ATOM     60  H   LIG d   1       3.101  -1.901 -12.838  0.00  0.00     0.062 H 
ATOM     61  H   LIG d   1       2.741   0.381 -11.984  0.00  0.00     0.062 H 
ENDBRANCH  48  51
ENDBRANCH  45  48
ENDBRANCH   1  44
TORSDOF 6
ENDMDL
MODEL 9
REMARK VINA RESULT:      -7.5      4.239      7.283
REMARK  6 active torsions:
REMARK  status: ('A' for Active; 'I' for Inactive)
REMARK    1  A    between atoms: C_4  and  C_7 
REMARK    2  A    between atoms: C_7  and  C_8 
REMARK       I    between atoms: C_8  and  N_10 
REMARK    3  A    between atoms: N_10  and  N_11 
REMARK    4  A    between atoms: N_19  and  C_22 
REMARK    5  A    between atoms: C_22  and  N_23 
REMARK    6  A    between atoms: C_28  and  C_30 
ROOT
ATOM      1  N   LIG d   1       7.811   1.626  -6.383  0.00  0.00    -0.174 NA
ATOM      2  C   LIG d   1       8.709   2.507  -6.753  0.00  0.00     0.153 A 
ATOM      3  C   LIG d   1       9.253   2.723  -8.114  0.00  0.00     0.028 A 
ATOM      4  C   LIG d   1       9.016   2.117  -9.342  0.00  0.00    -0.051 A 
ATOM      5  C   LIG d   1       9.696   2.551 -10.463  0.00  0.00    -0.061 A 
ATOM      6  C   LIG d   1      10.612   3.583 -10.362  0.00  0.00    -0.060 A 
ATOM      7  C   LIG d   1      10.855   4.192  -9.147  0.00  0.00    -0.040 A 
ATOM      8  C   LIG d   1      10.179   3.769  -8.006  0.00  0.00     0.047 A 
ATOM      9  N   LIG d   1      10.235   4.202  -6.687  0.00  0.00    -0.252 N 
ATOM     10  C   LIG d   1       9.391   3.506  -5.905  0.00  0.00     0.272 A 
ATOM     11  O   LIG d   1       9.223   3.666  -4.711  0.00  0.00    -0.268 OA
ATOM     12  H   LIG d   1       8.302   1.311  -9.419  0.00  0.00     0.062 H 
ATOM     13  H   LIG d   1       9.514   2.082 -11.418  0.00  0.00     0.062 H 
ATOM     14  H   LIG d   1      11.141   3.917 -11.242  0.00  0.00     0.062 H 
ATOM     15  H   LIG d   1      11.572   4.997  -9.080  0.00  0.00     0.064 H 
ENDROOT
BRANCH   9  16
ATOM     16  C   LIG d   1      11.098   5.285  -6.208  0.00  0.00     0.073 C 
ATOM     17  H   LIG d   1      11.566   4.989  -5.258  0.00  0.00     0.064 H 
ATOM     18  H   LIG d   1      11.881   5.486  -6.955  0.00  0.00     0.064 H 
BRANCH  16  19
ATOM     19  N   LIG d   1      10.295   6.497  -6.003  0.00  0.00    -0.280 N 
ATOM     20  C   LIG d   1      10.889   7.352  -4.968  0.00  0.00     0.038 C 
ATOM     21  C   LIG d   1       9.954   8.529  -4.677  0.00  0.00    -0.033 C 
ATOM     22  H   LIG d   1      11.861   7.707  -5.346  0.00  0.00     0.051 H 
ATOM     23  C   LIG d   1       9.733   9.329  -5.964  0.00  0.00    -0.050 C 
ATOM     24  H   LIG d   1      10.406   9.179  -3.914  0.00  0.00     0.028 H 
ATOM     25  H   LIG d   1       8.989   8.150  -4.311  0.00  0.00     0.028 H 
ATOM     26  C   LIG d   1       9.158   8.403  -7.039  0.00  0.00    -0.040 C 
ATOM     27  H   LIG d   1      10.691   9.743  -6.311  0.00  0.00     0.027 H 
ATOM     28  H   LIG d   1       9.027  10.150  -5.772  0.00  0.00     0.027 H 
ATOM     29  C   LIG d   1      10.117   7.231  -7.261  0.00  0.00     0.001 C 
ATOM     30  H   LIG d   1       9.037   8.961  -7.979  0.00  0.00     0.028 H 
ATOM     31  H   LIG d   1       8.180   8.020  -6.711  0.00  0.00     0.028 H 
ATOM     32  H   LIG d   1      11.089   7.613  -7.604  0.00  0.00     0.043 H 
ATOM     33  H   LIG d   1       9.699   6.556  -8.023  0.00  0.00     0.043 H 
BRANCH  20  34
ATOM     34  C   LIG d   1      11.094   6.550  -3.709  0.00  0.00    -0.012 A 
ATOM     35  C   LIG d   1      12.356   6.114  -3.355  0.00  0.00     0.032 A 
ATOM     36  N   LIG d   1      12.543   5.412  -2.255  0.00  0.00    -0.263 NA
ATOM     37  H   LIG d   1      13.199   6.350  -3.988  0.00  0.00     0.083 H 
ATOM     38  C   LIG d   1      11.544   5.101  -1.452  0.00  0.00     0.028 A 
ATOM     39  C   LIG d   1      10.254   5.503  -1.742  0.00  0.00    -0.043 A 
ATOM     40  H   LIG d   1      11.737   4.523  -0.559  0.00  0.00     0.083 H 
ATOM     41  C   LIG d   1      10.019   6.246  -2.887  0.00  0.00    -0.054 A 
ATOM     42  H   LIG d   1       9.440   5.245  -1.080  0.00  0.00     0.063 H 
ATOM     43  H   LIG d   1       9.022   6.578  -3.136  0.00  0.00     0.062 H 
ENDBRANCH  20  34
ENDBRANCH  16  19
ENDBRANCH   9  16
BRANCH   1  44
ATOM     44  N   LIG d   1       7.407   1.558  -5.044  0.00  0.00    -0.206 N 
ATOM     45  C   LIG d   1       7.222   0.359  -4.455  0.00  0.00     0.236 C 
ATOM     46  O   LIG d   1       7.406  -0.659  -5.085  0.00  0.00    -0.274 OA
ATOM     47  H   LIG d   1       7.239   2.483  -4.472  0.00  0.00     0.177 HD
BRANCH  45  48
ATOM     48  C   LIG d   1       6.788   0.286  -3.014  0.00  0.00     0.051 C 
ATOM     49  H   LIG d   1       6.858   1.287  -2.559  0.00  0.00     0.041 H 
ATOM     50  H   LIG d   1       7.440  -0.410  -2.469  0.00  0.00     0.041 H 
BRANCH  48  51
ATOM     51  C   LIG d   1       5.363  -0.199  -2.943  0.00  0.00    -0.039 A 
ATOM     52  C   LIG d   1       5.095  -1.512  -2.605  0.00  0.00    -0.058 A 
ATOM     53  C   LIG d   1       3.788  -1.955  -2.536  0.00  0.00    -0.061 A 
ATOM     54  H   LIG d   1       5.908  -2.191  -2.392  0.00  0.00     0.062 H 
ATOM     55  C   LIG d   1       2.748  -1.088  -2.815  0.00  0.00    -0.062 A 
ATOM     56  H   LIG d   1       3.579  -2.981  -2.268  0.00  0.00     0.062 H 
ATOM     57  C   LIG d   1       3.015   0.225  -3.152  0.00  0.00    -0.061 A 
ATOM     58  H   LIG d   1       1.727  -1.436  -2.765  0.00  0.00     0.062 H 
ATOM     59  C   LIG d   1       4.323   0.670  -3.217  0.00  0.00    -0.058 A 
ATOM     60  H   LIG d   1       2.203   0.905  -3.367  0.00  0.00     0.062 H 
ATOM     61  H   LIG d   1       4.532   1.696  -3.481  0.00  0.00     0.062 H 
ENDBRANCH  48  51
ENDBRANCH  45  48
ENDBRANCH   1  44
TORSDOF 6
ENDMDL
