MODEL 1
REMARK VINA RESULT:      -5.4      0.000      0.000
REMARK  12 active torsions:
REMARK  status: ('A' for Active; 'I' for Inactive)
REMARK    1  A    between atoms: C_1  and  C_2 
REMARK    2  A    between atoms: C_2  and  C_4 
REMARK    3  A    between atoms: C_8  and  C_38 
REMARK    4  A    between atoms: C_17  and  C_37 
REMARK    5  A    between atoms: C_18  and  C_21 
REMARK    6  A    between atoms: C_26  and  C_36 
REMARK    7  A    between atoms: C_28  and  C_34 
REMARK    8  A    between atoms: C_29  and  O_33 
REMARK    9  A    between atoms: C_30  and  C_31 
REMARK   10  A    between atoms: C_30  and  C_32 
REMARK   11  A    between atoms: C_38  and  O_40 
REMARK   12  A    between atoms: O_40  and  C_41 
ROOT
ATOM      1  C   LIG d   1       8.272  -7.615  -6.531  0.00  0.00    -0.016 C 
ATOM      2  H   LIG d   1       7.661  -8.212  -7.241  0.00  0.00     0.035 H 
ATOM      3  C   LIG d   1       9.708  -8.200  -6.574  0.00  0.00    -0.045 C 
ATOM      4  C   LIG d   1      10.391  -7.420  -7.716  0.00  0.00    -0.036 C 
ATOM      5  C   LIG d   1       9.813  -5.982  -7.570  0.00  0.00     0.071 C 
ATOM      6  C   LIG d   1       8.375  -6.202  -7.059  0.00  0.00    -0.015 C 
ATOM      7  H   LIG d   1       7.773  -6.235  -8.022  0.00  0.00     0.032 H 
ATOM      8  C   LIG d   1       7.803  -5.030  -6.340  0.00  0.00    -0.031 C 
ATOM      9  H   LIG d   1       7.640  -4.276  -7.172  0.00  0.00     0.031 H 
ATOM     10  C   LIG d   1       6.406  -5.230  -5.773  0.00  0.00    -0.049 C 
ATOM     11  C   LIG d   1       5.728  -3.867  -5.664  0.00  0.00    -0.049 C 
ATOM     12  C   LIG d   1       6.730  -2.714  -5.771  0.00  0.00    -0.029 C 
ATOM     13  H   LIG d   1       7.014  -2.600  -6.826  0.00  0.00     0.031 H 
ATOM     14  C   LIG d   1       7.987  -2.960  -4.951  0.00  0.00    -0.023 C 
ATOM     15  C   LIG d   1       8.681  -4.276  -5.357  0.00  0.00    -0.023 C 
ATOM     16  C   LIG d   1      10.022  -3.980  -6.041  0.00  0.00    -0.046 C 
ATOM     17  C   LIG d   1      10.667  -5.283  -6.515  0.00  0.00    -0.036 C 
ATOM     18  C   LIG d   1       7.641  -2.963  -3.461  0.00  0.00    -0.046 C 
ATOM     19  C   LIG d   1       7.002  -1.615  -3.080  0.00  0.00    -0.048 C 
ATOM     20  C   LIG d   1       5.707  -1.441  -3.861  0.00  0.00    -0.023 C 
ATOM     21  H   LIG d   1       5.081  -2.341  -3.636  0.00  0.00     0.032 H 
ATOM     22  C   LIG d   1       5.953  -1.450  -5.365  0.00  0.00    -0.021 C 
ATOM     23  C   LIG d   1       4.553  -1.552  -6.024  0.00  0.00    -0.015 C 
ATOM     24  C   LIG d   1       3.760  -0.345  -5.608  0.00  0.00     0.030 C 
ATOM     25  C   LIG d   1       3.939   0.249  -4.424  0.00  0.00     0.106 C 
ATOM     26  C   LIG d   1       4.909  -0.238  -3.386  0.00  0.00     0.026 C 
ATOM     27  H   LIG d   1      10.211  -8.017  -5.630  0.00  0.00     0.027 H 
ATOM     28  H   LIG d   1       9.670  -9.261  -6.802  0.00  0.00     0.027 H 
ATOM     29  H   LIG d   1      11.473  -7.412  -7.580  0.00  0.00     0.028 H 
ATOM     30  H   LIG d   1      10.130  -7.844  -8.684  0.00  0.00     0.028 H 
ATOM     31  H   LIG d   1       5.822  -5.867  -6.442  0.00  0.00     0.027 H 
ATOM     32  H   LIG d   1       6.431  -5.671  -4.781  0.00  0.00     0.027 H 
ATOM     33  H   LIG d   1       5.000  -3.778  -6.478  0.00  0.00     0.027 H 
ATOM     34  H   LIG d   1       5.199  -3.805  -4.712  0.00  0.00     0.027 H 
ATOM     35  H   LIG d   1       9.879  -3.341  -6.910  0.00  0.00     0.027 H 
ATOM     36  H   LIG d   1      10.721  -3.533  -5.329  0.00  0.00     0.027 H 
ATOM     37  H   LIG d   1      10.849  -5.948  -5.678  0.00  0.00     0.028 H 
ATOM     38  H   LIG d   1      11.638  -5.035  -6.965  0.00  0.00     0.028 H 
ATOM     39  H   LIG d   1       6.932  -3.751  -3.232  0.00  0.00     0.027 H 
ATOM     40  H   LIG d   1       8.545  -3.051  -2.854  0.00  0.00     0.027 H 
ATOM     41  H   LIG d   1       6.779  -1.653  -2.006  0.00  0.00     0.027 H 
ATOM     42  H   LIG d   1       7.701  -0.811  -3.259  0.00  0.00     0.027 H 
ATOM     43  H   LIG d   1       4.667  -1.571  -7.099  0.00  0.00     0.032 H 
ATOM     44  H   LIG d   1       4.051  -2.441  -5.660  0.00  0.00     0.032 H 
ENDROOT
BRANCH   1  45
ATOM     45  C   LIG d   1       7.697  -7.803  -5.164  0.00  0.00    -0.076 C 
ATOM     46  C   LIG d   1       8.483  -7.794  -4.117  0.00  0.00    -0.099 C 
ATOM     47  H   LIG d   1       9.528  -7.542  -4.227  0.00  0.00     0.053 H 
ATOM     48  H   LIG d   1       8.087  -8.040  -3.142  0.00  0.00     0.053 H 
BRANCH  45  49
ATOM     49  C   LIG d   1       6.213  -8.003  -4.992  0.00  0.00    -0.044 C 
ATOM     50  H   LIG d   1       6.029  -8.970  -4.523  0.00  0.00     0.027 H 
ATOM     51  H   LIG d   1       5.811  -7.210  -4.361  0.00  0.00     0.027 H 
ATOM     52  H   LIG d   1       5.728  -7.973  -5.968  0.00  0.00     0.027 H 
ENDBRANCH  45  49
ENDBRANCH   1  45
BRANCH   5  53
ATOM     53  C   LIG d   1       9.830  -5.246  -8.890  0.00  0.00     0.313 C 
ATOM     54  O   LIG d   1      10.878  -4.860  -9.354  0.00  0.00    -0.250 OA
BRANCH  53  55
ATOM     55  O   LIG d   1       8.682  -5.022  -9.550  0.00  0.00    -0.468 OA
BRANCH  55  56
ATOM     56  C   LIG d   1       8.339  -3.660  -9.813  0.00  0.00     0.082 C 
ATOM     57  H   LIG d   1       9.226  -3.120 -10.143  0.00  0.00     0.066 H 
ATOM     58  H   LIG d   1       7.579  -3.621 -10.592  0.00  0.00     0.066 H 
ATOM     59  H   LIG d   1       7.952  -3.202  -8.903  0.00  0.00     0.066 H 
ENDBRANCH  55  56
ENDBRANCH  53  55
ENDBRANCH   5  53
BRANCH  15  60
ATOM     60  C   LIG d   1       8.961  -5.112  -4.106  0.00  0.00    -0.059 C 
ATOM     61  H   LIG d   1       8.283  -4.810  -3.307  0.00  0.00     0.024 H 
ATOM     62  H   LIG d   1       8.809  -6.167  -4.332  0.00  0.00     0.024 H 
ATOM     63  H   LIG d   1       9.991  -4.954  -3.786  0.00  0.00     0.024 H 
ENDBRANCH  15  60
BRANCH  14  64
ATOM     64  C   LIG d   1       9.006  -1.825  -5.178  0.00  0.00    -0.059 C 
ATOM     65  H   LIG d   1       9.733  -2.134  -5.930  0.00  0.00     0.024 H 
ATOM     66  H   LIG d   1       8.485  -0.932  -5.522  0.00  0.00     0.024 H 
ATOM     67  H   LIG d   1       9.521  -1.607  -4.243  0.00  0.00     0.024 H 
ENDBRANCH  14  64
BRANCH  22  68
ATOM     68  C   LIG d   1       6.604  -0.178  -5.893  0.00  0.00    -0.059 C 
ATOM     69  H   LIG d   1       6.370   0.653  -5.228  0.00  0.00     0.024 H 
ATOM     70  H   LIG d   1       7.685  -0.315  -5.938  0.00  0.00     0.024 H 
ATOM     71  H   LIG d   1       6.224   0.037  -6.893  0.00  0.00     0.024 H 
ENDBRANCH  22  68
BRANCH  26  72
ATOM     72  C   LIG d   1       4.080  -0.664  -2.157  0.00  0.00    -0.053 C 
ATOM     73  H   LIG d   1       3.965  -1.748  -2.155  0.00  0.00     0.024 H 
ATOM     74  H   LIG d   1       4.592  -0.351  -1.247  0.00  0.00     0.024 H 
ATOM     75  H   LIG d   1       3.098  -0.195  -2.201  0.00  0.00     0.024 H 
ENDBRANCH  26  72
BRANCH  26  76
ATOM     76  C   LIG d   1       5.808   0.920  -2.956  0.00  0.00    -0.053 C 
ATOM     77  H   LIG d   1       6.158   0.750  -1.938  0.00  0.00     0.024 H 
ATOM     78  H   LIG d   1       6.664   0.984  -3.627  0.00  0.00     0.024 H 
ATOM     79  H   LIG d   1       5.244   1.852  -2.996  0.00  0.00     0.024 H 
ENDBRANCH  26  76
BRANCH  24  80
ATOM     80  C   LIG d   1       2.801   0.168  -6.494  0.00  0.00     0.149 C 
ATOM     81  O   LIG d   1       3.043   1.170  -7.136  0.00  0.00    -0.296 OA
ATOM     82  H   LIG d   1       1.848  -0.328  -6.605  0.00  0.00     0.108 H 
ENDBRANCH  24  80
BRANCH  25  83
ATOM     83  O   LIG d   1       3.209   1.345  -4.145  0.00  0.00    -0.510 OA
ATOM     84  H   LIG d   1       3.345   2.077  -4.764  0.00  0.00     0.292 HD
ENDBRANCH  25  83
TORSDOF 12
ENDMDL
MODEL 2
REMARK VINA RESULT:      -5.4      6.460      8.799
REMARK  12 active torsions:
REMARK  status: ('A' for Active; 'I' for Inactive)
REMARK    1  A    between atoms: C_1  and  C_2 
REMARK    2  A    between atoms: C_2  and  C_4 
REMARK    3  A    between atoms: C_8  and  C_38 
REMARK    4  A    between atoms: C_17  and  C_37 
REMARK    5  A    between atoms: C_18  and  C_21 
REMARK    6  A    between atoms: C_26  and  C_36 
REMARK    7  A    between atoms: C_28  and  C_34 
REMARK    8  A    between atoms: C_29  and  O_33 
REMARK    9  A    between atoms: C_30  and  C_31 
REMARK   10  A    between atoms: C_30  and  C_32 
REMARK   11  A    between atoms: C_38  and  O_40 
REMARK   12  A    between atoms: O_40  and  C_41 
ROOT
ATOM      1  C   LIG d   1       1.105  -8.117 -10.592  0.00  0.00    -0.016 C 
ATOM      2  H   LIG d   1       1.157  -8.737  -9.671  0.00  0.00     0.035 H 
ATOM      3  C   LIG d   1       0.141  -8.842 -11.566  0.00  0.00    -0.045 C 
ATOM      4  C   LIG d   1      -1.249  -8.286 -11.193  0.00  0.00    -0.036 C 
ATOM      5  C   LIG d   1      -0.965  -6.791 -10.864  0.00  0.00     0.071 C 
ATOM      6  C   LIG d   1       0.447  -6.801 -10.247  0.00  0.00    -0.015 C 
ATOM      7  H   LIG d   1       0.230  -6.896  -9.135  0.00  0.00     0.032 H 
ATOM      8  C   LIG d   1       1.158  -5.496 -10.342  0.00  0.00    -0.031 C 
ATOM      9  H   LIG d   1       0.590  -4.842  -9.610  0.00  0.00     0.031 H 
ATOM     10  C   LIG d   1       2.576  -5.482  -9.793  0.00  0.00    -0.049 C 
ATOM     11  C   LIG d   1       2.919  -4.056  -9.370  0.00  0.00    -0.049 C 
ATOM     12  C   LIG d   1       1.943  -3.031  -9.957  0.00  0.00    -0.029 C 
ATOM     13  H   LIG d   1       1.005  -3.082  -9.386  0.00  0.00     0.031 H 
ATOM     14  C   LIG d   1       1.639  -3.293 -11.423  0.00  0.00    -0.023 C 
ATOM     15  C   LIG d   1       1.076  -4.712 -11.641  0.00  0.00    -0.023 C 
ATOM     16  C   LIG d   1      -0.397  -4.640 -12.065  0.00  0.00    -0.046 C 
ATOM     17  C   LIG d   1      -0.972  -6.050 -12.200  0.00  0.00    -0.036 C 
ATOM     18  C   LIG d   1       2.899  -3.072 -12.261  0.00  0.00    -0.046 C 
ATOM     19  C   LIG d   1       3.400  -1.630 -12.062  0.00  0.00    -0.048 C 
ATOM     20  C   LIG d   1       3.769  -1.430 -10.599  0.00  0.00    -0.023 C 
ATOM     21  H   LIG d   1       4.515  -2.227 -10.351  0.00  0.00     0.032 H 
ATOM     22  C   LIG d   1       2.574  -1.655  -9.682  0.00  0.00    -0.021 C 
ATOM     23  C   LIG d   1       3.146  -1.702  -8.242  0.00  0.00    -0.015 C 
ATOM     24  C   LIG d   1       3.804  -0.379  -7.964  0.00  0.00     0.030 C 
ATOM     25  C   LIG d   1       4.385   0.341  -8.930  0.00  0.00     0.106 C 
ATOM     26  C   LIG d   1       4.472  -0.103 -10.362  0.00  0.00     0.026 C 
ATOM     27  H   LIG d   1       0.392  -8.591 -12.591  0.00  0.00     0.027 H 
ATOM     28  H   LIG d   1       0.182  -9.914 -11.401  0.00  0.00     0.027 H 
ATOM     29  H   LIG d   1      -1.933  -8.367 -12.039  0.00  0.00     0.028 H 
ATOM     30  H   LIG d   1      -1.652  -8.802 -10.324  0.00  0.00     0.028 H 
ATOM     31  H   LIG d   1       2.642  -6.139  -8.921  0.00  0.00     0.027 H 
ATOM     32  H   LIG d   1       3.303  -5.793 -10.538  0.00  0.00     0.027 H 
ATOM     33  H   LIG d   1       2.873  -4.001  -8.277  0.00  0.00     0.027 H 
ATOM     34  H   LIG d   1       3.934  -3.821  -9.692  0.00  0.00     0.027 H 
ATOM     35  H   LIG d   1      -0.986  -4.107 -11.323  0.00  0.00     0.027 H 
ATOM     36  H   LIG d   1      -0.485  -4.178 -13.052  0.00  0.00     0.027 H 
ATOM     37  H   LIG d   1      -0.428  -6.618 -12.946  0.00  0.00     0.028 H 
ATOM     38  H   LIG d   1      -2.013  -5.959 -12.539  0.00  0.00     0.028 H 
ATOM     39  H   LIG d   1       3.689  -3.750 -11.956  0.00  0.00     0.027 H 
ATOM     40  H   LIG d   1       2.677  -3.171 -13.326  0.00  0.00     0.027 H 
ATOM     41  H   LIG d   1       4.295  -1.507 -12.686  0.00  0.00     0.027 H 
ATOM     42  H   LIG d   1       2.650  -0.928 -12.396  0.00  0.00     0.027 H 
ATOM     43  H   LIG d   1       2.337  -1.869  -7.544  0.00  0.00     0.032 H 
ATOM     44  H   LIG d   1       3.895  -2.483  -8.179  0.00  0.00     0.032 H 
ENDROOT
BRANCH   1  45
ATOM     45  C   LIG d   1       2.475  -8.072 -11.187  0.00  0.00    -0.076 C 
ATOM     46  C   LIG d   1       2.623  -8.047 -12.488  0.00  0.00    -0.099 C 
ATOM     47  H   LIG d   1       1.758  -7.949 -13.129  0.00  0.00     0.053 H 
ATOM     48  H   LIG d   1       3.610  -8.126 -12.921  0.00  0.00     0.053 H 
BRANCH  45  49
ATOM     49  C   LIG d   1       3.686  -8.053 -10.290  0.00  0.00    -0.044 C 
ATOM     50  H   LIG d   1       3.460  -7.486  -9.387  0.00  0.00     0.027 H 
ATOM     51  H   LIG d   1       3.954  -9.075 -10.020  0.00  0.00     0.027 H 
ATOM     52  H   LIG d   1       4.519  -7.585 -10.814  0.00  0.00     0.027 H 
ENDBRANCH  45  49
ENDBRANCH   1  45
BRANCH   5  53
ATOM     53  C   LIG d   1      -1.991  -6.235  -9.904  0.00  0.00     0.313 C 
ATOM     54  O   LIG d   1      -1.712  -6.095  -8.736  0.00  0.00    -0.250 OA
BRANCH  53  55
ATOM     55  O   LIG d   1      -3.213  -5.896 -10.346  0.00  0.00    -0.468 OA
BRANCH  55  56
ATOM     56  C   LIG d   1      -3.748  -4.653  -9.887  0.00  0.00     0.082 C 
ATOM     57  H   LIG d   1      -3.114  -4.255  -9.095  0.00  0.00     0.066 H 
ATOM     58  H   LIG d   1      -3.783  -3.945 -10.715  0.00  0.00     0.066 H 
ATOM     59  H   LIG d   1      -4.755  -4.812  -9.501  0.00  0.00     0.066 H 
ENDBRANCH  55  56
ENDBRANCH  53  55
ENDBRANCH   5  53
BRANCH  15  60
ATOM     60  C   LIG d   1       1.858  -5.405 -12.759  0.00  0.00    -0.059 C 
ATOM     61  H   LIG d   1       2.714  -5.930 -12.333  0.00  0.00     0.024 H 
ATOM     62  H   LIG d   1       1.211  -6.120 -13.267  0.00  0.00     0.024 H 
ATOM     63  H   LIG d   1       2.209  -4.661 -13.473  0.00  0.00     0.024 H 
ENDBRANCH  15  60
BRANCH  14  64
ATOM     64  C   LIG d   1       0.573  -2.303 -11.935  0.00  0.00    -0.059 C 
ATOM     65  H   LIG d   1      -0.354  -2.839 -12.140  0.00  0.00     0.024 H 
ATOM     66  H   LIG d   1       0.392  -1.540 -11.177  0.00  0.00     0.024 H 
ATOM     67  H   LIG d   1       0.928  -1.829 -12.850  0.00  0.00     0.024 H 
ENDBRANCH  14  64
BRANCH  22  68
ATOM     68  C   LIG d   1       1.546  -0.531  -9.719  0.00  0.00    -0.059 C 
ATOM     69  H   LIG d   1       2.051   0.417  -9.900  0.00  0.00     0.024 H 
ATOM     70  H   LIG d   1       0.829  -0.721 -10.518  0.00  0.00     0.024 H 
ATOM     71  H   LIG d   1       1.020  -0.488  -8.764  0.00  0.00     0.024 H 
ENDBRANCH  22  68
BRANCH  26  72
ATOM     72  C   LIG d   1       5.969  -0.284 -10.688  0.00  0.00    -0.053 C 
ATOM     73  H   LIG d   1       6.157  -1.322 -10.965  0.00  0.00     0.024 H 
ATOM     74  H   LIG d   1       6.242   0.368 -11.518  0.00  0.00     0.024 H 
ATOM     75  H   LIG d   1       6.565  -0.029  -9.813  0.00  0.00     0.024 H 
ENDBRANCH  26  72
BRANCH  26  76
ATOM     76  C   LIG d   1       3.935   1.006 -11.265  0.00  0.00    -0.053 C 
ATOM     77  H   LIG d   1       2.998   1.385 -10.857  0.00  0.00     0.024 H 
ATOM     78  H   LIG d   1       4.662   1.816 -11.318  0.00  0.00     0.024 H 
ATOM     79  H   LIG d   1       3.761   0.608 -12.265  0.00  0.00     0.024 H 
ENDBRANCH  26  76
BRANCH  24  80
ATOM     80  C   LIG d   1       3.807   0.109  -6.650  0.00  0.00     0.149 C 
ATOM     81  O   LIG d   1       3.059   1.012  -6.336  0.00  0.00    -0.296 OA
ATOM     82  H   LIG d   1       4.475  -0.319  -5.917  0.00  0.00     0.108 H 
ENDBRANCH  24  80
BRANCH  25  83
ATOM     83  O   LIG d   1       4.922   1.531  -8.601  0.00  0.00    -0.510 OA
ATOM     84  H   LIG d   1       4.625   2.264  -9.158  0.00  0.00     0.292 HD
ENDBRANCH  25  83
TORSDOF 12
ENDMDL
MODEL 3
REMARK VINA RESULT:      -5.3      3.256      8.011
REMARK  12 active torsions:
REMARK  status: ('A' for Active; 'I' for Inactive)
REMARK    1  A    between atoms: C_1  and  C_2 
REMARK    2  A    between atoms: C_2  and  C_4 
REMARK    3  A    between atoms: C_8  and  C_38 
REMARK    4  A    between atoms: C_17  and  C_37 
REMARK    5  A    between atoms: C_18  and  C_21 
REMARK    6  A    between atoms: C_26  and  C_36 
REMARK    7  A    between atoms: C_28  and  C_34 
REMARK    8  A    between atoms: C_29  and  O_33 
REMARK    9  A    between atoms: C_30  and  C_31 
REMARK   10  A    between atoms: C_30  and  C_32 
REMARK   11  A    between atoms: C_38  and  O_40 
REMARK   12  A    between atoms: O_40  and  C_41 
ROOT
ATOM      1  C   LIG d   1       4.334  -2.382  -7.264  0.00  0.00    -0.016 C 
ATOM      2  H   LIG d   1       3.262  -2.128  -7.121  0.00  0.00     0.035 H 
ATOM      3  C   LIG d   1       5.111  -1.040  -7.298  0.00  0.00    -0.045 C 
ATOM      4  C   LIG d   1       5.441  -0.765  -5.816  0.00  0.00    -0.036 C 
ATOM      5  C   LIG d   1       5.750  -2.180  -5.245  0.00  0.00     0.071 C 
ATOM      6  C   LIG d   1       4.818  -3.119  -6.036  0.00  0.00    -0.015 C 
ATOM      7  H   LIG d   1       3.895  -3.167  -5.374  0.00  0.00     0.032 H 
ATOM      8  C   LIG d   1       5.280  -4.534  -6.078  0.00  0.00    -0.031 C 
ATOM      9  H   LIG d   1       5.114  -4.888  -5.013  0.00  0.00     0.031 H 
ATOM     10  C   LIG d   1       4.415  -5.480  -6.896  0.00  0.00    -0.049 C 
ATOM     11  C   LIG d   1       4.597  -6.896  -6.354  0.00  0.00    -0.049 C 
ATOM     12  C   LIG d   1       5.831  -7.014  -5.455  0.00  0.00    -0.029 C 
ATOM     13  H   LIG d   1       5.594  -6.563  -4.481  0.00  0.00     0.031 H 
ATOM     14  C   LIG d   1       7.044  -6.305  -6.038  0.00  0.00    -0.023 C 
ATOM     15  C   LIG d   1       6.755  -4.816  -6.310  0.00  0.00    -0.023 C 
ATOM     16  C   LIG d   1       7.567  -3.934  -5.352  0.00  0.00    -0.046 C 
ATOM     17  C   LIG d   1       7.215  -2.462  -5.571  0.00  0.00    -0.036 C 
ATOM     18  C   LIG d   1       7.494  -7.016  -7.316  0.00  0.00    -0.046 C 
ATOM     19  C   LIG d   1       7.826  -8.485  -6.997  0.00  0.00    -0.048 C 
ATOM     20  C   LIG d   1       6.571  -9.180  -6.491  0.00  0.00    -0.023 C 
ATOM     21  H   LIG d   1       5.791  -9.034  -7.281  0.00  0.00     0.032 H 
ATOM     22  C   LIG d   1       6.034  -8.521  -5.226  0.00  0.00    -0.021 C 
ATOM     23  C   LIG d   1       4.629  -9.134  -4.992  0.00  0.00    -0.015 C 
ATOM     24  C   LIG d   1       4.798 -10.615  -4.805  0.00  0.00     0.030 C 
ATOM     25  C   LIG d   1       5.772 -11.301  -5.413  0.00  0.00     0.106 C 
ATOM     26  C   LIG d   1       6.763 -10.682  -6.357  0.00  0.00     0.026 C 
ATOM     27  H   LIG d   1       6.020  -1.153  -7.879  0.00  0.00     0.027 H 
ATOM     28  H   LIG d   1       4.479  -0.255  -7.703  0.00  0.00     0.027 H 
ATOM     29  H   LIG d   1       6.316  -0.120  -5.733  0.00  0.00     0.028 H 
ATOM     30  H   LIG d   1       4.588  -0.321  -5.306  0.00  0.00     0.028 H 
ATOM     31  H   LIG d   1       3.364  -5.195  -6.804  0.00  0.00     0.027 H 
ATOM     32  H   LIG d   1       4.700  -5.485  -7.945  0.00  0.00     0.027 H 
ATOM     33  H   LIG d   1       3.708  -7.157  -5.769  0.00  0.00     0.027 H 
ATOM     34  H   LIG d   1       4.685  -7.591  -7.189  0.00  0.00     0.027 H 
ATOM     35  H   LIG d   1       7.345  -4.182  -4.317  0.00  0.00     0.027 H 
ATOM     36  H   LIG d   1       8.635  -4.028  -5.564  0.00  0.00     0.027 H 
ATOM     37  H   LIG d   1       7.438  -2.159  -6.587  0.00  0.00     0.028 H 
ATOM     38  H   LIG d   1       7.840  -1.862  -4.896  0.00  0.00     0.028 H 
ATOM     39  H   LIG d   1       6.706  -7.001  -8.062  0.00  0.00     0.027 H 
ATOM     40  H   LIG d   1       8.415  -6.573  -7.701  0.00  0.00     0.027 H 
ATOM     41  H   LIG d   1       8.154  -8.955  -7.933  0.00  0.00     0.027 H 
ATOM     42  H   LIG d   1       8.638  -8.533  -6.285  0.00  0.00     0.027 H 
ATOM     43  H   LIG d   1       4.194  -8.694  -4.105  0.00  0.00     0.032 H 
ATOM     44  H   LIG d   1       4.013  -8.961  -5.867  0.00  0.00     0.032 H 
ENDROOT
BRANCH   1  45
ATOM     45  C   LIG d   1       4.468  -3.070  -8.583  0.00  0.00    -0.076 C 
ATOM     46  C   LIG d   1       5.539  -2.884  -9.313  0.00  0.00    -0.099 C 
ATOM     47  H   LIG d   1       6.373  -2.324  -8.915  0.00  0.00     0.053 H 
ATOM     48  H   LIG d   1       5.589  -3.291 -10.313  0.00  0.00     0.053 H 
BRANCH  45  49
ATOM     49  C   LIG d   1       3.369  -3.977  -9.074  0.00  0.00    -0.044 C 
ATOM     50  H   LIG d   1       2.485  -3.848  -8.449  0.00  0.00     0.027 H 
ATOM     51  H   LIG d   1       3.123  -3.725 -10.107  0.00  0.00     0.027 H 
ATOM     52  H   LIG d   1       3.703  -5.013  -9.023  0.00  0.00     0.027 H 
ENDBRANCH  45  49
ENDBRANCH   1  45
BRANCH   5  53
ATOM     53  C   LIG d   1       5.477  -2.244  -3.760  0.00  0.00     0.313 C 
ATOM     54  O   LIG d   1       6.328  -1.898  -2.973  0.00  0.00    -0.250 OA
BRANCH  53  55
ATOM     55  O   LIG d   1       4.290  -2.684  -3.312  0.00  0.00    -0.468 OA
BRANCH  55  56
ATOM     56  C   LIG d   1       3.452  -1.732  -2.654  0.00  0.00     0.082 C 
ATOM     57  H   LIG d   1       2.407  -1.996  -2.815  0.00  0.00     0.066 H 
ATOM     58  H   LIG d   1       3.667  -1.737  -1.586  0.00  0.00     0.066 H 
ATOM     59  H   LIG d   1       3.643  -0.738  -3.059  0.00  0.00     0.066 H 
ENDBRANCH  55  56
ENDBRANCH  53  55
ENDBRANCH   5  53
BRANCH  15  60
ATOM     60  C   LIG d   1       7.169  -4.468  -7.742  0.00  0.00    -0.059 C 
ATOM     61  H   LIG d   1       7.487  -5.374  -8.258  0.00  0.00     0.024 H 
ATOM     62  H   LIG d   1       6.323  -4.028  -8.268  0.00  0.00     0.024 H 
ATOM     63  H   LIG d   1       7.993  -3.755  -7.718  0.00  0.00     0.024 H 
ENDBRANCH  15  60
BRANCH  14  64
ATOM     64  C   LIG d   1       8.225  -6.362  -5.048  0.00  0.00    -0.059 C 
ATOM     65  H   LIG d   1       8.205  -5.479  -4.408  0.00  0.00     0.024 H 
ATOM     66  H   LIG d   1       8.142  -7.259  -4.434  0.00  0.00     0.024 H 
ATOM     67  H   LIG d   1       9.163  -6.386  -5.603  0.00  0.00     0.024 H 
ENDBRANCH  14  64
BRANCH  22  68
ATOM     68  C   LIG d   1       6.862  -8.810  -3.980  0.00  0.00    -0.059 C 
ATOM     69  H   LIG d   1       6.212  -8.812  -3.105  0.00  0.00     0.024 H 
ATOM     70  H   LIG d   1       7.342  -9.784  -4.081  0.00  0.00     0.024 H 
ATOM     71  H   LIG d   1       7.625  -8.040  -3.865  0.00  0.00     0.024 H 
ENDBRANCH  22  68
BRANCH  26  72
ATOM     72  C   LIG d   1       6.530 -11.324  -7.740  0.00  0.00    -0.053 C 
ATOM     73  H   LIG d   1       5.462 -11.481  -7.892  0.00  0.00     0.024 H 
ATOM     74  H   LIG d   1       6.914 -10.663  -8.517  0.00  0.00     0.024 H 
ATOM     75  H   LIG d   1       7.048 -12.281  -7.788  0.00  0.00     0.024 H 
ENDBRANCH  26  72
BRANCH  26  76
ATOM     76  C   LIG d   1       8.178 -11.047  -5.911  0.00  0.00    -0.053 C 
ATOM     77  H   LIG d   1       8.816 -11.161  -6.787  0.00  0.00     0.024 H 
ATOM     78  H   LIG d   1       8.573 -10.257  -5.274  0.00  0.00     0.024 H 
ATOM     79  H   LIG d   1       8.153 -11.984  -5.355  0.00  0.00     0.024 H 
ENDBRANCH  26  76
BRANCH  24  80
ATOM     80  C   LIG d   1       3.901 -11.296  -3.969  0.00  0.00     0.149 C 
ATOM     81  O   LIG d   1       2.721 -11.009  -3.983  0.00  0.00    -0.296 OA
ATOM     82  H   LIG d   1       4.260 -12.075  -3.313  0.00  0.00     0.108 H 
ENDBRANCH  24  80
BRANCH  25  83
ATOM     83  O   LIG d   1       5.872 -12.620  -5.165  0.00  0.00    -0.510 OA
ATOM     84  H   LIG d   1       6.477 -12.841  -4.442  0.00  0.00     0.292 HD
ENDBRANCH  25  83
TORSDOF 12
ENDMDL
MODEL 4
REMARK VINA RESULT:      -5.3      2.461      7.359
REMARK  12 active torsions:
REMARK  status: ('A' for Active; 'I' for Inactive)
REMARK    1  A    between atoms: C_1  and  C_2 
REMARK    2  A    between atoms: C_2  and  C_4 
REMARK    3  A    between atoms: C_8  and  C_38 
REMARK    4  A    between atoms: C_17  and  C_37 
REMARK    5  A    between atoms: C_18  and  C_21 
REMARK    6  A    between atoms: C_26  and  C_36 
REMARK    7  A    between atoms: C_28  and  C_34 
REMARK    8  A    between atoms: C_29  and  O_33 
REMARK    9  A    between atoms: C_30  and  C_31 
REMARK   10  A    between atoms: C_30  and  C_32 
REMARK   11  A    between atoms: C_38  and  O_40 
REMARK   12  A    between atoms: O_40  and  C_41 
ROOT
ATOM      1  C   LIG d   1       3.857   0.295  -4.425  0.00  0.00    -0.016 C 
ATOM      2  H   LIG d   1       3.966   1.364  -4.142  0.00  0.00     0.035 H 
ATOM      3  C   LIG d   1       2.437   0.134  -5.027  0.00  0.00    -0.045 C 
ATOM      4  C   LIG d   1       2.633   0.443  -6.526  0.00  0.00    -0.036 C 
ATOM      5  C   LIG d   1       4.022  -0.184  -6.847  0.00  0.00     0.071 C 
ATOM      6  C   LIG d   1       4.827  -0.005  -5.545  0.00  0.00    -0.015 C 
ATOM      7  H   LIG d   1       5.353   0.989  -5.714  0.00  0.00     0.032 H 
ATOM      8  C   LIG d   1       5.956  -0.965  -5.396  0.00  0.00    -0.031 C 
ATOM      9  H   LIG d   1       6.697  -0.609  -6.177  0.00  0.00     0.031 H 
ATOM     10  C   LIG d   1       6.741  -0.855  -4.098  0.00  0.00    -0.049 C 
ATOM     11  C   LIG d   1       8.153  -1.382  -4.338  0.00  0.00    -0.049 C 
ATOM     12  C   LIG d   1       8.252  -2.196  -5.632  0.00  0.00    -0.029 C 
ATOM     13  H   LIG d   1       8.260  -1.496  -6.480  0.00  0.00     0.031 H 
ATOM     14  C   LIG d   1       7.086  -3.157  -5.803  0.00  0.00    -0.023 C 
ATOM     15  C   LIG d   1       5.733  -2.420  -5.769  0.00  0.00    -0.023 C 
ATOM     16  C   LIG d   1       5.069  -2.464  -7.152  0.00  0.00    -0.046 C 
ATOM     17  C   LIG d   1       3.768  -1.662  -7.133  0.00  0.00    -0.036 C 
ATOM     18  C   LIG d   1       7.145  -4.240  -4.723  0.00  0.00    -0.046 C 
ATOM     19  C   LIG d   1       8.486  -4.990  -4.822  0.00  0.00    -0.048 C 
ATOM     20  C   LIG d   1       9.624  -4.012  -4.568  0.00  0.00    -0.023 C 
ATOM     21  H   LIG d   1       9.418  -3.543  -3.572  0.00  0.00     0.032 H 
ATOM     22  C   LIG d   1       9.629  -2.879  -5.587  0.00  0.00    -0.021 C 
ATOM     23  C   LIG d   1      10.635  -1.829  -5.049  0.00  0.00    -0.015 C 
ATOM     24  C   LIG d   1      11.983  -2.487  -4.958  0.00  0.00     0.030 C 
ATOM     25  C   LIG d   1      12.120  -3.791  -4.698  0.00  0.00     0.106 C 
ATOM     26  C   LIG d   1      10.965  -4.715  -4.437  0.00  0.00     0.026 C 
ATOM     27  H   LIG d   1       2.089  -0.884  -4.888  0.00  0.00     0.027 H 
ATOM     28  H   LIG d   1       1.758   0.849  -4.573  0.00  0.00     0.027 H 
ATOM     29  H   LIG d   1       1.853  -0.034  -7.120  0.00  0.00     0.028 H 
ATOM     30  H   LIG d   1       2.645   1.517  -6.701  0.00  0.00     0.028 H 
ATOM     31  H   LIG d   1       6.798   0.191  -3.786  0.00  0.00     0.027 H 
ATOM     32  H   LIG d   1       6.295  -1.446  -3.303  0.00  0.00     0.027 H 
ATOM     33  H   LIG d   1       8.833  -0.525  -4.408  0.00  0.00     0.027 H 
ATOM     34  H   LIG d   1       8.454  -2.001  -3.492  0.00  0.00     0.027 H 
ATOM     35  H   LIG d   1       5.721  -2.029  -7.906  0.00  0.00     0.027 H 
ATOM     36  H   LIG d   1       4.793  -3.490  -7.408  0.00  0.00     0.027 H 
ATOM     37  H   LIG d   1       3.074  -2.071  -6.408  0.00  0.00     0.028 H 
ATOM     38  H   LIG d   1       3.305  -1.746  -8.126  0.00  0.00     0.028 H 
ATOM     39  H   LIG d   1       7.076  -3.800  -3.734  0.00  0.00     0.027 H 
ATOM     40  H   LIG d   1       6.366  -4.988  -4.884  0.00  0.00     0.027 H 
ATOM     41  H   LIG d   1       8.485  -5.762  -4.042  0.00  0.00     0.027 H 
ATOM     42  H   LIG d   1       8.568  -5.474  -5.785  0.00  0.00     0.027 H 
ATOM     43  H   LIG d   1      10.675  -0.992  -5.733  0.00  0.00     0.032 H 
ATOM     44  H   LIG d   1      10.332  -1.518  -4.056  0.00  0.00     0.032 H 
ENDROOT
BRANCH   1  45
ATOM     45  C   LIG d   1       3.966  -0.520  -3.177  0.00  0.00    -0.076 C 
ATOM     46  C   LIG d   1       3.310  -1.649  -3.074  0.00  0.00    -0.099 C 
ATOM     47  H   LIG d   1       2.780  -2.046  -3.927  0.00  0.00     0.053 H 
ATOM     48  H   LIG d   1       3.299  -2.183  -2.134  0.00  0.00     0.053 H 
BRANCH  45  49
ATOM     49  C   LIG d   1       4.830  -0.043  -2.039  0.00  0.00    -0.044 C 
ATOM     50  H   LIG d   1       4.812  -0.780  -1.235  0.00  0.00     0.027 H 
ATOM     51  H   LIG d   1       5.855   0.086  -2.390  0.00  0.00     0.027 H 
ATOM     52  H   LIG d   1       4.450   0.909  -1.668  0.00  0.00     0.027 H 
ENDBRANCH  45  49
ENDBRANCH   1  45
BRANCH   5  53
ATOM     53  C   LIG d   1       4.683   0.514  -8.013  0.00  0.00     0.313 C 
ATOM     54  O   LIG d   1       5.715   1.121  -7.848  0.00  0.00    -0.250 OA
BRANCH  53  55
ATOM     55  O   LIG d   1       4.125   0.460  -9.233  0.00  0.00    -0.468 OA
BRANCH  55  56
ATOM     56  C   LIG d   1       3.902   1.703  -9.901  0.00  0.00     0.082 C 
ATOM     57  H   LIG d   1       3.849   1.534 -10.976  0.00  0.00     0.066 H 
ATOM     58  H   LIG d   1       2.964   2.137  -9.555  0.00  0.00     0.066 H 
ATOM     59  H   LIG d   1       4.722   2.386  -9.680  0.00  0.00     0.066 H 
ENDBRANCH  55  56
ENDBRANCH  53  55
ENDBRANCH   5  53
BRANCH  15  60
ATOM     60  C   LIG d   1       4.799  -3.112  -4.773  0.00  0.00    -0.059 C 
ATOM     61  H   LIG d   1       3.791  -3.153  -5.188  0.00  0.00     0.024 H 
ATOM     62  H   LIG d   1       5.155  -4.124  -4.583  0.00  0.00     0.024 H 
ATOM     63  H   LIG d   1       4.784  -2.551  -3.839  0.00  0.00     0.024 H 
ENDBRANCH  15  60
BRANCH  14  64
ATOM     64  C   LIG d   1       7.176  -3.871  -7.167  0.00  0.00    -0.059 C 
ATOM     65  H   LIG d   1       6.201  -3.849  -7.654  0.00  0.00     0.024 H 
ATOM     66  H   LIG d   1       7.909  -3.364  -7.795  0.00  0.00     0.024 H 
ATOM     67  H   LIG d   1       7.482  -4.906  -7.015  0.00  0.00     0.024 H 
ENDBRANCH  14  64
BRANCH  22  68
ATOM     68  C   LIG d   1      10.113  -3.295  -6.971  0.00  0.00    -0.059 C 
ATOM     69  H   LIG d   1       9.782  -4.312  -7.181  0.00  0.00     0.024 H 
ATOM     70  H   LIG d   1       9.701  -2.616  -7.718  0.00  0.00     0.024 H 
ATOM     71  H   LIG d   1      11.202  -3.252  -7.003  0.00  0.00     0.024 H 
ENDBRANCH  22  68
BRANCH  26  72
ATOM     72  C   LIG d   1      11.107  -5.218  -2.986  0.00  0.00    -0.053 C 
ATOM     73  H   LIG d   1      10.199  -5.746  -2.694  0.00  0.00     0.024 H 
ATOM     74  H   LIG d   1      11.958  -5.895  -2.917  0.00  0.00     0.024 H 
ATOM     75  H   LIG d   1      11.262  -4.369  -2.320  0.00  0.00     0.024 H 
ENDBRANCH  26  72
BRANCH  26  76
ATOM     76  C   LIG d   1      11.074  -5.929  -5.358  0.00  0.00    -0.053 C 
ATOM     77  H   LIG d   1      11.577  -5.640  -6.282  0.00  0.00     0.024 H 
ATOM     78  H   LIG d   1      11.647  -6.711  -4.862  0.00  0.00     0.024 H 
ATOM     79  H   LIG d   1      10.076  -6.300  -5.589  0.00  0.00     0.024 H 
ENDBRANCH  26  76
BRANCH  24  80
ATOM     80  C   LIG d   1      13.130  -1.704  -5.152  0.00  0.00     0.149 C 
ATOM     81  O   LIG d   1      13.832  -1.412  -4.205  0.00  0.00    -0.296 OA
ATOM     82  H   LIG d   1      13.388  -1.360  -6.142  0.00  0.00     0.108 H 
ENDBRANCH  24  80
BRANCH  25  83
ATOM     83  O   LIG d   1      13.363  -4.307  -4.667  0.00  0.00    -0.510 OA
ATOM     84  H   LIG d   1      13.922  -3.947  -3.963  0.00  0.00     0.292 HD
ENDBRANCH  25  83
TORSDOF 12
ENDMDL
MODEL 5
REMARK VINA RESULT:      -5.2     10.644     14.415
REMARK  12 active torsions:
REMARK  status: ('A' for Active; 'I' for Inactive)
REMARK    1  A    between atoms: C_1  and  C_2 
REMARK    2  A    between atoms: C_2  and  C_4 
REMARK    3  A    between atoms: C_8  and  C_38 
REMARK    4  A    between atoms: C_17  and  C_37 
REMARK    5  A    between atoms: C_18  and  C_21 
REMARK    6  A    between atoms: C_26  and  C_36 
REMARK    7  A    between atoms: C_28  and  C_34 
REMARK    8  A    between atoms: C_29  and  O_33 
REMARK    9  A    between atoms: C_30  and  C_31 
REMARK   10  A    between atoms: C_30  and  C_32 
REMARK   11  A    between atoms: C_38  and  O_40 
REMARK   12  A    between atoms: O_40  and  C_41 
ROOT
ATOM      1  C   LIG d   1       9.610  11.319  -1.895  0.00  0.00    -0.016 C 
ATOM      2  H   LIG d   1       8.539  11.530  -1.686  0.00  0.00     0.035 H 
ATOM      3  C   LIG d   1      10.371  11.502  -0.556  0.00  0.00    -0.045 C 
ATOM      4  C   LIG d   1      10.294  10.111   0.107  0.00  0.00    -0.036 C 
ATOM      5  C   LIG d   1      10.436   9.129  -1.092  0.00  0.00     0.071 C 
ATOM      6  C   LIG d   1       9.747   9.859  -2.262  0.00  0.00    -0.015 C 
ATOM      7  H   LIG d   1       8.681   9.469  -2.204  0.00  0.00     0.032 H 
ATOM      8  C   LIG d   1      10.200   9.407  -3.607  0.00  0.00    -0.031 C 
ATOM      9  H   LIG d   1       9.755   8.367  -3.689  0.00  0.00     0.031 H 
ATOM     10  C   LIG d   1       9.582  10.143  -4.786  0.00  0.00    -0.049 C 
ATOM     11  C   LIG d   1       9.609   9.220  -6.002  0.00  0.00    -0.049 C 
ATOM     12  C   LIG d   1      10.559   8.034  -5.805  0.00  0.00    -0.029 C 
ATOM     13  H   LIG d   1      10.071   7.309  -5.139  0.00  0.00     0.031 H 
ATOM     14  C   LIG d   1      11.885   8.450  -5.187  0.00  0.00    -0.023 C 
ATOM     15  C   LIG d   1      11.682   9.168  -3.838  0.00  0.00    -0.023 C 
ATOM     16  C   LIG d   1      12.211   8.300  -2.689  0.00  0.00    -0.046 C 
ATOM     17  C   LIG d   1      11.934   8.980  -1.348  0.00  0.00    -0.036 C 
ATOM     18  C   LIG d   1      12.658   9.335  -6.165  0.00  0.00    -0.046 C 
ATOM     19  C   LIG d   1      12.890   8.567  -7.479  0.00  0.00    -0.048 C 
ATOM     20  C   LIG d   1      11.543   8.238  -8.107  0.00  0.00    -0.023 C 
ATOM     21  H   LIG d   1      11.002   9.213  -8.219  0.00  0.00     0.032 H 
ATOM     22  C   LIG d   1      10.690   7.374  -7.187  0.00  0.00    -0.021 C 
ATOM     23  C   LIG d   1       9.272   7.358  -7.814  0.00  0.00    -0.015 C 
ATOM     24  C   LIG d   1       9.381   6.752  -9.185  0.00  0.00     0.030 C 
ATOM     25  C   LIG d   1      10.480   6.885  -9.934  0.00  0.00     0.106 C 
ATOM     26  C   LIG d   1      11.688   7.670  -9.509  0.00  0.00     0.026 C 
ATOM     27  H   LIG d   1      11.402  11.777  -0.751  0.00  0.00     0.027 H 
ATOM     28  H   LIG d   1       9.872  12.248   0.055  0.00  0.00     0.027 H 
ATOM     29  H   LIG d   1      11.116   9.977   0.810  0.00  0.00     0.028 H 
ATOM     30  H   LIG d   1       9.337   9.974   0.607  0.00  0.00     0.028 H 
ATOM     31  H   LIG d   1       8.546  10.404  -4.559  0.00  0.00     0.027 H 
ATOM     32  H   LIG d   1      10.137  11.043  -5.038  0.00  0.00     0.027 H 
ATOM     33  H   LIG d   1       8.596   8.837  -6.166  0.00  0.00     0.027 H 
ATOM     34  H   LIG d   1       9.915   9.791  -6.879  0.00  0.00     0.027 H 
ATOM     35  H   LIG d   1      11.721   7.329  -2.681  0.00  0.00     0.027 H 
ATOM     36  H   LIG d   1      13.297   8.196  -2.760  0.00  0.00     0.027 H 
ATOM     37  H   LIG d   1      12.421   9.947  -1.298  0.00  0.00     0.028 H 
ATOM     38  H   LIG d   1      12.358   8.348  -0.555  0.00  0.00     0.028 H 
ATOM     39  H   LIG d   1      12.097  10.236  -6.394  0.00  0.00     0.027 H 
ATOM     40  H   LIG d   1      13.649   9.571  -5.773  0.00  0.00     0.027 H 
ATOM     41  H   LIG d   1      13.454   9.229  -8.148  0.00  0.00     0.027 H 
ATOM     42  H   LIG d   1      13.482   7.683  -7.291  0.00  0.00     0.027 H 
ATOM     43  H   LIG d   1       8.616   6.761  -7.195  0.00  0.00     0.032 H 
ATOM     44  H   LIG d   1       8.911   8.376  -7.911  0.00  0.00     0.032 H 
ENDROOT
BRANCH   1  45
ATOM     45  C   LIG d   1      10.089  12.330  -2.884  0.00  0.00    -0.076 C 
ATOM     46  C   LIG d   1      11.316  12.783  -2.816  0.00  0.00    -0.099 C 
ATOM     47  H   LIG d   1      12.014  12.347  -2.116  0.00  0.00     0.053 H 
ATOM     48  H   LIG d   1      11.630  13.593  -3.459  0.00  0.00     0.053 H 
BRANCH  45  49
ATOM     49  C   LIG d   1       9.160  12.830  -3.961  0.00  0.00    -0.044 C 
ATOM     50  H   LIG d   1       8.793  13.821  -3.693  0.00  0.00     0.027 H 
ATOM     51  H   LIG d   1       9.698  12.885  -4.908  0.00  0.00     0.027 H 
ATOM     52  H   LIG d   1       8.318  12.145  -4.061  0.00  0.00     0.027 H 
ENDBRANCH  45  49
ENDBRANCH   1  45
BRANCH   5  53
ATOM     53  C   LIG d   1       9.776   7.802  -0.796  0.00  0.00     0.313 C 
ATOM     54  O   LIG d   1       8.692   7.547  -1.266  0.00  0.00    -0.250 OA
BRANCH  53  55
ATOM     55  O   LIG d   1      10.394   6.904  -0.012  0.00  0.00    -0.468 OA
BRANCH  55  56
ATOM     56  C   LIG d   1      10.723   5.645  -0.601  0.00  0.00     0.082 C 
ATOM     57  H   LIG d   1      10.088   4.868  -0.177  0.00  0.00     0.066 H 
ATOM     58  H   LIG d   1      10.565   5.695  -1.678  0.00  0.00     0.066 H 
ATOM     59  H   LIG d   1      11.769   5.411  -0.398  0.00  0.00     0.066 H 
ENDBRANCH  55  56
ENDBRANCH  53  55
ENDBRANCH   5  53
BRANCH  15  60
ATOM     60  C   LIG d   1      12.464  10.484  -3.837  0.00  0.00    -0.059 C 
ATOM     61  H   LIG d   1      11.847  11.273  -4.268  0.00  0.00     0.024 H 
ATOM     62  H   LIG d   1      12.729  10.748  -2.814  0.00  0.00     0.024 H 
ATOM     63  H   LIG d   1      13.371  10.368  -4.430  0.00  0.00     0.024 H 
ENDBRANCH  15  60
BRANCH  14  64
ATOM     64  C   LIG d   1      12.759   7.209  -4.909  0.00  0.00    -0.059 C 
ATOM     65  H   LIG d   1      13.806   7.454  -5.090  0.00  0.00     0.024 H 
ATOM     66  H   LIG d   1      12.631   6.899  -3.872  0.00  0.00     0.024 H 
ATOM     67  H   LIG d   1      12.456   6.398  -5.571  0.00  0.00     0.024 H 
ENDBRANCH  14  64
BRANCH  22  68
ATOM     68  C   LIG d   1      11.154   5.926  -7.094  0.00  0.00    -0.059 C 
ATOM     69  H   LIG d   1      12.153   5.892  -6.659  0.00  0.00     0.024 H 
ATOM     70  H   LIG d   1      10.463   5.363  -6.465  0.00  0.00     0.024 H 
ATOM     71  H   LIG d   1      11.176   5.486  -8.092  0.00  0.00     0.024 H 
ENDBRANCH  22  68
BRANCH  26  72
ATOM     72  C   LIG d   1      11.832   8.847 -10.495  0.00  0.00    -0.053 C 
ATOM     73  H   LIG d   1      12.589   9.539 -10.126  0.00  0.00     0.024 H 
ATOM     74  H   LIG d   1      12.132   8.468 -11.472  0.00  0.00     0.024 H 
ATOM     75  H   LIG d   1      10.878   9.366 -10.584  0.00  0.00     0.024 H 
ENDBRANCH  26  72
BRANCH  26  76
ATOM     76  C   LIG d   1      12.932   6.794  -9.652  0.00  0.00    -0.053 C 
ATOM     77  H   LIG d   1      13.637   7.274 -10.331  0.00  0.00     0.024 H 
ATOM     78  H   LIG d   1      13.399   6.664  -8.677  0.00  0.00     0.024 H 
ATOM     79  H   LIG d   1      12.647   5.821 -10.052  0.00  0.00     0.024 H 
ENDBRANCH  26  76
BRANCH  24  80
ATOM     80  C   LIG d   1       8.292   6.027  -9.690  0.00  0.00     0.149 C 
ATOM     81  O   LIG d   1       8.339   4.815  -9.738  0.00  0.00    -0.296 OA
ATOM     82  H   LIG d   1       7.411   6.547 -10.036  0.00  0.00     0.108 H 
ENDBRANCH  24  80
BRANCH  25  83
ATOM     83  O   LIG d   1      10.507   6.282 -11.138  0.00  0.00    -0.510 OA
ATOM     84  H   LIG d   1      10.435   5.318 -11.097  0.00  0.00     0.292 HD
ENDBRANCH  25  83
TORSDOF 12
ENDMDL
MODEL 6
REMARK VINA RESULT:      -5.2     10.897     13.658
REMARK  12 active torsions:
REMARK  status: ('A' for Active; 'I' for Inactive)
REMARK    1  A    between atoms: C_1  and  C_2 
REMARK    2  A    between atoms: C_2  and  C_4 
REMARK    3  A    between atoms: C_8  and  C_38 
REMARK    4  A    between atoms: C_17  and  C_37 
REMARK    5  A    between atoms: C_18  and  C_21 
REMARK    6  A    between atoms: C_26  and  C_36 
REMARK    7  A    between atoms: C_28  and  C_34 
REMARK    8  A    between atoms: C_29  and  O_33 
REMARK    9  A    between atoms: C_30  and  C_31 
REMARK   10  A    between atoms: C_30  and  C_32 
REMARK   11  A    between atoms: C_38  and  O_40 
REMARK   12  A    between atoms: O_40  and  C_41 
ROOT
ATOM      1  C   LIG d   1      13.021   6.772  -1.043  0.00  0.00    -0.016 C 
ATOM      2  H   LIG d   1      13.556   7.524  -0.425  0.00  0.00     0.035 H 
ATOM      3  C   LIG d   1      12.428   5.727  -0.062  0.00  0.00    -0.045 C 
ATOM      4  C   LIG d   1      11.047   6.308   0.306  0.00  0.00    -0.036 C 
ATOM      5  C   LIG d   1      10.553   6.944  -1.027  0.00  0.00     0.071 C 
ATOM      6  C   LIG d   1      11.842   7.447  -1.706  0.00  0.00    -0.015 C 
ATOM      7  H   LIG d   1      11.912   8.521  -1.341  0.00  0.00     0.032 H 
ATOM      8  C   LIG d   1      11.727   7.597  -3.183  0.00  0.00    -0.031 C 
ATOM      9  H   LIG d   1      11.042   8.494  -3.295  0.00  0.00     0.031 H 
ATOM     10  C   LIG d   1      12.996   8.039  -3.896  0.00  0.00    -0.049 C 
ATOM     11  C   LIG d   1      12.605   8.746  -5.191  0.00  0.00    -0.049 C 
ATOM     12  C   LIG d   1      11.149   8.471  -5.580  0.00  0.00    -0.029 C 
ATOM     13  H   LIG d   1      10.499   9.077  -4.934  0.00  0.00     0.031 H 
ATOM     14  C   LIG d   1      10.772   7.007  -5.417  0.00  0.00    -0.023 C 
ATOM     15  C   LIG d   1      11.014   6.516  -3.976  0.00  0.00    -0.023 C 
ATOM     16  C   LIG d   1       9.676   6.219  -3.284  0.00  0.00    -0.046 C 
ATOM     17  C   LIG d   1       9.918   5.811  -1.831  0.00  0.00    -0.036 C 
ATOM     18  C   LIG d   1      11.551   6.156  -6.421  0.00  0.00    -0.046 C 
ATOM     19  C   LIG d   1      11.243   6.639  -7.850  0.00  0.00    -0.048 C 
ATOM     20  C   LIG d   1      11.706   8.081  -7.999  0.00  0.00    -0.023 C 
ATOM     21  H   LIG d   1      12.790   8.093  -7.720  0.00  0.00     0.032 H 
ATOM     22  C   LIG d   1      10.996   9.003  -7.015  0.00  0.00    -0.021 C 
ATOM     23  C   LIG d   1      11.754  10.354  -7.077  0.00  0.00    -0.015 C 
ATOM     24  C   LIG d   1      11.653  10.876  -8.482  0.00  0.00     0.030 C 
ATOM     25  C   LIG d   1      11.582  10.059  -9.539  0.00  0.00     0.106 C 
ATOM     26  C   LIG d   1      11.632   8.561  -9.439  0.00  0.00     0.026 C 
ATOM     27  H   LIG d   1      12.320   4.770  -0.561  0.00  0.00     0.027 H 
ATOM     28  H   LIG d   1      13.057   5.645   0.818  0.00  0.00     0.027 H 
ATOM     29  H   LIG d   1      10.370   5.514   0.624  0.00  0.00     0.028 H 
ATOM     30  H   LIG d   1      11.141   7.065   1.083  0.00  0.00     0.028 H 
ATOM     31  H   LIG d   1      13.554   8.735  -3.263  0.00  0.00     0.027 H 
ATOM     32  H   LIG d   1      13.631   7.196  -4.155  0.00  0.00     0.027 H 
ATOM     33  H   LIG d   1      12.733   9.824  -5.046  0.00  0.00     0.027 H 
ATOM     34  H   LIG d   1      13.266   8.417  -5.993  0.00  0.00     0.027 H 
ATOM     35  H   LIG d   1       9.039   7.100  -3.284  0.00  0.00     0.027 H 
ATOM     36  H   LIG d   1       9.182   5.369  -3.762  0.00  0.00     0.027 H 
ATOM     37  H   LIG d   1      10.535   4.922  -1.778  0.00  0.00     0.028 H 
ATOM     38  H   LIG d   1       8.944   5.573  -1.380  0.00  0.00     0.028 H 
ATOM     39  H   LIG d   1      12.619   6.248  -6.256  0.00  0.00     0.027 H 
ATOM     40  H   LIG d   1      11.228   5.114  -6.377  0.00  0.00     0.027 H 
ATOM     41  H   LIG d   1      11.810   6.000  -8.539  0.00  0.00     0.027 H 
ATOM     42  H   LIG d   1      10.189   6.522  -8.061  0.00  0.00     0.027 H 
ATOM     43  H   LIG d   1      11.296  11.051  -6.388  0.00  0.00     0.032 H 
ATOM     44  H   LIG d   1      12.800  10.190  -6.841  0.00  0.00     0.032 H 
ENDROOT
BRANCH   1  45
ATOM     45  C   LIG d   1      14.028   6.110  -1.927  0.00  0.00    -0.076 C 
ATOM     46  C   LIG d   1      13.901   4.842  -2.230  0.00  0.00    -0.099 C 
ATOM     47  H   LIG d   1      13.014   4.302  -1.933  0.00  0.00     0.053 H 
ATOM     48  H   LIG d   1      14.685   4.336  -2.776  0.00  0.00     0.053 H 
BRANCH  45  49
ATOM     49  C   LIG d   1      15.189   6.903  -2.471  0.00  0.00    -0.044 C 
ATOM     50  H   LIG d   1      14.828   7.608  -3.221  0.00  0.00     0.027 H 
ATOM     51  H   LIG d   1      15.668   7.450  -1.658  0.00  0.00     0.027 H 
ATOM     52  H   LIG d   1      15.910   6.225  -2.927  0.00  0.00     0.027 H 
ENDBRANCH  45  49
ENDBRANCH   1  45
BRANCH   5  53
ATOM     53  C   LIG d   1       9.580   8.071  -0.770  0.00  0.00     0.313 C 
ATOM     54  O   LIG d   1       8.390   7.864  -0.812  0.00  0.00    -0.250 OA
BRANCH  53  55
ATOM     55  O   LIG d   1      10.037   9.304  -0.495  0.00  0.00    -0.468 OA
BRANCH  55  56
ATOM     56  C   LIG d   1       9.543  10.374  -1.303  0.00  0.00     0.082 C 
ATOM     57  H   LIG d   1       8.569  10.103  -1.709  0.00  0.00     0.066 H 
ATOM     58  H   LIG d   1       9.446  11.273  -0.695  0.00  0.00     0.066 H 
ATOM     59  H   LIG d   1      10.239  10.562  -2.121  0.00  0.00     0.066 H 
ENDBRANCH  55  56
ENDBRANCH  53  55
ENDBRANCH   5  53
BRANCH  15  60
ATOM     60  C   LIG d   1      11.828   5.220  -4.008  0.00  0.00    -0.059 C 
ATOM     61  H   LIG d   1      11.898   4.861  -5.035  0.00  0.00     0.024 H 
ATOM     62  H   LIG d   1      12.828   5.410  -3.620  0.00  0.00     0.024 H 
ATOM     63  H   LIG d   1      11.336   4.467  -3.393  0.00  0.00     0.024 H 
ENDBRANCH  15  60
BRANCH  14  64
ATOM     64  C   LIG d   1       9.272   6.803  -5.716  0.00  0.00    -0.059 C 
ATOM     65  H   LIG d   1       8.989   5.779  -5.473  0.00  0.00     0.024 H 
ATOM     66  H   LIG d   1       8.684   7.497  -5.115  0.00  0.00     0.024 H 
ATOM     67  H   LIG d   1       9.085   6.991  -6.774  0.00  0.00     0.024 H 
ENDBRANCH  14  64
BRANCH  22  68
ATOM     68  C   LIG d   1       9.543   9.289  -7.373  0.00  0.00    -0.059 C 
ATOM     69  H   LIG d   1       9.168  10.101  -6.750  0.00  0.00     0.024 H 
ATOM     70  H   LIG d   1       9.477   9.574  -8.423  0.00  0.00     0.024 H 
ATOM     71  H   LIG d   1       8.944   8.393  -7.203  0.00  0.00     0.024 H 
ENDBRANCH  22  68
BRANCH  26  72
ATOM     72  C   LIG d   1      12.912   8.102 -10.167  0.00  0.00    -0.053 C 
ATOM     73  H   LIG d   1      13.262   8.899 -10.823  0.00  0.00     0.024 H 
ATOM     74  H   LIG d   1      13.685   7.871  -9.433  0.00  0.00     0.024 H 
ATOM     75  H   LIG d   1      12.696   7.214 -10.759  0.00  0.00     0.024 H 
ENDBRANCH  26  72
BRANCH  26  76
ATOM     76  C   LIG d   1      10.439   7.968 -10.186  0.00  0.00    -0.053 C 
ATOM     77  H   LIG d   1       9.820   8.773 -10.581  0.00  0.00     0.024 H 
ATOM     78  H   LIG d   1      10.797   7.349 -11.009  0.00  0.00     0.024 H 
ATOM     79  H   LIG d   1       9.849   7.358  -9.502  0.00  0.00     0.024 H 
ENDBRANCH  26  76
BRANCH  24  80
ATOM     80  C   LIG d   1      11.634  12.262  -8.687  0.00  0.00     0.149 C 
ATOM     81  O   LIG d   1      10.578  12.862  -8.687  0.00  0.00    -0.296 OA
ATOM     82  H   LIG d   1      12.558  12.798  -8.844  0.00  0.00     0.108 H 
ENDBRANCH  24  80
BRANCH  25  83
ATOM     83  O   LIG d   1      11.460  10.609 -10.762  0.00  0.00    -0.510 OA
ATOM     84  H   LIG d   1      11.206   9.980 -11.452  0.00  0.00     0.292 HD
ENDBRANCH  25  83
TORSDOF 12
ENDMDL
MODEL 7
REMARK VINA RESULT:      -5.2      8.683     13.341
REMARK  12 active torsions:
REMARK  status: ('A' for Active; 'I' for Inactive)
REMARK    1  A    between atoms: C_1  and  C_2 
REMARK    2  A    between atoms: C_2  and  C_4 
REMARK    3  A    between atoms: C_8  and  C_38 
REMARK    4  A    between atoms: C_17  and  C_37 
REMARK    5  A    between atoms: C_18  and  C_21 
REMARK    6  A    between atoms: C_26  and  C_36 
REMARK    7  A    between atoms: C_28  and  C_34 
REMARK    8  A    between atoms: C_29  and  O_33 
REMARK    9  A    between atoms: C_30  and  C_31 
REMARK   10  A    between atoms: C_30  and  C_32 
REMARK   11  A    between atoms: C_38  and  O_40 
REMARK   12  A    between atoms: O_40  and  C_41 
ROOT
ATOM      1  C   LIG d   1      10.194  10.061  -0.108  0.00  0.00    -0.016 C 
ATOM      2  H   LIG d   1       9.201  10.241   0.357  0.00  0.00     0.035 H 
ATOM      3  C   LIG d   1      11.227  10.875   0.714  0.00  0.00    -0.045 C 
ATOM      4  C   LIG d   1      11.652   9.906   1.837  0.00  0.00    -0.036 C 
ATOM      5  C   LIG d   1      11.683   8.520   1.128  0.00  0.00     0.071 C 
ATOM      6  C   LIG d   1      10.555   8.606   0.081  0.00  0.00    -0.015 C 
ATOM      7  H   LIG d   1       9.662   8.182   0.643  0.00  0.00     0.032 H 
ATOM      8  C   LIG d   1      10.716   7.662  -1.059  0.00  0.00    -0.031 C 
ATOM      9  H   LIG d   1      10.515   6.652  -0.585  0.00  0.00     0.031 H 
ATOM     10  C   LIG d   1       9.652   7.756  -2.141  0.00  0.00    -0.049 C 
ATOM     11  C   LIG d   1       9.557   6.405  -2.848  0.00  0.00    -0.049 C 
ATOM     12  C   LIG d   1      10.769   5.515  -2.553  0.00  0.00    -0.029 C 
ATOM     13  H   LIG d   1      10.658   5.106  -1.539  0.00  0.00     0.031 H 
ATOM     14  C   LIG d   1      12.082   6.278  -2.632  0.00  0.00    -0.023 C 
ATOM     15  C   LIG d   1      12.095   7.486  -1.674  0.00  0.00    -0.023 C 
ATOM     16  C   LIG d   1      13.099   7.252  -0.538  0.00  0.00    -0.046 C 
ATOM     17  C   LIG d   1      13.048   8.415   0.453  0.00  0.00    -0.036 C 
ATOM     18  C   LIG d   1      12.337   6.722  -4.073  0.00  0.00    -0.046 C 
ATOM     19  C   LIG d   1      12.373   5.487  -4.992  0.00  0.00    -0.048 C 
ATOM     20  C   LIG d   1      11.018   4.796  -4.948  0.00  0.00    -0.023 C 
ATOM     21  H   LIG d   1      10.260   5.572  -5.228  0.00  0.00     0.032 H 
ATOM     22  C   LIG d   1      10.666   4.338  -3.538  0.00  0.00    -0.021 C 
ATOM     23  C   LIG d   1       9.174   3.921  -3.586  0.00  0.00    -0.015 C 
ATOM     24  C   LIG d   1       9.042   2.796  -4.574  0.00  0.00     0.030 C 
ATOM     25  C   LIG d   1       9.837   2.694  -5.644  0.00  0.00     0.106 C 
ATOM     26  C   LIG d   1      10.903   3.694  -5.988  0.00  0.00     0.026 C 
ATOM     27  H   LIG d   1      12.076  11.134   0.090  0.00  0.00     0.027 H 
ATOM     28  H   LIG d   1      10.757  11.761   1.128  0.00  0.00     0.027 H 
ATOM     29  H   LIG d   1      12.642  10.166   2.212  0.00  0.00     0.028 H 
ATOM     30  H   LIG d   1      10.924   9.909   2.646  0.00  0.00     0.028 H 
ATOM     31  H   LIG d   1       8.685   7.991  -1.690  0.00  0.00     0.027 H 
ATOM     32  H   LIG d   1       9.897   8.506  -2.888  0.00  0.00     0.027 H 
ATOM     33  H   LIG d   1       8.653   5.897  -2.497  0.00  0.00     0.027 H 
ATOM     34  H   LIG d   1       9.476   6.568  -3.923  0.00  0.00     0.027 H 
ATOM     35  H   LIG d   1      12.863   6.339   0.004  0.00  0.00     0.027 H 
ATOM     36  H   LIG d   1      14.119   7.230  -0.931  0.00  0.00     0.027 H 
ATOM     37  H   LIG d   1      13.297   9.350  -0.037  0.00  0.00     0.028 H 
ATOM     38  H   LIG d   1      13.804   8.231   1.230  0.00  0.00     0.028 H 
ATOM     39  H   LIG d   1      11.546   7.380  -4.419  0.00  0.00     0.027 H 
ATOM     40  H   LIG d   1      13.318   7.196  -4.164  0.00  0.00     0.027 H 
ATOM     41  H   LIG d   1      12.569   5.846  -6.011  0.00  0.00     0.027 H 
ATOM     42  H   LIG d   1      13.179   4.831  -4.697  0.00  0.00     0.027 H 
ATOM     43  H   LIG d   1       8.865   3.592  -2.604  0.00  0.00     0.032 H 
ATOM     44  H   LIG d   1       8.579   4.759  -3.932  0.00  0.00     0.032 H 
ENDROOT
BRANCH   1  45
ATOM     45  C   LIG d   1      10.144  10.587  -1.506  0.00  0.00    -0.076 C 
ATOM     46  C   LIG d   1       9.024  10.539  -2.184  0.00  0.00    -0.099 C 
ATOM     47  H   LIG d   1       8.112  10.222  -1.698  0.00  0.00     0.053 H 
ATOM     48  H   LIG d   1       9.012  10.815  -3.228  0.00  0.00     0.053 H 
BRANCH  45  49
ATOM     49  C   LIG d   1      11.381  11.172  -2.136  0.00  0.00    -0.044 C 
ATOM     50  H   LIG d   1      11.824  11.902  -1.457  0.00  0.00     0.027 H 
ATOM     51  H   LIG d   1      12.101  10.376  -2.332  0.00  0.00     0.027 H 
ATOM     52  H   LIG d   1      11.116  11.661  -3.073  0.00  0.00     0.027 H 
ENDBRANCH  45  49
ENDBRANCH   1  45
BRANCH   5  53
ATOM     53  C   LIG d   1      11.448   7.396   2.111  0.00  0.00     0.313 C 
ATOM     54  O   LIG d   1      11.234   6.276   1.708  0.00  0.00    -0.250 OA
BRANCH  53  55
ATOM     55  O   LIG d   1      11.479   7.639   3.431  0.00  0.00    -0.468 OA
BRANCH  55  56
ATOM     56  C   LIG d   1      11.074   6.576   4.296  0.00  0.00     0.082 C 
ATOM     57  H   LIG d   1      10.044   6.740   4.613  0.00  0.00     0.066 H 
ATOM     58  H   LIG d   1      11.144   5.628   3.765  0.00  0.00     0.066 H 
ATOM     59  H   LIG d   1      11.724   6.553   5.171  0.00  0.00     0.066 H 
ENDBRANCH  55  56
ENDBRANCH  53  55
ENDBRANCH   5  53
BRANCH  15  60
ATOM     60  C   LIG d   1      12.527   8.740  -2.438  0.00  0.00    -0.059 C 
ATOM     61  H   LIG d   1      12.198   9.627  -1.895  0.00  0.00     0.024 H 
ATOM     62  H   LIG d   1      13.612   8.753  -2.532  0.00  0.00     0.024 H 
ATOM     63  H   LIG d   1      12.075   8.734  -3.430  0.00  0.00     0.024 H 
ENDBRANCH  15  60
BRANCH  14  64
ATOM     64  C   LIG d   1      13.257   5.366  -2.223  0.00  0.00    -0.059 C 
ATOM     65  H   LIG d   1      14.119   5.980  -1.961  0.00  0.00     0.024 H 
ATOM     66  H   LIG d   1      12.966   4.763  -1.363  0.00  0.00     0.024 H 
ATOM     67  H   LIG d   1      13.515   4.712  -3.055  0.00  0.00     0.024 H 
ENDBRANCH  14  64
BRANCH  22  68
ATOM     68  C   LIG d   1      11.455   3.122  -3.068  0.00  0.00    -0.059 C 
ATOM     69  H   LIG d   1      12.255   3.444  -2.401  0.00  0.00     0.024 H 
ATOM     70  H   LIG d   1      10.790   2.441  -2.536  0.00  0.00     0.024 H 
ATOM     71  H   LIG d   1      11.884   2.611  -3.931  0.00  0.00     0.024 H 
ENDBRANCH  22  68
BRANCH  26  72
ATOM     72  C   LIG d   1      10.502   4.338  -7.331  0.00  0.00    -0.053 C 
ATOM     73  H   LIG d   1       9.489   4.031  -7.593  0.00  0.00     0.024 H 
ATOM     74  H   LIG d   1      10.540   5.424  -7.240  0.00  0.00     0.024 H 
ATOM     75  H   LIG d   1      11.191   4.015  -8.110  0.00  0.00     0.024 H 
ENDBRANCH  26  72
BRANCH  26  76
ATOM     76  C   LIG d   1      12.227   2.963  -6.205  0.00  0.00    -0.053 C 
ATOM     77  H   LIG d   1      13.030   3.512  -5.713  0.00  0.00     0.024 H 
ATOM     78  H   LIG d   1      12.161   1.960  -5.784  0.00  0.00     0.024 H 
ATOM     79  H   LIG d   1      12.434   2.896  -7.273  0.00  0.00     0.024 H 
ENDBRANCH  26  76
BRANCH  24  80
ATOM     80  C   LIG d   1       8.052   1.826  -4.362  0.00  0.00     0.149 C 
ATOM     81  O   LIG d   1       7.218   1.612  -5.219  0.00  0.00    -0.296 OA
ATOM     82  H   LIG d   1       8.030   1.269  -3.437  0.00  0.00     0.108 H 
ENDBRANCH  24  80
BRANCH  25  83
ATOM     83  O   LIG d   1       9.673   1.636  -6.461  0.00  0.00    -0.510 OA
ATOM     84  H   LIG d   1       8.891   1.694  -7.028  0.00  0.00     0.292 HD
ENDBRANCH  25  83
TORSDOF 12
ENDMDL
MODEL 8
REMARK VINA RESULT:      -5.1      4.618      7.895
REMARK  12 active torsions:
REMARK  status: ('A' for Active; 'I' for Inactive)
REMARK    1  A    between atoms: C_1  and  C_2 
REMARK    2  A    between atoms: C_2  and  C_4 
REMARK    3  A    between atoms: C_8  and  C_38 
REMARK    4  A    between atoms: C_17  and  C_37 
REMARK    5  A    between atoms: C_18  and  C_21 
REMARK    6  A    between atoms: C_26  and  C_36 
REMARK    7  A    between atoms: C_28  and  C_34 
REMARK    8  A    between atoms: C_29  and  O_33 
REMARK    9  A    between atoms: C_30  and  C_31 
REMARK   10  A    between atoms: C_30  and  C_32 
REMARK   11  A    between atoms: C_38  and  O_40 
REMARK   12  A    between atoms: O_40  and  C_41 
ROOT
ATOM      1  C   LIG d   1      11.339   4.826  -4.841  0.00  0.00    -0.016 C 
ATOM      2  H   LIG d   1      11.473   5.281  -3.837  0.00  0.00     0.035 H 
ATOM      3  C   LIG d   1      12.610   5.168  -5.661  0.00  0.00    -0.045 C 
ATOM      4  C   LIG d   1      13.580   4.012  -5.340  0.00  0.00    -0.036 C 
ATOM      5  C   LIG d   1      12.647   2.768  -5.259  0.00  0.00     0.071 C 
ATOM      6  C   LIG d   1      11.327   3.322  -4.688  0.00  0.00    -0.015 C 
ATOM      7  H   LIG d   1      11.456   3.168  -3.569  0.00  0.00     0.032 H 
ATOM      8  C   LIG d   1      10.134   2.490  -5.009  0.00  0.00    -0.031 C 
ATOM      9  H   LIG d   1      10.290   1.564  -4.373  0.00  0.00     0.031 H 
ATOM     10  C   LIG d   1       8.804   3.034  -4.510  0.00  0.00    -0.049 C 
ATOM     11  C   LIG d   1       7.839   1.865  -4.327  0.00  0.00    -0.049 C 
ATOM     12  C   LIG d   1       8.327   0.599  -5.039  0.00  0.00    -0.029 C 
ATOM     13  H   LIG d   1       9.135   0.157  -4.441  0.00  0.00     0.031 H 
ATOM     14  C   LIG d   1       8.853   0.886  -6.436  0.00  0.00    -0.023 C 
ATOM     15  C   LIG d   1       9.992   1.925  -6.412  0.00  0.00    -0.023 C 
ATOM     16  C   LIG d   1      11.322   1.264  -6.799  0.00  0.00    -0.046 C 
ATOM     17  C   LIG d   1      12.460   2.279  -6.693  0.00  0.00    -0.036 C 
ATOM     18  C   LIG d   1       7.707   1.354  -7.335  0.00  0.00    -0.046 C 
ATOM     19  C   LIG d   1       6.615   0.270  -7.380  0.00  0.00    -0.048 C 
ATOM     20  C   LIG d   1       6.058   0.068  -5.978  0.00  0.00    -0.023 C 
ATOM     21  H   LIG d   1       5.711   1.074  -5.630  0.00  0.00     0.032 H 
ATOM     22  C   LIG d   1       7.140  -0.378  -5.003  0.00  0.00    -0.021 C 
ATOM     23  C   LIG d   1       6.510  -0.269  -3.590  0.00  0.00    -0.015 C 
ATOM     24  C   LIG d   1       5.321  -1.188  -3.544  0.00  0.00     0.030 C 
ATOM     25  C   LIG d   1       4.581  -1.446  -4.627  0.00  0.00     0.106 C 
ATOM     26  C   LIG d   1       4.832  -0.830  -5.973  0.00  0.00     0.026 C 
ATOM     27  H   LIG d   1      12.374   5.188  -6.720  0.00  0.00     0.027 H 
ATOM     28  H   LIG d   1      13.021   6.117  -5.330  0.00  0.00     0.027 H 
ATOM     29  H   LIG d   1      14.309   3.891  -6.141  0.00  0.00     0.028 H 
ATOM     30  H   LIG d   1      14.081   4.181  -4.388  0.00  0.00     0.028 H 
ATOM     31  H   LIG d   1       8.946   3.535  -3.548  0.00  0.00     0.027 H 
ATOM     32  H   LIG d   1       8.358   3.727  -5.218  0.00  0.00     0.027 H 
ATOM     33  H   LIG d   1       7.753   1.656  -3.255  0.00  0.00     0.027 H 
ATOM     34  H   LIG d   1       6.859   2.146  -4.711  0.00  0.00     0.027 H 
ATOM     35  H   LIG d   1      11.548   0.435  -6.133  0.00  0.00     0.027 H 
ATOM     36  H   LIG d   1      11.295   0.941  -7.843  0.00  0.00     0.027 H 
ATOM     37  H   LIG d   1      12.290   3.120  -7.356  0.00  0.00     0.028 H 
ATOM     38  H   LIG d   1      13.387   1.782  -7.012  0.00  0.00     0.028 H 
ATOM     39  H   LIG d   1       7.264   2.266  -6.950  0.00  0.00     0.027 H 
ATOM     40  H   LIG d   1       8.051   1.480  -8.365  0.00  0.00     0.027 H 
ATOM     41  H   LIG d   1       5.819   0.637  -8.041  0.00  0.00     0.027 H 
ATOM     42  H   LIG d   1       7.016  -0.642  -7.798  0.00  0.00     0.027 H 
ATOM     43  H   LIG d   1       7.240  -0.568  -2.851  0.00  0.00     0.032 H 
ATOM     44  H   LIG d   1       6.170   0.748  -3.427  0.00  0.00     0.032 H 
ENDROOT
BRANCH   1  45
ATOM     45  C   LIG d   1      10.148   5.467  -5.476  0.00  0.00    -0.076 C 
ATOM     46  C   LIG d   1       9.147   5.868  -4.734  0.00  0.00    -0.099 C 
ATOM     47  H   LIG d   1       9.226   5.837  -3.657  0.00  0.00     0.053 H 
ATOM     48  H   LIG d   1       8.241   6.230  -5.198  0.00  0.00     0.053 H 
BRANCH  45  49
ATOM     49  C   LIG d   1      10.100   5.653  -6.971  0.00  0.00    -0.044 C 
ATOM     50  H   LIG d   1       9.921   4.690  -7.451  0.00  0.00     0.027 H 
ATOM     51  H   LIG d   1       9.293   6.341  -7.226  0.00  0.00     0.027 H 
ATOM     52  H   LIG d   1      11.049   6.062  -7.317  0.00  0.00     0.027 H 
ENDBRANCH  45  49
ENDBRANCH   1  45
BRANCH   5  53
ATOM     53  C   LIG d   1      13.235   1.698  -4.368  0.00  0.00     0.313 C 
ATOM     54  O   LIG d   1      12.647   1.352  -3.369  0.00  0.00    -0.250 OA
BRANCH  53  55
ATOM     55  O   LIG d   1      14.410   1.130  -4.684  0.00  0.00    -0.468 OA
BRANCH  55  56
ATOM     56  C   LIG d   1      14.446  -0.297  -4.743  0.00  0.00     0.082 C 
ATOM     57  H   LIG d   1      15.006  -0.611  -5.623  0.00  0.00     0.066 H 
ATOM     58  H   LIG d   1      14.929  -0.685  -3.847  0.00  0.00     0.066 H 
ATOM     59  H   LIG d   1      13.428  -0.684  -4.804  0.00  0.00     0.066 H 
ENDBRANCH  55  56
ENDBRANCH  53  55
ENDBRANCH   5  53
BRANCH  15  60
ATOM     60  C   LIG d   1       9.698   3.030  -7.429  0.00  0.00    -0.059 C 
ATOM     61  H   LIG d   1       9.341   3.919  -6.907  0.00  0.00     0.024 H 
ATOM     62  H   LIG d   1      10.608   3.272  -7.977  0.00  0.00     0.024 H 
ATOM     63  H   LIG d   1       8.933   2.687  -8.127  0.00  0.00     0.024 H 
ENDBRANCH  15  60
BRANCH  14  64
ATOM     64  C   LIG d   1       9.429  -0.399  -7.066  0.00  0.00    -0.059 C 
ATOM     65  H   LIG d   1       8.627  -0.957  -7.550  0.00  0.00     0.024 H 
ATOM     66  H   LIG d   1      10.186  -0.134  -7.804  0.00  0.00     0.024 H 
ATOM     67  H   LIG d   1       9.881  -1.013  -6.287  0.00  0.00     0.024 H 
ENDBRANCH  14  64
BRANCH  22  68
ATOM     68  C   LIG d   1       7.579  -1.826  -5.186  0.00  0.00    -0.059 C 
ATOM     69  H   LIG d   1       7.946  -2.217  -4.237  0.00  0.00     0.024 H 
ATOM     70  H   LIG d   1       6.731  -2.423  -5.522  0.00  0.00     0.024 H 
ATOM     71  H   LIG d   1       8.374  -1.873  -5.931  0.00  0.00     0.024 H 
ENDBRANCH  22  68
BRANCH  26  72
ATOM     72  C   LIG d   1       3.599   0.034  -6.311  0.00  0.00    -0.053 C 
ATOM     73  H   LIG d   1       3.071   0.287  -5.391  0.00  0.00     0.024 H 
ATOM     74  H   LIG d   1       3.922   0.949  -6.808  0.00  0.00     0.024 H 
ATOM     75  H   LIG d   1       2.934  -0.522  -6.970  0.00  0.00     0.024 H 
ENDBRANCH  26  72
BRANCH  26  76
ATOM     76  C   LIG d   1       4.920  -1.936  -7.024  0.00  0.00    -0.053 C 
ATOM     77  H   LIG d   1       5.067  -2.896  -6.529  0.00  0.00     0.024 H 
ATOM     78  H   LIG d   1       3.996  -1.963  -7.601  0.00  0.00     0.024 H 
ATOM     79  H   LIG d   1       5.759  -1.738  -7.690  0.00  0.00     0.024 H 
ENDBRANCH  26  76
BRANCH  24  80
ATOM     80  C   LIG d   1       4.982  -1.788  -2.323  0.00  0.00     0.149 C 
ATOM     81  O   LIG d   1       4.239  -1.216  -1.551  0.00  0.00    -0.296 OA
ATOM     82  H   LIG d   1       5.379  -2.760  -2.070  0.00  0.00     0.108 H 
ENDBRANCH  24  80
BRANCH  25  83
ATOM     83  O   LIG d   1       3.554  -2.307  -4.505  0.00  0.00    -0.510 OA
ATOM     84  H   LIG d   1       3.647  -3.110  -5.037  0.00  0.00     0.292 HD
ENDBRANCH  25  83
TORSDOF 12
ENDMDL
MODEL 9
REMARK VINA RESULT:      -5.1      8.003     12.494
REMARK  12 active torsions:
REMARK  status: ('A' for Active; 'I' for Inactive)
REMARK    1  A    between atoms: C_1  and  C_2 
REMARK    2  A    between atoms: C_2  and  C_4 
REMARK    3  A    between atoms: C_8  and  C_38 
REMARK    4  A    between atoms: C_17  and  C_37 
REMARK    5  A    between atoms: C_18  and  C_21 
REMARK    6  A    between atoms: C_26  and  C_36 
REMARK    7  A    between atoms: C_28  and  C_34 
REMARK    8  A    between atoms: C_29  and  O_33 
REMARK    9  A    between atoms: C_30  and  C_31 
REMARK   10  A    between atoms: C_30  and  C_32 
REMARK   11  A    between atoms: C_38  and  O_40 
REMARK   12  A    between atoms: O_40  and  C_41 
ROOT
ATOM      1  C   LIG d   1       9.866  10.123  -4.837  0.00  0.00    -0.016 C 
ATOM      2  H   LIG d   1       8.837  10.543  -4.849  0.00  0.00     0.035 H 
ATOM      3  C   LIG d   1      10.814  11.274  -4.414  0.00  0.00    -0.045 C 
ATOM      4  C   LIG d   1      10.833  11.191  -2.874  0.00  0.00    -0.036 C 
ATOM      5  C   LIG d   1      10.798   9.660  -2.592  0.00  0.00     0.071 C 
ATOM      6  C   LIG d   1       9.946   9.085  -3.741  0.00  0.00    -0.015 C 
ATOM      7  H   LIG d   1       8.899   9.085  -3.298  0.00  0.00     0.032 H 
ATOM      8  C   LIG d   1      10.197   7.643  -4.016  0.00  0.00    -0.031 C 
ATOM      9  H   LIG d   1       9.744   7.129  -3.112  0.00  0.00     0.031 H 
ATOM     10  C   LIG d   1       9.415   7.053  -5.179  0.00  0.00    -0.049 C 
ATOM     11  C   LIG d   1       9.264   5.551  -4.950  0.00  0.00    -0.049 C 
ATOM     12  C   LIG d   1      10.231   5.031  -3.882  0.00  0.00    -0.029 C 
ATOM     13  H   LIG d   1       9.844   5.322  -2.895  0.00  0.00     0.031 H 
ATOM     14  C   LIG d   1      11.633   5.596  -4.044  0.00  0.00    -0.023 C 
ATOM     15  C   LIG d   1      11.630   7.137  -4.018  0.00  0.00    -0.023 C 
ATOM     16  C   LIG d   1      12.320   7.649  -2.747  0.00  0.00    -0.046 C 
ATOM     17  C   LIG d   1      12.242   9.174  -2.686  0.00  0.00    -0.036 C 
ATOM     18  C   LIG d   1      12.256   5.073  -5.340  0.00  0.00    -0.046 C 
ATOM     19  C   LIG d   1      12.292   3.534  -5.307  0.00  0.00    -0.048 C 
ATOM     20  C   LIG d   1      10.868   3.005  -5.224  0.00  0.00    -0.023 C 
ATOM     21  H   LIG d   1      10.318   3.445  -6.094  0.00  0.00     0.032 H 
ATOM     22  C   LIG d   1      10.157   3.497  -3.969  0.00  0.00    -0.021 C 
ATOM     23  C   LIG d   1       8.663   3.128  -4.155  0.00  0.00    -0.015 C 
ATOM     24  C   LIG d   1       8.570   1.633  -4.283  0.00  0.00     0.030 C 
ATOM     25  C   LIG d   1       9.549   0.906  -4.833  0.00  0.00     0.106 C 
ATOM     26  C   LIG d   1      10.807   1.497  -5.402  0.00  0.00     0.026 C 
ATOM     27  H   LIG d   1      11.806  11.105  -4.820  0.00  0.00     0.027 H 
ATOM     28  H   LIG d   1      10.411  12.227  -4.742  0.00  0.00     0.027 H 
ATOM     29  H   LIG d   1      11.750  11.631  -2.478  0.00  0.00     0.028 H 
ATOM     30  H   LIG d   1       9.959  11.682  -2.449  0.00  0.00     0.028 H 
ATOM     31  H   LIG d   1       8.423   7.509  -5.228  0.00  0.00     0.027 H 
ATOM     32  H   LIG d   1       9.928   7.196  -6.126  0.00  0.00     0.027 H 
ATOM     33  H   LIG d   1       8.237   5.355  -4.622  0.00  0.00     0.027 H 
ATOM     34  H   LIG d   1       9.439   5.026  -5.889  0.00  0.00     0.027 H 
ATOM     35  H   LIG d   1      11.835   7.252  -1.858  0.00  0.00     0.027 H 
ATOM     36  H   LIG d   1      13.384   7.397  -2.766  0.00  0.00     0.027 H 
ATOM     37  H   LIG d   1      12.732   9.620  -3.545  0.00  0.00     0.028 H 
ATOM     38  H   LIG d   1      12.777   9.505  -1.785  0.00  0.00     0.028 H 
ATOM     39  H   LIG d   1      11.669   5.380  -6.199  0.00  0.00     0.027 H 
ATOM     40  H   LIG d   1      13.294   5.399  -5.428  0.00  0.00     0.027 H 
ATOM     41  H   LIG d   1      12.754   3.200  -6.245  0.00  0.00     0.027 H 
ATOM     42  H   LIG d   1      12.905   3.197  -4.483  0.00  0.00     0.027 H 
ATOM     43  H   LIG d   1       8.104   3.463  -3.292  0.00  0.00     0.032 H 
ATOM     44  H   LIG d   1       8.294   3.579  -5.069  0.00  0.00     0.032 H 
ENDROOT
BRANCH   1  45
ATOM     45  C   LIG d   1      10.197   9.689  -6.228  0.00  0.00    -0.076 C 
ATOM     46  C   LIG d   1      11.380   9.941  -6.728  0.00  0.00    -0.099 C 
ATOM     47  H   LIG d   1      12.153  10.363  -6.102  0.00  0.00     0.053 H 
ATOM     48  H   LIG d   1      11.584   9.728  -7.768  0.00  0.00     0.053 H 
BRANCH  45  49
ATOM     49  C   LIG d   1       9.168   8.961  -7.055  0.00  0.00    -0.044 C 
ATOM     50  H   LIG d   1       9.669   8.255  -7.719  0.00  0.00     0.027 H 
ATOM     51  H   LIG d   1       8.489   8.419  -6.395  0.00  0.00     0.027 H 
ATOM     52  H   LIG d   1       8.603   9.680  -7.647  0.00  0.00     0.027 H 
ENDBRANCH  45  49
ENDBRANCH   1  45
BRANCH   5  53
ATOM     53  C   LIG d   1      10.187   9.364  -1.242  0.00  0.00     0.313 C 
ATOM     54  O   LIG d   1       9.027   9.033  -1.162  0.00  0.00    -0.250 OA
BRANCH  53  55
ATOM     55  O   LIG d   1      10.932   9.468  -0.130  0.00  0.00    -0.468 OA
BRANCH  55  56
ATOM     56  C   LIG d   1      11.044   8.302   0.688  0.00  0.00     0.082 C 
ATOM     57  H   LIG d   1      11.608   8.542   1.589  0.00  0.00     0.066 H 
ATOM     58  H   LIG d   1      10.049   7.954   0.963  0.00  0.00     0.066 H 
ATOM     59  H   LIG d   1      11.562   7.518   0.134  0.00  0.00     0.066 H 
ENDBRANCH  55  56
ENDBRANCH  53  55
ENDBRANCH   5  53
BRANCH  15  60
ATOM     60  C   LIG d   1      12.405   7.670  -5.226  0.00  0.00    -0.059 C 
ATOM     61  H   LIG d   1      13.097   6.904  -5.580  0.00  0.00     0.024 H 
ATOM     62  H   LIG d   1      11.707   7.926  -6.022  0.00  0.00     0.024 H 
ATOM     63  H   LIG d   1      12.967   8.558  -4.934  0.00  0.00     0.024 H 
ENDBRANCH  15  60
BRANCH  14  64
ATOM     64  C   LIG d   1      12.536   5.128  -2.885  0.00  0.00    -0.059 C 
ATOM     65  H   LIG d   1      12.957   5.997  -2.378  0.00  0.00     0.024 H 
ATOM     66  H   LIG d   1      11.947   4.544  -2.178  0.00  0.00     0.024 H 
ATOM     67  H   LIG d   1      13.344   4.512  -3.281  0.00  0.00     0.024 H 
ENDBRANCH  14  64
BRANCH  22  68
ATOM     68  C   LIG d   1      10.629   2.823  -2.687  0.00  0.00    -0.059 C 
ATOM     69  H   LIG d   1       9.947   2.012  -2.431  0.00  0.00     0.024 H 
ATOM     70  H   LIG d   1      11.632   2.422  -2.835  0.00  0.00     0.024 H 
ATOM     71  H   LIG d   1      10.646   3.553  -1.877  0.00  0.00     0.024 H 
ENDBRANCH  22  68
BRANCH  26  72
ATOM     72  C   LIG d   1      10.806   1.188  -6.914  0.00  0.00    -0.053 C 
ATOM     73  H   LIG d   1       9.917   0.611  -7.166  0.00  0.00     0.024 H 
ATOM     74  H   LIG d   1      10.805   2.123  -7.475  0.00  0.00     0.024 H 
ATOM     75  H   LIG d   1      11.696   0.613  -7.168  0.00  0.00     0.024 H 
ENDBRANCH  26  72
BRANCH  26  76
ATOM     76  C   LIG d   1      12.015   0.792  -4.789  0.00  0.00    -0.053 C 
ATOM     77  H   LIG d   1      11.675  -0.027  -4.154  0.00  0.00     0.024 H 
ATOM     78  H   LIG d   1      12.647   0.396  -5.583  0.00  0.00     0.024 H 
ATOM     79  H   LIG d   1      12.585   1.503  -4.190  0.00  0.00     0.024 H 
ENDBRANCH  26  76
BRANCH  24  80
ATOM     80  C   LIG d   1       7.419   0.987  -3.813  0.00  0.00     0.149 C 
ATOM     81  O   LIG d   1       6.543   0.665  -4.590  0.00  0.00    -0.296 OA
ATOM     82  H   LIG d   1       7.310   0.775  -2.760  0.00  0.00     0.108 H 
ENDBRANCH  24  80
BRANCH  25  83
ATOM     83  O   LIG d   1       9.399  -0.431  -4.878  0.00  0.00    -0.510 OA
ATOM     84  H   LIG d   1       9.700  -0.889  -4.080  0.00  0.00     0.292 HD
ENDBRANCH  25  83
TORSDOF 12
ENDMDL
