MODEL 1
REMARK VINA RESULT:      -7.3      0.000      0.000
REMARK  5 active torsions:
REMARK  status: ('A' for Active; 'I' for Inactive)
REMARK    1  A    between atoms: CB_1  and  CA_2 
REMARK       I    between atoms: CA_2  and  C_4 
REMARK       I    between atoms: CA_2  and  N_7 
REMARK       I    between atoms: N_7  and  C_8 
REMARK    2  A    between atoms: C_8  and  C_10 
REMARK    3  A    between atoms: C_10  and  C_12 
REMARK    4  A    between atoms: C_10  and  N_19 
REMARK    5  A    between atoms: C_12  and  C_13 
ROOT
ATOM      1  C   UNK d   0       5.296  -1.940  -7.651  0.00  0.00     0.122 C 
ATOM      2  H   UNK d   0       6.073  -1.534  -8.315  0.00  0.00     0.063 H 
ENDROOT
BRANCH   1   3
ATOM      3  C   UNK d   0       5.556  -3.403  -7.398  0.00  0.00     0.237 C 
ATOM      4  N   ALA d   1       4.557  -4.297  -7.529  0.00  0.00    -0.306 N 
ATOM      5  CA  ALA d   1       4.809  -5.719  -7.283  0.00  0.00     0.060 C 
ATOM      6  H   ALA d   1       3.551  -3.961  -7.822  0.00  0.00     0.149 HD
ATOM      7  HA  ALA d   1       5.826  -5.942  -7.639  0.00  0.00     0.056 H 
ATOM      8  C   ALA d   1       3.808  -6.548  -8.047  0.00  0.00     0.062 C 
ATOM      9  O   ALA d   1       2.970  -6.005  -8.728  0.00  0.00    -0.548 OA
ATOM     10  OXT ALA d   1       3.848  -7.886  -7.972  0.00  0.00    -0.548 OA
ATOM     11  O   UNK d   0       6.664  -3.775  -7.075  0.00  0.00    -0.274 OA
BRANCH   5  12
ATOM     12  CB  ALA d   1       4.674  -6.009  -5.787  0.00  0.00    -0.041 C 
ATOM     13  HB1 ALA d   1       5.537  -6.602  -5.449  0.00  0.00     0.025 H 
ATOM     14  HB2 ALA d   1       3.748  -6.575  -5.605  0.00  0.00     0.025 H 
ATOM     15  HB3 ALA d   1       4.639  -5.061  -5.231  0.00  0.00     0.025 H 
ENDBRANCH   5  12
ENDBRANCH   1   3
BRANCH   1  16
ATOM     16  C   UNK d   0       3.905  -1.767  -8.264  0.00  0.00     0.002 C 
ATOM     17  H   UNK d   0       3.772  -2.490  -9.083  0.00  0.00     0.034 H 
ATOM     18  H   UNK d   0       3.140  -1.942  -7.493  0.00  0.00     0.034 H 
BRANCH  16  19
ATOM     19  C   UNK d   0       3.764  -0.367  -8.803  0.00  0.00    -0.045 A 
ATOM     20  C   UNK d   0       4.442   0.004  -9.949  0.00  0.00    -0.059 A 
ATOM     21  C   UNK d   0       4.312   1.289 -10.444  0.00  0.00    -0.061 A 
ATOM     22  H   UNK d   0       5.072  -0.709 -10.458  0.00  0.00     0.062 H 
ATOM     23  C   UNK d   0       3.504   2.202  -9.792  0.00  0.00    -0.062 A 
ATOM     24  H   UNK d   0       4.841   1.579 -11.339  0.00  0.00     0.062 H 
ATOM     25  C   UNK d   0       2.826   1.831  -8.645  0.00  0.00    -0.061 A 
ATOM     26  H   UNK d   0       3.402   3.205 -10.178  0.00  0.00     0.062 H 
ATOM     27  C   UNK d   0       2.952   0.545  -8.154  0.00  0.00    -0.059 A 
ATOM     28  H   UNK d   0       2.194   2.544  -8.136  0.00  0.00     0.062 H 
ATOM     29  H   UNK d   0       2.419   0.253  -7.261  0.00  0.00     0.062 H 
ENDBRANCH  16  19
ENDBRANCH   1  16
BRANCH   1  30
ATOM     30  N   UNK d   0       5.368  -1.205  -6.387  0.00  0.00    -0.248 N 
ATOM     31  C   UNK d   0       6.192  -0.150  -6.284  0.00  0.00     0.331 A 
ATOM     32  N   UNK d   0       6.312   0.574  -5.159  0.00  0.00    -0.307 N 
ATOM     33  O   UNK d   0       6.860   0.163  -7.252  0.00  0.00    -0.246 OA
ATOM     34  C   UNK d   0       5.572   0.255  -4.030  0.00  0.00     0.056 A 
ATOM     35  H   UNK d   0       7.007   1.427  -5.137  0.00  0.00     0.170 HD
ATOM     36  C   UNK d   0       4.692  -0.841  -4.085  0.00  0.00     0.063 A 
ATOM     37  C   UNK d   0       5.680   0.987  -2.858  0.00  0.00    -0.037 A 
ATOM     38  C   UNK d   0       4.599  -1.596  -5.348  0.00  0.00     0.265 A 
ATOM     39  C   UNK d   0       3.936  -1.185  -2.968  0.00  0.00    -0.047 A 
ATOM     40  O   UNK d   0       3.850  -2.549  -5.451  0.00  0.00    -0.267 OA
ATOM     41  C   UNK d   0       4.057  -0.444  -1.811  0.00  0.00    -0.061 A 
ATOM     42  H   UNK d   0       3.259  -2.025  -3.007  0.00  0.00     0.063 H 
ATOM     43  C   UNK d   0       4.925   0.636  -1.758  0.00  0.00    -0.060 A 
ATOM     44  H   UNK d   0       3.473  -0.707  -0.942  0.00  0.00     0.062 H 
ATOM     45  H   UNK d   0       5.011   1.208  -0.846  0.00  0.00     0.062 H 
ATOM     46  H   UNK d   0       6.354   1.831  -2.807  0.00  0.00     0.064 H 
ENDBRANCH   1  30
TORSDOF 7
ENDMDL
MODEL 2
REMARK VINA RESULT:      -7.2      2.551      7.054
REMARK  5 active torsions:
REMARK  status: ('A' for Active; 'I' for Inactive)
REMARK    1  A    between atoms: CB_1  and  CA_2 
REMARK       I    between atoms: CA_2  and  C_4 
REMARK       I    between atoms: CA_2  and  N_7 
REMARK       I    between atoms: N_7  and  C_8 
REMARK    2  A    between atoms: C_8  and  C_10 
REMARK    3  A    between atoms: C_10  and  C_12 
REMARK    4  A    between atoms: C_10  and  N_19 
REMARK    5  A    between atoms: C_12  and  C_13 
ROOT
ATOM      1  C   UNK d   0       4.415  -0.916  -6.647  0.00  0.00     0.122 C 
ATOM      2  H   UNK d   0       4.430  -1.933  -6.228  0.00  0.00     0.063 H 
ENDROOT
BRANCH   1   3
ATOM      3  C   UNK d   0       5.817  -0.488  -6.998  0.00  0.00     0.237 C 
ATOM      4  N   ALA d   1       6.326   0.645  -6.477  0.00  0.00    -0.306 N 
ATOM      5  CA  ALA d   1       7.689   1.060  -6.817  0.00  0.00     0.060 C 
ATOM      6  H   ALA d   1       5.720   1.258  -5.794  0.00  0.00     0.149 HD
ATOM      7  HA  ALA d   1       8.299   0.150  -6.912  0.00  0.00     0.056 H 
ATOM      8  C   ALA d   1       8.240   1.931  -5.717  0.00  0.00     0.062 C 
ATOM      9  O   ALA d   1       7.562   2.180  -4.748  0.00  0.00    -0.548 OA
ATOM     10  OXT ALA d   1       9.481   2.431  -5.814  0.00  0.00    -0.548 OA
ATOM     11  O   UNK d   0       6.487  -1.164  -7.751  0.00  0.00    -0.274 OA
BRANCH   5  12
ATOM     12  CB  ALA d   1       7.669   1.848  -8.129  0.00  0.00    -0.041 C 
ATOM     13  HB1 ALA d   1       8.700   2.081  -8.432  0.00  0.00     0.025 H 
ATOM     14  HB2 ALA d   1       7.109   2.784  -7.985  0.00  0.00     0.025 H 
ATOM     15  HB3 ALA d   1       7.183   1.246  -8.911  0.00  0.00     0.025 H 
ENDBRANCH   5  12
ENDBRANCH   1   3
BRANCH   1  16
ATOM     16  C   UNK d   0       3.811   0.079  -5.654  0.00  0.00     0.002 C 
ATOM     17  H   UNK d   0       4.303   1.056  -5.769  0.00  0.00     0.034 H 
ATOM     18  H   UNK d   0       2.734   0.184  -5.850  0.00  0.00     0.034 H 
BRANCH  16  19
ATOM     19  C   UNK d   0       4.019  -0.426  -4.249  0.00  0.00    -0.045 A 
ATOM     20  C   UNK d   0       4.316   0.464  -3.232  0.00  0.00    -0.059 A 
ATOM     21  C   UNK d   0       4.506   0.002  -1.944  0.00  0.00    -0.061 A 
ATOM     22  H   UNK d   0       4.398   1.519  -3.445  0.00  0.00     0.062 H 
ATOM     23  C   UNK d   0       4.400  -1.350  -1.671  0.00  0.00    -0.062 A 
ATOM     24  H   UNK d   0       4.737   0.695  -1.149  0.00  0.00     0.062 H 
ATOM     25  C   UNK d   0       4.103  -2.239  -2.688  0.00  0.00    -0.061 A 
ATOM     26  H   UNK d   0       4.548  -1.711  -0.664  0.00  0.00     0.062 H 
ATOM     27  C   UNK d   0       3.908  -1.776  -3.975  0.00  0.00    -0.059 A 
ATOM     28  H   UNK d   0       4.019  -3.295  -2.475  0.00  0.00     0.062 H 
ATOM     29  H   UNK d   0       3.671  -2.469  -4.769  0.00  0.00     0.062 H 
ENDBRANCH  16  19
ENDBRANCH   1  16
BRANCH   1  30
ATOM     30  N   UNK d   0       3.597  -0.951  -7.861  0.00  0.00    -0.248 N 
ATOM     31  C   UNK d   0       3.160   0.201  -8.394  0.00  0.00     0.331 A 
ATOM     32  N   UNK d   0       2.406   0.251  -9.505  0.00  0.00    -0.307 N 
ATOM     33  O   UNK d   0       3.460   1.246  -7.847  0.00  0.00    -0.246 OA
ATOM     34  C   UNK d   0       2.039  -0.914 -10.163  0.00  0.00     0.056 A 
ATOM     35  H   UNK d   0       2.079   1.227  -9.893  0.00  0.00     0.170 HD
ATOM     36  C   UNK d   0       2.471  -2.148  -9.646  0.00  0.00     0.063 A 
ATOM     37  C   UNK d   0       1.262  -0.887 -11.311  0.00  0.00    -0.037 A 
ATOM     38  C   UNK d   0       3.300  -2.141  -8.427  0.00  0.00     0.265 A 
ATOM     39  C   UNK d   0       2.119  -3.334 -10.286  0.00  0.00    -0.047 A 
ATOM     40  O   UNK d   0       3.703  -3.179  -7.941  0.00  0.00    -0.267 OA
ATOM     41  C   UNK d   0       1.345  -3.287 -11.426  0.00  0.00    -0.061 A 
ATOM     42  H   UNK d   0       2.449  -4.283  -9.891  0.00  0.00     0.063 H 
ATOM     43  C   UNK d   0       0.919  -2.069 -11.935  0.00  0.00    -0.060 A 
ATOM     44  H   UNK d   0       1.068  -4.203 -11.925  0.00  0.00     0.062 H 
ATOM     45  H   UNK d   0       0.313  -2.046 -12.828  0.00  0.00     0.062 H 
ATOM     46  H   UNK d   0       0.925   0.057 -11.715  0.00  0.00     0.064 H 
ENDBRANCH   1  30
TORSDOF 7
ENDMDL
MODEL 3
REMARK VINA RESULT:      -7.2      2.358      7.084
REMARK  5 active torsions:
REMARK  status: ('A' for Active; 'I' for Inactive)
REMARK    1  A    between atoms: CB_1  and  CA_2 
REMARK       I    between atoms: CA_2  and  C_4 
REMARK       I    between atoms: CA_2  and  N_7 
REMARK       I    between atoms: N_7  and  C_8 
REMARK    2  A    between atoms: C_8  and  C_10 
REMARK    3  A    between atoms: C_10  and  C_12 
REMARK    4  A    between atoms: C_10  and  N_19 
REMARK    5  A    between atoms: C_12  and  C_13 
ROOT
ATOM      1  C   UNK d   0       4.780  -1.351  -6.595  0.00  0.00     0.122 C 
ATOM      2  H   UNK d   0       5.036  -2.220  -5.971  0.00  0.00     0.063 H 
ENDROOT
BRANCH   1   3
ATOM      3  C   UNK d   0       6.038  -0.727  -7.141  0.00  0.00     0.237 C 
ATOM      4  N   ALA d   1       6.457   0.465  -6.674  0.00  0.00    -0.306 N 
ATOM      5  CA  ALA d   1       7.680   1.071  -7.205  0.00  0.00     0.060 C 
ATOM      6  H   ALA d   1       5.881   0.983  -5.893  0.00  0.00     0.149 HD
ATOM      7  HA  ALA d   1       8.390   0.258  -7.413  0.00  0.00     0.056 H 
ATOM      8  C   ALA d   1       8.264   2.008  -6.178  0.00  0.00     0.062 C 
ATOM      9  O   ALA d   1       7.714   2.154  -5.112  0.00  0.00    -0.548 OA
ATOM     10  OXT ALA d   1       9.393   2.680  -6.448  0.00  0.00    -0.548 OA
ATOM     11  O   UNK d   0       6.673  -1.298  -8.003  0.00  0.00    -0.274 OA
BRANCH   5  12
ATOM     12  CB  ALA d   1       7.350   1.853  -8.478  0.00  0.00    -0.041 C 
ATOM     13  HB1 ALA d   1       6.554   1.333  -9.031  0.00  0.00     0.025 H 
ATOM     14  HB2 ALA d   1       8.248   1.921  -9.109  0.00  0.00     0.025 H 
ATOM     15  HB3 ALA d   1       7.012   2.865  -8.211  0.00  0.00     0.025 H 
ENDBRANCH   5  12
ENDBRANCH   1   3
BRANCH   1  16
ATOM     16  C   UNK d   0       4.000  -0.309  -5.791  0.00  0.00     0.002 C 
ATOM     17  H   UNK d   0       4.402   0.693  -6.003  0.00  0.00     0.034 H 
ATOM     18  H   UNK d   0       2.938  -0.347  -6.075  0.00  0.00     0.034 H 
BRANCH  16  19
ATOM     19  C   UNK d   0       4.138  -0.604  -4.319  0.00  0.00    -0.045 A 
ATOM     20  C   UNK d   0       3.945  -1.891  -3.852  0.00  0.00    -0.059 A 
ATOM     21  C   UNK d   0       4.072  -2.162  -2.502  0.00  0.00    -0.061 A 
ATOM     22  H   UNK d   0       3.697  -2.684  -4.541  0.00  0.00     0.062 H 
ATOM     23  C   UNK d   0       4.390  -1.146  -1.620  0.00  0.00    -0.062 A 
ATOM     24  H   UNK d   0       3.922  -3.166  -2.136  0.00  0.00     0.062 H 
ATOM     25  C   UNK d   0       4.582   0.141  -2.088  0.00  0.00    -0.061 A 
ATOM     26  H   UNK d   0       4.490  -1.357  -0.566  0.00  0.00     0.062 H 
ATOM     27  C   UNK d   0       4.461   0.410  -3.438  0.00  0.00    -0.059 A 
ATOM     28  H   UNK d   0       4.832   0.935  -1.399  0.00  0.00     0.062 H 
ATOM     29  H   UNK d   0       4.616   1.415  -3.805  0.00  0.00     0.062 H 
ENDBRANCH  16  19
ENDBRANCH   1  16
BRANCH   1  30
ATOM     30  N   UNK d   0       3.952  -1.832  -7.703  0.00  0.00    -0.248 N 
ATOM     31  C   UNK d   0       3.795  -3.153  -7.883  0.00  0.00     0.331 A 
ATOM     32  N   UNK d   0       3.052  -3.671  -8.875  0.00  0.00    -0.307 N 
ATOM     33  O   UNK d   0       4.351  -3.915  -7.114  0.00  0.00    -0.246 OA
ATOM     34  C   UNK d   0       2.399  -2.842  -9.776  0.00  0.00     0.056 A 
ATOM     35  H   UNK d   0       2.963  -4.763  -8.971  0.00  0.00     0.170 HD
ATOM     36  C   UNK d   0       2.530  -1.449  -9.632  0.00  0.00     0.063 A 
ATOM     37  C   UNK d   0       1.627  -3.353 -10.808  0.00  0.00    -0.037 A 
ATOM     38  C   UNK d   0       3.355  -0.939  -8.522  0.00  0.00     0.265 A 
ATOM     39  C   UNK d   0       1.886  -0.592 -10.521  0.00  0.00    -0.047 A 
ATOM     40  O   UNK d   0       3.498   0.256  -8.349  0.00  0.00    -0.267 OA
ATOM     41  C   UNK d   0       1.123  -1.120 -11.541  0.00  0.00    -0.061 A 
ATOM     42  H   UNK d   0       1.985   0.478 -10.412  0.00  0.00     0.063 H 
ATOM     43  C   UNK d   0       0.995  -2.493 -11.682  0.00  0.00    -0.060 A 
ATOM     44  H   UNK d   0       0.622  -0.460 -12.233  0.00  0.00     0.062 H 
ATOM     45  H   UNK d   0       0.394  -2.893 -12.485  0.00  0.00     0.062 H 
ATOM     46  H   UNK d   0       1.521  -4.422 -10.926  0.00  0.00     0.064 H 
ENDBRANCH   1  30
TORSDOF 7
ENDMDL
MODEL 4
REMARK VINA RESULT:      -7.0      2.794      5.984
REMARK  5 active torsions:
REMARK  status: ('A' for Active; 'I' for Inactive)
REMARK    1  A    between atoms: CB_1  and  CA_2 
REMARK       I    between atoms: CA_2  and  C_4 
REMARK       I    between atoms: CA_2  and  N_7 
REMARK       I    between atoms: N_7  and  C_8 
REMARK    2  A    between atoms: C_8  and  C_10 
REMARK    3  A    between atoms: C_10  and  C_12 
REMARK    4  A    between atoms: C_10  and  N_19 
REMARK    5  A    between atoms: C_12  and  C_13 
ROOT
ATOM      1  C   UNK d   0       6.834  -1.544  -5.633  0.00  0.00     0.122 C 
ATOM      2  H   UNK d   0       6.030  -2.239  -5.350  0.00  0.00     0.063 H 
ENDROOT
BRANCH   1   3
ATOM      3  C   UNK d   0       7.947  -2.302  -6.311  0.00  0.00     0.237 C 
ATOM      4  N   ALA d   1       9.206  -2.217  -5.838  0.00  0.00    -0.306 N 
ATOM      5  CA  ALA d   1      10.287  -2.953  -6.497  0.00  0.00     0.060 C 
ATOM      6  H   ALA d   1       9.422  -1.596  -4.956  0.00  0.00     0.149 HD
ATOM      7  HA  ALA d   1       9.872  -3.909  -6.847  0.00  0.00     0.056 H 
ATOM      8  C   ALA d   1      11.396  -3.211  -5.508  0.00  0.00     0.062 C 
ATOM      9  O   ALA d   1      11.292  -2.819  -4.370  0.00  0.00    -0.548 OA
ATOM     10  OXT ALA d   1      12.497  -3.874  -5.892  0.00  0.00    -0.548 OA
ATOM     11  O   UNK d   0       7.710  -2.987  -7.283  0.00  0.00    -0.274 OA
BRANCH   5  12
ATOM     12  CB  ALA d   1      10.828  -2.127  -7.665  0.00  0.00    -0.041 C 
ATOM     13  HB1 ALA d   1      10.208  -2.303  -8.556  0.00  0.00     0.025 H 
ATOM     14  HB2 ALA d   1      11.865  -2.427  -7.876  0.00  0.00     0.025 H 
ATOM     15  HB3 ALA d   1      10.801  -1.059  -7.403  0.00  0.00     0.025 H 
ENDBRANCH   5  12
ENDBRANCH   1   3
BRANCH   1  16
ATOM     16  C   UNK d   0       7.386  -0.815  -4.407  0.00  0.00     0.002 C 
ATOM     17  H   UNK d   0       8.106  -1.464  -3.887  0.00  0.00     0.034 H 
ATOM     18  H   UNK d   0       7.890   0.109  -4.726  0.00  0.00     0.034 H 
BRANCH  16  19
ATOM     19  C   UNK d   0       6.254  -0.472  -3.473  0.00  0.00    -0.045 A 
ATOM     20  C   UNK d   0       5.482  -1.479  -2.924  0.00  0.00    -0.059 A 
ATOM     21  C   UNK d   0       4.443  -1.166  -2.068  0.00  0.00    -0.061 A 
ATOM     22  H   UNK d   0       5.691  -2.512  -3.164  0.00  0.00     0.062 H 
ATOM     23  C   UNK d   0       4.176   0.156  -1.761  0.00  0.00    -0.062 A 
ATOM     24  H   UNK d   0       3.841  -1.951  -1.638  0.00  0.00     0.062 H 
ATOM     25  C   UNK d   0       4.948   1.163  -2.310  0.00  0.00    -0.061 A 
ATOM     26  H   UNK d   0       3.365   0.402  -1.091  0.00  0.00     0.062 H 
ATOM     27  C   UNK d   0       5.990   0.848  -3.162  0.00  0.00    -0.059 A 
ATOM     28  H   UNK d   0       4.740   2.195  -2.070  0.00  0.00     0.062 H 
ATOM     29  H   UNK d   0       6.596   1.635  -3.588  0.00  0.00     0.062 H 
ENDBRANCH  16  19
ENDBRANCH   1  16
BRANCH   1  30
ATOM     30  N   UNK d   0       6.267  -0.569  -6.567  0.00  0.00    -0.248 N 
ATOM     31  C   UNK d   0       7.051   0.401  -7.063  0.00  0.00     0.331 A 
ATOM     32  N   UNK d   0       6.604   1.331  -7.924  0.00  0.00    -0.307 N 
ATOM     33  O   UNK d   0       8.217   0.440  -6.717  0.00  0.00    -0.246 OA
ATOM     34  C   UNK d   0       5.283   1.326  -8.346  0.00  0.00     0.056 A 
ATOM     35  H   UNK d   0       7.297   2.101  -8.294  0.00  0.00     0.170 HD
ATOM     36  C   UNK d   0       4.419   0.330  -7.856  0.00  0.00     0.063 A 
ATOM     37  C   UNK d   0       4.800   2.276  -9.233  0.00  0.00    -0.037 A 
ATOM     38  C   UNK d   0       4.966  -0.666  -6.918  0.00  0.00     0.265 A 
ATOM     39  C   UNK d   0       3.087   0.300  -8.263  0.00  0.00    -0.047 A 
ATOM     40  O   UNK d   0       4.264  -1.551  -6.468  0.00  0.00    -0.267 OA
ATOM     41  C   UNK d   0       2.625   1.254  -9.146  0.00  0.00    -0.061 A 
ATOM     42  H   UNK d   0       2.422  -0.463  -7.889  0.00  0.00     0.063 H 
ATOM     43  C   UNK d   0       3.478   2.235  -9.628  0.00  0.00    -0.060 A 
ATOM     44  H   UNK d   0       1.594   1.235  -9.464  0.00  0.00     0.062 H 
ATOM     45  H   UNK d   0       3.103   2.976 -10.319  0.00  0.00     0.062 H 
ATOM     46  H   UNK d   0       5.456   3.045  -9.614  0.00  0.00     0.064 H 
ENDBRANCH   1  30
TORSDOF 7
ENDMDL
MODEL 5
REMARK VINA RESULT:      -6.9      2.336      6.155
REMARK  5 active torsions:
REMARK  status: ('A' for Active; 'I' for Inactive)
REMARK    1  A    between atoms: CB_1  and  CA_2 
REMARK       I    between atoms: CA_2  and  C_4 
REMARK       I    between atoms: CA_2  and  N_7 
REMARK       I    between atoms: N_7  and  C_8 
REMARK    2  A    between atoms: C_8  and  C_10 
REMARK    3  A    between atoms: C_10  and  C_12 
REMARK    4  A    between atoms: C_10  and  N_19 
REMARK    5  A    between atoms: C_12  and  C_13 
ROOT
ATOM      1  C   UNK d   0       5.707  -2.827  -5.171  0.00  0.00     0.122 C 
ATOM      2  H   UNK d   0       6.551  -2.236  -4.787  0.00  0.00     0.063 H 
ENDROOT
BRANCH   1   3
ATOM      3  C   UNK d   0       5.338  -2.351  -6.553  0.00  0.00     0.237 C 
ATOM      4  N   ALA d   1       4.128  -1.805  -6.777  0.00  0.00    -0.306 N 
ATOM      5  CA  ALA d   1       3.770  -1.342  -8.120  0.00  0.00     0.060 C 
ATOM      6  H   ALA d   1       3.407  -1.705  -5.952  0.00  0.00     0.149 HD
ATOM      7  HA  ALA d   1       4.678  -0.927  -8.581  0.00  0.00     0.056 H 
ATOM      8  C   ALA d   1       2.714  -0.271  -8.019  0.00  0.00     0.062 C 
ATOM      9  O   ALA d   1       2.303   0.070  -6.936  0.00  0.00    -0.548 OA
ATOM     10  OXT ALA d   1       2.231   0.302  -9.132  0.00  0.00    -0.548 OA
ATOM     11  O   UNK d   0       6.132  -2.461  -7.464  0.00  0.00    -0.274 OA
BRANCH   5  12
ATOM     12  CB  ALA d   1       3.227  -2.517  -8.936  0.00  0.00    -0.041 C 
ATOM     13  HB1 ALA d   1       3.670  -3.454  -8.568  0.00  0.00     0.025 H 
ATOM     14  HB2 ALA d   1       3.489  -2.380  -9.995  0.00  0.00     0.025 H 
ATOM     15  HB3 ALA d   1       2.133  -2.563  -8.832  0.00  0.00     0.025 H 
ENDBRANCH   5  12
ENDBRANCH   1   3
BRANCH   1  16
ATOM     16  C   UNK d   0       4.491  -2.711  -4.250  0.00  0.00     0.002 C 
ATOM     17  H   UNK d   0       3.570  -2.767  -4.850  0.00  0.00     0.034 H 
ATOM     18  H   UNK d   0       4.504  -3.533  -3.520  0.00  0.00     0.034 H 
BRANCH  16  19
ATOM     19  C   UNK d   0       4.536  -1.392  -3.522  0.00  0.00    -0.045 A 
ATOM     20  C   UNK d   0       5.744  -0.745  -3.339  0.00  0.00    -0.059 A 
ATOM     21  C   UNK d   0       5.786   0.464  -2.671  0.00  0.00    -0.061 A 
ATOM     22  H   UNK d   0       6.655  -1.185  -3.718  0.00  0.00     0.062 H 
ATOM     23  C   UNK d   0       4.620   1.027  -2.187  0.00  0.00    -0.062 A 
ATOM     24  H   UNK d   0       6.729   0.970  -2.528  0.00  0.00     0.062 H 
ATOM     25  C   UNK d   0       3.412   0.380  -2.370  0.00  0.00    -0.061 A 
ATOM     26  H   UNK d   0       4.652   1.973  -1.666  0.00  0.00     0.062 H 
ATOM     27  C   UNK d   0       3.370  -0.827  -3.042  0.00  0.00    -0.059 A 
ATOM     28  H   UNK d   0       2.501   0.820  -1.992  0.00  0.00     0.062 H 
ATOM     29  H   UNK d   0       2.426  -1.330  -3.190  0.00  0.00     0.062 H 
ENDBRANCH  16  19
ENDBRANCH   1  16
BRANCH   1  30
ATOM     30  N   UNK d   0       6.139  -4.225  -5.235  0.00  0.00    -0.248 N 
ATOM     31  C   UNK d   0       7.420  -4.530  -4.973  0.00  0.00     0.331 A 
ATOM     32  N   UNK d   0       7.892  -5.787  -5.011  0.00  0.00    -0.307 N 
ATOM     33  O   UNK d   0       8.187  -3.629  -4.691  0.00  0.00    -0.246 OA
ATOM     34  C   UNK d   0       7.055  -6.848  -5.328  0.00  0.00     0.056 A 
ATOM     35  H   UNK d   0       8.953  -5.973  -4.787  0.00  0.00     0.170 HD
ATOM     36  C   UNK d   0       5.703  -6.582  -5.610  0.00  0.00     0.063 A 
ATOM     37  C   UNK d   0       7.520  -8.153  -5.373  0.00  0.00    -0.037 A 
ATOM     38  C   UNK d   0       5.241  -5.184  -5.549  0.00  0.00     0.265 A 
ATOM     39  C   UNK d   0       4.840  -7.626  -5.931  0.00  0.00    -0.047 A 
ATOM     40  O   UNK d   0       4.082  -4.899  -5.779  0.00  0.00    -0.267 OA
ATOM     41  C   UNK d   0       5.321  -8.918  -5.971  0.00  0.00    -0.061 A 
ATOM     42  H   UNK d   0       3.801  -7.426  -6.147  0.00  0.00     0.063 H 
ATOM     43  C   UNK d   0       6.654  -9.179  -5.693  0.00  0.00    -0.060 A 
ATOM     44  H   UNK d   0       4.655  -9.731  -6.220  0.00  0.00     0.062 H 
ATOM     45  H   UNK d   0       7.018 -10.195  -5.728  0.00  0.00     0.062 H 
ATOM     46  H   UNK d   0       8.557  -8.366  -5.158  0.00  0.00     0.064 H 
ENDBRANCH   1  30
TORSDOF 7
ENDMDL
MODEL 6
REMARK VINA RESULT:      -6.9      2.900      5.117
REMARK  5 active torsions:
REMARK  status: ('A' for Active; 'I' for Inactive)
REMARK    1  A    between atoms: CB_1  and  CA_2 
REMARK       I    between atoms: CA_2  and  C_4 
REMARK       I    between atoms: CA_2  and  N_7 
REMARK       I    between atoms: N_7  and  C_8 
REMARK    2  A    between atoms: C_8  and  C_10 
REMARK    3  A    between atoms: C_10  and  C_12 
REMARK    4  A    between atoms: C_10  and  N_19 
REMARK    5  A    between atoms: C_12  and  C_13 
ROOT
ATOM      1  C   UNK d   0       4.593  -0.135  -8.537  0.00  0.00     0.122 C 
ATOM      2  H   UNK d   0       3.989   0.651  -9.014  0.00  0.00     0.063 H 
ENDROOT
BRANCH   1   3
ATOM      3  C   UNK d   0       6.051   0.246  -8.579  0.00  0.00     0.237 C 
ATOM      4  N   ALA d   1       6.548   1.110  -7.674  0.00  0.00    -0.306 N 
ATOM      5  CA  ALA d   1       7.965   1.480  -7.715  0.00  0.00     0.060 C 
ATOM      6  H   ALA d   1       5.892   1.537  -6.902  0.00  0.00     0.149 HD
ATOM      7  HA  ALA d   1       8.531   0.591  -8.027  0.00  0.00     0.056 H 
ATOM      8  C   ALA d   1       8.413   1.914  -6.343  0.00  0.00     0.062 C 
ATOM      9  O   ALA d   1       7.628   1.913  -5.424  0.00  0.00    -0.548 OA
ATOM     10  OXT ALA d   1       9.682   2.300  -6.142  0.00  0.00    -0.548 OA
ATOM     11  O   UNK d   0       6.776  -0.224  -9.431  0.00  0.00    -0.274 OA
BRANCH   5  12
ATOM     12  CB  ALA d   1       8.162   2.632  -8.703  0.00  0.00    -0.041 C 
ATOM     13  HB1 ALA d   1       7.266   3.270  -8.705  0.00  0.00     0.025 H 
ATOM     14  HB2 ALA d   1       8.324   2.226  -9.712  0.00  0.00     0.025 H 
ATOM     15  HB3 ALA d   1       9.036   3.228  -8.403  0.00  0.00     0.025 H 
ENDBRANCH   5  12
ENDBRANCH   1   3
BRANCH   1  16
ATOM     16  C   UNK d   0       4.397  -1.480  -9.238  0.00  0.00     0.002 C 
ATOM     17  H   UNK d   0       5.323  -1.759  -9.763  0.00  0.00     0.034 H 
ATOM     18  H   UNK d   0       4.152  -2.251  -8.492  0.00  0.00     0.034 H 
BRANCH  16  19
ATOM     19  C   UNK d   0       3.270  -1.369 -10.233  0.00  0.00    -0.045 A 
ATOM     20  C   UNK d   0       2.009  -0.994  -9.809  0.00  0.00    -0.059 A 
ATOM     21  C   UNK d   0       0.975  -0.891 -10.721  0.00  0.00    -0.061 A 
ATOM     22  H   UNK d   0       1.831  -0.781  -8.765  0.00  0.00     0.062 H 
ATOM     23  C   UNK d   0       1.203  -1.163 -12.057  0.00  0.00    -0.062 A 
ATOM     24  H   UNK d   0      -0.010  -0.598 -10.391  0.00  0.00     0.062 H 
ATOM     25  C   UNK d   0       2.464  -1.538 -12.481  0.00  0.00    -0.061 A 
ATOM     26  H   UNK d   0       0.396  -1.082 -12.771  0.00  0.00     0.062 H 
ATOM     27  C   UNK d   0       3.499  -1.636 -11.570  0.00  0.00    -0.059 A 
ATOM     28  H   UNK d   0       2.643  -1.750 -13.525  0.00  0.00     0.062 H 
ATOM     29  H   UNK d   0       4.486  -1.924 -11.901  0.00  0.00     0.062 H 
ENDBRANCH  16  19
ENDBRANCH   1  16
BRANCH   1  30
ATOM     30  N   UNK d   0       4.156  -0.243  -7.143  0.00  0.00    -0.248 N 
ATOM     31  C   UNK d   0       3.260   0.634  -6.665  0.00  0.00     0.331 A 
ATOM     32  N   UNK d   0       2.810   0.600  -5.399  0.00  0.00    -0.307 N 
ATOM     33  O   UNK d   0       2.836   1.498  -7.409  0.00  0.00    -0.246 OA
ATOM     34  C   UNK d   0       3.265  -0.366  -4.513  0.00  0.00     0.056 A 
ATOM     35  H   UNK d   0       2.076   1.348  -5.066  0.00  0.00     0.170 HD
ATOM     36  C   UNK d   0       4.204  -1.310  -4.965  0.00  0.00     0.063 A 
ATOM     37  C   UNK d   0       2.816  -0.421  -3.203  0.00  0.00    -0.037 A 
ATOM     38  C   UNK d   0       4.658  -1.226  -6.365  0.00  0.00     0.265 A 
ATOM     39  C   UNK d   0       4.678  -2.292  -4.099  0.00  0.00    -0.047 A 
ATOM     40  O   UNK d   0       5.466  -2.020  -6.808  0.00  0.00    -0.267 OA
ATOM     41  C   UNK d   0       4.219  -2.330  -2.799  0.00  0.00    -0.061 A 
ATOM     42  H   UNK d   0       5.399  -3.019  -4.442  0.00  0.00     0.063 H 
ATOM     43  C   UNK d   0       3.293  -1.399  -2.354  0.00  0.00    -0.060 A 
ATOM     44  H   UNK d   0       4.584  -3.089  -2.123  0.00  0.00     0.062 H 
ATOM     45  H   UNK d   0       2.942  -1.440  -1.334  0.00  0.00     0.062 H 
ATOM     46  H   UNK d   0       2.094   0.300  -2.847  0.00  0.00     0.064 H 
ENDBRANCH   1  30
TORSDOF 7
ENDMDL
MODEL 7
REMARK VINA RESULT:      -6.8      3.304      5.961
REMARK  5 active torsions:
REMARK  status: ('A' for Active; 'I' for Inactive)
REMARK    1  A    between atoms: CB_1  and  CA_2 
REMARK       I    between atoms: CA_2  and  C_4 
REMARK       I    between atoms: CA_2  and  N_7 
REMARK       I    between atoms: N_7  and  C_8 
REMARK    2  A    between atoms: C_8  and  C_10 
REMARK    3  A    between atoms: C_10  and  C_12 
REMARK    4  A    between atoms: C_10  and  N_19 
REMARK    5  A    between atoms: C_12  and  C_13 
ROOT
ATOM      1  C   UNK d   0       6.462  -2.484  -4.595  0.00  0.00     0.122 C 
ATOM      2  H   UNK d   0       5.483  -2.977  -4.679  0.00  0.00     0.063 H 
ENDROOT
BRANCH   1   3
ATOM      3  C   UNK d   0       7.561  -3.492  -4.812  0.00  0.00     0.237 C 
ATOM      4  N   ALA d   1       8.513  -3.664  -3.875  0.00  0.00    -0.306 N 
ATOM      5  CA  ALA d   1       9.580  -4.645  -4.086  0.00  0.00     0.060 C 
ATOM      6  H   ALA d   1       8.488  -3.070  -2.950  0.00  0.00     0.149 HD
ATOM      7  HA  ALA d   1       9.144  -5.501  -4.621  0.00  0.00     0.056 H 
ATOM      8  C   ALA d   1      10.119  -5.097  -2.754  0.00  0.00     0.062 C 
ATOM      9  O   ALA d   1       9.658  -4.647  -1.732  0.00  0.00    -0.548 OA
ATOM     10  OXT ALA d   1      11.111  -6.000  -2.702  0.00  0.00    -0.548 OA
ATOM     11  O   UNK d   0       7.589  -4.148  -5.833  0.00  0.00    -0.274 OA
BRANCH   5  12
ATOM     12  CB  ALA d   1      10.707  -4.004  -4.900  0.00  0.00    -0.041 C 
ATOM     13  HB1 ALA d   1      10.614  -2.909  -4.855  0.00  0.00     0.025 H 
ATOM     14  HB2 ALA d   1      10.636  -4.334  -5.947  0.00  0.00     0.025 H 
ATOM     15  HB3 ALA d   1      11.679  -4.308  -4.485  0.00  0.00     0.025 H 
ENDBRANCH   5  12
ENDBRANCH   1   3
BRANCH   1  16
ATOM     16  C   UNK d   0       6.633  -1.831  -3.222  0.00  0.00     0.002 C 
ATOM     17  H   UNK d   0       6.698  -2.612  -2.450  0.00  0.00     0.034 H 
ATOM     18  H   UNK d   0       7.554  -1.230  -3.214  0.00  0.00     0.034 H 
BRANCH  16  19
ATOM     19  C   UNK d   0       5.450  -0.942  -2.938  0.00  0.00    -0.045 A 
ATOM     20  C   UNK d   0       4.174  -1.475  -2.913  0.00  0.00    -0.059 A 
ATOM     21  C   UNK d   0       3.089  -0.660  -2.652  0.00  0.00    -0.061 A 
ATOM     22  H   UNK d   0       4.026  -2.529  -3.098  0.00  0.00     0.062 H 
ATOM     23  C   UNK d   0       3.279   0.688  -2.416  0.00  0.00    -0.062 A 
ATOM     24  H   UNK d   0       2.093  -1.076  -2.633  0.00  0.00     0.062 H 
ATOM     25  C   UNK d   0       4.554   1.222  -2.440  0.00  0.00    -0.061 A 
ATOM     26  H   UNK d   0       2.431   1.326  -2.211  0.00  0.00     0.062 H 
ATOM     27  C   UNK d   0       5.640   0.405  -2.696  0.00  0.00    -0.059 A 
ATOM     28  H   UNK d   0       4.703   2.276  -2.254  0.00  0.00     0.062 H 
ATOM     29  H   UNK d   0       6.637   0.821  -2.711  0.00  0.00     0.062 H 
ENDBRANCH  16  19
ENDBRANCH   1  16
BRANCH   1  30
ATOM     30  N   UNK d   0       6.529  -1.456  -5.636  0.00  0.00    -0.248 N 
ATOM     31  C   UNK d   0       5.516  -1.336  -6.509  0.00  0.00     0.331 A 
ATOM     32  N   UNK d   0       5.503  -0.418  -7.490  0.00  0.00    -0.307 N 
ATOM     33  O   UNK d   0       4.567  -2.092  -6.407  0.00  0.00    -0.246 OA
ATOM     34  C   UNK d   0       6.562   0.464  -7.646  0.00  0.00     0.056 A 
ATOM     35  H   UNK d   0       4.643  -0.371  -8.175  0.00  0.00     0.170 HD
ATOM     36  C   UNK d   0       7.649   0.381  -6.757  0.00  0.00     0.063 A 
ATOM     37  C   UNK d   0       6.572   1.419  -8.651  0.00  0.00    -0.037 A 
ATOM     38  C   UNK d   0       7.605  -0.642  -5.698  0.00  0.00     0.265 A 
ATOM     39  C   UNK d   0       8.726   1.254  -6.889  0.00  0.00    -0.047 A 
ATOM     40  O   UNK d   0       8.516  -0.754  -4.900  0.00  0.00    -0.267 OA
ATOM     41  C   UNK d   0       8.717   2.197  -7.895  0.00  0.00    -0.061 A 
ATOM     42  H   UNK d   0       9.562   1.193  -6.208  0.00  0.00     0.063 H 
ATOM     43  C   UNK d   0       7.645   2.278  -8.771  0.00  0.00    -0.060 A 
ATOM     44  H   UNK d   0       9.550   2.876  -8.002  0.00  0.00     0.062 H 
ATOM     45  H   UNK d   0       7.651   3.021  -9.555  0.00  0.00     0.062 H 
ATOM     46  H   UNK d   0       5.741   1.490  -9.338  0.00  0.00     0.064 H 
ENDBRANCH   1  30
TORSDOF 7
ENDMDL
MODEL 8
REMARK VINA RESULT:      -6.7      2.776      4.747
REMARK  5 active torsions:
REMARK  status: ('A' for Active; 'I' for Inactive)
REMARK    1  A    between atoms: CB_1  and  CA_2 
REMARK       I    between atoms: CA_2  and  C_4 
REMARK       I    between atoms: CA_2  and  N_7 
REMARK       I    between atoms: N_7  and  C_8 
REMARK    2  A    between atoms: C_8  and  C_10 
REMARK    3  A    between atoms: C_10  and  C_12 
REMARK    4  A    between atoms: C_10  and  N_19 
REMARK    5  A    between atoms: C_12  and  C_13 
ROOT
ATOM      1  C   UNK d   0       5.766  -1.754  -5.457  0.00  0.00     0.122 C 
ATOM      2  H   UNK d   0       5.052  -1.120  -6.004  0.00  0.00     0.063 H 
ENDROOT
BRANCH   1   3
ATOM      3  C   UNK d   0       5.965  -3.053  -6.196  0.00  0.00     0.237 C 
ATOM      4  N   ALA d   1       5.605  -4.216  -5.622  0.00  0.00    -0.306 N 
ATOM      5  CA  ALA d   1       5.798  -5.478  -6.340  0.00  0.00     0.060 C 
ATOM      6  H   ALA d   1       5.164  -4.220  -4.614  0.00  0.00     0.149 HD
ATOM      7  HA  ALA d   1       5.611  -5.285  -7.406  0.00  0.00     0.056 H 
ATOM      8  C   ALA d   1       4.820  -6.504  -5.828  0.00  0.00     0.062 C 
ATOM      9  O   ALA d   1       4.040  -6.211  -4.953  0.00  0.00    -0.548 OA
ATOM     10  OXT ALA d   1       4.814  -7.743  -6.344  0.00  0.00    -0.548 OA
ATOM     11  O   UNK d   0       6.451  -3.049  -7.307  0.00  0.00    -0.274 OA
BRANCH   5  12
ATOM     12  CB  ALA d   1       7.226  -5.979  -6.114  0.00  0.00    -0.041 C 
ATOM     13  HB1 ALA d   1       7.239  -7.078  -6.153  0.00  0.00     0.025 H 
ATOM     14  HB2 ALA d   1       7.580  -5.644  -5.129  0.00  0.00     0.025 H 
ATOM     15  HB3 ALA d   1       7.885  -5.576  -6.897  0.00  0.00     0.025 H 
ENDBRANCH   5  12
ENDBRANCH   1   3
BRANCH   1  16
ATOM     16  C   UNK d   0       5.267  -2.044  -4.040  0.00  0.00     0.002 C 
ATOM     17  H   UNK d   0       4.511  -2.842  -4.073  0.00  0.00     0.034 H 
ATOM     18  H   UNK d   0       6.112  -2.365  -3.413  0.00  0.00     0.034 H 
BRANCH  16  19
ATOM     19  C   UNK d   0       4.655  -0.796  -3.457  0.00  0.00    -0.045 A 
ATOM     20  C   UNK d   0       5.047  -0.353  -2.207  0.00  0.00    -0.059 A 
ATOM     21  C   UNK d   0       4.486   0.791  -1.672  0.00  0.00    -0.061 A 
ATOM     22  H   UNK d   0       5.793  -0.902  -1.649  0.00  0.00     0.062 H 
ATOM     23  C   UNK d   0       3.533   1.492  -2.387  0.00  0.00    -0.062 A 
ATOM     24  H   UNK d   0       4.792   1.138  -0.697  0.00  0.00     0.062 H 
ATOM     25  C   UNK d   0       3.141   1.049  -3.636  0.00  0.00    -0.061 A 
ATOM     26  H   UNK d   0       3.095   2.387  -1.970  0.00  0.00     0.062 H 
ATOM     27  C   UNK d   0       3.706  -0.092  -4.173  0.00  0.00    -0.059 A 
ATOM     28  H   UNK d   0       2.397   1.597  -4.195  0.00  0.00     0.062 H 
ATOM     29  H   UNK d   0       3.403  -0.436  -5.151  0.00  0.00     0.062 H 
ENDBRANCH  16  19
ENDBRANCH   1  16
BRANCH   1  30
ATOM     30  N   UNK d   0       7.037  -1.030  -5.389  0.00  0.00    -0.248 N 
ATOM     31  C   UNK d   0       8.069  -1.573  -4.725  0.00  0.00     0.331 A 
ATOM     32  N   UNK d   0       9.266  -0.971  -4.618  0.00  0.00    -0.307 N 
ATOM     33  O   UNK d   0       7.914  -2.658  -4.195  0.00  0.00    -0.246 OA
ATOM     34  C   UNK d   0       9.489   0.266  -5.205  0.00  0.00     0.056 A 
ATOM     35  H   UNK d   0      10.073  -1.468  -4.059  0.00  0.00     0.170 HD
ATOM     36  C   UNK d   0       8.440   0.878  -5.914  0.00  0.00     0.063 A 
ATOM     37  C   UNK d   0      10.715   0.906  -5.108  0.00  0.00    -0.037 A 
ATOM     38  C   UNK d   0       7.151   0.169  -6.001  0.00  0.00     0.265 A 
ATOM     39  C   UNK d   0       8.636   2.120  -6.514  0.00  0.00    -0.047 A 
ATOM     40  O   UNK d   0       6.213   0.652  -6.605  0.00  0.00    -0.267 OA
ATOM     41  C   UNK d   0       9.862   2.741  -6.406  0.00  0.00    -0.061 A 
ATOM     42  H   UNK d   0       7.832   2.593  -7.059  0.00  0.00     0.063 H 
ATOM     43  C   UNK d   0      10.896   2.136  -5.707  0.00  0.00    -0.060 A 
ATOM     44  H   UNK d   0      10.018   3.704  -6.869  0.00  0.00     0.062 H 
ATOM     45  H   UNK d   0      11.851   2.633  -5.630  0.00  0.00     0.062 H 
ATOM     46  H   UNK d   0      11.527   0.442  -4.565  0.00  0.00     0.064 H 
ENDBRANCH   1  30
TORSDOF 7
ENDMDL
MODEL 9
REMARK VINA RESULT:      -6.7      2.856      5.122
REMARK  5 active torsions:
REMARK  status: ('A' for Active; 'I' for Inactive)
REMARK    1  A    between atoms: CB_1  and  CA_2 
REMARK       I    between atoms: CA_2  and  C_4 
REMARK       I    between atoms: CA_2  and  N_7 
REMARK       I    between atoms: N_7  and  C_8 
REMARK    2  A    between atoms: C_8  and  C_10 
REMARK    3  A    between atoms: C_10  and  C_12 
REMARK    4  A    between atoms: C_10  and  N_19 
REMARK    5  A    between atoms: C_12  and  C_13 
ROOT
ATOM      1  C   UNK d   0       5.081  -0.345  -8.420  0.00  0.00     0.122 C 
ATOM      2  H   UNK d   0       4.321   0.436  -8.567  0.00  0.00     0.063 H 
ENDROOT
BRANCH   1   3
ATOM      3  C   UNK d   0       6.458   0.255  -8.542  0.00  0.00     0.237 C 
ATOM      4  N   ALA d   1       6.865   1.192  -7.664  0.00  0.00    -0.306 N 
ATOM      5  CA  ALA d   1       8.204   1.775  -7.783  0.00  0.00     0.060 C 
ATOM      6  H   ALA d   1       6.194   1.519  -6.857  0.00  0.00     0.149 HD
ATOM      7  HA  ALA d   1       8.882   0.981  -8.127  0.00  0.00     0.056 H 
ATOM      8  C   ALA d   1       8.653   2.283  -6.437  0.00  0.00     0.062 C 
ATOM      9  O   ALA d   1       7.929   2.169  -5.476  0.00  0.00    -0.548 OA
ATOM     10  OXT ALA d   1       9.856   2.861  -6.305  0.00  0.00    -0.548 OA
ATOM     11  O   UNK d   0       7.199  -0.104  -9.433  0.00  0.00    -0.274 OA
BRANCH   5  12
ATOM     12  CB  ALA d   1       8.167   2.936  -8.779  0.00  0.00    -0.041 C 
ATOM     13  HB1 ALA d   1       7.343   3.617  -8.517  0.00  0.00     0.025 H 
ATOM     14  HB2 ALA d   1       8.008   2.544  -9.794  0.00  0.00     0.025 H 
ATOM     15  HB3 ALA d   1       9.121   3.483  -8.741  0.00  0.00     0.025 H 
ENDBRANCH   5  12
ENDBRANCH   1   3
BRANCH   1  16
ATOM     16  C   UNK d   0       4.921  -1.468  -9.447  0.00  0.00     0.002 C 
ATOM     17  H   UNK d   0       5.746  -1.422 -10.173  0.00  0.00     0.034 H 
ATOM     18  H   UNK d   0       4.939  -2.440  -8.932  0.00  0.00     0.034 H 
BRANCH  16  19
ATOM     19  C   UNK d   0       3.608  -1.306 -10.168  0.00  0.00    -0.045 A 
ATOM     20  C   UNK d   0       3.572  -1.325 -11.550  0.00  0.00    -0.059 A 
ATOM     21  C   UNK d   0       2.368  -1.177 -12.213  0.00  0.00    -0.061 A 
ATOM     22  H   UNK d   0       4.486  -1.456 -12.113  0.00  0.00     0.062 H 
ATOM     23  C   UNK d   0       1.200  -1.010 -11.493  0.00  0.00    -0.062 A 
ATOM     24  H   UNK d   0       2.339  -1.193 -13.292  0.00  0.00     0.062 H 
ATOM     25  C   UNK d   0       1.235  -0.991 -10.111  0.00  0.00    -0.061 A 
ATOM     26  H   UNK d   0       0.258  -0.895 -12.010  0.00  0.00     0.062 H 
ATOM     27  C   UNK d   0       2.439  -1.145  -9.449  0.00  0.00    -0.059 A 
ATOM     28  H   UNK d   0       0.323  -0.862  -9.548  0.00  0.00     0.062 H 
ATOM     29  H   UNK d   0       2.467  -1.134  -8.369  0.00  0.00     0.062 H 
ENDBRANCH  16  19
ENDBRANCH   1  16
BRANCH   1  30
ATOM     30  N   UNK d   0       4.902  -0.887  -7.072  0.00  0.00    -0.248 N 
ATOM     31  C   UNK d   0       5.604  -1.968  -6.698  0.00  0.00     0.331 A 
ATOM     32  N   UNK d   0       5.495  -2.523  -5.479  0.00  0.00    -0.307 N 
ATOM     33  O   UNK d   0       6.373  -2.468  -7.498  0.00  0.00    -0.246 OA
ATOM     34  C   UNK d   0       4.631  -1.989  -4.534  0.00  0.00     0.056 A 
ATOM     35  H   UNK d   0       6.098  -3.410  -5.233  0.00  0.00     0.170 HD
ATOM     36  C   UNK d   0       3.872  -0.855  -4.875  0.00  0.00     0.063 A 
ATOM     37  C   UNK d   0       4.502  -2.545  -3.271  0.00  0.00    -0.037 A 
ATOM     38  C   UNK d   0       4.037  -0.287  -6.225  0.00  0.00     0.265 A 
ATOM     39  C   UNK d   0       2.997  -0.297  -3.946  0.00  0.00    -0.047 A 
ATOM     40  O   UNK d   0       3.408   0.695  -6.570  0.00  0.00    -0.267 OA
ATOM     41  C   UNK d   0       2.882  -0.864  -2.695  0.00  0.00    -0.061 A 
ATOM     42  H   UNK d   0       2.413   0.574  -4.205  0.00  0.00     0.063 H 
ATOM     43  C   UNK d   0       3.631  -1.982  -2.360  0.00  0.00    -0.060 A 
ATOM     44  H   UNK d   0       2.205  -0.435  -1.972  0.00  0.00     0.062 H 
ATOM     45  H   UNK d   0       3.531  -2.416  -1.376  0.00  0.00     0.062 H 
ATOM     46  H   UNK d   0       5.081  -3.416  -3.000  0.00  0.00     0.064 H 
ENDBRANCH   1  30
TORSDOF 7
ENDMDL
MODEL 10
REMARK VINA RESULT:      -6.5      3.103      5.008
REMARK  5 active torsions:
REMARK  status: ('A' for Active; 'I' for Inactive)
REMARK    1  A    between atoms: CB_1  and  CA_2 
REMARK       I    between atoms: CA_2  and  C_4 
REMARK       I    between atoms: CA_2  and  N_7 
REMARK       I    between atoms: N_7  and  C_8 
REMARK    2  A    between atoms: C_8  and  C_10 
REMARK    3  A    between atoms: C_10  and  C_12 
REMARK    4  A    between atoms: C_10  and  N_19 
REMARK    5  A    between atoms: C_12  and  C_13 
ROOT
ATOM      1  C   UNK d   0       6.332  -1.515  -5.503  0.00  0.00     0.122 C 
ATOM      2  H   UNK d   0       5.800  -0.586  -5.755  0.00  0.00     0.063 H 
ENDROOT
BRANCH   1   3
ATOM      3  C   UNK d   0       6.111  -2.539  -6.587  0.00  0.00     0.237 C 
ATOM      4  N   ALA d   1       5.455  -3.682  -6.311  0.00  0.00    -0.306 N 
ATOM      5  CA  ALA d   1       5.240  -4.676  -7.365  0.00  0.00     0.060 C 
ATOM      6  H   ALA d   1       5.079  -3.870  -5.294  0.00  0.00     0.149 HD
ATOM      7  HA  ALA d   1       5.068  -4.132  -8.305  0.00  0.00     0.056 H 
ATOM      8  C   ALA d   1       4.031  -5.512  -7.031  0.00  0.00     0.062 C 
ATOM      9  O   ALA d   1       3.412  -5.297  -6.015  0.00  0.00    -0.548 OA
ATOM     10  OXT ALA d   1       3.642  -6.492  -7.860  0.00  0.00    -0.548 OA
ATOM     11  O   UNK d   0       6.525  -2.333  -7.708  0.00  0.00    -0.274 OA
BRANCH   5  12
ATOM     12  CB  ALA d   1       6.470  -5.581  -7.470  0.00  0.00    -0.041 C 
ATOM     13  HB1 ALA d   1       7.366  -5.018  -7.170  0.00  0.00     0.025 H 
ATOM     14  HB2 ALA d   1       6.585  -5.923  -8.509  0.00  0.00     0.025 H 
ATOM     15  HB3 ALA d   1       6.344  -6.451  -6.809  0.00  0.00     0.025 H 
ENDBRANCH   5  12
ENDBRANCH   1   3
BRANCH   1  16
ATOM     16  C   UNK d   0       5.849  -2.078  -4.164  0.00  0.00     0.002 C 
ATOM     17  H   UNK d   0       5.236  -2.974  -4.342  0.00  0.00     0.034 H 
ATOM     18  H   UNK d   0       6.718  -2.345  -3.545  0.00  0.00     0.034 H 
BRANCH  16  19
ATOM     19  C   UNK d   0       5.024  -1.038  -3.450  0.00  0.00    -0.045 A 
ATOM     20  C   UNK d   0       5.648  -0.002  -2.780  0.00  0.00    -0.059 A 
ATOM     21  C   UNK d   0       4.891   0.952  -2.125  0.00  0.00    -0.061 A 
ATOM     22  H   UNK d   0       6.726   0.062  -2.768  0.00  0.00     0.062 H 
ATOM     23  C   UNK d   0       3.512   0.869  -2.141  0.00  0.00    -0.062 A 
ATOM     24  H   UNK d   0       5.377   1.761  -1.602  0.00  0.00     0.062 H 
ATOM     25  C   UNK d   0       2.888  -0.167  -2.811  0.00  0.00    -0.061 A 
ATOM     26  H   UNK d   0       2.920   1.615  -1.630  0.00  0.00     0.062 H 
ATOM     27  C   UNK d   0       3.645  -1.117  -3.470  0.00  0.00    -0.059 A 
ATOM     28  H   UNK d   0       1.810  -0.231  -2.824  0.00  0.00     0.062 H 
ATOM     29  H   UNK d   0       3.158  -1.924  -3.998  0.00  0.00     0.062 H 
ENDBRANCH  16  19
ENDBRANCH   1  16
BRANCH   1  30
ATOM     30  N   UNK d   0       7.758  -1.198  -5.413  0.00  0.00    -0.248 N 
ATOM     31  C   UNK d   0       8.167   0.063  -5.623  0.00  0.00     0.331 A 
ATOM     32  N   UNK d   0       9.457   0.433  -5.558  0.00  0.00    -0.307 N 
ATOM     33  O   UNK d   0       7.332   0.910  -5.884  0.00  0.00    -0.246 OA
ATOM     34  C   UNK d   0      10.444  -0.496  -5.264  0.00  0.00     0.056 A 
ATOM     35  H   UNK d   0       9.728   1.483  -5.742  0.00  0.00     0.170 HD
ATOM     36  C   UNK d   0      10.069  -1.833  -5.035  0.00  0.00     0.063 A 
ATOM     37  C   UNK d   0      11.782  -0.139  -5.192  0.00  0.00    -0.037 A 
ATOM     38  C   UNK d   0       8.639  -2.178  -5.115  0.00  0.00     0.265 A 
ATOM     39  C   UNK d   0      11.039  -2.787  -4.737  0.00  0.00    -0.047 A 
ATOM     40  O   UNK d   0       8.260  -3.317  -4.921  0.00  0.00    -0.267 OA
ATOM     41  C   UNK d   0      12.364  -2.412  -4.670  0.00  0.00    -0.061 A 
ATOM     42  H   UNK d   0      10.754  -3.814  -4.560  0.00  0.00     0.063 H 
ATOM     43  C   UNK d   0      12.732  -1.095  -4.896  0.00  0.00    -0.060 A 
ATOM     44  H   UNK d   0      13.119  -3.149  -4.440  0.00  0.00     0.062 H 
ATOM     45  H   UNK d   0      13.774  -0.814  -4.841  0.00  0.00     0.062 H 
ATOM     46  H   UNK d   0      12.079   0.885  -5.367  0.00  0.00     0.064 H 
ENDBRANCH   1  30
TORSDOF 7
ENDMDL
