MODEL 1
REMARK VINA RESULT:      -4.8      0.000      0.000
REMARK  6 active torsions:
REMARK  status: ('A' for Active; 'I' for Inactive)
REMARK    1  A    between atoms: C_1  and  C_2 
REMARK    2  A    between atoms: C_6  and  C_10 
REMARK    3  A    between atoms: C_6  and  C_11 
REMARK    4  A    between atoms: C_7  and  C_8 
REMARK    5  A    between atoms: C_7  and  C_9 
REMARK    6  A    between atoms: C_11  and  C_13 
ROOT
ATOM      1  C   LIG d   1       4.846   0.831  -2.995  0.00  0.00    -0.038 C 
ATOM      2  H   LIG d   1       4.306   1.544  -3.616  0.00  0.00     0.030 H 
ATOM      3  C   LIG d   1       6.371   0.928  -3.254  0.00  0.00    -0.049 C 
ATOM      4  C   LIG d   1       6.551   0.099  -4.551  0.00  0.00    -0.040 C 
ATOM      5  C   LIG d   1       5.571  -1.080  -4.385  0.00  0.00     0.034 C 
ATOM      6  C   LIG d   1       4.487  -0.615  -3.396  0.00  0.00    -0.020 C 
ATOM      7  H   LIG d   1       6.670   1.964  -3.413  0.00  0.00     0.027 H 
ATOM      8  H   LIG d   1       6.931   0.485  -2.431  0.00  0.00     0.027 H 
ATOM      9  H   LIG d   1       7.576  -0.265  -4.631  0.00  0.00     0.028 H 
ATOM     10  H   LIG d   1       6.287   0.695  -5.424  0.00  0.00     0.028 H 
ENDROOT
BRANCH   5  11
ATOM     11  C   LIG d   1       6.306  -2.298  -3.821  0.00  0.00    -0.052 C 
ATOM     12  H   LIG d   1       7.109  -1.965  -3.162  0.00  0.00     0.024 H 
ATOM     13  H   LIG d   1       5.606  -2.915  -3.257  0.00  0.00     0.024 H 
ATOM     14  H   LIG d   1       6.726  -2.880  -4.640  0.00  0.00     0.024 H 
ENDBRANCH   5  11
BRANCH   5  15
ATOM     15  C   LIG d   1       4.945  -1.423  -5.712  0.00  0.00     0.164 C 
ATOM     16  O   LIG d   1       4.417  -2.498  -5.872  0.00  0.00    -0.295 OA
BRANCH  15  17
ATOM     17  C   LIG d   1       4.977  -0.424  -6.840  0.00  0.00     0.128 C 
ATOM     18 BR   LIG d   1       6.317  -0.978  -8.168  0.00  0.00    -0.068 Br
ATOM     19 BR   LIG d   1       3.207  -0.340  -7.691  0.00  0.00    -0.068 Br
ATOM     20  H   LIG d   1       5.216   0.478  -6.481  0.00  0.00     0.062 H 
ENDBRANCH  15  17
ENDBRANCH   5  15
BRANCH   6  21
ATOM     21  C   LIG d   1       3.114  -0.646  -4.071  0.00  0.00    -0.059 C 
ATOM     22  H   LIG d   1       2.357  -0.291  -3.372  0.00  0.00     0.024 H 
ATOM     23  H   LIG d   1       3.127  -0.002  -4.950  0.00  0.00     0.024 H 
ATOM     24  H   LIG d   1       2.880  -1.667  -4.372  0.00  0.00     0.024 H 
ENDBRANCH   6  21
BRANCH   6  25
ATOM     25  C   LIG d   1       4.482  -1.517  -2.160  0.00  0.00    -0.059 C 
ATOM     26  H   LIG d   1       3.494  -1.960  -2.038  0.00  0.00     0.024 H 
ATOM     27  H   LIG d   1       5.221  -2.308  -2.285  0.00  0.00     0.024 H 
ATOM     28  H   LIG d   1       4.727  -0.927  -1.277  0.00  0.00     0.024 H 
ENDBRANCH   6  25
BRANCH   1  29
ATOM     29  C   LIG d   1       4.538   1.068  -1.516  0.00  0.00    -0.062 C 
ATOM     30  H   LIG d   1       4.393   0.111  -1.016  0.00  0.00     0.023 H 
ATOM     31  H   LIG d   1       5.371   1.598  -1.052  0.00  0.00     0.023 H 
ATOM     32  H   LIG d   1       3.631   1.667  -1.425  0.00  0.00     0.023 H 
ENDBRANCH   1  29
TORSDOF 6
ENDMDL
MODEL 2
REMARK VINA RESULT:      -4.8      1.909      2.846
REMARK  6 active torsions:
REMARK  status: ('A' for Active; 'I' for Inactive)
REMARK    1  A    between atoms: C_1  and  C_2 
REMARK    2  A    between atoms: C_6  and  C_10 
REMARK    3  A    between atoms: C_6  and  C_11 
REMARK    4  A    between atoms: C_7  and  C_8 
REMARK    5  A    between atoms: C_7  and  C_9 
REMARK    6  A    between atoms: C_11  and  C_13 
ROOT
ATOM      1  C   LIG d   1       4.284  -0.305  -2.140  0.00  0.00    -0.038 C 
ATOM      2  H   LIG d   1       4.225  -1.111  -1.410  0.00  0.00     0.030 H 
ATOM      3  C   LIG d   1       2.907  -0.073  -2.811  0.00  0.00    -0.049 C 
ATOM      4  C   LIG d   1       2.859  -1.187  -3.887  0.00  0.00    -0.040 C 
ATOM      5  C   LIG d   1       4.305  -1.261  -4.418  0.00  0.00     0.034 C 
ATOM      6  C   LIG d   1       5.211  -0.700  -3.307  0.00  0.00    -0.020 C 
ATOM      7  H   LIG d   1       2.100  -0.199  -2.088  0.00  0.00     0.027 H 
ATOM      8  H   LIG d   1       2.863   0.912  -3.273  0.00  0.00     0.027 H 
ATOM      9  H   LIG d   1       2.172  -0.914  -4.687  0.00  0.00     0.028 H 
ATOM     10  H   LIG d   1       2.568  -2.137  -3.439  0.00  0.00     0.028 H 
ENDROOT
BRANCH   5  11
ATOM     11  C   LIG d   1       4.442  -0.414  -5.684  0.00  0.00    -0.052 C 
ATOM     12  H   LIG d   1       4.412   0.644  -5.419  0.00  0.00     0.024 H 
ATOM     13  H   LIG d   1       5.392  -0.638  -6.171  0.00  0.00     0.024 H 
ATOM     14  H   LIG d   1       3.623  -0.641  -6.365  0.00  0.00     0.024 H 
ENDBRANCH   5  11
BRANCH   5  15
ATOM     15  C   LIG d   1       4.675  -2.693  -4.712  0.00  0.00     0.164 C 
ATOM     16  O   LIG d   1       4.293  -3.577  -3.982  0.00  0.00    -0.295 OA
BRANCH  15  17
ATOM     17  C   LIG d   1       5.519  -3.021  -5.916  0.00  0.00     0.128 C 
ATOM     18 BR   LIG d   1       6.916  -4.307  -5.405  0.00  0.00    -0.068 Br
ATOM     19 BR   LIG d   1       4.385  -3.807  -7.316  0.00  0.00    -0.068 Br
ATOM     20  H   LIG d   1       5.945  -2.186  -6.262  0.00  0.00     0.062 H 
ENDBRANCH  15  17
ENDBRANCH   5  15
BRANCH   6  21
ATOM     21  C   LIG d   1       6.204  -1.772  -2.850  0.00  0.00    -0.059 C 
ATOM     22  H   LIG d   1       6.622  -1.490  -1.884  0.00  0.00     0.024 H 
ATOM     23  H   LIG d   1       5.689  -2.728  -2.759  0.00  0.00     0.024 H 
ATOM     24  H   LIG d   1       7.006  -1.859  -3.582  0.00  0.00     0.024 H 
ENDBRANCH   6  21
BRANCH   6  25
ATOM     25  C   LIG d   1       5.967   0.528  -3.818  0.00  0.00    -0.059 C 
ATOM     26  H   LIG d   1       6.569   0.249  -4.683  0.00  0.00     0.024 H 
ATOM     27  H   LIG d   1       5.254   1.299  -4.107  0.00  0.00     0.024 H 
ATOM     28  H   LIG d   1       6.617   0.910  -3.031  0.00  0.00     0.024 H 
ENDBRANCH   6  25
BRANCH   1  29
ATOM     29  C   LIG d   1       4.779   0.981  -1.476  0.00  0.00    -0.062 C 
ATOM     30  H   LIG d   1       4.063   1.297  -0.717  0.00  0.00     0.023 H 
ATOM     31  H   LIG d   1       5.747   0.800  -1.009  0.00  0.00     0.023 H 
ATOM     32  H   LIG d   1       4.880   1.763  -2.229  0.00  0.00     0.023 H 
ENDBRANCH   1  29
TORSDOF 6
ENDMDL
MODEL 3
REMARK VINA RESULT:      -4.7      1.762      2.401
REMARK  6 active torsions:
REMARK  status: ('A' for Active; 'I' for Inactive)
REMARK    1  A    between atoms: C_1  and  C_2 
REMARK    2  A    between atoms: C_6  and  C_10 
REMARK    3  A    between atoms: C_6  and  C_11 
REMARK    4  A    between atoms: C_7  and  C_8 
REMARK    5  A    between atoms: C_7  and  C_9 
REMARK    6  A    between atoms: C_11  and  C_13 
ROOT
ATOM      1  C   LIG d   1       4.435   0.839  -3.457  0.00  0.00    -0.038 C 
ATOM      2  H   LIG d   1       5.054   1.217  -4.269  0.00  0.00     0.030 H 
ATOM      3  C   LIG d   1       5.311   0.424  -2.249  0.00  0.00    -0.049 C 
ATOM      4  C   LIG d   1       5.819  -0.981  -2.661  0.00  0.00    -0.040 C 
ATOM      5  C   LIG d   1       4.611  -1.625  -3.373  0.00  0.00     0.034 C 
ATOM      6  C   LIG d   1       3.731  -0.468  -3.879  0.00  0.00    -0.020 C 
ATOM      7  H   LIG d   1       6.146   1.115  -2.124  0.00  0.00     0.027 H 
ATOM      8  H   LIG d   1       4.715   0.368  -1.340  0.00  0.00     0.027 H 
ATOM      9  H   LIG d   1       6.095  -1.560  -1.779  0.00  0.00     0.028 H 
ATOM     10  H   LIG d   1       6.664  -0.896  -3.344  0.00  0.00     0.028 H 
ENDROOT
BRANCH   5  11
ATOM     11  C   LIG d   1       3.823  -2.490  -2.388  0.00  0.00    -0.052 C 
ATOM     12  H   LIG d   1       3.700  -3.492  -2.802  0.00  0.00     0.024 H 
ATOM     13  H   LIG d   1       4.365  -2.552  -1.444  0.00  0.00     0.024 H 
ATOM     14  H   LIG d   1       2.843  -2.046  -2.217  0.00  0.00     0.024 H 
ENDBRANCH   5  11
BRANCH   5  15
ATOM     15  C   LIG d   1       5.083  -2.461  -4.535  0.00  0.00     0.164 C 
ATOM     16  O   LIG d   1       4.367  -3.324  -4.987  0.00  0.00    -0.295 OA
BRANCH  15  17
ATOM     17  C   LIG d   1       6.444  -2.220  -5.133  0.00  0.00     0.128 C 
ATOM     18 BR   LIG d   1       7.692  -3.601  -4.498  0.00  0.00    -0.068 Br
ATOM     19 BR   LIG d   1       6.321  -2.300  -7.094  0.00  0.00    -0.068 Br
ATOM     20  H   LIG d   1       6.776  -1.319  -4.857  0.00  0.00     0.062 H 
ENDBRANCH  15  17
ENDBRANCH   5  15
BRANCH   6  21
ATOM     21  C   LIG d   1       3.610  -0.530  -5.403  0.00  0.00    -0.059 C 
ATOM     22  H   LIG d   1       2.601  -0.835  -5.676  0.00  0.00     0.024 H 
ATOM     23  H   LIG d   1       3.819   0.454  -5.824  0.00  0.00     0.024 H 
ATOM     24  H   LIG d   1       4.327  -1.252  -5.795  0.00  0.00     0.024 H 
ENDBRANCH   6  21
BRANCH   6  25
ATOM     25  C   LIG d   1       2.343  -0.547  -3.241  0.00  0.00    -0.059 C 
ATOM     26  H   LIG d   1       2.167   0.347  -2.642  0.00  0.00     0.024 H 
ATOM     27  H   LIG d   1       1.587  -0.615  -4.022  0.00  0.00     0.024 H 
ATOM     28  H   LIG d   1       2.286  -1.429  -2.603  0.00  0.00     0.024 H 
ENDBRANCH   6  25
BRANCH   1  29
ATOM     29  C   LIG d   1       3.405   1.888  -3.036  0.00  0.00    -0.062 C 
ATOM     30  H   LIG d   1       3.259   1.842  -1.957  0.00  0.00     0.023 H 
ATOM     31  H   LIG d   1       3.764   2.881  -3.312  0.00  0.00     0.023 H 
ATOM     32  H   LIG d   1       2.458   1.691  -3.539  0.00  0.00     0.023 H 
ENDBRANCH   1  29
TORSDOF 6
ENDMDL
MODEL 4
REMARK VINA RESULT:      -4.1      2.581      3.378
REMARK  6 active torsions:
REMARK  status: ('A' for Active; 'I' for Inactive)
REMARK    1  A    between atoms: C_1  and  C_2 
REMARK    2  A    between atoms: C_6  and  C_10 
REMARK    3  A    between atoms: C_6  and  C_11 
REMARK    4  A    between atoms: C_7  and  C_8 
REMARK    5  A    between atoms: C_7  and  C_9 
REMARK    6  A    between atoms: C_11  and  C_13 
ROOT
ATOM      1  C   LIG d   1       4.422  -0.295  -2.385  0.00  0.00    -0.038 C 
ATOM      2  H   LIG d   1       5.082  -0.281  -1.518  0.00  0.00     0.030 H 
ATOM      3  C   LIG d   1       3.542  -1.570  -2.381  0.00  0.00    -0.049 C 
ATOM      4  C   LIG d   1       4.497  -2.646  -2.955  0.00  0.00    -0.040 C 
ATOM      5  C   LIG d   1       5.291  -1.902  -4.049  0.00  0.00     0.034 C 
ATOM      6  C   LIG d   1       5.244  -0.407  -3.686  0.00  0.00    -0.020 C 
ATOM      7  H   LIG d   1       3.238  -1.825  -1.365  0.00  0.00     0.027 H 
ATOM      8  H   LIG d   1       2.673  -1.441  -3.025  0.00  0.00     0.027 H 
ATOM      9  H   LIG d   1       3.927  -3.468  -3.390  0.00  0.00     0.028 H 
ATOM     10  H   LIG d   1       5.168  -3.014  -2.180  0.00  0.00     0.028 H 
ENDROOT
BRANCH   5  11
ATOM     11  C   LIG d   1       4.642  -2.131  -5.415  0.00  0.00    -0.052 C 
ATOM     12  H   LIG d   1       4.611  -3.199  -5.630  0.00  0.00     0.024 H 
ATOM     13  H   LIG d   1       3.626  -1.734  -5.406  0.00  0.00     0.024 H 
ATOM     14  H   LIG d   1       5.223  -1.623  -6.183  0.00  0.00     0.024 H 
ENDBRANCH   5  11
BRANCH   5  15
ATOM     15  C   LIG d   1       6.719  -2.384  -4.068  0.00  0.00     0.164 C 
ATOM     16  O   LIG d   1       7.342  -2.467  -3.036  0.00  0.00    -0.295 OA
BRANCH  15  17
ATOM     17  C   LIG d   1       7.369  -2.762  -5.373  0.00  0.00     0.128 C 
ATOM     18 BR   LIG d   1       9.157  -1.951  -5.474  0.00  0.00    -0.068 Br
ATOM     19 BR   LIG d   1       7.530  -4.718  -5.481  0.00  0.00    -0.068 Br
ATOM     20  H   LIG d   1       6.810  -2.432  -6.133  0.00  0.00     0.062 H 
ENDBRANCH  15  17
ENDBRANCH   5  15
BRANCH   6  21
ATOM     21  C   LIG d   1       6.661   0.122  -3.459  0.00  0.00    -0.059 C 
ATOM     22  H   LIG d   1       6.765   0.452  -2.426  0.00  0.00     0.024 H 
ATOM     23  H   LIG d   1       7.381  -0.671  -3.661  0.00  0.00     0.024 H 
ATOM     24  H   LIG d   1       6.847   0.961  -4.129  0.00  0.00     0.024 H 
ENDBRANCH   6  21
BRANCH   6  25
ATOM     25  C   LIG d   1       4.564   0.383  -4.807  0.00  0.00    -0.059 C 
ATOM     26  H   LIG d   1       5.311   0.685  -5.541  0.00  0.00     0.024 H 
ATOM     27  H   LIG d   1       3.814  -0.243  -5.288  0.00  0.00     0.024 H 
ATOM     28  H   LIG d   1       4.085   1.269  -4.389  0.00  0.00     0.024 H 
ENDBRANCH   6  25
BRANCH   1  29
ATOM     29  C   LIG d   1       3.548   0.959  -2.411  0.00  0.00    -0.062 C 
ATOM     30  H   LIG d   1       4.182   1.846  -2.387  0.00  0.00     0.023 H 
ATOM     31  H   LIG d   1       2.949   0.966  -3.322  0.00  0.00     0.023 H 
ATOM     32  H   LIG d   1       2.888   0.961  -1.543  0.00  0.00     0.023 H 
ENDBRANCH   1  29
TORSDOF 6
ENDMDL
MODEL 5
REMARK VINA RESULT:      -4.1      2.573      3.643
REMARK  6 active torsions:
REMARK  status: ('A' for Active; 'I' for Inactive)
REMARK    1  A    between atoms: C_1  and  C_2 
REMARK    2  A    between atoms: C_6  and  C_10 
REMARK    3  A    between atoms: C_6  and  C_11 
REMARK    4  A    between atoms: C_7  and  C_8 
REMARK    5  A    between atoms: C_7  and  C_9 
REMARK    6  A    between atoms: C_11  and  C_13 
ROOT
ATOM      1  C   LIG d   1       5.016  -1.139  -2.326  0.00  0.00    -0.038 C 
ATOM      2  H   LIG d   1       5.785  -1.568  -1.685  0.00  0.00     0.030 H 
ATOM      3  C   LIG d   1       3.945  -2.201  -2.678  0.00  0.00    -0.049 C 
ATOM      4  C   LIG d   1       4.613  -2.993  -3.829  0.00  0.00    -0.040 C 
ATOM      5  C   LIG d   1       5.356  -1.917  -4.647  0.00  0.00     0.034 C 
ATOM      6  C   LIG d   1       5.612  -0.737  -3.691  0.00  0.00    -0.020 C 
ATOM      7  H   LIG d   1       3.750  -2.850  -1.824  0.00  0.00     0.027 H 
ATOM      8  H   LIG d   1       3.026  -1.725  -3.019  0.00  0.00     0.027 H 
ATOM      9  H   LIG d   1       3.858  -3.485  -4.443  0.00  0.00     0.028 H 
ATOM     10  H   LIG d   1       5.317  -3.723  -3.431  0.00  0.00     0.028 H 
ENDROOT
BRANCH   5  11
ATOM     11  C   LIG d   1       4.489  -1.460  -5.822  0.00  0.00    -0.052 C 
ATOM     12  H   LIG d   1       4.718  -0.420  -6.060  0.00  0.00     0.024 H 
ATOM     13  H   LIG d   1       4.696  -2.085  -6.690  0.00  0.00     0.024 H 
ATOM     14  H   LIG d   1       3.437  -1.547  -5.553  0.00  0.00     0.024 H 
ENDBRANCH   5  11
BRANCH   5  15
ATOM     15  C   LIG d   1       6.666  -2.464  -5.153  0.00  0.00     0.164 C 
ATOM     16  O   LIG d   1       7.253  -1.898  -6.044  0.00  0.00    -0.295 OA
BRANCH  15  17
ATOM     17  C   LIG d   1       7.243  -3.716  -4.546  0.00  0.00     0.128 C 
ATOM     18 BR   LIG d   1       6.940  -5.233  -5.760  0.00  0.00    -0.068 Br
ATOM     19 BR   LIG d   1       9.174  -3.479  -4.266  0.00  0.00    -0.068 Br
ATOM     20  H   LIG d   1       6.800  -3.898  -3.669  0.00  0.00     0.062 H 
ENDBRANCH  15  17
ENDBRANCH   5  15
BRANCH   6  21
ATOM     21  C   LIG d   1       7.116  -0.491  -3.554  0.00  0.00    -0.059 C 
ATOM     22  H   LIG d   1       7.660  -1.382  -3.867  0.00  0.00     0.024 H 
ATOM     23  H   LIG d   1       7.405   0.351  -4.183  0.00  0.00     0.024 H 
ATOM     24  H   LIG d   1       7.354  -0.266  -2.515  0.00  0.00     0.024 H 
ENDBRANCH   6  21
BRANCH   6  25
ATOM     25  C   LIG d   1       4.921   0.523  -4.217  0.00  0.00    -0.059 C 
ATOM     26  H   LIG d   1       4.351   0.986  -3.411  0.00  0.00     0.024 H 
ATOM     27  H   LIG d   1       5.672   1.224  -4.580  0.00  0.00     0.024 H 
ATOM     28  H   LIG d   1       4.248   0.256  -5.032  0.00  0.00     0.024 H 
ENDBRANCH   6  25
BRANCH   1  29
ATOM     29  C   LIG d   1       4.369   0.070  -1.649  0.00  0.00    -0.062 C 
ATOM     30  H   LIG d   1       5.073   0.903  -1.641  0.00  0.00     0.023 H 
ATOM     31  H   LIG d   1       3.473   0.358  -2.198  0.00  0.00     0.023 H 
ATOM     32  H   LIG d   1       4.100  -0.188  -0.624  0.00  0.00     0.023 H 
ENDBRANCH   1  29
TORSDOF 6
ENDMDL
MODEL 6
REMARK VINA RESULT:      -4.0      2.084      3.226
REMARK  6 active torsions:
REMARK  status: ('A' for Active; 'I' for Inactive)
REMARK    1  A    between atoms: C_1  and  C_2 
REMARK    2  A    between atoms: C_6  and  C_10 
REMARK    3  A    between atoms: C_6  and  C_11 
REMARK    4  A    between atoms: C_7  and  C_8 
REMARK    5  A    between atoms: C_7  and  C_9 
REMARK    6  A    between atoms: C_11  and  C_13 
ROOT
ATOM      1  C   LIG d   1       5.254  -1.577  -2.961  0.00  0.00    -0.038 C 
ATOM      2  H   LIG d   1       6.269  -1.766  -2.612  0.00  0.00     0.030 H 
ATOM      3  C   LIG d   1       4.770  -2.726  -3.880  0.00  0.00    -0.049 C 
ATOM      4  C   LIG d   1       5.419  -2.373  -5.242  0.00  0.00    -0.040 C 
ATOM      5  C   LIG d   1       5.323  -0.835  -5.317  0.00  0.00     0.034 C 
ATOM      6  C   LIG d   1       5.219  -0.329  -3.867  0.00  0.00    -0.020 C 
ATOM      7  H   LIG d   1       5.133  -3.689  -3.517  0.00  0.00     0.027 H 
ATOM      8  H   LIG d   1       3.683  -2.727  -3.958  0.00  0.00     0.027 H 
ATOM      9  H   LIG d   1       4.862  -2.830  -6.060  0.00  0.00     0.028 H 
ATOM     10  H   LIG d   1       6.460  -2.691  -5.262  0.00  0.00     0.028 H 
ENDROOT
BRANCH   5  11
ATOM     11  C   LIG d   1       4.078  -0.425  -6.106  0.00  0.00    -0.052 C 
ATOM     12  H   LIG d   1       4.342  -0.286  -7.155  0.00  0.00     0.024 H 
ATOM     13  H   LIG d   1       3.322  -1.207  -6.023  0.00  0.00     0.024 H 
ATOM     14  H   LIG d   1       3.683   0.507  -5.704  0.00  0.00     0.024 H 
ENDBRANCH   5  11
BRANCH   5  15
ATOM     15  C   LIG d   1       6.559  -0.272  -5.972  0.00  0.00     0.164 C 
ATOM     16  O   LIG d   1       6.559   0.864  -6.385  0.00  0.00    -0.295 OA
BRANCH  15  17
ATOM     17  C   LIG d   1       7.793  -1.124  -6.109  0.00  0.00     0.128 C 
ATOM     18 BR   LIG d   1       7.959  -1.742  -7.968  0.00  0.00    -0.068 Br
ATOM     19 BR   LIG d   1       9.378  -0.064  -5.628  0.00  0.00    -0.068 Br
ATOM     20  H   LIG d   1       7.723  -1.914  -5.500  0.00  0.00     0.062 H 
ENDBRANCH  15  17
ENDBRANCH   5  15
BRANCH   6  21
ATOM     21  C   LIG d   1       6.401   0.587  -3.545  0.00  0.00    -0.059 C 
ATOM     22  H   LIG d   1       6.073   1.625  -3.566  0.00  0.00     0.024 H 
ATOM     23  H   LIG d   1       6.786   0.347  -2.554  0.00  0.00     0.024 H 
ATOM     24  H   LIG d   1       7.187   0.439  -4.285  0.00  0.00     0.024 H 
ENDBRANCH   6  21
BRANCH   6  25
ATOM     25  C   LIG d   1       3.903   0.427  -3.669  0.00  0.00    -0.059 C 
ATOM     26  H   LIG d   1       3.844   0.791  -2.644  0.00  0.00     0.024 H 
ATOM     27  H   LIG d   1       3.862   1.271  -4.357  0.00  0.00     0.024 H 
ATOM     28  H   LIG d   1       3.065  -0.243  -3.866  0.00  0.00     0.024 H 
ENDBRANCH   6  25
BRANCH   1  29
ATOM     29  C   LIG d   1       4.305  -1.404  -1.775  0.00  0.00    -0.062 C 
ATOM     30  H   LIG d   1       3.528  -0.683  -2.032  0.00  0.00     0.023 H 
ATOM     31  H   LIG d   1       3.844  -2.363  -1.535  0.00  0.00     0.023 H 
ATOM     32  H   LIG d   1       4.863  -1.043  -0.911  0.00  0.00     0.023 H 
ENDBRANCH   1  29
TORSDOF 6
ENDMDL
MODEL 7
REMARK VINA RESULT:      -4.0      2.874      4.869
REMARK  6 active torsions:
REMARK  status: ('A' for Active; 'I' for Inactive)
REMARK    1  A    between atoms: C_1  and  C_2 
REMARK    2  A    between atoms: C_6  and  C_10 
REMARK    3  A    between atoms: C_6  and  C_11 
REMARK    4  A    between atoms: C_7  and  C_8 
REMARK    5  A    between atoms: C_7  and  C_9 
REMARK    6  A    between atoms: C_11  and  C_13 
ROOT
ATOM      1  C   LIG d   1       2.700  -0.992  -8.387  0.00  0.00    -0.038 C 
ATOM      2  H   LIG d   1       2.009  -1.545  -7.752  0.00  0.00     0.030 H 
ATOM      3  C   LIG d   1       3.805  -1.930  -8.935  0.00  0.00    -0.049 C 
ATOM      4  C   LIG d   1       4.798  -2.018  -7.748  0.00  0.00    -0.040 C 
ATOM      5  C   LIG d   1       4.804  -0.595  -7.154  0.00  0.00     0.034 C 
ATOM      6  C   LIG d   1       3.470   0.057  -7.560  0.00  0.00    -0.020 C 
ATOM      7  H   LIG d   1       3.396  -2.912  -9.170  0.00  0.00     0.027 H 
ATOM      8  H   LIG d   1       4.286  -1.491  -9.808  0.00  0.00     0.027 H 
ATOM      9  H   LIG d   1       5.793  -2.289  -8.103  0.00  0.00     0.028 H 
ATOM     10  H   LIG d   1       4.446  -2.738  -7.010  0.00  0.00     0.028 H 
ENDROOT
BRANCH   5  11
ATOM     11  C   LIG d   1       5.975   0.206  -7.727  0.00  0.00    -0.052 C 
ATOM     12  H   LIG d   1       5.623   1.189  -8.044  0.00  0.00     0.024 H 
ATOM     13  H   LIG d   1       6.742   0.325  -6.962  0.00  0.00     0.024 H 
ATOM     14  H   LIG d   1       6.394  -0.322  -8.582  0.00  0.00     0.024 H 
ENDBRANCH   5  11
BRANCH   5  15
ATOM     15  C   LIG d   1       4.909  -0.662  -5.652  0.00  0.00     0.164 C 
ATOM     16  O   LIG d   1       5.237   0.317  -5.025  0.00  0.00    -0.295 OA
BRANCH  15  17
ATOM     17  C   LIG d   1       4.604  -1.950  -4.933  0.00  0.00     0.128 C 
ATOM     18 BR   LIG d   1       6.285  -2.876  -4.505  0.00  0.00    -0.068 Br
ATOM     19 BR   LIG d   1       3.632  -1.557  -3.270  0.00  0.00    -0.068 Br
ATOM     20  H   LIG d   1       4.041  -2.534  -5.517  0.00  0.00     0.062 H 
ENDBRANCH  15  17
ENDBRANCH   5  15
BRANCH   6  21
ATOM     21  C   LIG d   1       2.669   0.433  -6.312  0.00  0.00    -0.059 C 
ATOM     22  H   LIG d   1       3.307   0.986  -5.624  0.00  0.00     0.024 H 
ATOM     23  H   LIG d   1       1.820   1.053  -6.599  0.00  0.00     0.024 H 
ATOM     24  H   LIG d   1       2.310  -0.473  -5.825  0.00  0.00     0.024 H 
ENDBRANCH   6  21
BRANCH   6  25
ATOM     25  C   LIG d   1       3.734   1.304  -8.408  0.00  0.00    -0.059 C 
ATOM     26  H   LIG d   1       4.753   1.272  -8.794  0.00  0.00     0.024 H 
ATOM     27  H   LIG d   1       3.031   1.332  -9.240  0.00  0.00     0.024 H 
ATOM     28  H   LIG d   1       3.605   2.196  -7.794  0.00  0.00     0.024 H 
ENDBRANCH   6  25
BRANCH   1  29
ATOM     29  C   LIG d   1       1.949  -0.321  -9.538  0.00  0.00    -0.062 C 
ATOM     30  H   LIG d   1       0.875  -0.384  -9.357  0.00  0.00     0.023 H 
ATOM     31  H   LIG d   1       2.245   0.726  -9.604  0.00  0.00     0.023 H 
ATOM     32  H   LIG d   1       2.190  -0.827 -10.473  0.00  0.00     0.023 H 
ENDBRANCH   1  29
TORSDOF 6
ENDMDL
MODEL 8
REMARK VINA RESULT:      -4.0      1.736      2.658
REMARK  6 active torsions:
REMARK  status: ('A' for Active; 'I' for Inactive)
REMARK    1  A    between atoms: C_1  and  C_2 
REMARK    2  A    between atoms: C_6  and  C_10 
REMARK    3  A    between atoms: C_6  and  C_11 
REMARK    4  A    between atoms: C_7  and  C_8 
REMARK    5  A    between atoms: C_7  and  C_9 
REMARK    6  A    between atoms: C_11  and  C_13 
ROOT
ATOM      1  C   LIG d   1       3.798  -1.798  -3.636  0.00  0.00    -0.038 C 
ATOM      2  H   LIG d   1       3.044  -2.514  -3.957  0.00  0.00     0.030 H 
ATOM      3  C   LIG d   1       3.417  -0.365  -4.086  0.00  0.00    -0.049 C 
ATOM      4  C   LIG d   1       3.870  -0.340  -5.567  0.00  0.00    -0.040 C 
ATOM      5  C   LIG d   1       5.186  -1.145  -5.574  0.00  0.00     0.034 C 
ATOM      6  C   LIG d   1       5.140  -2.072  -4.345  0.00  0.00    -0.020 C 
ATOM      7  H   LIG d   1       2.341  -0.210  -4.008  0.00  0.00     0.027 H 
ATOM      8  H   LIG d   1       3.959   0.380  -3.504  0.00  0.00     0.027 H 
ATOM      9  H   LIG d   1       4.048   0.685  -5.894  0.00  0.00     0.028 H 
ATOM     10  H   LIG d   1       3.126  -0.820  -6.202  0.00  0.00     0.028 H 
ENDROOT
BRANCH   5  11
ATOM     11  C   LIG d   1       6.381  -0.196  -5.470  0.00  0.00    -0.052 C 
ATOM     12  H   LIG d   1       6.532   0.306  -6.426  0.00  0.00     0.024 H 
ATOM     13  H   LIG d   1       6.189   0.547  -4.696  0.00  0.00     0.024 H 
ATOM     14  H   LIG d   1       7.275  -0.764  -5.214  0.00  0.00     0.024 H 
ENDBRANCH   5  11
BRANCH   5  15
ATOM     15  C   LIG d   1       5.284  -1.965  -6.835  0.00  0.00     0.164 C 
ATOM     16  O   LIG d   1       6.333  -2.483  -7.138  0.00  0.00    -0.295 OA
BRANCH  15  17
ATOM     17  C   LIG d   1       4.075  -2.139  -7.716  0.00  0.00     0.128 C 
ATOM     18 BR   LIG d   1       4.258  -1.005  -9.311  0.00  0.00    -0.068 Br
ATOM     19 BR   LIG d   1       3.929  -4.021  -8.263  0.00  0.00    -0.068 Br
ATOM     20  H   LIG d   1       3.253  -1.875  -7.212  0.00  0.00     0.062 H 
ENDBRANCH  15  17
ENDBRANCH   5  15
BRANCH   6  21
ATOM     21  C   LIG d   1       5.209  -3.535  -4.790  0.00  0.00    -0.059 C 
ATOM     22  H   LIG d   1       4.694  -4.160  -4.061  0.00  0.00     0.024 H 
ATOM     23  H   LIG d   1       4.731  -3.641  -5.764  0.00  0.00     0.024 H 
ATOM     24  H   LIG d   1       6.252  -3.843  -4.861  0.00  0.00     0.024 H 
ENDBRANCH   6  21
BRANCH   6  25
ATOM     25  C   LIG d   1       6.306  -1.755  -3.406  0.00  0.00    -0.059 C 
ATOM     26  H   LIG d   1       6.040  -2.042  -2.389  0.00  0.00     0.024 H 
ATOM     27  H   LIG d   1       7.188  -2.312  -3.722  0.00  0.00     0.024 H 
ATOM     28  H   LIG d   1       6.520  -0.687  -3.439  0.00  0.00     0.024 H 
ENDBRANCH   6  25
BRANCH   1  29
ATOM     29  C   LIG d   1       3.975  -1.852  -2.118  0.00  0.00    -0.062 C 
ATOM     30  H   LIG d   1       3.595  -2.802  -1.741  0.00  0.00     0.023 H 
ATOM     31  H   LIG d   1       5.034  -1.762  -1.871  0.00  0.00     0.023 H 
ATOM     32  H   LIG d   1       3.424  -1.032  -1.657  0.00  0.00     0.023 H 
ENDBRANCH   1  29
TORSDOF 6
ENDMDL
MODEL 9
REMARK VINA RESULT:      -3.9      2.599      4.387
REMARK  6 active torsions:
REMARK  status: ('A' for Active; 'I' for Inactive)
REMARK    1  A    between atoms: C_1  and  C_2 
REMARK    2  A    between atoms: C_6  and  C_10 
REMARK    3  A    between atoms: C_6  and  C_11 
REMARK    4  A    between atoms: C_7  and  C_8 
REMARK    5  A    between atoms: C_7  and  C_9 
REMARK    6  A    between atoms: C_11  and  C_13 
ROOT
ATOM      1  C   LIG d   1       6.977  -3.927  -4.958  0.00  0.00    -0.038 C 
ATOM      2  H   LIG d   1       6.382  -4.663  -4.420  0.00  0.00     0.030 H 
ATOM      3  C   LIG d   1       8.111  -3.378  -4.057  0.00  0.00    -0.049 C 
ATOM      4  C   LIG d   1       7.381  -2.317  -3.196  0.00  0.00    -0.040 C 
ATOM      5  C   LIG d   1       6.383  -1.661  -4.172  0.00  0.00     0.034 C 
ATOM      6  C   LIG d   1       6.126  -2.685  -5.293  0.00  0.00    -0.020 C 
ATOM      7  H   LIG d   1       8.521  -4.169  -3.428  0.00  0.00     0.027 H 
ATOM      8  H   LIG d   1       8.894  -2.916  -4.658  0.00  0.00     0.027 H 
ATOM      9  H   LIG d   1       8.089  -1.578  -2.820  0.00  0.00     0.028 H 
ATOM     10  H   LIG d   1       6.851  -2.793  -2.372  0.00  0.00     0.028 H 
ENDROOT
BRANCH   5  11
ATOM     11  C   LIG d   1       6.986  -0.383  -4.758  0.00  0.00    -0.052 C 
ATOM     12  H   LIG d   1       6.952   0.411  -4.012  0.00  0.00     0.024 H 
ATOM     13  H   LIG d   1       8.022  -0.568  -5.044  0.00  0.00     0.024 H 
ATOM     14  H   LIG d   1       6.416  -0.081  -5.636  0.00  0.00     0.024 H 
ENDBRANCH   5  11
BRANCH   5  15
ATOM     15  C   LIG d   1       5.094  -1.344  -3.458  0.00  0.00     0.164 C 
ATOM     16  O   LIG d   1       4.551  -2.190  -2.788  0.00  0.00    -0.295 OA
BRANCH  15  17
ATOM     17  C   LIG d   1       4.483   0.028  -3.579  0.00  0.00     0.128 C 
ATOM     18 BR   LIG d   1       2.613  -0.136  -4.163  0.00  0.00    -0.068 Br
ATOM     19 BR   LIG d   1       4.547   0.929  -1.833  0.00  0.00    -0.068 Br
ATOM     20  H   LIG d   1       4.996   0.564  -4.249  0.00  0.00     0.062 H 
ENDBRANCH  15  17
ENDBRANCH   5  15
BRANCH   6  21
ATOM     21  C   LIG d   1       4.643  -3.059  -5.331  0.00  0.00    -0.059 C 
ATOM     22  H   LIG d   1       4.445  -3.832  -4.589  0.00  0.00     0.024 H 
ATOM     23  H   LIG d   1       4.041  -2.179  -5.109  0.00  0.00     0.024 H 
ATOM     24  H   LIG d   1       4.389  -3.433  -6.322  0.00  0.00     0.024 H 
ENDBRANCH   6  21
BRANCH   6  25
ATOM     25  C   LIG d   1       6.553  -2.102  -6.642  0.00  0.00    -0.059 C 
ATOM     26  H   LIG d   1       6.392  -1.024  -6.639  0.00  0.00     0.024 H 
ATOM     27  H   LIG d   1       7.609  -2.311  -6.810  0.00  0.00     0.024 H 
ATOM     28  H   LIG d   1       5.963  -2.556  -7.438  0.00  0.00     0.024 H 
ENDBRANCH   6  25
BRANCH   1  29
ATOM     29  C   LIG d   1       7.557  -4.538  -6.235  0.00  0.00    -0.062 C 
ATOM     30  H   LIG d   1       8.634  -4.667  -6.120  0.00  0.00     0.023 H 
ATOM     31  H   LIG d   1       7.093  -5.507  -6.418  0.00  0.00     0.023 H 
ATOM     32  H   LIG d   1       7.359  -3.875  -7.078  0.00  0.00     0.023 H 
ENDBRANCH   1  29
TORSDOF 6
ENDMDL
