MODEL 1
REMARK VINA RESULT:      -7.7      0.000      0.000
REMARK  7 active torsions:
REMARK  status: ('A' for Active; 'I' for Inactive)
REMARK    1  A    between atoms: C_1  and  C_2 
REMARK    2  A    between atoms: C_13  and  O_15 
REMARK    3  A    between atoms: O_15  and  C_16 
REMARK    4  A    between atoms: C_16  and  C_18 
REMARK    5  A    between atoms: C_18  and  C_19 
REMARK    6  A    between atoms: C_19  and  C_20 
REMARK    7  A    between atoms: C_33  and  C_34 
ROOT
ATOM      1  C   LIG d   1       3.458  -0.630  -8.251  0.00  0.00     0.008 C 
ATOM      2  C   LIG d   1       4.200  -1.685  -7.460  0.00  0.00    -0.044 C 
ATOM      3  C   LIG d   1       5.347  -1.053  -6.678  0.00  0.00    -0.049 C 
ATOM      4  C   LIG d   1       6.327  -0.397  -7.662  0.00  0.00    -0.029 C 
ATOM      5  H   LIG d   1       6.717  -1.143  -8.355  0.00  0.00     0.031 H 
ATOM      6  C   LIG d   1       5.619   0.698  -8.438  0.00  0.00    -0.034 C 
ATOM      7  H   LIG d   1       5.285   1.460  -7.735  0.00  0.00     0.031 H 
ATOM      8  C   LIG d   1       4.391   0.157  -9.183  0.00  0.00    -0.029 C 
ATOM      9  H   LIG d   1       4.671  -0.413 -10.069  0.00  0.00     0.031 H 
ATOM     10  C   LIG d   1       3.507   1.403  -9.521  0.00  0.00    -0.046 C 
ATOM     11  C   LIG d   1       2.834   1.741  -8.173  0.00  0.00    -0.015 C 
ATOM     12  C   LIG d   1       2.811   0.434  -7.355  0.00  0.00     0.109 C 
ATOM     13  H   LIG d   1       1.783   0.156  -7.123  0.00  0.00     0.074 H 
ATOM     14  C   LIG d   1       6.520   1.362  -9.477  0.00  0.00    -0.046 C 
ATOM     15  C   LIG d   1       7.978   1.409  -9.045  0.00  0.00    -0.030 C 
ATOM     16  C   LIG d   1       8.055   1.390  -7.539  0.00  0.00    -0.060 C 
ATOM     17  C   LIG d   1       8.621   2.393  -6.875  0.00  0.00    -0.019 C 
ATOM     18  C   LIG d   1       8.688   2.387  -5.416  0.00  0.00     0.156 C 
ATOM     19  O   LIG d   1       9.230   3.300  -4.829  0.00  0.00    -0.293 OA
ATOM     20  C   LIG d   1       8.088   1.241  -4.638  0.00  0.00     0.011 C 
ATOM     21  C   LIG d   1       6.936   0.641  -5.455  0.00  0.00    -0.037 C 
ATOM     22  C   LIG d   1       7.474   0.202  -6.818  0.00  0.00    -0.007 C 
ATOM     23  H   LIG d   1       4.599  -2.434  -8.144  0.00  0.00     0.027 H 
ATOM     24  H   LIG d   1       3.511  -2.166  -6.765  0.00  0.00     0.027 H 
ATOM     25  H   LIG d   1       5.867  -1.823  -6.107  0.00  0.00     0.027 H 
ATOM     26  H   LIG d   1       4.953  -0.297  -5.998  0.00  0.00     0.027 H 
ATOM     27  H   LIG d   1       2.756   1.159 -10.274  0.00  0.00     0.027 H 
ATOM     28  H   LIG d   1       4.130   2.232  -9.858  0.00  0.00     0.027 H 
ATOM     29  H   LIG d   1       1.817   2.097  -8.341  0.00  0.00     0.030 H 
ATOM     30  H   LIG d   1       3.413   2.501  -7.648  0.00  0.00     0.030 H 
ATOM     31  H   LIG d   1       6.170   2.381  -9.646  0.00  0.00     0.027 H 
ATOM     32  H   LIG d   1       6.447   0.806 -10.411  0.00  0.00     0.027 H 
ATOM     33  H   LIG d   1       8.438   2.324  -9.420  0.00  0.00     0.031 H 
ATOM     34  H   LIG d   1       8.505   0.545  -9.448  0.00  0.00     0.031 H 
ATOM     35  H   LIG d   1       9.038   3.225  -7.424  0.00  0.00     0.065 H 
ATOM     36  H   LIG d   1       8.789   0.546  -4.475  0.00  0.00     0.035 H 
ATOM     37  H   LIG d   1       7.707   1.607  -3.685  0.00  0.00     0.035 H 
ATOM     38  H   LIG d   1       6.154   1.388  -5.594  0.00  0.00     0.028 H 
ATOM     39  H   LIG d   1       6.526  -0.222  -4.929  0.00  0.00     0.028 H 
ENDROOT
BRANCH  12  40
ATOM     40  O   LIG d   1       3.578   0.594  -6.133  0.00  0.00    -0.461 OA
BRANCH  40  41
ATOM     41  C   LIG d   1       2.891   0.887  -5.017  0.00  0.00     0.307 C 
ATOM     42  O   LIG d   1       2.516   2.019  -4.818  0.00  0.00    -0.251 OA
BRANCH  41  43
ATOM     43  C   LIG d   1       2.589  -0.195  -4.013  0.00  0.00     0.045 C 
ATOM     44  H   LIG d   1       1.510  -0.341  -3.949  0.00  0.00     0.038 H 
ATOM     45  H   LIG d   1       3.064  -1.124  -4.326  0.00  0.00     0.038 H 
BRANCH  43  46
ATOM     46  C   LIG d   1       3.129   0.218  -2.642  0.00  0.00    -0.040 C 
ATOM     47  H   LIG d   1       3.622   1.186  -2.722  0.00  0.00     0.027 H 
ATOM     48  H   LIG d   1       2.305   0.286  -1.932  0.00  0.00     0.027 H 
BRANCH  46  49
ATOM     49  C   LIG d   1       4.135  -0.828  -2.155  0.00  0.00    -0.041 C 
ATOM     50  C   LIG d   1       3.756  -2.217  -2.698  0.00  0.00    -0.050 C 
ATOM     51  C   LIG d   1       4.944  -2.692  -3.561  0.00  0.00    -0.053 C 
ATOM     52  H   LIG d   1       3.595  -2.910  -1.872  0.00  0.00     0.027 H 
ATOM     53  H   LIG d   1       2.855  -2.146  -3.309  0.00  0.00     0.027 H 
ATOM     54  C   LIG d   1       6.154  -1.897  -3.013  0.00  0.00    -0.053 C 
ATOM     55  H   LIG d   1       5.102  -3.763  -3.435  0.00  0.00     0.026 H 
ATOM     56  H   LIG d   1       4.772  -2.453  -4.611  0.00  0.00     0.026 H 
ATOM     57  C   LIG d   1       5.540  -0.507  -2.707  0.00  0.00    -0.050 C 
ATOM     58  H   LIG d   1       6.540  -2.358  -2.103  0.00  0.00     0.026 H 
ATOM     59  H   LIG d   1       6.938  -1.818  -3.766  0.00  0.00     0.026 H 
ATOM     60  H   LIG d   1       5.466   0.085  -3.618  0.00  0.00     0.027 H 
ATOM     61  H   LIG d   1       6.134   0.015  -1.958  0.00  0.00     0.027 H 
ATOM     62  H   LIG d   1       4.157  -0.846  -1.066  0.00  0.00     0.030 H 
ENDBRANCH  46  49
ENDBRANCH  43  46
ENDBRANCH  41  43
ENDBRANCH  40  41
ENDBRANCH  12  40
BRANCH   1  63
ATOM     63  C   LIG d   1       2.372  -1.306  -9.090  0.00  0.00    -0.056 C 
ATOM     64  H   LIG d   1       1.443  -1.343  -8.519  0.00  0.00     0.024 H 
ATOM     65  H   LIG d   1       2.213  -0.737 -10.006  0.00  0.00     0.024 H 
ATOM     66  H   LIG d   1       2.684  -2.319  -9.341  0.00  0.00     0.024 H 
ENDBRANCH   1  63
BRANCH  22  67
ATOM     67  C   LIG d   1       8.561  -0.856  -6.621  0.00  0.00    -0.056 C 
ATOM     68  H   LIG d   1       9.453  -0.569  -7.180  0.00  0.00     0.024 H 
ATOM     69  H   LIG d   1       8.805  -0.933  -5.561  0.00  0.00     0.024 H 
ATOM     70  H   LIG d   1       8.201  -1.819  -6.981  0.00  0.00     0.024 H 
ENDBRANCH  22  67
TORSDOF 7
ENDMDL
MODEL 2
REMARK VINA RESULT:      -7.5      2.022      5.856
REMARK  7 active torsions:
REMARK  status: ('A' for Active; 'I' for Inactive)
REMARK    1  A    between atoms: C_1  and  C_2 
REMARK    2  A    between atoms: C_13  and  O_15 
REMARK    3  A    between atoms: O_15  and  C_16 
REMARK    4  A    between atoms: C_16  and  C_18 
REMARK    5  A    between atoms: C_18  and  C_19 
REMARK    6  A    between atoms: C_19  and  C_20 
REMARK    7  A    between atoms: C_33  and  C_34 
ROOT
ATOM      1  C   LIG d   1       4.937   0.010  -2.813  0.00  0.00     0.008 C 
ATOM      2  C   LIG d   1       6.164   0.663  -3.409  0.00  0.00    -0.044 C 
ATOM      3  C   LIG d   1       6.381   0.179  -4.839  0.00  0.00    -0.049 C 
ATOM      4  C   LIG d   1       6.588  -1.343  -4.831  0.00  0.00    -0.029 C 
ATOM      5  H   LIG d   1       7.452  -1.599  -4.217  0.00  0.00     0.031 H 
ATOM      6  C   LIG d   1       5.351  -2.026  -4.278  0.00  0.00    -0.034 C 
ATOM      7  H   LIG d   1       4.510  -1.802  -4.935  0.00  0.00     0.031 H 
ATOM      8  C   LIG d   1       5.011  -1.522  -2.869  0.00  0.00    -0.029 C 
ATOM      9  H   LIG d   1       5.683  -1.934  -2.117  0.00  0.00     0.031 H 
ATOM     10  C   LIG d   1       3.516  -1.911  -2.621  0.00  0.00    -0.046 C 
ATOM     11  C   LIG d   1       2.732  -0.863  -3.441  0.00  0.00    -0.015 C 
ATOM     12  C   LIG d   1       3.651   0.369  -3.569  0.00  0.00     0.109 C 
ATOM     13  H   LIG d   1       3.177   1.239  -3.116  0.00  0.00     0.074 H 
ATOM     14  C   LIG d   1       5.504  -3.542  -4.190  0.00  0.00    -0.046 C 
ATOM     15  C   LIG d   1       6.389  -4.109  -5.291  0.00  0.00    -0.030 C 
ATOM     16  C   LIG d   1       6.353  -3.187  -6.485  0.00  0.00    -0.060 C 
ATOM     17  C   LIG d   1       5.919  -3.621  -7.664  0.00  0.00    -0.019 C 
ATOM     18  C   LIG d   1       5.870  -2.731  -8.822  0.00  0.00     0.156 C 
ATOM     19  O   LIG d   1       5.493  -3.151  -9.895  0.00  0.00    -0.293 OA
ATOM     20  C   LIG d   1       6.294  -1.289  -8.683  0.00  0.00     0.011 C 
ATOM     21  C   LIG d   1       6.052  -0.841  -7.235  0.00  0.00    -0.037 C 
ATOM     22  C   LIG d   1       6.825  -1.769  -6.297  0.00  0.00    -0.007 C 
ATOM     23  H   LIG d   1       7.037   0.408  -2.806  0.00  0.00     0.027 H 
ATOM     24  H   LIG d   1       6.034   1.745  -3.410  0.00  0.00     0.027 H 
ATOM     25  H   LIG d   1       7.264   0.664  -5.258  0.00  0.00     0.027 H 
ATOM     26  H   LIG d   1       5.507   0.425  -5.444  0.00  0.00     0.027 H 
ATOM     27  H   LIG d   1       3.261  -1.838  -1.563  0.00  0.00     0.027 H 
ATOM     28  H   LIG d   1       3.316  -2.916  -2.992  0.00  0.00     0.027 H 
ATOM     29  H   LIG d   1       1.813  -0.592  -2.921  0.00  0.00     0.030 H 
ATOM     30  H   LIG d   1       2.499  -1.261  -4.429  0.00  0.00     0.030 H 
ATOM     31  H   LIG d   1       4.517  -4.001  -4.262  0.00  0.00     0.027 H 
ATOM     32  H   LIG d   1       5.940  -3.796  -3.224  0.00  0.00     0.027 H 
ATOM     33  H   LIG d   1       6.021  -5.093  -5.582  0.00  0.00     0.031 H 
ATOM     34  H   LIG d   1       7.412  -4.195  -4.927  0.00  0.00     0.031 H 
ATOM     35  H   LIG d   1       5.597  -4.646  -7.768  0.00  0.00     0.065 H 
ATOM     36  H   LIG d   1       7.265  -1.204  -8.909  0.00  0.00     0.035 H 
ATOM     37  H   LIG d   1       5.706  -0.669  -9.359  0.00  0.00     0.035 H 
ATOM     38  H   LIG d   1       4.988  -0.894  -7.006  0.00  0.00     0.028 H 
ATOM     39  H   LIG d   1       6.403   0.183  -7.106  0.00  0.00     0.028 H 
ENDROOT
BRANCH  12  40
ATOM     40  O   LIG d   1       3.947   0.629  -4.966  0.00  0.00    -0.461 OA
BRANCH  40  41
ATOM     41  C   LIG d   1       2.942   1.089  -5.727  0.00  0.00     0.307 C 
ATOM     42  O   LIG d   1       2.213   1.956  -5.305  0.00  0.00    -0.251 OA
BRANCH  41  43
ATOM     43  C   LIG d   1       2.721   0.524  -7.107  0.00  0.00     0.045 C 
ATOM     44  H   LIG d   1       3.269  -0.413  -7.208  0.00  0.00     0.038 H 
ATOM     45  H   LIG d   1       1.657   0.341  -7.258  0.00  0.00     0.038 H 
BRANCH  43  46
ATOM     46  C   LIG d   1       3.220   1.523  -8.153  0.00  0.00    -0.040 C 
ATOM     47  H   LIG d   1       2.830   2.514  -7.924  0.00  0.00     0.027 H 
ATOM     48  H   LIG d   1       4.310   1.549  -8.139  0.00  0.00     0.027 H 
BRANCH  46  49
ATOM     49  C   LIG d   1       2.738   1.092  -9.540  0.00  0.00    -0.041 C 
ATOM     50  C   LIG d   1       3.729   1.572 -10.615  0.00  0.00    -0.050 C 
ATOM     51  C   LIG d   1       4.258   0.307 -11.322  0.00  0.00    -0.053 C 
ATOM     52  H   LIG d   1       3.219   2.214 -11.332  0.00  0.00     0.027 H 
ATOM     53  H   LIG d   1       4.554   2.111 -10.148  0.00  0.00     0.027 H 
ATOM     54  C   LIG d   1       3.157  -0.753 -11.080  0.00  0.00    -0.053 C 
ATOM     55  H   LIG d   1       4.383   0.491 -12.389  0.00  0.00     0.026 H 
ATOM     56  H   LIG d   1       5.201  -0.012 -10.878  0.00  0.00     0.026 H 
ATOM     57  C   LIG d   1       2.700  -0.448  -9.631  0.00  0.00    -0.050 C 
ATOM     58  H   LIG d   1       2.332  -0.621 -11.781  0.00  0.00     0.026 H 
ATOM     59  H   LIG d   1       3.566  -1.761 -11.155  0.00  0.00     0.026 H 
ATOM     60  H   LIG d   1       3.390  -0.890  -8.913  0.00  0.00     0.027 H 
ATOM     61  H   LIG d   1       1.688  -0.815  -9.465  0.00  0.00     0.027 H 
ATOM     62  H   LIG d   1       1.748   1.502  -9.735  0.00  0.00     0.030 H 
ENDBRANCH  46  49
ENDBRANCH  43  46
ENDBRANCH  41  43
ENDBRANCH  40  41
ENDBRANCH  12  40
BRANCH   1  63
ATOM     63  C   LIG d   1       4.796   0.448  -1.354  0.00  0.00    -0.056 C 
ATOM     64  H   LIG d   1       5.637   0.063  -0.776  0.00  0.00     0.024 H 
ATOM     65  H   LIG d   1       4.786   1.537  -1.300  0.00  0.00     0.024 H 
ATOM     66  H   LIG d   1       3.865   0.055  -0.945  0.00  0.00     0.024 H 
ENDBRANCH   1  63
BRANCH  22  67
ATOM     67  C   LIG d   1       8.320  -1.684  -6.611  0.00  0.00    -0.056 C 
ATOM     68  H   LIG d   1       8.894  -1.890  -5.707  0.00  0.00     0.024 H 
ATOM     69  H   LIG d   1       8.572  -2.419  -7.377  0.00  0.00     0.024 H 
ATOM     70  H   LIG d   1       8.559  -0.685  -6.973  0.00  0.00     0.024 H 
ENDBRANCH  22  67
TORSDOF 7
ENDMDL
MODEL 3
REMARK VINA RESULT:      -7.4      2.466      5.807
REMARK  7 active torsions:
REMARK  status: ('A' for Active; 'I' for Inactive)
REMARK    1  A    between atoms: C_1  and  C_2 
REMARK    2  A    between atoms: C_13  and  O_15 
REMARK    3  A    between atoms: O_15  and  C_16 
REMARK    4  A    between atoms: C_16  and  C_18 
REMARK    5  A    between atoms: C_18  and  C_19 
REMARK    6  A    between atoms: C_19  and  C_20 
REMARK    7  A    between atoms: C_33  and  C_34 
ROOT
ATOM      1  C   LIG d   1       6.383  -4.358  -6.246  0.00  0.00     0.008 C 
ATOM      2  C   LIG d   1       5.373  -4.822  -5.221  0.00  0.00    -0.044 C 
ATOM      3  C   LIG d   1       4.613  -3.631  -4.646  0.00  0.00    -0.049 C 
ATOM      4  C   LIG d   1       5.608  -2.681  -3.962  0.00  0.00    -0.029 C 
ATOM      5  H   LIG d   1       6.135  -3.204  -3.165  0.00  0.00     0.031 H 
ATOM      6  C   LIG d   1       6.607  -2.164  -4.980  0.00  0.00    -0.034 C 
ATOM      7  H   LIG d   1       6.067  -1.598  -5.739  0.00  0.00     0.031 H 
ATOM      8  C   LIG d   1       7.352  -3.314  -5.672  0.00  0.00    -0.029 C 
ATOM      9  H   LIG d   1       8.106  -3.759  -5.025  0.00  0.00     0.031 H 
ATOM     10  C   LIG d   1       7.960  -2.708  -6.981  0.00  0.00    -0.046 C 
ATOM     11  C   LIG d   1       6.744  -2.609  -7.929  0.00  0.00    -0.015 C 
ATOM     12  C   LIG d   1       5.729  -3.666  -7.450  0.00  0.00     0.109 C 
ATOM     13  H   LIG d   1       5.539  -4.390  -8.242  0.00  0.00     0.074 H 
ATOM     14  C   LIG d   1       7.663  -1.253  -4.359  0.00  0.00    -0.046 C 
ATOM     15  C   LIG d   1       7.127  -0.448  -3.184  0.00  0.00    -0.030 C 
ATOM     16  C   LIG d   1       5.637  -0.273  -3.336  0.00  0.00    -0.060 C 
ATOM     17  C   LIG d   1       5.102   0.941  -3.424  0.00  0.00    -0.019 C 
ATOM     18  C   LIG d   1       3.660   1.118  -3.584  0.00  0.00     0.156 C 
ATOM     19  O   LIG d   1       3.188   2.234  -3.638  0.00  0.00    -0.293 OA
ATOM     20  C   LIG d   1       2.758  -0.088  -3.674  0.00  0.00     0.011 C 
ATOM     21  C   LIG d   1       3.557  -1.259  -4.263  0.00  0.00    -0.037 C 
ATOM     22  C   LIG d   1       4.781  -1.511  -3.382  0.00  0.00    -0.007 C 
ATOM     23  H   LIG d   1       5.890  -5.343  -4.414  0.00  0.00     0.027 H 
ATOM     24  H   LIG d   1       4.667  -5.507  -5.693  0.00  0.00     0.027 H 
ATOM     25  H   LIG d   1       3.883  -3.981  -3.916  0.00  0.00     0.027 H 
ATOM     26  H   LIG d   1       4.100  -3.102  -5.451  0.00  0.00     0.027 H 
ATOM     27  H   LIG d   1       8.721  -3.366  -7.401  0.00  0.00     0.027 H 
ATOM     28  H   LIG d   1       8.375  -1.719  -6.786  0.00  0.00     0.027 H 
ATOM     29  H   LIG d   1       7.051  -2.821  -8.953  0.00  0.00     0.030 H 
ATOM     30  H   LIG d   1       6.305  -1.613  -7.869  0.00  0.00     0.030 H 
ATOM     31  H   LIG d   1       8.025  -0.562  -5.123  0.00  0.00     0.027 H 
ATOM     32  H   LIG d   1       8.496  -1.864  -4.016  0.00  0.00     0.027 H 
ATOM     33  H   LIG d   1       7.607   0.531  -3.165  0.00  0.00     0.031 H 
ATOM     34  H   LIG d   1       7.339  -0.976  -2.255  0.00  0.00     0.031 H 
ATOM     35  H   LIG d   1       5.742   1.809  -3.377  0.00  0.00     0.065 H 
ATOM     36  H   LIG d   1       2.426  -0.326  -2.761  0.00  0.00     0.035 H 
ATOM     37  H   LIG d   1       1.911   0.138  -4.323  0.00  0.00     0.035 H 
ATOM     38  H   LIG d   1       3.880  -1.013  -5.275  0.00  0.00     0.028 H 
ATOM     39  H   LIG d   1       2.933  -2.152  -4.286  0.00  0.00     0.028 H 
ENDROOT
BRANCH  12  40
ATOM     40  O   LIG d   1       4.491  -3.025  -7.047  0.00  0.00    -0.461 OA
BRANCH  40  41
ATOM     41  C   LIG d   1       3.860  -2.283  -7.970  0.00  0.00     0.307 C 
ATOM     42  O   LIG d   1       3.291  -2.821  -8.891  0.00  0.00    -0.251 OA
BRANCH  41  43
ATOM     43  C   LIG d   1       3.862  -0.780  -7.861  0.00  0.00     0.045 C 
ATOM     44  H   LIG d   1       4.284  -0.487  -6.899  0.00  0.00     0.038 H 
ATOM     45  H   LIG d   1       4.464  -0.358  -8.665  0.00  0.00     0.038 H 
BRANCH  43  46
ATOM     46  C   LIG d   1       2.427  -0.259  -7.970  0.00  0.00    -0.040 C 
ATOM     47  H   LIG d   1       1.763  -1.080  -8.239  0.00  0.00     0.027 H 
ATOM     48  H   LIG d   1       2.119   0.160  -7.012  0.00  0.00     0.027 H 
BRANCH  46  49
ATOM     49  C   LIG d   1       2.360   0.827  -9.046  0.00  0.00    -0.041 C 
ATOM     50  C   LIG d   1       2.861   2.166  -8.477  0.00  0.00    -0.050 C 
ATOM     51  C   LIG d   1       4.085   2.573  -9.323  0.00  0.00    -0.053 C 
ATOM     52  H   LIG d   1       2.081   2.922  -8.561  0.00  0.00     0.027 H 
ATOM     53  H   LIG d   1       3.153   2.042  -7.433  0.00  0.00     0.027 H 
ATOM     54  C   LIG d   1       3.884   1.830 -10.666  0.00  0.00    -0.053 C 
ATOM     55  H   LIG d   1       4.097   3.652  -9.481  0.00  0.00     0.026 H 
ATOM     56  H   LIG d   1       5.007   2.249  -8.840  0.00  0.00     0.026 H 
ATOM     57  C   LIG d   1       3.297   0.467 -10.219  0.00  0.00    -0.050 C 
ATOM     58  H   LIG d   1       3.178   2.364 -11.302  0.00  0.00     0.026 H 
ATOM     59  H   LIG d   1       4.836   1.693 -11.179  0.00  0.00     0.026 H 
ATOM     60  H   LIG d   1       4.092  -0.197  -9.882  0.00  0.00     0.027 H 
ATOM     61  H   LIG d   1       2.734   0.009 -11.030  0.00  0.00     0.027 H 
ATOM     62  H   LIG d   1       1.337   0.933  -9.405  0.00  0.00     0.030 H 
ENDBRANCH  46  49
ENDBRANCH  43  46
ENDBRANCH  41  43
ENDBRANCH  40  41
ENDBRANCH  12  40
BRANCH   1  63
ATOM     63  C   LIG d   1       7.186  -5.563  -6.739  0.00  0.00    -0.056 C 
ATOM     64  H   LIG d   1       6.859  -5.832  -7.744  0.00  0.00     0.024 H 
ATOM     65  H   LIG d   1       8.247  -5.312  -6.757  0.00  0.00     0.024 H 
ATOM     66  H   LIG d   1       7.024  -6.407  -6.067  0.00  0.00     0.024 H 
ENDBRANCH   1  63
BRANCH  22  67
ATOM     67  C   LIG d   1       4.326  -1.869  -1.966  0.00  0.00    -0.056 C 
ATOM     68  H   LIG d   1       3.470  -1.251  -1.692  0.00  0.00     0.024 H 
ATOM     69  H   LIG d   1       4.041  -2.921  -1.931  0.00  0.00     0.024 H 
ATOM     70  H   LIG d   1       5.141  -1.690  -1.266  0.00  0.00     0.024 H 
ENDBRANCH  22  67
TORSDOF 7
ENDMDL
MODEL 4
REMARK VINA RESULT:      -7.2      2.706      5.816
REMARK  7 active torsions:
REMARK  status: ('A' for Active; 'I' for Inactive)
REMARK    1  A    between atoms: C_1  and  C_2 
REMARK    2  A    between atoms: C_13  and  O_15 
REMARK    3  A    between atoms: O_15  and  C_16 
REMARK    4  A    between atoms: C_16  and  C_18 
REMARK    5  A    between atoms: C_18  and  C_19 
REMARK    6  A    between atoms: C_19  and  C_20 
REMARK    7  A    between atoms: C_33  and  C_34 
ROOT
ATOM      1  C   LIG d   1       3.926   1.482  -9.311  0.00  0.00     0.008 C 
ATOM      2  C   LIG d   1       2.421   1.331  -9.318  0.00  0.00    -0.044 C 
ATOM      3  C   LIG d   1       2.033  -0.111  -9.632  0.00  0.00    -0.049 C 
ATOM      4  C   LIG d   1       2.573  -0.487 -11.020  0.00  0.00    -0.029 C 
ATOM      5  H   LIG d   1       2.159   0.181 -11.775  0.00  0.00     0.031 H 
ATOM      6  C   LIG d   1       4.087  -0.388 -11.027  0.00  0.00    -0.034 C 
ATOM      7  H   LIG d   1       4.484  -1.102 -10.305  0.00  0.00     0.031 H 
ATOM      8  C   LIG d   1       4.561   1.016 -10.629  0.00  0.00    -0.029 C 
ATOM      9  H   LIG d   1       4.422   1.737 -11.434  0.00  0.00     0.031 H 
ATOM     10  C   LIG d   1       6.061   0.862 -10.210  0.00  0.00    -0.046 C 
ATOM     11  C   LIG d   1       5.977   0.234  -8.801  0.00  0.00    -0.015 C 
ATOM     12  C   LIG d   1       4.601   0.628  -8.228  0.00  0.00     0.109 C 
ATOM     13  H   LIG d   1       4.726   1.209  -7.315  0.00  0.00     0.074 H 
ATOM     14  C   LIG d   1       4.692  -0.698 -12.394  0.00  0.00    -0.046 C 
ATOM     15  C   LIG d   1       3.887  -1.727 -13.173  0.00  0.00    -0.030 C 
ATOM     16  C   LIG d   1       3.126  -2.602 -12.208  0.00  0.00    -0.060 C 
ATOM     17  C   LIG d   1       3.332  -3.915 -12.175  0.00  0.00    -0.019 C 
ATOM     18  C   LIG d   1       2.609  -4.768 -11.235  0.00  0.00     0.156 C 
ATOM     19  O   LIG d   1       2.793  -5.967 -11.237  0.00  0.00    -0.293 OA
ATOM     20  C   LIG d   1       1.627  -4.157 -10.266  0.00  0.00     0.011 C 
ATOM     21  C   LIG d   1       2.057  -2.713  -9.972  0.00  0.00    -0.037 C 
ATOM     22  C   LIG d   1       2.131  -1.943 -11.291  0.00  0.00    -0.007 C 
ATOM     23  H   LIG d   1       1.997   1.992 -10.075  0.00  0.00     0.027 H 
ATOM     24  H   LIG d   1       2.026   1.607  -8.340  0.00  0.00     0.027 H 
ATOM     25  H   LIG d   1       0.947  -0.206  -9.625  0.00  0.00     0.027 H 
ATOM     26  H   LIG d   1       2.463  -0.776  -8.882  0.00  0.00     0.027 H 
ATOM     27  H   LIG d   1       6.559   1.832 -10.168  0.00  0.00     0.027 H 
ATOM     28  H   LIG d   1       6.582   0.196 -10.897  0.00  0.00     0.027 H 
ATOM     29  H   LIG d   1       6.773   0.628  -8.168  0.00  0.00     0.030 H 
ATOM     30  H   LIG d   1       6.057  -0.851  -8.872  0.00  0.00     0.030 H 
ATOM     31  H   LIG d   1       5.705  -1.077 -12.252  0.00  0.00     0.027 H 
ATOM     32  H   LIG d   1       4.740   0.223 -12.973  0.00  0.00     0.027 H 
ATOM     33  H   LIG d   1       4.563  -2.344 -13.766  0.00  0.00     0.031 H 
ATOM     34  H   LIG d   1       3.186  -1.217 -13.833  0.00  0.00     0.031 H 
ATOM     35  H   LIG d   1       4.046  -4.358 -12.854  0.00  0.00     0.065 H 
ATOM     36  H   LIG d   1       0.712  -4.165 -10.669  0.00  0.00     0.035 H 
ATOM     37  H   LIG d   1       1.622  -4.732  -9.340  0.00  0.00     0.035 H 
ATOM     38  H   LIG d   1       3.037  -2.711  -9.493  0.00  0.00     0.028 H 
ATOM     39  H   LIG d   1       1.328  -2.241  -9.313  0.00  0.00     0.028 H 
ENDROOT
BRANCH  12  40
ATOM     40  O   LIG d   1       3.810  -0.561  -7.963  0.00  0.00    -0.461 OA
BRANCH  40  41
ATOM     41  C   LIG d   1       4.106  -1.254  -6.853  0.00  0.00     0.307 C 
ATOM     42  O   LIG d   1       4.259  -2.452  -6.912  0.00  0.00    -0.251 OA
BRANCH  41  43
ATOM     43  C   LIG d   1       4.246  -0.540  -5.533  0.00  0.00     0.045 C 
ATOM     44  H   LIG d   1       4.615  -1.237  -4.780  0.00  0.00     0.038 H 
ATOM     45  H   LIG d   1       4.950   0.285  -5.640  0.00  0.00     0.038 H 
BRANCH  43  46
ATOM     46  C   LIG d   1       2.883   0.004  -5.101  0.00  0.00    -0.040 C 
ATOM     47  H   LIG d   1       2.728   0.988  -5.544  0.00  0.00     0.027 H 
ATOM     48  H   LIG d   1       2.098  -0.674  -5.435  0.00  0.00     0.027 H 
BRANCH  46  49
ATOM     49  C   LIG d   1       2.841   0.119  -3.575  0.00  0.00    -0.041 C 
ATOM     50  C   LIG d   1       3.117  -1.253  -2.935  0.00  0.00    -0.050 C 
ATOM     51  C   LIG d   1       4.390  -1.091  -2.079  0.00  0.00    -0.053 C 
ATOM     52  H   LIG d   1       2.278  -1.546  -2.305  0.00  0.00     0.027 H 
ATOM     53  H   LIG d   1       3.282  -2.000  -3.712  0.00  0.00     0.027 H 
ATOM     54  C   LIG d   1       4.446   0.424  -1.764  0.00  0.00    -0.053 C 
ATOM     55  H   LIG d   1       4.306  -1.670  -1.159  0.00  0.00     0.026 H 
ATOM     56  H   LIG d   1       5.271  -1.398  -2.643  0.00  0.00     0.026 H 
ATOM     57  C   LIG d   1       3.956   1.067  -3.085  0.00  0.00    -0.050 C 
ATOM     58  H   LIG d   1       3.776   0.673  -0.941  0.00  0.00     0.026 H 
ATOM     59  H   LIG d   1       5.466   0.734  -1.536  0.00  0.00     0.026 H 
ATOM     60  H   LIG d   1       4.766   1.110  -3.812  0.00  0.00     0.027 H 
ATOM     61  H   LIG d   1       3.555   2.063  -2.900  0.00  0.00     0.027 H 
ATOM     62  H   LIG d   1       1.868   0.491  -3.256  0.00  0.00     0.030 H 
ENDBRANCH  46  49
ENDBRANCH  43  46
ENDBRANCH  41  43
ENDBRANCH  40  41
ENDBRANCH  12  40
BRANCH   1  63
ATOM     63  C   LIG d   1       4.281   2.952  -9.080  0.00  0.00    -0.056 C 
ATOM     64  H   LIG d   1       4.986   3.281  -9.844  0.00  0.00     0.024 H 
ATOM     65  H   LIG d   1       3.376   3.557  -9.135  0.00  0.00     0.024 H 
ATOM     66  H   LIG d   1       4.735   3.066  -8.095  0.00  0.00     0.024 H 
ENDBRANCH   1  63
BRANCH  22  67
ATOM     67  C   LIG d   1       0.752  -1.936 -11.956  0.00  0.00    -0.056 C 
ATOM     68  H   LIG d   1       0.485  -0.914 -12.228  0.00  0.00     0.024 H 
ATOM     69  H   LIG d   1       0.779  -2.556 -12.852  0.00  0.00     0.024 H 
ATOM     70  H   LIG d   1       0.012  -2.331 -11.261  0.00  0.00     0.024 H 
ENDBRANCH  22  67
TORSDOF 7
ENDMDL
MODEL 5
REMARK VINA RESULT:      -7.2      1.851      5.345
REMARK  7 active torsions:
REMARK  status: ('A' for Active; 'I' for Inactive)
REMARK    1  A    between atoms: C_1  and  C_2 
REMARK    2  A    between atoms: C_13  and  O_15 
REMARK    3  A    between atoms: O_15  and  C_16 
REMARK    4  A    between atoms: C_16  and  C_18 
REMARK    5  A    between atoms: C_18  and  C_19 
REMARK    6  A    between atoms: C_19  and  C_20 
REMARK    7  A    between atoms: C_33  and  C_34 
ROOT
ATOM      1  C   LIG d   1       6.081  -0.709  -8.695  0.00  0.00     0.008 C 
ATOM      2  C   LIG d   1       5.097  -1.790  -8.306  0.00  0.00    -0.044 C 
ATOM      3  C   LIG d   1       4.461  -1.469  -6.957  0.00  0.00    -0.049 C 
ATOM      4  C   LIG d   1       5.560  -1.394  -5.887  0.00  0.00    -0.029 C 
ATOM      5  H   LIG d   1       6.091  -2.345  -5.830  0.00  0.00     0.031 H 
ATOM      6  C   LIG d   1       6.538  -0.285  -6.230  0.00  0.00    -0.034 C 
ATOM      7  H   LIG d   1       5.999   0.662  -6.228  0.00  0.00     0.031 H 
ATOM      8  C   LIG d   1       7.154  -0.489  -7.620  0.00  0.00    -0.029 C 
ATOM      9  H   LIG d   1       7.909  -1.275  -7.620  0.00  0.00     0.031 H 
ATOM     10  C   LIG d   1       7.732   0.903  -8.044  0.00  0.00    -0.046 C 
ATOM     11  C   LIG d   1       6.477   1.701  -8.458  0.00  0.00    -0.015 C 
ATOM     12  C   LIG d   1       5.414   0.663  -8.869  0.00  0.00     0.109 C 
ATOM     13  H   LIG d   1       5.126   0.812  -9.910  0.00  0.00     0.074 H 
ATOM     14  C   LIG d   1       7.691  -0.187  -5.235  0.00  0.00    -0.046 C 
ATOM     15  C   LIG d   1       7.283  -0.576  -3.822  0.00  0.00    -0.030 C 
ATOM     16  C   LIG d   1       5.803  -0.341  -3.645  0.00  0.00    -0.060 C 
ATOM     17  C   LIG d   1       5.356   0.503  -2.721  0.00  0.00    -0.019 C 
ATOM     18  C   LIG d   1       3.925   0.746  -2.553  0.00  0.00     0.156 C 
ATOM     19  O   LIG d   1       3.536   1.502  -1.688  0.00  0.00    -0.293 OA
ATOM     20  C   LIG d   1       2.932   0.051  -3.451  0.00  0.00     0.011 C 
ATOM     21  C   LIG d   1       3.608  -0.246  -4.797  0.00  0.00    -0.037 C 
ATOM     22  C   LIG d   1       4.857  -1.091  -4.545  0.00  0.00    -0.007 C 
ATOM     23  H   LIG d   1       5.619  -2.745  -8.241  0.00  0.00     0.027 H 
ATOM     24  H   LIG d   1       4.317  -1.859  -9.065  0.00  0.00     0.027 H 
ATOM     25  H   LIG d   1       3.749  -2.251  -6.694  0.00  0.00     0.027 H 
ATOM     26  H   LIG d   1       3.945  -0.509  -7.016  0.00  0.00     0.027 H 
ATOM     27  H   LIG d   1       8.418   0.804  -8.886  0.00  0.00     0.027 H 
ATOM     28  H   LIG d   1       8.230   1.381  -7.201  0.00  0.00     0.027 H 
ATOM     29  H   LIG d   1       6.709   2.354  -9.300  0.00  0.00     0.030 H 
ATOM     30  H   LIG d   1       6.116   2.292  -7.615  0.00  0.00     0.030 H 
ATOM     31  H   LIG d   1       8.060   0.840  -5.224  0.00  0.00     0.027 H 
ATOM     32  H   LIG d   1       8.495  -0.845  -5.563  0.00  0.00     0.027 H 
ATOM     33  H   LIG d   1       7.835   0.031  -3.104  0.00  0.00     0.031 H 
ATOM     34  H   LIG d   1       7.507  -1.629  -3.656  0.00  0.00     0.031 H 
ATOM     35  H   LIG d   1       6.061   1.018  -2.085  0.00  0.00     0.065 H 
ATOM     36  H   LIG d   1       2.635  -0.802  -3.022  0.00  0.00     0.035 H 
ATOM     37  H   LIG d   1       2.070   0.698  -3.612  0.00  0.00     0.035 H 
ATOM     38  H   LIG d   1       3.891   0.689  -5.281  0.00  0.00     0.028 H 
ATOM     39  H   LIG d   1       2.918  -0.795  -5.439  0.00  0.00     0.028 H 
ENDROOT
BRANCH  12  40
ATOM     40  O   LIG d   1       4.251   0.767  -8.006  0.00  0.00    -0.461 OA
BRANCH  40  41
ATOM     41  C   LIG d   1       3.193   1.438  -8.488  0.00  0.00     0.307 C 
ATOM     42  O   LIG d   1       2.836   2.464  -7.958  0.00  0.00    -0.251 OA
BRANCH  41  43
ATOM     43  C   LIG d   1       2.450   0.912  -9.689  0.00  0.00     0.045 C 
ATOM     44  H   LIG d   1       1.693   1.636  -9.993  0.00  0.00     0.038 H 
ATOM     45  H   LIG d   1       3.151   0.754 -10.509  0.00  0.00     0.038 H 
BRANCH  43  46
ATOM     46  C   LIG d   1       1.775  -0.413  -9.331  0.00  0.00    -0.040 C 
ATOM     47  H   LIG d   1       2.352  -0.917  -8.556  0.00  0.00     0.027 H 
ATOM     48  H   LIG d   1       0.766  -0.221  -8.967  0.00  0.00     0.027 H 
BRANCH  46  49
ATOM     49  C   LIG d   1       1.706  -1.302 -10.575  0.00  0.00    -0.041 C 
ATOM     50  C   LIG d   1       2.769  -0.862 -11.597  0.00  0.00    -0.050 C 
ATOM     51  C   LIG d   1       3.705  -2.070 -11.807  0.00  0.00    -0.053 C 
ATOM     52  H   LIG d   1       2.292  -0.591 -12.539  0.00  0.00     0.027 H 
ATOM     53  H   LIG d   1       3.335  -0.015 -11.207  0.00  0.00     0.027 H 
ATOM     54  C   LIG d   1       2.842  -3.293 -11.411  0.00  0.00    -0.053 C 
ATOM     55  H   LIG d   1       4.008  -2.140 -12.852  0.00  0.00     0.026 H 
ATOM     56  H   LIG d   1       4.580  -1.992 -11.161  0.00  0.00     0.026 H 
ATOM     57  C   LIG d   1       2.033  -2.763 -10.200  0.00  0.00    -0.050 C 
ATOM     58  H   LIG d   1       2.176  -3.578 -12.225  0.00  0.00     0.026 H 
ATOM     59  H   LIG d   1       3.473  -4.133 -11.119  0.00  0.00     0.026 H 
ATOM     60  H   LIG d   1       2.637  -2.798  -9.294  0.00  0.00     0.027 H 
ATOM     61  H   LIG d   1       1.117  -3.338 -10.072  0.00  0.00     0.027 H 
ATOM     62  H   LIG d   1       0.714  -1.244 -11.021  0.00  0.00     0.030 H 
ENDBRANCH  46  49
ENDBRANCH  43  46
ENDBRANCH  41  43
ENDBRANCH  40  41
ENDBRANCH  12  40
BRANCH   1  63
ATOM     63  C   LIG d   1       6.763  -1.102 -10.007  0.00  0.00    -0.056 C 
ATOM     64  H   LIG d   1       6.174  -1.872 -10.507  0.00  0.00     0.024 H 
ATOM     65  H   LIG d   1       6.841  -0.227 -10.653  0.00  0.00     0.024 H 
ATOM     66  H   LIG d   1       7.760  -1.488  -9.796  0.00  0.00     0.024 H 
ENDBRANCH   1  63
BRANCH  22  67
ATOM     67  C   LIG d   1       4.456  -2.408  -3.877  0.00  0.00    -0.056 C 
ATOM     68  H   LIG d   1       4.901  -3.242  -4.421  0.00  0.00     0.024 H 
ATOM     69  H   LIG d   1       4.812  -2.416  -2.846  0.00  0.00     0.024 H 
ATOM     70  H   LIG d   1       3.371  -2.506  -3.887  0.00  0.00     0.024 H 
ENDBRANCH  22  67
TORSDOF 7
ENDMDL
MODEL 6
REMARK VINA RESULT:      -6.7      2.420      6.370
REMARK  7 active torsions:
REMARK  status: ('A' for Active; 'I' for Inactive)
REMARK    1  A    between atoms: C_1  and  C_2 
REMARK    2  A    between atoms: C_13  and  O_15 
REMARK    3  A    between atoms: O_15  and  C_16 
REMARK    4  A    between atoms: C_16  and  C_18 
REMARK    5  A    between atoms: C_18  and  C_19 
REMARK    6  A    between atoms: C_19  and  C_20 
REMARK    7  A    between atoms: C_33  and  C_34 
ROOT
ATOM      1  C   LIG d   1       6.448  -0.251  -4.746  0.00  0.00     0.008 C 
ATOM      2  C   LIG d   1       6.655   0.088  -6.205  0.00  0.00    -0.044 C 
ATOM      3  C   LIG d   1       5.947  -0.932  -7.092  0.00  0.00    -0.049 C 
ATOM      4  C   LIG d   1       6.533  -2.327  -6.822  0.00  0.00    -0.029 C 
ATOM      5  H   LIG d   1       7.602  -2.330  -7.033  0.00  0.00     0.031 H 
ATOM      6  C   LIG d   1       6.299  -2.711  -5.373  0.00  0.00    -0.034 C 
ATOM      7  H   LIG d   1       5.224  -2.755  -5.196  0.00  0.00     0.031 H 
ATOM      8  C   LIG d   1       6.904  -1.679  -4.413  0.00  0.00    -0.029 C 
ATOM      9  H   LIG d   1       7.989  -1.765  -4.353  0.00  0.00     0.031 H 
ATOM     10  C   LIG d   1       6.203  -1.910  -3.032  0.00  0.00    -0.046 C 
ATOM     11  C   LIG d   1       4.813  -1.266  -3.224  0.00  0.00    -0.015 C 
ATOM     12  C   LIG d   1       4.971  -0.204  -4.331  0.00  0.00     0.109 C 
ATOM     13  H   LIG d   1       4.720   0.783  -3.944  0.00  0.00     0.074 H 
ATOM     14  C   LIG d   1       6.902  -4.067  -5.017  0.00  0.00    -0.046 C 
ATOM     15  C   LIG d   1       6.888  -5.041  -6.186  0.00  0.00    -0.030 C 
ATOM     16  C   LIG d   1       5.769  -4.675  -7.129  0.00  0.00    -0.060 C 
ATOM     17  C   LIG d   1       4.792  -5.537  -7.389  0.00  0.00    -0.019 C 
ATOM     18  C   LIG d   1       3.698  -5.186  -8.292  0.00  0.00     0.156 C 
ATOM     19  O   LIG d   1       2.828  -5.995  -8.536  0.00  0.00    -0.293 OA
ATOM     20  C   LIG d   1       3.654  -3.817  -8.925  0.00  0.00     0.011 C 
ATOM     21  C   LIG d   1       4.367  -2.822  -7.999  0.00  0.00    -0.037 C 
ATOM     22  C   LIG d   1       5.797  -3.309  -7.762  0.00  0.00    -0.007 C 
ATOM     23  H   LIG d   1       7.722   0.082  -6.429  0.00  0.00     0.027 H 
ATOM     24  H   LIG d   1       6.253   1.081  -6.406  0.00  0.00     0.027 H 
ATOM     25  H   LIG d   1       6.098  -0.671  -8.140  0.00  0.00     0.027 H 
ATOM     26  H   LIG d   1       4.880  -0.935  -6.865  0.00  0.00     0.027 H 
ATOM     27  H   LIG d   1       6.747  -1.415  -2.227  0.00  0.00     0.027 H 
ATOM     28  H   LIG d   1       6.107  -2.976  -2.828  0.00  0.00     0.027 H 
ATOM     29  H   LIG d   1       4.488  -0.794  -2.296  0.00  0.00     0.030 H 
ATOM     30  H   LIG d   1       4.091  -2.023  -3.531  0.00  0.00     0.030 H 
ATOM     31  H   LIG d   1       6.335  -4.499  -4.192  0.00  0.00     0.027 H 
ATOM     32  H   LIG d   1       7.933  -3.919  -4.696  0.00  0.00     0.027 H 
ATOM     33  H   LIG d   1       6.731  -6.054  -5.812  0.00  0.00     0.031 H 
ATOM     34  H   LIG d   1       7.840  -4.991  -6.713  0.00  0.00     0.031 H 
ATOM     35  H   LIG d   1       4.806  -6.513  -6.927  0.00  0.00     0.065 H 
ATOM     36  H   LIG d   1       4.113  -3.846  -9.814  0.00  0.00     0.035 H 
ATOM     37  H   LIG d   1       2.617  -3.510  -9.060  0.00  0.00     0.035 H 
ATOM     38  H   LIG d   1       3.840  -2.760  -7.047  0.00  0.00     0.028 H 
ATOM     39  H   LIG d   1       4.390  -1.838  -8.468  0.00  0.00     0.028 H 
ENDROOT
BRANCH  12  40
ATOM     40  O   LIG d   1       4.123  -0.531  -5.463  0.00  0.00    -0.461 OA
BRANCH  40  41
ATOM     41  C   LIG d   1       3.095   0.295  -5.712  0.00  0.00     0.307 C 
ATOM     42  O   LIG d   1       2.672   1.014  -4.837  0.00  0.00    -0.251 OA
BRANCH  41  43
ATOM     43  C   LIG d   1       2.467   0.326  -7.082  0.00  0.00     0.045 C 
ATOM     44  H   LIG d   1       2.563  -0.655  -7.548  0.00  0.00     0.038 H 
ATOM     45  H   LIG d   1       1.411   0.583  -6.991  0.00  0.00     0.038 H 
BRANCH  43  46
ATOM     46  C   LIG d   1       3.175   1.372  -7.944  0.00  0.00    -0.040 C 
ATOM     47  H   LIG d   1       2.950   2.368  -7.564  0.00  0.00     0.027 H 
ATOM     48  H   LIG d   1       4.252   1.204  -7.909  0.00  0.00     0.027 H 
BRANCH  46  49
ATOM     49  C   LIG d   1       2.688   1.255  -9.390  0.00  0.00    -0.041 C 
ATOM     50  C   LIG d   1       3.789   1.726 -10.357  0.00  0.00    -0.050 C 
ATOM     51  C   LIG d   1       4.133   0.519 -11.254  0.00  0.00    -0.053 C 
ATOM     52  H   LIG d   1       3.423   2.552 -10.967  0.00  0.00     0.027 H 
ATOM     53  H   LIG d   1       4.671   2.037  -9.796  0.00  0.00     0.027 H 
ATOM     54  C   LIG d   1       2.863  -0.365 -11.206  0.00  0.00    -0.053 C 
ATOM     55  H   LIG d   1       4.332   0.847 -12.274  0.00  0.00     0.026 H 
ATOM     56  H   LIG d   1       4.991  -0.022 -10.854  0.00  0.00     0.026 H 
ATOM     57  C   LIG d   1       2.401  -0.222  -9.733  0.00  0.00    -0.050 C 
ATOM     58  H   LIG d   1       2.101   0.015 -11.888  0.00  0.00     0.026 H 
ATOM     59  H   LIG d   1       3.103  -1.402 -11.438  0.00  0.00     0.026 H 
ATOM     60  H   LIG d   1       2.979  -0.882  -9.087  0.00  0.00     0.027 H 
ATOM     61  H   LIG d   1       1.337  -0.433  -9.644  0.00  0.00     0.027 H 
ATOM     62  H   LIG d   1       1.788   1.853  -9.530  0.00  0.00     0.030 H 
ENDBRANCH  46  49
ENDBRANCH  43  46
ENDBRANCH  41  43
ENDBRANCH  40  41
ENDBRANCH  12  40
BRANCH   1  63
ATOM     63  C   LIG d   1       7.239   0.737  -3.886  0.00  0.00    -0.056 C 
ATOM     64  H   LIG d   1       8.273   0.400  -3.801  0.00  0.00     0.024 H 
ATOM     65  H   LIG d   1       7.216   1.723  -4.350  0.00  0.00     0.024 H 
ATOM     66  H   LIG d   1       6.793   0.793  -2.893  0.00  0.00     0.024 H 
ENDBRANCH   1  63
BRANCH  22  67
ATOM     67  C   LIG d   1       6.541  -3.382  -9.097  0.00  0.00    -0.056 C 
ATOM     68  H   LIG d   1       7.470  -2.815  -9.027  0.00  0.00     0.024 H 
ATOM     69  H   LIG d   1       6.766  -4.423  -9.331  0.00  0.00     0.024 H 
ATOM     70  H   LIG d   1       5.917  -2.959  -9.884  0.00  0.00     0.024 H 
ENDBRANCH  22  67
TORSDOF 7
ENDMDL
MODEL 7
REMARK VINA RESULT:      -6.7      2.073      6.033
REMARK  7 active torsions:
REMARK  status: ('A' for Active; 'I' for Inactive)
REMARK    1  A    between atoms: C_1  and  C_2 
REMARK    2  A    between atoms: C_13  and  O_15 
REMARK    3  A    between atoms: O_15  and  C_16 
REMARK    4  A    between atoms: C_16  and  C_18 
REMARK    5  A    between atoms: C_18  and  C_19 
REMARK    6  A    between atoms: C_19  and  C_20 
REMARK    7  A    between atoms: C_33  and  C_34 
ROOT
ATOM      1  C   LIG d   1       4.983  -0.969  -2.918  0.00  0.00     0.008 C 
ATOM      2  C   LIG d   1       5.424  -2.114  -3.803  0.00  0.00    -0.044 C 
ATOM      3  C   LIG d   1       5.523  -1.654  -5.255  0.00  0.00    -0.049 C 
ATOM      4  C   LIG d   1       4.143  -1.170  -5.726  0.00  0.00    -0.029 C 
ATOM      5  H   LIG d   1       3.415  -1.977  -5.641  0.00  0.00     0.031 H 
ATOM      6  C   LIG d   1       3.697   0.009  -4.882  0.00  0.00    -0.034 C 
ATOM      7  H   LIG d   1       4.408   0.824  -5.022  0.00  0.00     0.031 H 
ATOM      8  C   LIG d   1       3.660  -0.348  -3.390  0.00  0.00    -0.029 C 
ATOM      9  H   LIG d   1       2.799  -0.967  -3.140  0.00  0.00     0.031 H 
ATOM     10  C   LIG d   1       3.669   1.014  -2.619  0.00  0.00    -0.046 C 
ATOM     11  C   LIG d   1       5.141   1.471  -2.716  0.00  0.00    -0.015 C 
ATOM     12  C   LIG d   1       5.983   0.195  -2.915  0.00  0.00     0.109 C 
ATOM     13  H   LIG d   1       6.692   0.080  -2.095  0.00  0.00     0.074 H 
ATOM     14  C   LIG d   1       2.306   0.512  -5.259  0.00  0.00    -0.046 C 
ATOM     15  C   LIG d   1       2.002   0.341  -6.740  0.00  0.00    -0.030 C 
ATOM     16  C   LIG d   1       3.293   0.332  -7.519  0.00  0.00    -0.060 C 
ATOM     17  C   LIG d   1       3.528   1.245  -8.455  0.00  0.00    -0.019 C 
ATOM     18  C   LIG d   1       4.782   1.250  -9.205  0.00  0.00     0.156 C 
ATOM     19  O   LIG d   1       4.967   2.078 -10.072  0.00  0.00    -0.293 OA
ATOM     20  C   LIG d   1       5.844   0.221  -8.904  0.00  0.00     0.011 C 
ATOM     21  C   LIG d   1       5.714  -0.207  -7.436  0.00  0.00    -0.037 C 
ATOM     22  C   LIG d   1       4.301  -0.742  -7.202  0.00  0.00    -0.007 C 
ATOM     23  H   LIG d   1       4.699  -2.925  -3.731  0.00  0.00     0.027 H 
ATOM     24  H   LIG d   1       6.398  -2.473  -3.471  0.00  0.00     0.027 H 
ATOM     25  H   LIG d   1       5.850  -2.487  -5.879  0.00  0.00     0.027 H 
ATOM     26  H   LIG d   1       6.241  -0.837  -5.330  0.00  0.00     0.027 H 
ATOM     27  H   LIG d   1       3.378   0.878  -1.577  0.00  0.00     0.027 H 
ATOM     28  H   LIG d   1       3.011   1.732  -3.108  0.00  0.00     0.027 H 
ATOM     29  H   LIG d   1       5.437   1.976  -1.796  0.00  0.00     0.030 H 
ATOM     30  H   LIG d   1       5.268   2.140  -3.567  0.00  0.00     0.030 H 
ATOM     31  H   LIG d   1       2.233   1.570  -5.005  0.00  0.00     0.027 H 
ATOM     32  H   LIG d   1       1.565  -0.040  -4.682  0.00  0.00     0.027 H 
ATOM     33  H   LIG d   1       1.379   1.169  -7.081  0.00  0.00     0.031 H 
ATOM     34  H   LIG d   1       1.475  -0.599  -6.897  0.00  0.00     0.031 H 
ATOM     35  H   LIG d   1       2.780   1.995  -8.665  0.00  0.00     0.065 H 
ATOM     36  H   LIG d   1       5.720  -0.570  -9.503  0.00  0.00     0.035 H 
ATOM     37  H   LIG d   1       6.830   0.655  -9.071  0.00  0.00     0.035 H 
ATOM     38  H   LIG d   1       5.892   0.650  -6.785  0.00  0.00     0.028 H 
ATOM     39  H   LIG d   1       6.442  -0.989  -7.217  0.00  0.00     0.028 H 
ENDROOT
BRANCH  12  40
ATOM     40  O   LIG d   1       6.688   0.253  -4.183  0.00  0.00    -0.461 OA
BRANCH  40  41
ATOM     41  C   LIG d   1       7.967   0.659  -4.151  0.00  0.00     0.307 C 
ATOM     42  O   LIG d   1       8.852  -0.108  -4.452  0.00  0.00    -0.251 OA
BRANCH  41  43
ATOM     43  C   LIG d   1       8.300   2.070  -3.740  0.00  0.00     0.045 C 
ATOM     44  H   LIG d   1       7.417   2.539  -3.305  0.00  0.00     0.038 H 
ATOM     45  H   LIG d   1       9.103   2.053  -3.003  0.00  0.00     0.038 H 
BRANCH  43  46
ATOM     46  C   LIG d   1       8.750   2.866  -4.967  0.00  0.00    -0.040 C 
ATOM     47  H   LIG d   1       9.165   2.185  -5.709  0.00  0.00     0.027 H 
ATOM     48  H   LIG d   1       7.895   3.391  -5.392  0.00  0.00     0.027 H 
BRANCH  46  49
ATOM     49  C   LIG d   1       9.817   3.881  -4.552  0.00  0.00    -0.041 C 
ATOM     50  C   LIG d   1       9.502   5.258  -5.163  0.00  0.00    -0.050 C 
ATOM     51  C   LIG d   1       9.308   6.230  -3.981  0.00  0.00    -0.053 C 
ATOM     52  H   LIG d   1      10.332   5.589  -5.786  0.00  0.00     0.027 H 
ATOM     53  H   LIG d   1       8.587   5.202  -5.755  0.00  0.00     0.027 H 
ATOM     54  C   LIG d   1      10.090   5.575  -2.817  0.00  0.00    -0.053 C 
ATOM     55  H   LIG d   1       9.727   7.208  -4.220  0.00  0.00     0.026 H 
ATOM     56  H   LIG d   1       8.251   6.320  -3.730  0.00  0.00     0.026 H 
ATOM     57  C   LIG d   1       9.804   4.065  -3.019  0.00  0.00    -0.050 C 
ATOM     58  H   LIG d   1      11.157   5.781  -2.903  0.00  0.00     0.026 H 
ATOM     59  H   LIG d   1       9.710   5.916  -1.854  0.00  0.00     0.026 H 
ATOM     60  H   LIG d   1       8.828   3.804  -2.612  0.00  0.00     0.027 H 
ATOM     61  H   LIG d   1      10.586   3.463  -2.557  0.00  0.00     0.027 H 
ATOM     62  H   LIG d   1      10.800   3.544  -4.879  0.00  0.00     0.030 H 
ENDBRANCH  46  49
ENDBRANCH  43  46
ENDBRANCH  41  43
ENDBRANCH  40  41
ENDBRANCH  12  40
BRANCH   1  63
ATOM     63  C   LIG d   1       4.810  -1.482  -1.487  0.00  0.00    -0.056 C 
ATOM     64  H   LIG d   1       5.225  -2.488  -1.408  0.00  0.00     0.024 H 
ATOM     65  H   LIG d   1       5.331  -0.818  -0.797  0.00  0.00     0.024 H 
ATOM     66  H   LIG d   1       3.749  -1.507  -1.236  0.00  0.00     0.024 H 
ENDBRANCH   1  63
BRANCH  22  67
ATOM     67  C   LIG d   1       4.057  -1.952  -8.107  0.00  0.00    -0.056 C 
ATOM     68  H   LIG d   1       4.958  -2.161  -8.685  0.00  0.00     0.024 H 
ATOM     69  H   LIG d   1       3.809  -2.819  -7.494  0.00  0.00     0.024 H 
ATOM     70  H   LIG d   1       3.232  -1.738  -8.785  0.00  0.00     0.024 H 
ENDBRANCH  22  67
TORSDOF 7
ENDMDL
MODEL 8
REMARK VINA RESULT:      -6.6      2.621      4.474
REMARK  7 active torsions:
REMARK  status: ('A' for Active; 'I' for Inactive)
REMARK    1  A    between atoms: C_1  and  C_2 
REMARK    2  A    between atoms: C_13  and  O_15 
REMARK    3  A    between atoms: O_15  and  C_16 
REMARK    4  A    between atoms: C_16  and  C_18 
REMARK    5  A    between atoms: C_18  and  C_19 
REMARK    6  A    between atoms: C_19  and  C_20 
REMARK    7  A    between atoms: C_33  and  C_34 
ROOT
ATOM      1  C   LIG d   1       4.532   0.401  -8.097  0.00  0.00     0.008 C 
ATOM      2  C   LIG d   1       3.665  -0.185  -7.005  0.00  0.00    -0.044 C 
ATOM      3  C   LIG d   1       4.293  -1.462  -6.455  0.00  0.00    -0.049 C 
ATOM      4  C   LIG d   1       4.420  -2.491  -7.589  0.00  0.00    -0.029 C 
ATOM      5  H   LIG d   1       3.437  -2.711  -8.005  0.00  0.00     0.031 H 
ATOM      6  C   LIG d   1       5.324  -1.945  -8.678  0.00  0.00    -0.034 C 
ATOM      7  H   LIG d   1       6.316  -1.782  -8.256  0.00  0.00     0.031 H 
ATOM      8  C   LIG d   1       4.806  -0.607  -9.222  0.00  0.00    -0.029 C 
ATOM      9  H   LIG d   1       3.946  -0.739  -9.879  0.00  0.00     0.031 H 
ATOM     10  C   LIG d   1       6.020   0.065  -9.946  0.00  0.00    -0.046 C 
ATOM     11  C   LIG d   1       6.880   0.601  -8.781  0.00  0.00    -0.015 C 
ATOM     12  C   LIG d   1       5.923   0.810  -7.591  0.00  0.00     0.109 C 
ATOM     13  H   LIG d   1       5.920   1.857  -7.290  0.00  0.00     0.074 H 
ATOM     14  C   LIG d   1       5.455  -2.894  -9.867  0.00  0.00    -0.046 C 
ATOM     15  C   LIG d   1       5.373  -4.358  -9.460  0.00  0.00    -0.030 C 
ATOM     16  C   LIG d   1       5.814  -4.505  -8.026  0.00  0.00    -0.060 C 
ATOM     17  C   LIG d   1       6.856  -5.268  -7.711  0.00  0.00    -0.019 C 
ATOM     18  C   LIG d   1       7.297  -5.405  -6.325  0.00  0.00     0.156 C 
ATOM     19  O   LIG d   1       8.235  -6.125  -6.054  0.00  0.00    -0.293 OA
ATOM     20  C   LIG d   1       6.581  -4.656  -5.228  0.00  0.00     0.011 C 
ATOM     21  C   LIG d   1       5.972  -3.377  -5.821  0.00  0.00    -0.037 C 
ATOM     22  C   LIG d   1       5.038  -3.764  -6.969  0.00  0.00    -0.007 C 
ATOM     23  H   LIG d   1       2.679  -0.415  -7.412  0.00  0.00     0.027 H 
ATOM     24  H   LIG d   1       3.558   0.541  -6.199  0.00  0.00     0.027 H 
ATOM     25  H   LIG d   1       3.662  -1.868  -5.664  0.00  0.00     0.027 H 
ATOM     26  H   LIG d   1       5.283  -1.238  -6.054  0.00  0.00     0.027 H 
ATOM     27  H   LIG d   1       5.691   0.882 -10.589  0.00  0.00     0.027 H 
ATOM     28  H   LIG d   1       6.575  -0.675 -10.524  0.00  0.00     0.027 H 
ATOM     29  H   LIG d   1       7.341   1.549  -9.062  0.00  0.00     0.030 H 
ATOM     30  H   LIG d   1       7.649  -0.126  -8.520  0.00  0.00     0.030 H 
ATOM     31  H   LIG d   1       6.415  -2.717 -10.354  0.00  0.00     0.027 H 
ATOM     32  H   LIG d   1       4.656  -2.681 -10.576  0.00  0.00     0.027 H 
ATOM     33  H   LIG d   1       6.025  -4.950 -10.103  0.00  0.00     0.031 H 
ATOM     34  H   LIG d   1       4.346  -4.707  -9.564  0.00  0.00     0.031 H 
ATOM     35  H   LIG d   1       7.384  -5.794  -8.492  0.00  0.00     0.065 H 
ATOM     36  H   LIG d   1       5.859  -5.233  -4.846  0.00  0.00     0.035 H 
ATOM     37  H   LIG d   1       7.290  -4.391  -4.443  0.00  0.00     0.035 H 
ATOM     38  H   LIG d   1       6.765  -2.731  -6.197  0.00  0.00     0.028 H 
ATOM     39  H   LIG d   1       5.406  -2.852  -5.052  0.00  0.00     0.028 H 
ENDROOT
BRANCH  12  40
ATOM     40  O   LIG d   1       6.318  -0.033  -6.477  0.00  0.00    -0.461 OA
BRANCH  40  41
ATOM     41  C   LIG d   1       6.914   0.572  -5.437  0.00  0.00     0.307 C 
ATOM     42  O   LIG d   1       7.547   1.588  -5.611  0.00  0.00    -0.251 OA
BRANCH  41  43
ATOM     43  C   LIG d   1       6.796  -0.015  -4.054  0.00  0.00     0.045 C 
ATOM     44  H   LIG d   1       6.335  -1.001  -4.116  0.00  0.00     0.038 H 
ATOM     45  H   LIG d   1       7.788  -0.104  -3.612  0.00  0.00     0.038 H 
BRANCH  43  46
ATOM     46  C   LIG d   1       5.931   0.900  -3.185  0.00  0.00    -0.040 C 
ATOM     47  H   LIG d   1       6.572   1.509  -2.548  0.00  0.00     0.027 H 
ATOM     48  H   LIG d   1       5.331   1.548  -3.824  0.00  0.00     0.027 H 
BRANCH  46  49
ATOM     49  C   LIG d   1       5.006   0.048  -2.312  0.00  0.00    -0.041 C 
ATOM     50  C   LIG d   1       3.543   0.476  -2.519  0.00  0.00    -0.050 C 
ATOM     51  C   LIG d   1       2.795  -0.760  -3.062  0.00  0.00    -0.053 C 
ATOM     52  H   LIG d   1       3.107   0.789  -1.571  0.00  0.00     0.027 H 
ATOM     53  H   LIG d   1       3.491   1.291  -3.243  0.00  0.00     0.027 H 
ATOM     54  C   LIG d   1       3.647  -1.960  -2.583  0.00  0.00    -0.053 C 
ATOM     55  H   LIG d   1       1.791  -0.812  -2.641  0.00  0.00     0.026 H 
ATOM     56  H   LIG d   1       2.751  -0.731  -4.151  0.00  0.00     0.026 H 
ATOM     57  C   LIG d   1       5.097  -1.433  -2.735  0.00  0.00    -0.050 C 
ATOM     58  H   LIG d   1       3.430  -2.198  -1.542  0.00  0.00     0.026 H 
ATOM     59  H   LIG d   1       3.482  -2.830  -3.219  0.00  0.00     0.026 H 
ATOM     60  H   LIG d   1       5.425  -1.514  -3.771  0.00  0.00     0.027 H 
ATOM     61  H   LIG d   1       5.772  -1.977  -2.076  0.00  0.00     0.027 H 
ATOM     62  H   LIG d   1       5.281   0.154  -1.263  0.00  0.00     0.030 H 
ENDBRANCH  46  49
ENDBRANCH  43  46
ENDBRANCH  41  43
ENDBRANCH  40  41
ENDBRANCH  12  40
BRANCH   1  63
ATOM     63  C   LIG d   1       3.834   1.628  -8.686  0.00  0.00    -0.056 C 
ATOM     64  H   LIG d   1       3.428   2.238  -7.878  0.00  0.00     0.024 H 
ATOM     65  H   LIG d   1       4.552   2.215  -9.258  0.00  0.00     0.024 H 
ATOM     66  H   LIG d   1       3.024   1.306  -9.340  0.00  0.00     0.024 H 
ENDBRANCH   1  63
BRANCH  22  67
ATOM     67  C   LIG d   1       3.918  -4.661  -6.437  0.00  0.00    -0.056 C 
ATOM     68  H   LIG d   1       4.353  -5.525  -5.934  0.00  0.00     0.024 H 
ATOM     69  H   LIG d   1       3.308  -4.098  -5.730  0.00  0.00     0.024 H 
ATOM     70  H   LIG d   1       3.297  -4.997  -7.266  0.00  0.00     0.024 H 
ENDBRANCH  22  67
TORSDOF 7
ENDMDL
MODEL 9
REMARK VINA RESULT:      -6.5      3.546      6.288
REMARK  7 active torsions:
REMARK  status: ('A' for Active; 'I' for Inactive)
REMARK    1  A    between atoms: C_1  and  C_2 
REMARK    2  A    between atoms: C_13  and  O_15 
REMARK    3  A    between atoms: O_15  and  C_16 
REMARK    4  A    between atoms: C_16  and  C_18 
REMARK    5  A    between atoms: C_18  and  C_19 
REMARK    6  A    between atoms: C_19  and  C_20 
REMARK    7  A    between atoms: C_33  and  C_34 
ROOT
ATOM      1  C   LIG d   1      10.680   1.322  -6.120  0.00  0.00     0.008 C 
ATOM      2  C   LIG d   1       9.930   0.378  -7.034  0.00  0.00    -0.044 C 
ATOM      3  C   LIG d   1       9.577  -0.909  -6.294  0.00  0.00    -0.049 C 
ATOM      4  C   LIG d   1      10.871  -1.596  -5.832  0.00  0.00    -0.029 C 
ATOM      5  H   LIG d   1      11.501  -1.823  -6.692  0.00  0.00     0.031 H 
ATOM      6  C   LIG d   1      11.622  -0.687  -4.877  0.00  0.00    -0.034 C 
ATOM      7  H   LIG d   1      10.998  -0.515  -4.000  0.00  0.00     0.031 H 
ATOM      8  C   LIG d   1      11.935   0.671  -5.520  0.00  0.00    -0.029 C 
ATOM      9  H   LIG d   1      12.751   0.603  -6.238  0.00  0.00     0.031 H 
ATOM     10  C   LIG d   1      12.250   1.646  -4.338  0.00  0.00    -0.046 C 
ATOM     11  C   LIG d   1      10.855   1.974  -3.762  0.00  0.00    -0.015 C 
ATOM     12  C   LIG d   1       9.846   1.758  -4.908  0.00  0.00     0.109 C 
ATOM     13  H   LIG d   1       9.322   2.687  -5.127  0.00  0.00     0.074 H 
ATOM     14  C   LIG d   1      12.949  -1.284  -4.415  0.00  0.00    -0.046 C 
ATOM     15  C   LIG d   1      12.908  -2.802  -4.316  0.00  0.00    -0.030 C 
ATOM     16  C   LIG d   1      11.487  -3.249  -4.077  0.00  0.00    -0.060 C 
ATOM     17  C   LIG d   1      11.166  -3.933  -2.984  0.00  0.00    -0.019 C 
ATOM     18  C   LIG d   1       9.790  -4.359  -2.739  0.00  0.00     0.156 C 
ATOM     19  O   LIG d   1       9.522  -5.003  -1.746  0.00  0.00    -0.293 OA
ATOM     20  C   LIG d   1       8.704  -4.003  -3.724  0.00  0.00     0.011 C 
ATOM     21  C   LIG d   1       9.094  -2.701  -4.439  0.00  0.00    -0.037 C 
ATOM     22  C   LIG d   1      10.452  -2.898  -5.114  0.00  0.00    -0.007 C 
ATOM     23  H   LIG d   1      10.554   0.139  -7.896  0.00  0.00     0.027 H 
ATOM     24  H   LIG d   1       9.014   0.859  -7.378  0.00  0.00     0.027 H 
ATOM     25  H   LIG d   1       9.030  -1.575  -6.962  0.00  0.00     0.027 H 
ATOM     26  H   LIG d   1       8.960  -0.673  -5.426  0.00  0.00     0.027 H 
ATOM     27  H   LIG d   1      12.739   2.553  -4.696  0.00  0.00     0.027 H 
ATOM     28  H   LIG d   1      12.867   1.150  -3.589  0.00  0.00     0.027 H 
ATOM     29  H   LIG d   1      10.823   3.011  -3.426  0.00  0.00     0.030 H 
ATOM     30  H   LIG d   1      10.628   1.305  -2.932  0.00  0.00     0.030 H 
ATOM     31  H   LIG d   1      13.197  -0.874  -3.436  0.00  0.00     0.027 H 
ATOM     32  H   LIG d   1      13.727  -0.999  -5.123  0.00  0.00     0.027 H 
ATOM     33  H   LIG d   1      13.535  -3.128  -3.487  0.00  0.00     0.031 H 
ATOM     34  H   LIG d   1      13.276  -3.236  -5.245  0.00  0.00     0.031 H 
ATOM     35  H   LIG d   1      11.934  -4.177  -2.265  0.00  0.00     0.065 H 
ATOM     36  H   LIG d   1       8.604  -4.742  -4.391  0.00  0.00     0.035 H 
ATOM     37  H   LIG d   1       7.763  -3.859  -3.194  0.00  0.00     0.035 H 
ATOM     38  H   LIG d   1       9.161  -1.889  -3.715  0.00  0.00     0.028 H 
ATOM     39  H   LIG d   1       8.344  -2.459  -5.192  0.00  0.00     0.028 H 
ENDROOT
BRANCH  12  40
ATOM     40  O   LIG d   1       8.899   0.717  -4.551  0.00  0.00    -0.461 OA
BRANCH  40  41
ATOM     41  C   LIG d   1       7.661   1.111  -4.214  0.00  0.00     0.307 C 
ATOM     42  O   LIG d   1       7.261   2.201  -4.550  0.00  0.00    -0.251 OA
BRANCH  41  43
ATOM     43  C   LIG d   1       6.769   0.194  -3.417  0.00  0.00     0.045 C 
ATOM     44  H   LIG d   1       6.312  -0.538  -4.083  0.00  0.00     0.038 H 
ATOM     45  H   LIG d   1       7.362  -0.322  -2.662  0.00  0.00     0.038 H 
BRANCH  43  46
ATOM     46  C   LIG d   1       5.675   1.016  -2.732  0.00  0.00    -0.040 C 
ATOM     47  H   LIG d   1       6.128   1.693  -2.010  0.00  0.00     0.027 H 
ATOM     48  H   LIG d   1       5.131   1.592  -3.481  0.00  0.00     0.027 H 
BRANCH  46  49
ATOM     49  C   LIG d   1       4.706   0.074  -2.012  0.00  0.00    -0.041 C 
ATOM     50  C   LIG d   1       3.270   0.314  -2.510  0.00  0.00    -0.050 C 
ATOM     51  C   LIG d   1       2.790  -1.015  -3.128  0.00  0.00    -0.053 C 
ATOM     52  H   LIG d   1       2.627   0.591  -1.675  0.00  0.00     0.027 H 
ATOM     53  H   LIG d   1       3.263   1.101  -3.265  0.00  0.00     0.027 H 
ATOM     54  C   LIG d   1       3.669  -2.091  -2.446  0.00  0.00    -0.053 C 
ATOM     55  H   LIG d   1       1.737  -1.182  -2.901  0.00  0.00     0.026 H 
ATOM     56  H   LIG d   1       2.952  -1.015  -4.206  0.00  0.00     0.026 H 
ATOM     57  C   LIG d   1       5.049  -1.393  -2.346  0.00  0.00    -0.050 C 
ATOM     58  H   LIG d   1       3.286  -2.332  -1.454  0.00  0.00     0.026 H 
ATOM     59  H   LIG d   1       3.731  -2.988  -3.062  0.00  0.00     0.026 H 
ATOM     60  H   LIG d   1       5.577  -1.454  -3.297  0.00  0.00     0.027 H 
ATOM     61  H   LIG d   1       5.644  -1.836  -1.548  0.00  0.00     0.027 H 
ATOM     62  H   LIG d   1       4.760   0.236  -0.936  0.00  0.00     0.030 H 
ENDBRANCH  46  49
ENDBRANCH  43  46
ENDBRANCH  41  43
ENDBRANCH  40  41
ENDBRANCH  12  40
BRANCH   1  63
ATOM     63  C   LIG d   1      11.094   2.562  -6.914  0.00  0.00    -0.056 C 
ATOM     64  H   LIG d   1      11.301   2.281  -7.947  0.00  0.00     0.024 H 
ATOM     65  H   LIG d   1      10.287   3.295  -6.891  0.00  0.00     0.024 H 
ATOM     66  H   LIG d   1      11.991   2.995  -6.470  0.00  0.00     0.024 H 
ENDBRANCH   1  63
BRANCH  22  67
ATOM     67  C   LIG d   1      10.354  -4.030  -6.139  0.00  0.00    -0.056 C 
ATOM     68  H   LIG d   1       9.310  -4.319  -6.262  0.00  0.00     0.024 H 
ATOM     69  H   LIG d   1      10.753  -3.690  -7.094  0.00  0.00     0.024 H 
ATOM     70  H   LIG d   1      10.929  -4.888  -5.790  0.00  0.00     0.024 H 
ENDBRANCH  22  67
TORSDOF 7
ENDMDL
