MODEL 1
REMARK VINA RESULT:      -5.4      0.000      0.000
REMARK  6 active torsions:
REMARK  status: ('A' for Active; 'I' for Inactive)
REMARK    1  A    between atoms: C_1  and  C_2 
REMARK    2  A    between atoms: C_20  and  C_28 
REMARK    3  A    between atoms: C_23  and  N_65 
REMARK    4  A    between atoms: C_26  and  N_65 
REMARK    5  A    between atoms: C_27  and  N_65 
REMARK    6  A    between atoms: C_30  and  N_67 
ROOT
ATOM      1  C   LIG d   1       6.059  -0.840  -4.397  0.00  0.00    -0.020 C 
ATOM      2  H   LIG d   1       5.808  -1.900  -4.358  0.00  0.00     0.085 H 
ATOM      3  C   LIG d   1       4.842   0.012  -4.773  0.00  0.00     0.013 C 
ATOM      4  H   LIG d   1       5.099   1.071  -4.819  0.00  0.00     0.036 H 
ATOM      5  C   LIG d   1       3.435  -0.193  -4.218  0.00  0.00    -0.044 C 
ATOM      6  C   LIG d   1       2.610   0.389  -5.430  0.00  0.00    -0.049 C 
ATOM      7  C   LIG d   1       3.281  -0.324  -6.582  0.00  0.00    -0.027 C 
ATOM      8  H   LIG d   1       2.918  -1.333  -6.383  0.00  0.00     0.031 H 
ATOM      9  C   LIG d   1       4.697  -0.618  -6.208  0.00  0.00     0.022 C 
ATOM     10  C   LIG d   1       4.732  -2.165  -6.253  0.00  0.00    -0.042 C 
ATOM     11  C   LIG d   1       3.968  -2.540  -7.551  0.00  0.00    -0.048 C 
ATOM     12  C   LIG d   1       4.013  -1.382  -8.560  0.00  0.00    -0.029 C 
ATOM     13  H   LIG d   1       5.028  -0.988  -8.628  0.00  0.00     0.031 H 
ATOM     14  C   LIG d   1       3.045  -0.273  -8.027  0.00  0.00    -0.030 C 
ATOM     15  H   LIG d   1       2.022  -0.587  -8.234  0.00  0.00     0.031 H 
ATOM     16  C   LIG d   1       3.349   0.982  -8.814  0.00  0.00    -0.031 C 
ATOM     17  C   LIG d   1       3.067   0.650 -10.264  0.00  0.00    -0.084 C 
ATOM     18  C   LIG d   1       3.089  -0.559 -10.724  0.00  0.00    -0.062 C 
ATOM     19  C   LIG d   1       3.509  -1.788  -9.936  0.00  0.00    -0.008 C 
ATOM     20  C   LIG d   1       2.264  -2.682  -9.847  0.00  0.00    -0.039 C 
ATOM     21  C   LIG d   1       1.850  -3.051 -11.275  0.00  0.00    -0.009 C 
ATOM     22  C   LIG d   1       1.477  -1.810 -12.081  0.00  0.00    -0.018 C 
ATOM     23  H   LIG d   1       0.633  -1.313 -11.604  0.00  0.00     0.085 H 
ATOM     24  C   LIG d   1       2.662  -0.835 -12.157  0.00  0.00     0.012 C 
ATOM     25  C   LIG d   1       6.033  -0.182  -6.738  0.00  0.00    -0.025 C 
ATOM     26  H   LIG d   1       3.217  -1.250  -4.063  0.00  0.00     0.027 H 
ATOM     27  H   LIG d   1       3.275   0.383  -3.308  0.00  0.00     0.027 H 
ATOM     28  H   LIG d   1       2.736   1.469  -5.506  0.00  0.00     0.027 H 
ATOM     29  H   LIG d   1       1.556   0.120  -5.358  0.00  0.00     0.027 H 
ATOM     30  H   LIG d   1       5.762  -2.520  -6.303  0.00  0.00     0.027 H 
ATOM     31  H   LIG d   1       4.229  -2.581  -5.381  0.00  0.00     0.027 H 
ATOM     32  H   LIG d   1       4.428  -3.423  -7.996  0.00  0.00     0.027 H 
ATOM     33  H   LIG d   1       2.929  -2.762  -7.305  0.00  0.00     0.027 H 
ATOM     34  H   LIG d   1       4.396   1.257  -8.691  0.00  0.00     0.031 H 
ATOM     35  H   LIG d   1       2.705   1.798  -8.484  0.00  0.00     0.031 H 
ATOM     36  H   LIG d   1       2.835   1.457 -10.943  0.00  0.00     0.057 H 
ATOM     37  H   LIG d   1       2.497  -3.586  -9.285  0.00  0.00     0.028 H 
ATOM     38  H   LIG d   1       1.455  -2.141  -9.355  0.00  0.00     0.028 H 
ATOM     39  H   LIG d   1       0.992  -3.722 -11.237  0.00  0.00     0.032 H 
ATOM     40  H   LIG d   1       2.679  -3.561 -11.767  0.00  0.00     0.032 H 
ATOM     41  H   LIG d   1       3.483  -1.289 -12.711  0.00  0.00     0.036 H 
ATOM     42  H   LIG d   1       2.352   0.091 -12.639  0.00  0.00     0.036 H 
ATOM     43  H   LIG d   1       6.304  -0.748  -7.630  0.00  0.00     0.082 H 
ATOM     44  H   LIG d   1       6.042   0.890  -6.940  0.00  0.00     0.082 H 
ATOM     45  N   LIG d   1       6.933  -0.511  -5.580  0.00  0.00     0.236 N 
ATOM     46  H   LIG d   1       7.519   0.302  -5.358  0.00  0.00     0.203 HD
ENDROOT
BRANCH  22  47
ATOM     47  N   LIG d   1       1.073  -2.232 -13.439  0.00  0.00     0.233 N 
ATOM     48  H   LIG d   1       1.474  -1.581 -14.124  0.00  0.00     0.203 HD
BRANCH  47  49
ATOM     49  C   LIG d   1       1.578  -3.593 -13.715  0.00  0.00    -0.043 C 
ATOM     50  H   LIG d   1       0.865  -4.149 -14.324  0.00  0.00     0.078 H 
ATOM     51  H   LIG d   1       2.528  -3.518 -14.246  0.00  0.00     0.078 H 
ATOM     52  H   LIG d   1       1.732  -4.112 -12.769  0.00  0.00     0.078 H 
ENDBRANCH  47  49
BRANCH  47  53
ATOM     53  C   LIG d   1      -0.400  -2.205 -13.558  0.00  0.00    -0.043 C 
ATOM     54  H   LIG d   1      -0.798  -1.461 -12.868  0.00  0.00     0.078 H 
ATOM     55  H   LIG d   1      -0.668  -1.934 -14.579  0.00  0.00     0.078 H 
ATOM     56  H   LIG d   1      -0.821  -3.183 -13.320  0.00  0.00     0.078 H 
ENDBRANCH  47  53
ENDBRANCH  22  47
BRANCH  19  57
ATOM     57  C   LIG d   1       4.618  -2.524 -10.690  0.00  0.00    -0.056 C 
ATOM     58  H   LIG d   1       4.565  -2.275 -11.750  0.00  0.00     0.024 H 
ATOM     59  H   LIG d   1       5.588  -2.225 -10.294  0.00  0.00     0.024 H 
ATOM     60  H   LIG d   1       4.491  -3.600 -10.563  0.00  0.00     0.024 H 
ENDBRANCH  19  57
BRANCH   1  61
ATOM     61  C   LIG d   1       6.689  -0.369  -3.085  0.00  0.00    -0.021 C 
ATOM     62  H   LIG d   1       6.843  -1.225  -2.428  0.00  0.00     0.028 H 
ATOM     63  H   LIG d   1       7.647   0.107  -3.292  0.00  0.00     0.028 H 
ATOM     64  H   LIG d   1       6.025   0.347  -2.600  0.00  0.00     0.028 H 
ENDBRANCH   1  61
BRANCH  45  65
ATOM     65  C   LIG d   1       7.808  -1.663  -5.915  0.00  0.00    -0.043 C 
ATOM     66  H   LIG d   1       7.302  -2.306  -6.636  0.00  0.00     0.078 H 
ATOM     67  H   LIG d   1       8.740  -1.299  -6.344  0.00  0.00     0.078 H 
ATOM     68  H   LIG d   1       8.022  -2.232  -5.010  0.00  0.00     0.078 H 
ENDBRANCH  45  65
TORSDOF 6
ENDMDL
MODEL 2
REMARK VINA RESULT:      -5.4      4.815      6.647
REMARK  6 active torsions:
REMARK  status: ('A' for Active; 'I' for Inactive)
REMARK    1  A    between atoms: C_1  and  C_2 
REMARK    2  A    between atoms: C_20  and  C_28 
REMARK    3  A    between atoms: C_23  and  N_65 
REMARK    4  A    between atoms: C_26  and  N_65 
REMARK    5  A    between atoms: C_27  and  N_65 
REMARK    6  A    between atoms: C_30  and  N_67 
ROOT
ATOM      1  C   LIG d   1       5.382   0.342  -2.666  0.00  0.00    -0.020 C 
ATOM      2  H   LIG d   1       6.167  -0.003  -1.995  0.00  0.00     0.085 H 
ATOM      3  C   LIG d   1       4.526  -0.821  -3.177  0.00  0.00     0.013 C 
ATOM      4  H   LIG d   1       3.746  -0.473  -3.854  0.00  0.00     0.036 H 
ATOM      5  C   LIG d   1       4.032  -1.978  -2.312  0.00  0.00    -0.044 C 
ATOM      6  C   LIG d   1       3.918  -3.085  -3.430  0.00  0.00    -0.049 C 
ATOM      7  C   LIG d   1       5.259  -2.923  -4.108  0.00  0.00    -0.027 C 
ATOM      8  H   LIG d   1       5.893  -3.314  -3.312  0.00  0.00     0.031 H 
ATOM      9  C   LIG d   1       5.711  -1.507  -3.952  0.00  0.00     0.022 C 
ATOM     10  C   LIG d   1       7.020  -1.670  -3.141  0.00  0.00    -0.042 C 
ATOM     11  C   LIG d   1       7.756  -2.860  -3.812  0.00  0.00    -0.048 C 
ATOM     12  C   LIG d   1       7.309  -3.018  -5.274  0.00  0.00    -0.029 C 
ATOM     13  H   LIG d   1       7.299  -2.045  -5.766  0.00  0.00     0.031 H 
ATOM     14  C   LIG d   1       5.863  -3.618  -5.248  0.00  0.00    -0.030 C 
ATOM     15  H   LIG d   1       5.940  -4.681  -5.020  0.00  0.00     0.031 H 
ATOM     16  C   LIG d   1       5.299  -3.448  -6.641  0.00  0.00    -0.031 C 
ATOM     17  C   LIG d   1       6.208  -4.233  -7.563  0.00  0.00    -0.084 C 
ATOM     18  C   LIG d   1       7.439  -4.506  -7.270  0.00  0.00    -0.062 C 
ATOM     19  C   LIG d   1       8.182  -3.995  -6.048  0.00  0.00    -0.008 C 
ATOM     20  C   LIG d   1       8.529  -5.235  -5.212  0.00  0.00    -0.039 C 
ATOM     21  C   LIG d   1       9.422  -6.140  -6.068  0.00  0.00    -0.009 C 
ATOM     22  C   LIG d   1       8.691  -6.611  -7.322  0.00  0.00    -0.018 C 
ATOM     23  H   LIG d   1       7.811  -7.185  -7.029  0.00  0.00     0.085 H 
ATOM     24  C   LIG d   1       8.253  -5.415  -8.178  0.00  0.00     0.012 C 
ATOM     25  C   LIG d   1       5.983  -0.382  -4.909  0.00  0.00    -0.025 C 
ATOM     26  H   LIG d   1       4.767  -2.254  -1.555  0.00  0.00     0.027 H 
ATOM     27  H   LIG d   1       3.063  -1.758  -1.863  0.00  0.00     0.027 H 
ATOM     28  H   LIG d   1       3.099  -2.866  -4.115  0.00  0.00     0.027 H 
ATOM     29  H   LIG d   1       3.812  -4.079  -2.995  0.00  0.00     0.027 H 
ATOM     30  H   LIG d   1       7.623  -0.765  -3.208  0.00  0.00     0.027 H 
ATOM     31  H   LIG d   1       6.794  -1.900  -2.100  0.00  0.00     0.027 H 
ATOM     32  H   LIG d   1       8.830  -2.681  -3.782  0.00  0.00     0.027 H 
ATOM     33  H   LIG d   1       7.529  -3.777  -3.266  0.00  0.00     0.027 H 
ATOM     34  H   LIG d   1       5.302  -2.395  -6.921  0.00  0.00     0.031 H 
ATOM     35  H   LIG d   1       4.285  -3.846  -6.687  0.00  0.00     0.031 H 
ATOM     36  H   LIG d   1       5.812  -4.581  -8.506  0.00  0.00     0.057 H 
ATOM     37  H   LIG d   1       9.063  -4.935  -4.311  0.00  0.00     0.028 H 
ATOM     38  H   LIG d   1       7.616  -5.765  -4.940  0.00  0.00     0.028 H 
ATOM     39  H   LIG d   1       9.719  -7.009  -5.480  0.00  0.00     0.032 H 
ATOM     40  H   LIG d   1      10.314  -5.587  -6.361  0.00  0.00     0.032 H 
ATOM     41  H   LIG d   1       9.128  -4.883  -8.551  0.00  0.00     0.036 H 
ATOM     42  H   LIG d   1       7.639  -5.757  -9.011  0.00  0.00     0.036 H 
ATOM     43  H   LIG d   1       6.964  -0.492  -5.372  0.00  0.00     0.082 H 
ATOM     44  H   LIG d   1       5.201  -0.316  -5.666  0.00  0.00     0.082 H 
ATOM     45  N   LIG d   1       5.934   0.806  -3.990  0.00  0.00     0.236 N 
ATOM     46  H   LIG d   1       5.317   1.523  -4.387  0.00  0.00     0.203 HD
ENDROOT
BRANCH  22  47
ATOM     47  N   LIG d   1       9.595  -7.490  -8.094  0.00  0.00     0.233 N 
ATOM     48  H   LIG d   1       9.078  -7.888  -8.886  0.00  0.00     0.203 HD
BRANCH  47  49
ATOM     49  C   LIG d   1      10.739  -6.709  -8.609  0.00  0.00    -0.043 C 
ATOM     50  H   LIG d   1      10.983  -7.014  -9.626  0.00  0.00     0.078 H 
ATOM     51  H   LIG d   1      10.478  -5.650  -8.600  0.00  0.00     0.078 H 
ATOM     52  H   LIG d   1      11.600  -6.876  -7.962  0.00  0.00     0.078 H 
ENDBRANCH  47  49
BRANCH  47  53
ATOM     53  C   LIG d   1      10.080  -8.592  -7.236  0.00  0.00    -0.043 C 
ATOM     54  H   LIG d   1      10.052  -8.270  -6.195  0.00  0.00     0.078 H 
ATOM     55  H   LIG d   1       9.428  -9.456  -7.366  0.00  0.00     0.078 H 
ATOM     56  H   LIG d   1      11.101  -8.865  -7.505  0.00  0.00     0.078 H 
ENDBRANCH  47  53
ENDBRANCH  22  47
BRANCH  19  57
ATOM     57  C   LIG d   1       9.468  -3.293  -6.487  0.00  0.00    -0.056 C 
ATOM     58  H   LIG d   1      10.185  -3.301  -5.667  0.00  0.00     0.024 H 
ATOM     59  H   LIG d   1       9.891  -3.813  -7.346  0.00  0.00     0.024 H 
ATOM     60  H   LIG d   1       9.243  -2.262  -6.762  0.00  0.00     0.024 H 
ENDBRANCH  19  57
BRANCH   1  61
ATOM     61  C   LIG d   1       4.522   1.423  -2.008  0.00  0.00    -0.021 C 
ATOM     62  H   LIG d   1       5.060   2.371  -2.019  0.00  0.00     0.028 H 
ATOM     63  H   LIG d   1       3.587   1.529  -2.558  0.00  0.00     0.028 H 
ATOM     64  H   LIG d   1       4.307   1.139  -0.977  0.00  0.00     0.028 H 
ENDBRANCH   1  61
BRANCH  45  65
ATOM     65  C   LIG d   1       7.293   1.379  -3.812  0.00  0.00    -0.043 C 
ATOM     66  H   LIG d   1       7.832   1.336  -4.759  0.00  0.00     0.078 H 
ATOM     67  H   LIG d   1       7.211   2.416  -3.488  0.00  0.00     0.078 H 
ATOM     68  H   LIG d   1       7.834   0.805  -3.060  0.00  0.00     0.078 H 
ENDBRANCH  45  65
TORSDOF 6
ENDMDL
MODEL 3
REMARK VINA RESULT:      -5.4      1.413      7.266
REMARK  6 active torsions:
REMARK  status: ('A' for Active; 'I' for Inactive)
REMARK    1  A    between atoms: C_1  and  C_2 
REMARK    2  A    between atoms: C_20  and  C_28 
REMARK    3  A    between atoms: C_23  and  N_65 
REMARK    4  A    between atoms: C_26  and  N_65 
REMARK    5  A    between atoms: C_27  and  N_65 
REMARK    6  A    between atoms: C_30  and  N_67 
ROOT
ATOM      1  C   LIG d   1       3.192  -2.570 -12.724  0.00  0.00    -0.020 C 
ATOM      2  H   LIG d   1       4.184  -3.009 -12.623  0.00  0.00     0.085 H 
ATOM      3  C   LIG d   1       3.168  -1.117 -12.240  0.00  0.00     0.013 C 
ATOM      4  H   LIG d   1       2.173  -0.683 -12.335  0.00  0.00     0.036 H 
ATOM      5  C   LIG d   1       4.252  -0.085 -12.540  0.00  0.00    -0.044 C 
ATOM      6  C   LIG d   1       4.069   0.835 -11.273  0.00  0.00    -0.049 C 
ATOM      7  C   LIG d   1       4.042  -0.210 -10.181  0.00  0.00    -0.027 C 
ATOM      8  H   LIG d   1       5.087  -0.518 -10.224  0.00  0.00     0.031 H 
ATOM      9  C   LIG d   1       3.506  -1.485 -10.747  0.00  0.00     0.022 C 
ATOM     10  C   LIG d   1       4.701  -2.452 -10.563  0.00  0.00    -0.042 C 
ATOM     11  C   LIG d   1       5.225  -2.165  -9.131  0.00  0.00    -0.048 C 
ATOM     12  C   LIG d   1       4.110  -1.573  -8.255  0.00  0.00    -0.029 C 
ATOM     13  H   LIG d   1       3.190  -2.144  -8.388  0.00  0.00     0.031 H 
ATOM     14  C   LIG d   1       3.893  -0.095  -8.728  0.00  0.00    -0.030 C 
ATOM     15  H   LIG d   1       4.706   0.511  -8.331  0.00  0.00     0.031 H 
ATOM     16  C   LIG d   1       2.586   0.366  -8.121  0.00  0.00    -0.031 C 
ATOM     17  C   LIG d   1       2.767   0.286  -6.620  0.00  0.00    -0.084 C 
ATOM     18  C   LIG d   1       3.631  -0.497  -6.058  0.00  0.00    -0.062 C 
ATOM     19  C   LIG d   1       4.491  -1.517  -6.784  0.00  0.00    -0.008 C 
ATOM     20  C   LIG d   1       5.945  -1.063  -6.589  0.00  0.00    -0.039 C 
ATOM     21  C   LIG d   1       6.236  -1.060  -5.084  0.00  0.00    -0.009 C 
ATOM     22  C   LIG d   1       5.335  -0.071  -4.349  0.00  0.00    -0.018 C 
ATOM     23  H   LIG d   1       5.520   0.933  -4.730  0.00  0.00     0.085 H 
ATOM     24  C   LIG d   1       3.856  -0.427  -4.555  0.00  0.00     0.012 C 
ATOM     25  C   LIG d   1       2.285  -2.319 -10.481  0.00  0.00    -0.025 C 
ATOM     26  H   LIG d   1       5.243  -0.540 -12.560  0.00  0.00     0.027 H 
ATOM     27  H   LIG d   1       4.046   0.456 -13.464  0.00  0.00     0.027 H 
ATOM     28  H   LIG d   1       3.129   1.383 -11.320  0.00  0.00     0.027 H 
ATOM     29  H   LIG d   1       4.914   1.514 -11.150  0.00  0.00     0.027 H 
ATOM     30  H   LIG d   1       4.368  -3.486 -10.646  0.00  0.00     0.027 H 
ATOM     31  H   LIG d   1       5.475  -2.242 -11.301  0.00  0.00     0.027 H 
ATOM     32  H   LIG d   1       5.577  -3.095  -8.685  0.00  0.00     0.027 H 
ATOM     33  H   LIG d   1       6.053  -1.457  -9.186  0.00  0.00     0.027 H 
ATOM     34  H   LIG d   1       1.775  -0.290  -8.436  0.00  0.00     0.031 H 
ATOM     35  H   LIG d   1       2.377   1.393  -8.418  0.00  0.00     0.031 H 
ATOM     36  H   LIG d   1       2.149   0.909  -5.991  0.00  0.00     0.057 H 
ATOM     37  H   LIG d   1       6.619  -1.755  -7.094  0.00  0.00     0.028 H 
ATOM     38  H   LIG d   1       6.077  -0.060  -6.993  0.00  0.00     0.028 H 
ATOM     39  H   LIG d   1       7.278  -0.783  -4.922  0.00  0.00     0.032 H 
ATOM     40  H   LIG d   1       6.068  -2.061  -4.686  0.00  0.00     0.032 H 
ATOM     41  H   LIG d   1       3.637  -1.392  -4.100  0.00  0.00     0.036 H 
ATOM     42  H   LIG d   1       3.222   0.345  -4.119  0.00  0.00     0.036 H 
ATOM     43  H   LIG d   1       2.422  -2.939  -9.595  0.00  0.00     0.082 H 
ATOM     44  H   LIG d   1       1.398  -1.692 -10.385  0.00  0.00     0.082 H 
ATOM     45  N   LIG d   1       2.215  -3.148 -11.733  0.00  0.00     0.236 N 
ATOM     46  H   LIG d   1       1.266  -3.106 -12.121  0.00  0.00     0.203 HD
ENDROOT
BRANCH  22  47
ATOM     47  N   LIG d   1       5.674  -0.103  -2.910  0.00  0.00     0.233 N 
ATOM     48  H   LIG d   1       6.693  -0.036  -2.806  0.00  0.00     0.203 HD
BRANCH  47  49
ATOM     49  C   LIG d   1       5.043   1.040  -2.218  0.00  0.00    -0.043 C 
ATOM     50  H   LIG d   1       4.665   1.763  -2.941  0.00  0.00     0.078 H 
ATOM     51  H   LIG d   1       4.218   0.672  -1.607  0.00  0.00     0.078 H 
ATOM     52  H   LIG d   1       5.784   1.518  -1.578  0.00  0.00     0.078 H 
ENDBRANCH  47  49
BRANCH  47  53
ATOM     53  C   LIG d   1       5.213  -1.374  -2.312  0.00  0.00    -0.043 C 
ATOM     54  H   LIG d   1       6.077  -2.014  -2.132  0.00  0.00     0.078 H 
ATOM     55  H   LIG d   1       4.716  -1.160  -1.366  0.00  0.00     0.078 H 
ATOM     56  H   LIG d   1       4.518  -1.882  -2.980  0.00  0.00     0.078 H 
ENDBRANCH  47  53
ENDBRANCH  22  47
BRANCH  19  57
ATOM     57  C   LIG d   1       4.293  -2.896  -6.152  0.00  0.00    -0.056 C 
ATOM     58  H   LIG d   1       5.036  -3.587  -6.549  0.00  0.00     0.024 H 
ATOM     59  H   LIG d   1       4.407  -2.820  -5.071  0.00  0.00     0.024 H 
ATOM     60  H   LIG d   1       3.293  -3.262  -6.388  0.00  0.00     0.024 H 
ENDBRANCH  19  57
BRANCH   1  61
ATOM     61  C   LIG d   1       2.673  -2.691 -14.158  0.00  0.00    -0.021 C 
ATOM     62  H   LIG d   1       2.479  -3.739 -14.387  0.00  0.00     0.028 H 
ATOM     63  H   LIG d   1       1.751  -2.120 -14.261  0.00  0.00     0.028 H 
ATOM     64  H   LIG d   1       3.421  -2.300 -14.849  0.00  0.00     0.028 H 
ENDBRANCH   1  61
BRANCH  45  65
ATOM     65  C   LIG d   1       2.555  -4.564 -11.435  0.00  0.00    -0.043 C 
ATOM     66  H   LIG d   1       1.708  -5.202 -11.689  0.00  0.00     0.078 H 
ATOM     67  H   LIG d   1       3.422  -4.860 -12.023  0.00  0.00     0.078 H 
ATOM     68  H   LIG d   1       2.782  -4.667 -10.374  0.00  0.00     0.078 H 
ENDBRANCH  45  65
TORSDOF 6
ENDMDL
MODEL 4
REMARK VINA RESULT:      -5.2      9.129     12.751
REMARK  6 active torsions:
REMARK  status: ('A' for Active; 'I' for Inactive)
REMARK    1  A    between atoms: C_1  and  C_2 
REMARK    2  A    between atoms: C_20  and  C_28 
REMARK    3  A    between atoms: C_23  and  N_65 
REMARK    4  A    between atoms: C_26  and  N_65 
REMARK    5  A    between atoms: C_27  and  N_65 
REMARK    6  A    between atoms: C_30  and  N_67 
ROOT
ATOM      1  C   LIG d   1      10.135   8.059 -10.810  0.00  0.00    -0.020 C 
ATOM      2  H   LIG d   1       9.387   8.726 -10.380  0.00  0.00     0.085 H 
ATOM      3  C   LIG d   1       9.941   6.616 -10.333  0.00  0.00     0.013 C 
ATOM      4  H   LIG d   1      10.695   5.954 -10.759  0.00  0.00     0.036 H 
ATOM      5  C   LIG d   1       8.590   5.915 -10.218  0.00  0.00    -0.044 C 
ATOM      6  C   LIG d   1       8.946   4.890  -9.073  0.00  0.00    -0.049 C 
ATOM      7  C   LIG d   1       9.614   5.814  -8.081  0.00  0.00    -0.027 C 
ATOM      8  H   LIG d   1       8.736   6.378  -7.765  0.00  0.00     0.031 H 
ATOM      9  C   LIG d   1      10.239   6.950  -8.824  0.00  0.00     0.022 C 
ATOM     10  C   LIG d   1       9.474   8.171  -8.258  0.00  0.00    -0.042 C 
ATOM     11  C   LIG d   1       9.413   7.924  -6.727  0.00  0.00    -0.048 C 
ATOM     12  C   LIG d   1      10.563   7.009  -6.280  0.00  0.00    -0.029 C 
ATOM     13  H   LIG d   1      11.498   7.338  -6.734  0.00  0.00     0.031 H 
ATOM     14  C   LIG d   1      10.212   5.562  -6.767  0.00  0.00    -0.030 C 
ATOM     15  H   LIG d   1       9.454   5.153  -6.101  0.00  0.00     0.031 H 
ATOM     16  C   LIG d   1      11.479   4.744  -6.641  0.00  0.00    -0.031 C 
ATOM     17  C   LIG d   1      11.846   4.760  -5.173  0.00  0.00    -0.084 C 
ATOM     18  C   LIG d   1      11.460   5.692  -4.362  0.00  0.00    -0.062 C 
ATOM     19  C   LIG d   1      10.703   6.945  -4.766  0.00  0.00    -0.008 C 
ATOM     20  C   LIG d   1       9.337   6.860  -4.070  0.00  0.00    -0.039 C 
ATOM     21  C   LIG d   1       9.584   6.822  -2.558  0.00  0.00    -0.009 C 
ATOM     22  C   LIG d   1      10.390   5.589  -2.161  0.00  0.00    -0.018 C 
ATOM     23  H   LIG d   1       9.831   4.693  -2.433  0.00  0.00     0.085 H 
ATOM     24  C   LIG d   1      11.750   5.573  -2.874  0.00  0.00     0.012 C 
ATOM     25  C   LIG d   1      11.650   7.428  -9.015  0.00  0.00    -0.025 C 
ATOM     26  H   LIG d   1       7.807   6.605  -9.902  0.00  0.00     0.027 H 
ATOM     27  H   LIG d   1       8.322   5.407 -11.144  0.00  0.00     0.027 H 
ATOM     28  H   LIG d   1       9.637   4.128  -9.432  0.00  0.00     0.027 H 
ATOM     29  H   LIG d   1       8.047   4.439  -8.651  0.00  0.00     0.027 H 
ATOM     30  H   LIG d   1      10.017   9.091  -8.472  0.00  0.00     0.027 H 
ATOM     31  H   LIG d   1       8.469   8.216  -8.677  0.00  0.00     0.027 H 
ATOM     32  H   LIG d   1       9.489   8.878  -6.206  0.00  0.00     0.027 H 
ATOM     33  H   LIG d   1       8.461   7.453  -6.477  0.00  0.00     0.027 H 
ATOM     34  H   LIG d   1      12.276   5.195  -7.231  0.00  0.00     0.031 H 
ATOM     35  H   LIG d   1      11.299   3.721  -6.971  0.00  0.00     0.031 H 
ATOM     36  H   LIG d   1      12.456   3.957  -4.784  0.00  0.00     0.057 H 
ATOM     37  H   LIG d   1       8.737   7.733  -4.325  0.00  0.00     0.028 H 
ATOM     38  H   LIG d   1       8.819   5.953  -4.383  0.00  0.00     0.028 H 
ATOM     39  H   LIG d   1       8.626   6.806  -2.040  0.00  0.00     0.032 H 
ATOM     40  H   LIG d   1      10.133   7.717  -2.264  0.00  0.00     0.032 H 
ATOM     41  H   LIG d   1      12.354   6.418  -2.542  0.00  0.00     0.036 H 
ATOM     42  H   LIG d   1      12.268   4.638  -2.668  0.00  0.00     0.036 H 
ATOM     43  H   LIG d   1      11.990   7.998  -8.150  0.00  0.00     0.082 H 
ATOM     44  H   LIG d   1      12.321   6.593  -9.219  0.00  0.00     0.082 H 
ATOM     45  N   LIG d   1      11.505   8.301 -10.230  0.00  0.00     0.236 N 
ATOM     46  H   LIG d   1      12.220   8.048 -10.922  0.00  0.00     0.203 HD
ENDROOT
BRANCH  22  47
ATOM     47  N   LIG d   1      10.580   5.602  -0.694  0.00  0.00     0.233 N 
ATOM     48  H   LIG d   1       9.917   4.947  -0.266  0.00  0.00     0.203 HD
BRANCH  47  49
ATOM     49  C   LIG d   1      11.957   5.180  -0.361  0.00  0.00    -0.043 C 
ATOM     50  H   LIG d   1      12.684   5.840  -0.833  0.00  0.00     0.078 H 
ATOM     51  H   LIG d   1      12.086   5.214   0.722  0.00  0.00     0.078 H 
ATOM     52  H   LIG d   1      12.109   4.160  -0.713  0.00  0.00     0.078 H 
ENDBRANCH  47  49
BRANCH  47  53
ATOM     53  C   LIG d   1      10.325   6.958  -0.165  0.00  0.00    -0.043 C 
ATOM     54  H   LIG d   1      11.269   7.499  -0.107  0.00  0.00     0.078 H 
ATOM     55  H   LIG d   1       9.647   7.480  -0.840  0.00  0.00     0.078 H 
ATOM     56  H   LIG d   1       9.876   6.903   0.827  0.00  0.00     0.078 H 
ENDBRANCH  47  53
ENDBRANCH  22  47
BRANCH  19  57
ATOM     57  C   LIG d   1      11.457   8.181  -4.271  0.00  0.00    -0.056 C 
ATOM     58  H   LIG d   1      11.152   9.050  -4.854  0.00  0.00     0.024 H 
ATOM     59  H   LIG d   1      11.227   8.349  -3.220  0.00  0.00     0.024 H 
ATOM     60  H   LIG d   1      12.529   8.023  -4.389  0.00  0.00     0.024 H 
ENDBRANCH  19  57
BRANCH   1  61
ATOM     61  C   LIG d   1      10.148   8.148 -12.337  0.00  0.00    -0.021 C 
ATOM     62  H   LIG d   1       9.180   7.832 -12.727  0.00  0.00     0.028 H 
ATOM     63  H   LIG d   1      10.343   9.177 -12.640  0.00  0.00     0.028 H 
ATOM     64  H   LIG d   1      10.930   7.498 -12.732  0.00  0.00     0.028 H 
ENDBRANCH   1  61
BRANCH  45  65
ATOM     65  C   LIG d   1      11.669   9.731  -9.863  0.00  0.00    -0.043 C 
ATOM     66  H   LIG d   1      10.882  10.319 -10.336  0.00  0.00     0.078 H 
ATOM     67  H   LIG d   1      11.603   9.838  -8.781  0.00  0.00     0.078 H 
ATOM     68  H   LIG d   1      12.641  10.084 -10.206  0.00  0.00     0.078 H 
ENDBRANCH  45  65
TORSDOF 6
ENDMDL
MODEL 5
REMARK VINA RESULT:      -5.2      3.002      4.633
REMARK  6 active torsions:
REMARK  status: ('A' for Active; 'I' for Inactive)
REMARK    1  A    between atoms: C_1  and  C_2 
REMARK    2  A    between atoms: C_20  and  C_28 
REMARK    3  A    between atoms: C_23  and  N_65 
REMARK    4  A    between atoms: C_26  and  N_65 
REMARK    5  A    between atoms: C_27  and  N_65 
REMARK    6  A    between atoms: C_30  and  N_67 
ROOT
ATOM      1  C   LIG d   1       4.726   0.254  -3.249  0.00  0.00    -0.020 C 
ATOM      2  H   LIG d   1       5.099   0.869  -4.067  0.00  0.00     0.085 H 
ATOM      3  C   LIG d   1       5.513  -1.053  -3.123  0.00  0.00     0.013 C 
ATOM      4  H   LIG d   1       5.132  -1.669  -2.308  0.00  0.00     0.036 H 
ATOM      5  C   LIG d   1       7.031  -1.165  -3.237  0.00  0.00    -0.044 C 
ATOM      6  C   LIG d   1       7.127  -2.653  -3.752  0.00  0.00    -0.049 C 
ATOM      7  C   LIG d   1       6.099  -2.622  -4.860  0.00  0.00    -0.027 C 
ATOM      8  H   LIG d   1       6.638  -1.988  -5.565  0.00  0.00     0.031 H 
ATOM      9  C   LIG d   1       5.062  -1.598  -4.528  0.00  0.00     0.022 C 
ATOM     10  C   LIG d   1       5.208  -0.596  -5.699  0.00  0.00    -0.042 C 
ATOM     11  C   LIG d   1       5.332  -1.483  -6.966  0.00  0.00    -0.048 C 
ATOM     12  C   LIG d   1       4.681  -2.855  -6.733  0.00  0.00    -0.029 C 
ATOM     13  H   LIG d   1       3.708  -2.728  -6.257  0.00  0.00     0.031 H 
ATOM     14  C   LIG d   1       5.636  -3.659  -5.786  0.00  0.00    -0.030 C 
ATOM     15  H   LIG d   1       6.480  -4.014  -6.378  0.00  0.00     0.031 H 
ATOM     16  C   LIG d   1       4.847  -4.847  -5.283  0.00  0.00    -0.031 C 
ATOM     17  C   LIG d   1       4.473  -5.654  -6.507  0.00  0.00    -0.084 C 
ATOM     18  C   LIG d   1       4.395  -5.138  -7.692  0.00  0.00    -0.062 C 
ATOM     19  C   LIG d   1       4.544  -3.661  -8.015  0.00  0.00    -0.008 C 
ATOM     20  C   LIG d   1       5.794  -3.544  -8.899  0.00  0.00    -0.039 C 
ATOM     21  C   LIG d   1       5.550  -4.369 -10.167  0.00  0.00    -0.009 C 
ATOM     22  C   LIG d   1       5.349  -5.845  -9.835  0.00  0.00    -0.018 C 
ATOM     23  H   LIG d   1       6.247  -6.229  -9.352  0.00  0.00     0.085 H 
ATOM     24  C   LIG d   1       4.148  -6.033  -8.897  0.00  0.00     0.012 C 
ATOM     25  C   LIG d   1       3.589  -1.653  -4.243  0.00  0.00    -0.025 C 
ATOM     26  H   LIG d   1       7.429  -0.465  -3.973  0.00  0.00     0.027 H 
ATOM     27  H   LIG d   1       7.517  -1.042  -2.269  0.00  0.00     0.027 H 
ATOM     28  H   LIG d   1       6.844  -3.356  -2.969  0.00  0.00     0.027 H 
ATOM     29  H   LIG d   1       8.121  -2.876  -4.140  0.00  0.00     0.027 H 
ATOM     30  H   LIG d   1       4.325   0.040  -5.766  0.00  0.00     0.027 H 
ATOM     31  H   LIG d   1       6.104   0.011  -5.569  0.00  0.00     0.027 H 
ATOM     32  H   LIG d   1       4.836  -0.987  -7.801  0.00  0.00     0.027 H 
ATOM     33  H   LIG d   1       6.387  -1.622  -7.206  0.00  0.00     0.027 H 
ATOM     34  H   LIG d   1       3.948  -4.509  -4.768  0.00  0.00     0.031 H 
ATOM     35  H   LIG d   1       5.461  -5.448  -4.612  0.00  0.00     0.031 H 
ATOM     36  H   LIG d   1       4.261  -6.706  -6.388  0.00  0.00     0.057 H 
ATOM     37  H   LIG d   1       5.962  -2.500  -9.164  0.00  0.00     0.028 H 
ATOM     38  H   LIG d   1       6.662  -3.932  -8.366  0.00  0.00     0.028 H 
ATOM     39  H   LIG d   1       6.407  -4.265 -10.832  0.00  0.00     0.032 H 
ATOM     40  H   LIG d   1       4.660  -3.992 -10.672  0.00  0.00     0.032 H 
ATOM     41  H   LIG d   1       3.230  -5.735  -9.401  0.00  0.00     0.036 H 
ATOM     42  H   LIG d   1       4.082  -7.074  -8.581  0.00  0.00     0.036 H 
ATOM     43  H   LIG d   1       3.014  -1.724  -5.166  0.00  0.00     0.082 H 
ATOM     44  H   LIG d   1       3.352  -2.479  -3.571  0.00  0.00     0.082 H 
ATOM     45  N   LIG d   1       3.372  -0.333  -3.556  0.00  0.00     0.236 N 
ATOM     46  H   LIG d   1       2.855  -0.481  -2.682  0.00  0.00     0.203 HD
ENDROOT
BRANCH  22  47
ATOM     47  N   LIG d   1       5.134  -6.587 -11.096  0.00  0.00     0.233 N 
ATOM     48  H   LIG d   1       5.982  -6.521 -11.670  0.00  0.00     0.203 HD
BRANCH  47  49
ATOM     49  C   LIG d   1       4.861  -8.010 -10.804  0.00  0.00    -0.043 C 
ATOM     50  H   LIG d   1       3.885  -8.122 -10.330  0.00  0.00     0.078 H 
ATOM     51  H   LIG d   1       4.879  -8.573 -11.737  0.00  0.00     0.078 H 
ATOM     52  H   LIG d   1       5.635  -8.388 -10.137  0.00  0.00     0.078 H 
ENDBRANCH  47  49
BRANCH  47  53
ATOM     53  C   LIG d   1       4.002  -5.998 -11.842  0.00  0.00    -0.043 C 
ATOM     54  H   LIG d   1       4.252  -5.973 -12.902  0.00  0.00     0.078 H 
ATOM     55  H   LIG d   1       3.118  -6.617 -11.691  0.00  0.00     0.078 H 
ATOM     56  H   LIG d   1       3.800  -4.985 -11.492  0.00  0.00     0.078 H 
ENDBRANCH  47  53
ENDBRANCH  22  47
BRANCH  19  57
ATOM     57  C   LIG d   1       3.317  -3.181  -8.792  0.00  0.00    -0.056 C 
ATOM     58  H   LIG d   1       3.576  -3.065  -9.844  0.00  0.00     0.024 H 
ATOM     59  H   LIG d   1       2.515  -3.912  -8.693  0.00  0.00     0.024 H 
ATOM     60  H   LIG d   1       2.987  -2.222  -8.391  0.00  0.00     0.024 H 
ENDBRANCH  19  57
BRANCH   1  61
ATOM     61  C   LIG d   1       4.714   1.031  -1.930  0.00  0.00    -0.021 C 
ATOM     62  H   LIG d   1       4.235   1.998  -2.083  0.00  0.00     0.028 H 
ATOM     63  H   LIG d   1       4.159   0.466  -1.181  0.00  0.00     0.028 H 
ATOM     64  H   LIG d   1       5.738   1.181  -1.588  0.00  0.00     0.028 H 
ENDBRANCH   1  61
BRANCH  45  65
ATOM     65  C   LIG d   1       2.595   0.584  -4.430  0.00  0.00    -0.043 C 
ATOM     66  H   LIG d   1       1.823   0.019  -4.953  0.00  0.00     0.078 H 
ATOM     67  H   LIG d   1       2.130   1.359  -3.822  0.00  0.00     0.078 H 
ATOM     68  H   LIG d   1       3.264   1.044  -5.158  0.00  0.00     0.078 H 
ENDBRANCH  45  65
TORSDOF 6
ENDMDL
MODEL 6
REMARK VINA RESULT:      -5.2      9.908     13.585
REMARK  6 active torsions:
REMARK  status: ('A' for Active; 'I' for Inactive)
REMARK    1  A    between atoms: C_1  and  C_2 
REMARK    2  A    between atoms: C_20  and  C_28 
REMARK    3  A    between atoms: C_23  and  N_65 
REMARK    4  A    between atoms: C_26  and  N_65 
REMARK    5  A    between atoms: C_27  and  N_65 
REMARK    6  A    between atoms: C_30  and  N_67 
ROOT
ATOM      1  C   LIG d   1      10.454  12.475  -2.043  0.00  0.00    -0.020 C 
ATOM      2  H   LIG d   1      10.855  12.491  -3.056  0.00  0.00     0.085 H 
ATOM      3  C   LIG d   1      11.221  11.495  -1.150  0.00  0.00     0.013 C 
ATOM      4  H   LIG d   1      10.813  11.476  -0.139  0.00  0.00     0.036 H 
ATOM      5  C   LIG d   1      12.740  11.341  -1.137  0.00  0.00    -0.044 C 
ATOM      6  C   LIG d   1      12.827   9.836  -0.674  0.00  0.00    -0.049 C 
ATOM      7  C   LIG d   1      11.826   9.206  -1.615  0.00  0.00    -0.027 C 
ATOM      8  H   LIG d   1      12.390   9.305  -2.543  0.00  0.00     0.031 H 
ATOM      9  C   LIG d   1      10.796  10.226  -1.977  0.00  0.00     0.022 C 
ATOM     10  C   LIG d   1      10.982  10.347  -3.509  0.00  0.00    -0.042 C 
ATOM     11  C   LIG d   1      11.123   8.884  -4.008  0.00  0.00    -0.048 C 
ATOM     12  C   LIG d   1      10.449   7.911  -3.029  0.00  0.00    -0.029 C 
ATOM     13  H   LIG d   1       9.467   8.290  -2.745  0.00  0.00     0.031 H 
ATOM     14  C   LIG d   1      11.371   7.821  -1.766  0.00  0.00    -0.030 C 
ATOM     15  H   LIG d   1      12.224   7.188  -2.012  0.00  0.00     0.031 H 
ATOM     16  C   LIG d   1      10.555   7.155  -0.681  0.00  0.00    -0.031 C 
ATOM     17  C   LIG d   1      10.198   5.780  -1.205  0.00  0.00    -0.084 C 
ATOM     18  C   LIG d   1      10.155   5.499  -2.467  0.00  0.00    -0.062 C 
ATOM     19  C   LIG d   1      10.331   6.504  -3.594  0.00  0.00    -0.008 C 
ATOM     20  C   LIG d   1      11.603   6.082  -4.344  0.00  0.00    -0.039 C 
ATOM     21  C   LIG d   1      11.377   4.668  -4.889  0.00  0.00    -0.009 C 
ATOM     22  C   LIG d   1      11.149   3.669  -3.758  0.00  0.00    -0.018 C 
ATOM     23  H   LIG d   1      12.030   3.646  -3.117  0.00  0.00     0.085 H 
ATOM     24  C   LIG d   1       9.924   4.066  -2.920  0.00  0.00     0.012 C 
ATOM     25  C   LIG d   1       9.316  10.345  -1.754  0.00  0.00    -0.025 C 
ATOM     26  H   LIG d   1      13.164  11.475  -2.132  0.00  0.00     0.027 H 
ATOM     27  H   LIG d   1      13.204  12.012  -0.414  0.00  0.00     0.027 H 
ATOM     28  H   LIG d   1      12.517   9.728   0.365  0.00  0.00     0.027 H 
ATOM     29  H   LIG d   1      13.827   9.430  -0.830  0.00  0.00     0.027 H 
ATOM     30  H   LIG d   1      10.110  10.819  -3.961  0.00  0.00     0.027 H 
ATOM     31  H   LIG d   1      11.883  10.916  -3.738  0.00  0.00     0.027 H 
ATOM     32  H   LIG d   1      10.654   8.792  -4.987  0.00  0.00     0.027 H 
ATOM     33  H   LIG d   1      12.182   8.634  -4.092  0.00  0.00     0.027 H 
ATOM     34  H   LIG d   1       9.649   7.729  -0.488  0.00  0.00     0.031 H 
ATOM     35  H   LIG d   1      11.145   7.066   0.232  0.00  0.00     0.031 H 
ATOM     36  H   LIG d   1       9.970   5.000  -0.494  0.00  0.00     0.057 H 
ATOM     37  H   LIG d   1      11.791   6.770  -5.168  0.00  0.00     0.028 H 
ATOM     38  H   LIG d   1      12.453   6.084  -3.661  0.00  0.00     0.028 H 
ATOM     39  H   LIG d   1      12.251   4.362  -5.465  0.00  0.00     0.032 H 
ATOM     40  H   LIG d   1      10.504   4.672  -5.543  0.00  0.00     0.032 H 
ATOM     41  H   LIG d   1       9.022   4.008  -3.528  0.00  0.00     0.036 H 
ATOM     42  H   LIG d   1       9.836   3.411  -2.055  0.00  0.00     0.036 H 
ATOM     43  H   LIG d   1       8.762   9.743  -2.473  0.00  0.00     0.082 H 
ATOM     44  H   LIG d   1       9.052  10.072  -0.731  0.00  0.00     0.082 H 
ATOM     45  N   LIG d   1       9.100  11.816  -1.982  0.00  0.00     0.236 N 
ATOM     46  H   LIG d   1       8.561  12.209  -1.202  0.00  0.00     0.203 HD
ENDROOT
BRANCH  22  47
ATOM     47  N   LIG d   1      10.954   2.326  -4.345  0.00  0.00     0.233 N 
ATOM     48  H   LIG d   1      11.051   2.391  -5.365  0.00  0.00     0.203 HD
BRANCH  47  49
ATOM     49  C   LIG d   1      11.974   1.394  -3.822  0.00  0.00    -0.043 C 
ATOM     50  H   LIG d   1      11.840   0.401  -4.251  0.00  0.00     0.078 H 
ATOM     51  H   LIG d   1      12.964   1.771  -4.080  0.00  0.00     0.078 H 
ATOM     52  H   LIG d   1      11.878   1.338  -2.738  0.00  0.00     0.078 H 
ENDBRANCH  47  49
BRANCH  47  53
ATOM     53  C   LIG d   1       9.600   1.827  -4.024  0.00  0.00    -0.043 C 
ATOM     54  H   LIG d   1       9.360   0.999  -4.691  0.00  0.00     0.078 H 
ATOM     55  H   LIG d   1       9.587   1.478  -2.991  0.00  0.00     0.078 H 
ATOM     56  H   LIG d   1       8.861   2.619  -4.148  0.00  0.00     0.078 H 
ENDBRANCH  47  53
ENDBRANCH  22  47
BRANCH  19  57
ATOM     57  C   LIG d   1       9.129   6.431  -4.537  0.00  0.00    -0.056 C 
ATOM     58  H   LIG d   1       9.122   5.466  -5.043  0.00  0.00     0.024 H 
ATOM     59  H   LIG d   1       8.210   6.547  -3.963  0.00  0.00     0.024 H 
ATOM     60  H   LIG d   1       9.199   7.229  -5.277  0.00  0.00     0.024 H 
ENDBRANCH  19  57
BRANCH   1  61
ATOM     61  C   LIG d   1      10.422  13.879  -1.435  0.00  0.00    -0.021 C 
ATOM     62  H   LIG d   1       9.389  14.223  -1.370  0.00  0.00     0.028 H 
ATOM     63  H   LIG d   1      10.860  13.853  -0.437  0.00  0.00     0.028 H 
ATOM     64  H   LIG d   1      10.994  14.561  -2.065  0.00  0.00     0.028 H 
ENDBRANCH   1  61
BRANCH  45  65
ATOM     65  C   LIG d   1       8.357  12.040  -3.248  0.00  0.00    -0.043 C 
ATOM     66  H   LIG d   1       9.064  12.220  -4.057  0.00  0.00     0.078 H 
ATOM     67  H   LIG d   1       7.757  11.160  -3.478  0.00  0.00     0.078 H 
ATOM     68  H   LIG d   1       7.704  12.906  -3.137  0.00  0.00     0.078 H 
ENDBRANCH  45  65
TORSDOF 6
ENDMDL
MODEL 7
REMARK VINA RESULT:      -5.2      1.614      7.333
REMARK  6 active torsions:
REMARK  status: ('A' for Active; 'I' for Inactive)
REMARK    1  A    between atoms: C_1  and  C_2 
REMARK    2  A    between atoms: C_20  and  C_28 
REMARK    3  A    between atoms: C_23  and  N_65 
REMARK    4  A    between atoms: C_26  and  N_65 
REMARK    5  A    between atoms: C_27  and  N_65 
REMARK    6  A    between atoms: C_30  and  N_67 
ROOT
ATOM      1  C   LIG d   1       2.581  -1.751 -13.755  0.00  0.00    -0.020 C 
ATOM      2  H   LIG d   1       2.145  -0.767 -13.584  0.00  0.00     0.085 H 
ATOM      3  C   LIG d   1       2.090  -2.771 -12.722  0.00  0.00     0.013 C 
ATOM      4  H   LIG d   1       2.533  -3.752 -12.892  0.00  0.00     0.036 H 
ATOM      5  C   LIG d   1       0.645  -2.892 -12.243  0.00  0.00    -0.044 C 
ATOM      6  C   LIG d   1       0.915  -3.487 -10.807  0.00  0.00    -0.049 C 
ATOM      7  C   LIG d   1       1.992  -2.543 -10.322  0.00  0.00    -0.027 C 
ATOM      8  H   LIG d   1       1.383  -1.647 -10.204  0.00  0.00     0.031 H 
ATOM      9  C   LIG d   1       2.753  -2.031 -11.502  0.00  0.00     0.022 C 
ATOM     10  C   LIG d   1       2.481  -0.509 -11.429  0.00  0.00    -0.042 C 
ATOM     11  C   LIG d   1       2.649  -0.148  -9.929  0.00  0.00    -0.048 C 
ATOM     12  C   LIG d   1       3.563  -1.164  -9.227  0.00  0.00    -0.029 C 
ATOM     13  H   LIG d   1       4.447  -1.352  -9.838  0.00  0.00     0.031 H 
ATOM     14  C   LIG d   1       2.737  -2.485  -9.062  0.00  0.00    -0.030 C 
ATOM     15  H   LIG d   1       2.038  -2.347  -8.238  0.00  0.00     0.031 H 
ATOM     16  C   LIG d   1       3.726  -3.570  -8.700  0.00  0.00    -0.031 C 
ATOM     17  C   LIG d   1       4.359  -3.145  -7.392  0.00  0.00    -0.084 C 
ATOM     18  C   LIG d   1       4.411  -1.911  -7.005  0.00  0.00    -0.062 C 
ATOM     19  C   LIG d   1       3.968  -0.716  -7.831  0.00  0.00    -0.008 C 
ATOM     20  C   LIG d   1       2.793  -0.085  -7.071  0.00  0.00    -0.039 C 
ATOM     21  C   LIG d   1       3.306   0.349  -5.694  0.00  0.00    -0.009 C 
ATOM     22  C   LIG d   1       3.798  -0.848  -4.885  0.00  0.00    -0.018 C 
ATOM     23  H   LIG d   1       2.972  -1.541  -4.732  0.00  0.00     0.085 H 
ATOM     24  C   LIG d   1       4.937  -1.570  -5.619  0.00  0.00     0.012 C 
ATOM     25  C   LIG d   1       4.177  -2.152 -11.963  0.00  0.00    -0.025 C 
ATOM     26  H   LIG d   1       0.161  -1.917 -12.183  0.00  0.00     0.027 H 
ATOM     27  H   LIG d   1       0.073  -3.581 -12.864  0.00  0.00     0.027 H 
ATOM     28  H   LIG d   1       1.285  -4.510 -10.872  0.00  0.00     0.027 H 
ATOM     29  H   LIG d   1       0.026  -3.429 -10.180  0.00  0.00     0.027 H 
ATOM     30  H   LIG d   1       3.206   0.035 -12.034  0.00  0.00     0.027 H 
ATOM     31  H   LIG d   1       1.467  -0.289 -11.763  0.00  0.00     0.027 H 
ATOM     32  H   LIG d   1       3.086   0.847  -9.846  0.00  0.00     0.027 H 
ATOM     33  H   LIG d   1       1.671  -0.152  -9.447  0.00  0.00     0.027 H 
ATOM     34  H   LIG d   1       4.489  -3.656  -9.473  0.00  0.00     0.031 H 
ATOM     35  H   LIG d   1       3.209  -4.522  -8.574  0.00  0.00     0.031 H 
ATOM     36  H   LIG d   1       4.785  -3.905  -6.753  0.00  0.00     0.057 H 
ATOM     37  H   LIG d   1       2.422   0.782  -7.617  0.00  0.00     0.028 H 
ATOM     38  H   LIG d   1       1.993  -0.816  -6.954  0.00  0.00     0.028 H 
ATOM     39  H   LIG d   1       2.499   0.841  -5.150  0.00  0.00     0.032 H 
ATOM     40  H   LIG d   1       4.128   1.054  -5.825  0.00  0.00     0.032 H 
ATOM     41  H   LIG d   1       5.804  -0.915  -5.700  0.00  0.00     0.036 H 
ATOM     42  H   LIG d   1       5.205  -2.482  -5.087  0.00  0.00     0.036 H 
ATOM     43  H   LIG d   1       4.821  -1.453 -11.428  0.00  0.00     0.082 H 
ATOM     44  H   LIG d   1       4.537  -3.175 -11.855  0.00  0.00     0.082 H 
ATOM     45  N   LIG d   1       4.049  -1.785 -13.416  0.00  0.00     0.236 N 
ATOM     46  H   LIG d   1       4.519  -2.493 -13.992  0.00  0.00     0.203 HD
ENDROOT
BRANCH  22  47
ATOM     47  N   LIG d   1       4.263  -0.367  -3.566  0.00  0.00     0.233 N 
ATOM     48  H   LIG d   1       5.268  -0.165  -3.620  0.00  0.00     0.203 HD
BRANCH  47  49
ATOM     49  C   LIG d   1       3.543   0.870  -3.197  0.00  0.00    -0.043 C 
ATOM     50  H   LIG d   1       2.557   0.890  -3.661  0.00  0.00     0.078 H 
ATOM     51  H   LIG d   1       3.435   0.907  -2.113  0.00  0.00     0.078 H 
ATOM     52  H   LIG d   1       4.122   1.729  -3.534  0.00  0.00     0.078 H 
ENDBRANCH  47  49
BRANCH  47  53
ATOM     53  C   LIG d   1       4.037  -1.408  -2.542  0.00  0.00    -0.043 C 
ATOM     54  H   LIG d   1       4.999  -1.723  -2.138  0.00  0.00     0.078 H 
ATOM     55  H   LIG d   1       3.426  -0.991  -1.741  0.00  0.00     0.078 H 
ATOM     56  H   LIG d   1       3.527  -2.268  -2.976  0.00  0.00     0.078 H 
ENDBRANCH  47  53
ENDBRANCH  22  47
BRANCH  19  57
ATOM     57  C   LIG d   1       5.116   0.290  -7.931  0.00  0.00    -0.056 C 
ATOM     58  H   LIG d   1       5.446   0.566  -6.929  0.00  0.00     0.024 H 
ATOM     59  H   LIG d   1       5.946  -0.158  -8.476  0.00  0.00     0.024 H 
ATOM     60  H   LIG d   1       4.774   1.181  -8.459  0.00  0.00     0.024 H 
ENDBRANCH  19  57
BRANCH   1  61
ATOM     61  C   LIG d   1       2.324  -2.233 -15.184  0.00  0.00    -0.021 C 
ATOM     62  H   LIG d   1       2.833  -3.183 -15.344  0.00  0.00     0.028 H 
ATOM     63  H   LIG d   1       1.253  -2.364 -15.337  0.00  0.00     0.028 H 
ATOM     64  H   LIG d   1       2.704  -1.493 -15.890  0.00  0.00     0.028 H 
ENDBRANCH   1  61
BRANCH  45  65
ATOM     65  C   LIG d   1       4.671  -0.460 -13.672  0.00  0.00    -0.043 C 
ATOM     66  H   LIG d   1       4.716  -0.282 -14.746  0.00  0.00     0.078 H 
ATOM     67  H   LIG d   1       4.074   0.319 -13.199  0.00  0.00     0.078 H 
ATOM     68  H   LIG d   1       5.680  -0.447 -13.259  0.00  0.00     0.078 H 
ENDBRANCH  45  65
TORSDOF 6
ENDMDL
MODEL 8
REMARK VINA RESULT:      -5.1      9.346     11.520
REMARK  6 active torsions:
REMARK  status: ('A' for Active; 'I' for Inactive)
REMARK    1  A    between atoms: C_1  and  C_2 
REMARK    2  A    between atoms: C_20  and  C_28 
REMARK    3  A    between atoms: C_23  and  N_65 
REMARK    4  A    between atoms: C_26  and  N_65 
REMARK    5  A    between atoms: C_27  and  N_65 
REMARK    6  A    between atoms: C_30  and  N_67 
ROOT
ATOM      1  C   LIG d   1      11.033   7.238  -0.439  0.00  0.00    -0.020 C 
ATOM      2  H   LIG d   1      11.573   8.137  -0.735  0.00  0.00     0.085 H 
ATOM      3  C   LIG d   1      11.524   6.008  -1.209  0.00  0.00     0.013 C 
ATOM      4  H   LIG d   1      10.976   5.112  -0.915  0.00  0.00     0.036 H 
ATOM      5  C   LIG d   1      12.990   5.693  -1.494  0.00  0.00    -0.044 C 
ATOM      6  C   LIG d   1      12.804   4.858  -2.819  0.00  0.00    -0.049 C 
ATOM      7  C   LIG d   1      11.872   5.770  -3.584  0.00  0.00    -0.027 C 
ATOM      8  H   LIG d   1      12.571   6.580  -3.793  0.00  0.00     0.031 H 
ATOM      9  C   LIG d   1      11.052   6.550  -2.609  0.00  0.00     0.022 C 
ATOM     10  C   LIG d   1      11.471   8.007  -2.924  0.00  0.00    -0.042 C 
ATOM     11  C   LIG d   1      11.482   8.089  -4.474  0.00  0.00    -0.048 C 
ATOM     12  C   LIG d   1      10.549   7.029  -5.079  0.00  0.00    -0.029 C 
ATOM     13  H   LIG d   1       9.597   7.025  -4.547  0.00  0.00     0.031 H 
ATOM     14  C   LIG d   1      11.260   5.643  -4.909  0.00  0.00    -0.030 C 
ATOM     15  H   LIG d   1      12.045   5.570  -5.662  0.00  0.00     0.031 H 
ATOM     16  C   LIG d   1      10.213   4.585  -5.178  0.00  0.00    -0.031 C 
ATOM     17  C   LIG d   1       9.752   4.800  -6.603  0.00  0.00    -0.084 C 
ATOM     18  C   LIG d   1       9.852   5.938  -7.210  0.00  0.00    -0.062 C 
ATOM     19  C   LIG d   1      10.323   7.233  -6.569  0.00  0.00    -0.008 C 
ATOM     20  C   LIG d   1      11.619   7.620  -7.295  0.00  0.00    -0.039 C 
ATOM     21  C   LIG d   1      11.283   7.822  -8.776  0.00  0.00    -0.009 C 
ATOM     22  C   LIG d   1      10.762   6.533  -9.406  0.00  0.00    -0.018 C 
ATOM     23  H   LIG d   1      11.531   5.765  -9.337  0.00  0.00     0.085 H 
ATOM     24  C   LIG d   1       9.496   6.049  -8.684  0.00  0.00     0.012 C 
ATOM     25  C   LIG d   1       9.586   6.625  -2.295  0.00  0.00    -0.025 C 
ATOM     26  H   LIG d   1      13.566   6.600  -1.675  0.00  0.00     0.027 H 
ATOM     27  H   LIG d   1      13.433   5.093  -0.699  0.00  0.00     0.027 H 
ATOM     28  H   LIG d   1      12.337   3.896  -2.613  0.00  0.00     0.027 H 
ATOM     29  H   LIG d   1      13.752   4.731  -3.344  0.00  0.00     0.027 H 
ATOM     30  H   LIG d   1      10.744   8.708  -2.513  0.00  0.00     0.027 H 
ATOM     31  H   LIG d   1      12.464   8.211  -2.524  0.00  0.00     0.027 H 
ATOM     32  H   LIG d   1      11.149   9.079  -4.783  0.00  0.00     0.027 H 
ATOM     33  H   LIG d   1      12.497   7.922  -4.835  0.00  0.00     0.027 H 
ATOM     34  H   LIG d   1       9.375   4.703  -4.491  0.00  0.00     0.031 H 
ATOM     35  H   LIG d   1      10.649   3.591  -5.071  0.00  0.00     0.031 H 
ATOM     36  H   LIG d   1       9.320   3.966  -7.138  0.00  0.00     0.057 H 
ATOM     37  H   LIG d   1      12.015   8.545  -6.876  0.00  0.00     0.028 H 
ATOM     38  H   LIG d   1      12.355   6.823  -7.187  0.00  0.00     0.028 H 
ATOM     39  H   LIG d   1      12.181   8.141  -9.306  0.00  0.00     0.032 H 
ATOM     40  H   LIG d   1      10.522   8.598  -8.867  0.00  0.00     0.032 H 
ATOM     41  H   LIG d   1       8.690   6.770  -8.821  0.00  0.00     0.036 H 
ATOM     42  H   LIG d   1       9.197   5.075  -9.070  0.00  0.00     0.036 H 
ATOM     43  H   LIG d   1       9.064   7.255  -3.016  0.00  0.00     0.082 H 
ATOM     44  H   LIG d   1       9.144   5.629  -2.256  0.00  0.00     0.082 H 
ATOM     45  N   LIG d   1       9.607   7.249  -0.928  0.00  0.00     0.236 N 
ATOM     46  H   LIG d   1       9.020   6.700  -0.289  0.00  0.00     0.203 HD
ENDROOT
BRANCH  22  47
ATOM     47  N   LIG d   1      10.472   6.789 -10.833  0.00  0.00     0.233 N 
ATOM     48  H   LIG d   1      11.203   6.351 -11.405  0.00  0.00     0.203 HD
BRANCH  47  49
ATOM     49  C   LIG d   1       9.164   6.205 -11.194  0.00  0.00    -0.043 C 
ATOM     50  H   LIG d   1       9.289   5.188 -11.569  0.00  0.00     0.078 H 
ATOM     51  H   LIG d   1       8.526   6.190 -10.310  0.00  0.00     0.078 H 
ATOM     52  H   LIG d   1       8.702   6.822 -11.965  0.00  0.00     0.078 H 
ENDBRANCH  47  49
BRANCH  47  53
ATOM     53  C   LIG d   1      10.466   8.244 -11.094  0.00  0.00    -0.043 C 
ATOM     54  H   LIG d   1      11.202   8.468 -11.866  0.00  0.00     0.078 H 
ATOM     55  H   LIG d   1       9.475   8.537 -11.439  0.00  0.00     0.078 H 
ATOM     56  H   LIG d   1      10.711   8.796 -10.186  0.00  0.00     0.078 H 
ENDBRANCH  47  53
ENDBRANCH  22  47
BRANCH  19  57
ATOM     57  C   LIG d   1       9.269   8.321  -6.781  0.00  0.00    -0.056 C 
ATOM     58  H   LIG d   1       8.419   7.904  -7.322  0.00  0.00     0.024 H 
ATOM     59  H   LIG d   1       8.936   8.698  -5.815  0.00  0.00     0.024 H 
ATOM     60  H   LIG d   1       9.702   9.138  -7.360  0.00  0.00     0.024 H 
ENDBRANCH  19  57
BRANCH   1  61
ATOM     61  C   LIG d   1      11.105   7.019   1.074  0.00  0.00    -0.021 C 
ATOM     62  H   LIG d   1      10.869   5.979   1.301  0.00  0.00     0.028 H 
ATOM     63  H   LIG d   1      12.110   7.248   1.427  0.00  0.00     0.028 H 
ATOM     64  H   LIG d   1      10.387   7.672   1.571  0.00  0.00     0.028 H 
ENDBRANCH   1  61
BRANCH  45  65
ATOM     65  C   LIG d   1       9.090   8.641  -0.986  0.00  0.00    -0.043 C 
ATOM     66  H   LIG d   1       9.921   9.341  -0.903  0.00  0.00     0.078 H 
ATOM     67  H   LIG d   1       8.575   8.798  -1.933  0.00  0.00     0.078 H 
ATOM     68  H   LIG d   1       8.394   8.804  -0.163  0.00  0.00     0.078 H 
ENDBRANCH  45  65
TORSDOF 6
ENDMDL
MODEL 9
REMARK VINA RESULT:      -5.1      2.294      7.541
REMARK  6 active torsions:
REMARK  status: ('A' for Active; 'I' for Inactive)
REMARK    1  A    between atoms: C_1  and  C_2 
REMARK    2  A    between atoms: C_20  and  C_28 
REMARK    3  A    between atoms: C_23  and  N_65 
REMARK    4  A    between atoms: C_26  and  N_65 
REMARK    5  A    between atoms: C_27  and  N_65 
REMARK    6  A    between atoms: C_30  and  N_67 
ROOT
ATOM      1  C   LIG d   1       2.614  -1.193 -10.182  0.00  0.00    -0.020 C 
ATOM      2  H   LIG d   1       3.464  -0.695 -10.648  0.00  0.00     0.085 H 
ATOM      3  C   LIG d   1       2.502  -0.839  -8.695  0.00  0.00     0.013 C 
ATOM      4  H   LIG d   1       1.655  -1.344  -8.230  0.00  0.00     0.036 H 
ATOM      5  C   LIG d   1       2.693   0.563  -8.122  0.00  0.00    -0.044 C 
ATOM      6  C   LIG d   1       3.180   0.168  -6.675  0.00  0.00    -0.049 C 
ATOM      7  C   LIG d   1       4.234  -0.861  -7.016  0.00  0.00    -0.027 C 
ATOM      8  H   LIG d   1       4.979  -0.194  -7.450  0.00  0.00     0.031 H 
ATOM      9  C   LIG d   1       3.870  -1.513  -8.310  0.00  0.00     0.022 C 
ATOM     10  C   LIG d   1       5.067  -1.133  -9.214  0.00  0.00    -0.042 C 
ATOM     11  C   LIG d   1       6.320  -1.359  -8.327  0.00  0.00    -0.048 C 
ATOM     12  C   LIG d   1       6.024  -2.385  -7.222  0.00  0.00    -0.029 C 
ATOM     13  H   LIG d   1       5.501  -3.244  -7.644  0.00  0.00     0.031 H 
ATOM     14  C   LIG d   1       5.112  -1.671  -6.167  0.00  0.00    -0.030 C 
ATOM     15  H   LIG d   1       5.739  -1.011  -5.568  0.00  0.00     0.031 H 
ATOM     16  C   LIG d   1       4.543  -2.756  -5.282  0.00  0.00    -0.031 C 
ATOM     17  C   LIG d   1       5.729  -3.429  -4.624  0.00  0.00    -0.084 C 
ATOM     18  C   LIG d   1       6.918  -3.411  -5.133  0.00  0.00    -0.062 C 
ATOM     19  C   LIG d   1       7.280  -2.834  -6.491  0.00  0.00    -0.008 C 
ATOM     20  C   LIG d   1       8.230  -1.660  -6.216  0.00  0.00    -0.039 C 
ATOM     21  C   LIG d   1       9.466  -2.218  -5.500  0.00  0.00    -0.009 C 
ATOM     22  C   LIG d   1       9.093  -2.842  -4.159  0.00  0.00    -0.018 C 
ATOM     23  H   LIG d   1       8.650  -2.080  -3.520  0.00  0.00     0.085 H 
ATOM     24  C   LIG d   1       8.089  -3.988  -4.353  0.00  0.00     0.012 C 
ATOM     25  C   LIG d   1       3.506  -2.914  -8.712  0.00  0.00    -0.025 C 
ATOM     26  H   LIG d   1       3.463   1.115  -8.662  0.00  0.00     0.027 H 
ATOM     27  H   LIG d   1       1.754   1.117  -8.094  0.00  0.00     0.027 H 
ATOM     28  H   LIG d   1       2.369  -0.272  -6.096  0.00  0.00     0.027 H 
ATOM     29  H   LIG d   1       3.615   1.023  -6.155  0.00  0.00     0.027 H 
ATOM     30  H   LIG d   1       5.102  -1.781 -10.090  0.00  0.00     0.027 H 
ATOM     31  H   LIG d   1       4.998  -0.089  -9.517  0.00  0.00     0.027 H 
ATOM     32  H   LIG d   1       7.138  -1.725  -8.947  0.00  0.00     0.027 H 
ATOM     33  H   LIG d   1       6.612  -0.413  -7.870  0.00  0.00     0.027 H 
ATOM     34  H   LIG d   1       3.989  -3.478  -5.882  0.00  0.00     0.031 H 
ATOM     35  H   LIG d   1       3.892  -2.320  -4.524  0.00  0.00     0.031 H 
ATOM     36  H   LIG d   1       5.576  -3.946  -3.688  0.00  0.00     0.057 H 
ATOM     37  H   LIG d   1       8.526  -1.196  -7.156  0.00  0.00     0.028 H 
ATOM     38  H   LIG d   1       7.735  -0.925  -5.581  0.00  0.00     0.028 H 
ATOM     39  H   LIG d   1      10.177  -1.408  -5.333  0.00  0.00     0.032 H 
ATOM     40  H   LIG d   1       9.932  -2.976  -6.131  0.00  0.00     0.032 H 
ATOM     41  H   LIG d   1       8.551  -4.798  -4.917  0.00  0.00     0.036 H 
ATOM     42  H   LIG d   1       7.748  -4.353  -3.384  0.00  0.00     0.036 H 
ATOM     43  H   LIG d   1       4.397  -3.534  -8.817  0.00  0.00     0.082 H 
ATOM     44  H   LIG d   1       2.806  -3.355  -8.002  0.00  0.00     0.082 H 
ATOM     45  N   LIG d   1       2.838  -2.677 -10.037  0.00  0.00     0.236 N 
ATOM     46  H   LIG d   1       1.934  -3.164 -10.059  0.00  0.00     0.203 HD
ENDROOT
BRANCH  22  47
ATOM     47  N   LIG d   1      10.325  -3.345  -3.513  0.00  0.00     0.233 N 
ATOM     48  H   LIG d   1      10.810  -2.560  -3.064  0.00  0.00     0.203 HD
BRANCH  47  49
ATOM     49  C   LIG d   1       9.982  -4.350  -2.486  0.00  0.00    -0.043 C 
ATOM     50  H   LIG d   1      10.871  -4.901  -2.179  0.00  0.00     0.078 H 
ATOM     51  H   LIG d   1       9.553  -3.842  -1.622  0.00  0.00     0.078 H 
ATOM     52  H   LIG d   1       9.250  -5.043  -2.901  0.00  0.00     0.078 H 
ENDBRANCH  47  49
BRANCH  47  53
ATOM     53  C   LIG d   1      11.218  -3.942  -4.528  0.00  0.00    -0.043 C 
ATOM     54  H   LIG d   1      11.611  -3.150  -5.165  0.00  0.00     0.078 H 
ATOM     55  H   LIG d   1      12.043  -4.445  -4.023  0.00  0.00     0.078 H 
ATOM     56  H   LIG d   1      10.674  -4.663  -5.139  0.00  0.00     0.078 H 
ENDBRANCH  47  53
ENDBRANCH  22  47
BRANCH  19  57
ATOM     57  C   LIG d   1       8.001  -3.897  -7.323  0.00  0.00    -0.056 C 
ATOM     58  H   LIG d   1       9.076  -3.818  -7.159  0.00  0.00     0.024 H 
ATOM     59  H   LIG d   1       7.659  -4.887  -7.023  0.00  0.00     0.024 H 
ATOM     60  H   LIG d   1       7.783  -3.741  -8.379  0.00  0.00     0.024 H 
ENDBRANCH  19  57
BRANCH   1  61
ATOM     61  C   LIG d   1       1.314  -0.892 -10.929  0.00  0.00    -0.021 C 
ATOM     62  H   LIG d   1       1.350   0.122 -11.327  0.00  0.00     0.028 H 
ATOM     63  H   LIG d   1       1.194  -1.599 -11.750  0.00  0.00     0.028 H 
ATOM     64  H   LIG d   1       0.470  -0.984 -10.244  0.00  0.00     0.028 H 
ENDBRANCH   1  61
BRANCH  45  65
ATOM     65  C   LIG d   1       3.689  -3.183 -11.145  0.00  0.00    -0.043 C 
ATOM     66  H   LIG d   1       4.299  -4.011 -10.784  0.00  0.00     0.078 H 
ATOM     67  H   LIG d   1       3.056  -3.525 -11.962  0.00  0.00     0.078 H 
ATOM     68  H   LIG d   1       4.339  -2.382 -11.498  0.00  0.00     0.078 H 
ENDBRANCH  45  65
TORSDOF 6
ENDMDL
