MODEL 1
REMARK VINA RESULT:      -8.0      0.000      0.000
REMARK  3 active torsions:
REMARK  status: ('A' for Active; 'I' for Inactive)
REMARK    1  A    between atoms: C_1  and  N_2 
REMARK    2  A    between atoms: C_5  and  N_8 
REMARK    3  A    between atoms: C_17  and  C_24 
ROOT
ATOM      1  N   LIG d   1      10.222   0.142  -5.490  0.00  0.00    -0.298 N 
ATOM      2  C   LIG d   1      10.908  -0.040  -6.773  0.00  0.00     0.004 C 
ATOM      3  C   LIG d   1      10.631  -1.417  -7.354  0.00  0.00    -0.009 C 
ATOM      4  H   LIG d   1      11.112  -1.441  -8.343  0.00  0.00     0.033 H 
ATOM      5  C   LIG d   1       9.112  -1.659  -7.485  0.00  0.00    -0.038 C 
ATOM      6  C   LIG d   1       8.510  -1.483  -6.086  0.00  0.00     0.013 C 
ATOM      7  H   LIG d   1       7.439  -1.731  -6.104  0.00  0.00     0.038 H 
ATOM      8  C   LIG d   1       8.768  -0.035  -5.637  0.00  0.00     0.007 C 
ATOM      9  C   LIG d   1       9.220  -2.394  -5.109  0.00  0.00     0.034 A 
ATOM     10  C   LIG d   1       8.516  -2.806  -4.007  0.00  0.00     0.002 A 
ATOM     11  C   LIG d   1       9.135  -3.611  -3.029  0.00  0.00    -0.047 A 
ATOM     12  C   LIG d   1      10.447  -3.939  -3.186  0.00  0.00     0.004 A 
ATOM     13  C   LIG d   1      11.097  -3.490  -4.316  0.00  0.00     0.252 A 
ATOM     14  O   LIG d   1      12.286  -3.743  -4.424  0.00  0.00    -0.268 OA
ATOM     15  N   LIG d   1      10.473  -2.788  -5.294  0.00  0.00    -0.311 N 
ATOM     16  C   LIG d   1      11.242  -2.523  -6.510  0.00  0.00     0.030 C 
ATOM     17  H   LIG d   1      10.558   0.721  -7.488  0.00  0.00     0.043 H 
ATOM     18  H   LIG d   1      11.993   0.068  -6.626  0.00  0.00     0.043 H 
ATOM     19  H   LIG d   1       8.684  -0.928  -8.188  0.00  0.00     0.028 H 
ATOM     20  H   LIG d   1       8.934  -2.677  -7.861  0.00  0.00     0.028 H 
ATOM     21  H   LIG d   1       8.277   0.157  -4.672  0.00  0.00     0.043 H 
ATOM     22  H   LIG d   1       8.386   0.670  -6.389  0.00  0.00     0.043 H 
ATOM     23  H   LIG d   1       8.578  -3.962  -2.172  0.00  0.00     0.063 H 
ATOM     24  H   LIG d   1      10.953  -4.536  -2.442  0.00  0.00     0.067 H 
ATOM     25  H   LIG d   1      11.281  -3.452  -7.097  0.00  0.00     0.050 H 
ATOM     26  H   LIG d   1      12.260  -2.235  -6.211  0.00  0.00     0.050 H 
ENDROOT
BRANCH   1  27
ATOM     27  C   LIG d   1      10.535   1.453  -4.906  0.00  0.00     0.020 C 
ATOM     28  C   LIG d   1       9.372   1.910  -4.021  0.00  0.00     0.003 C 
ATOM     29  C   LIG d   1       9.729   3.247  -3.367  0.00  0.00    -0.031 C 
ATOM     30  H   LIG d   1       9.185   1.158  -3.241  0.00  0.00     0.033 H 
ATOM     31  H   LIG d   1       8.467   2.033  -4.636  0.00  0.00     0.033 H 
ATOM     32  N   LIG d   1      10.947   3.088  -2.562  0.00  0.00     0.233 N 
ATOM     33  H   LIG d   1       8.901   3.570  -2.720  0.00  0.00     0.082 H 
ATOM     34  H   LIG d   1       9.902   4.002  -4.148  0.00  0.00     0.082 H 
ATOM     35  C   LIG d   1      12.089   2.696  -3.398  0.00  0.00    -0.031 C 
ATOM     36  H   LIG d   1      10.768   2.280  -1.838  0.00  0.00     0.203 HD
ATOM     37  C   LIG d   1      11.802   1.342  -4.053  0.00  0.00     0.003 C 
ATOM     38  H   LIG d   1      12.250   3.454  -4.178  0.00  0.00     0.082 H 
ATOM     39  H   LIG d   1      12.991   2.616  -2.773  0.00  0.00     0.082 H 
ATOM     40  H   LIG d   1      11.655   0.581  -3.274  0.00  0.00     0.033 H 
ATOM     41  H   LIG d   1      12.650   1.056  -4.692  0.00  0.00     0.033 H 
ATOM     42  H   LIG d   1      10.688   2.151  -5.742  0.00  0.00     0.047 H 
BRANCH  32  43
ATOM     43  C   LIG d   1      11.243   4.315  -1.808  0.00  0.00    -0.043 C 
ATOM     44  H   LIG d   1      10.449   4.491  -1.069  0.00  0.00     0.078 H 
ATOM     45  H   LIG d   1      11.295   5.167  -2.502  0.00  0.00     0.078 H 
ATOM     46  H   LIG d   1      12.208   4.203  -1.292  0.00  0.00     0.078 H 
ENDBRANCH  32  43
ENDBRANCH   1  27
BRANCH  10  47
ATOM     47  C   LIG d   1       7.099  -2.401  -3.842  0.00  0.00    -0.016 A 
ATOM     48  C   LIG d   1       6.793  -1.240  -3.155  0.00  0.00    -0.046 A 
ATOM     49  C   LIG d   1       5.451  -0.862  -3.003  0.00  0.00    -0.017 A 
ATOM     50  H   LIG d   1       7.582  -0.630  -2.741  0.00  0.00     0.063 H 
ATOM     51  C   LIG d   1       4.429  -1.676  -3.554  0.00  0.00    -0.018 A 
ATOM     52  C   LIG d   1       5.100   0.311  -2.311  0.00  0.00    -0.054 A 
ATOM     53  C   LIG d   1       4.773  -2.851  -4.247  0.00  0.00    -0.053 A 
ATOM     54  C   LIG d   1       3.086  -1.292  -3.399  0.00  0.00    -0.054 A 
ATOM     55  C   LIG d   1       6.078  -3.197  -4.389  0.00  0.00    -0.053 A 
ATOM     56  H   LIG d   1       4.000  -3.475  -4.671  0.00  0.00     0.062 H 
ATOM     57  H   LIG d   1       6.336  -4.097  -4.927  0.00  0.00     0.062 H 
ATOM     58  C   LIG d   1       2.784  -0.150  -2.724  0.00  0.00    -0.061 A 
ATOM     59  H   LIG d   1       2.297  -1.902  -3.814  0.00  0.00     0.062 H 
ATOM     60  C   LIG d   1       3.789   0.650  -2.181  0.00  0.00    -0.061 A 
ATOM     61  H   LIG d   1       1.751   0.142  -2.607  0.00  0.00     0.062 H 
ATOM     62  H   LIG d   1       3.521   1.551  -1.650  0.00  0.00     0.062 H 
ATOM     63  H   LIG d   1       5.868   0.940  -1.886  0.00  0.00     0.062 H 
ENDBRANCH  10  47
TORSDOF 3
ENDMDL
MODEL 2
REMARK VINA RESULT:      -8.0      3.497      6.205
REMARK  3 active torsions:
REMARK  status: ('A' for Active; 'I' for Inactive)
REMARK    1  A    between atoms: C_1  and  N_2 
REMARK    2  A    between atoms: C_5  and  N_8 
REMARK    3  A    between atoms: C_17  and  C_24 
ROOT
ATOM      1  N   LIG d   1       6.386  -0.192  -3.691  0.00  0.00    -0.298 N 
ATOM      2  C   LIG d   1       5.535   0.435  -2.675  0.00  0.00     0.004 C 
ATOM      3  C   LIG d   1       4.137  -0.161  -2.685  0.00  0.00    -0.009 C 
ATOM      4  H   LIG d   1       3.593   0.305  -1.849  0.00  0.00     0.033 H 
ATOM      5  C   LIG d   1       4.194  -1.693  -2.507  0.00  0.00    -0.038 C 
ATOM      6  C   LIG d   1       5.071  -2.240  -3.639  0.00  0.00     0.013 C 
ATOM      7  H   LIG d   1       5.075  -3.340  -3.613  0.00  0.00     0.038 H 
ATOM      8  C   LIG d   1       6.480  -1.646  -3.479  0.00  0.00     0.007 C 
ATOM      9  C   LIG d   1       4.530  -1.772  -4.972  0.00  0.00     0.034 A 
ATOM     10  C   LIG d   1       4.785  -2.558  -6.067  0.00  0.00     0.002 A 
ATOM     11  C   LIG d   1       4.358  -2.153  -7.347  0.00  0.00    -0.047 A 
ATOM     12  C   LIG d   1       3.721  -0.956  -7.476  0.00  0.00     0.004 A 
ATOM     13  C   LIG d   1       3.497  -0.214  -6.336  0.00  0.00     0.252 A 
ATOM     14  O   LIG d   1       2.974   0.880  -6.466  0.00  0.00    -0.268 OA
ATOM     15  N   LIG d   1       3.836  -0.649  -5.097  0.00  0.00    -0.311 N 
ATOM     16  C   LIG d   1       3.389   0.166  -3.967  0.00  0.00     0.030 C 
ATOM     17  H   LIG d   1       5.977   0.280  -1.679  0.00  0.00     0.043 H 
ATOM     18  H   LIG d   1       5.459   1.514  -2.877  0.00  0.00     0.043 H 
ATOM     19  H   LIG d   1       4.632  -1.931  -1.525  0.00  0.00     0.028 H 
ATOM     20  H   LIG d   1       3.178  -2.108  -2.565  0.00  0.00     0.028 H 
ATOM     21  H   LIG d   1       7.163  -2.080  -4.223  0.00  0.00     0.043 H 
ATOM     22  H   LIG d   1       6.864  -1.845  -2.468  0.00  0.00     0.043 H 
ATOM     23  H   LIG d   1       4.531  -2.780  -8.209  0.00  0.00     0.063 H 
ATOM     24  H   LIG d   1       3.401  -0.610  -8.448  0.00  0.00     0.067 H 
ATOM     25  H   LIG d   1       2.314  -0.016  -3.820  0.00  0.00     0.050 H 
ATOM     26  H   LIG d   1       3.551   1.222  -4.225  0.00  0.00     0.050 H 
ENDROOT
BRANCH   1  27
ATOM     27  C   LIG d   1       7.719   0.423  -3.715  0.00  0.00     0.020 C 
ATOM     28  C   LIG d   1       8.485  -0.062  -4.949  0.00  0.00     0.003 C 
ATOM     29  C   LIG d   1       9.849   0.629  -5.001  0.00  0.00    -0.031 C 
ATOM     30  H   LIG d   1       7.914   0.184  -5.856  0.00  0.00     0.033 H 
ATOM     31  H   LIG d   1       8.628  -1.152  -4.890  0.00  0.00     0.033 H 
ATOM     32  N   LIG d   1       9.660   2.084  -5.061  0.00  0.00     0.233 N 
ATOM     33  H   LIG d   1      10.395   0.293  -5.895  0.00  0.00     0.082 H 
ATOM     34  H   LIG d   1      10.425   0.371  -4.101  0.00  0.00     0.082 H 
ATOM     35  C   LIG d   1       8.969   2.579  -3.865  0.00  0.00    -0.031 C 
ATOM     36  H   LIG d   1       9.024   2.304  -5.931  0.00  0.00     0.203 HD
ATOM     37  C   LIG d   1       7.578   1.947  -3.777  0.00  0.00     0.003 C 
ATOM     38  H   LIG d   1       9.550   2.312  -2.969  0.00  0.00     0.082 H 
ATOM     39  H   LIG d   1       8.870   3.674  -3.924  0.00  0.00     0.082 H 
ATOM     40  H   LIG d   1       6.992   2.224  -4.665  0.00  0.00     0.033 H 
ATOM     41  H   LIG d   1       7.066   2.305  -2.873  0.00  0.00     0.033 H 
ATOM     42  H   LIG d   1       8.233   0.117  -2.792  0.00  0.00     0.047 H 
BRANCH  32  43
ATOM     43  C   LIG d   1      10.943   2.774  -5.253  0.00  0.00    -0.043 C 
ATOM     44  H   LIG d   1      10.883   3.420  -6.140  0.00  0.00     0.078 H 
ATOM     45  H   LIG d   1      11.741   2.031  -5.394  0.00  0.00     0.078 H 
ATOM     46  H   LIG d   1      11.165   3.387  -4.367  0.00  0.00     0.078 H 
ENDBRANCH  32  43
ENDBRANCH   1  27
BRANCH  10  47
ATOM     47  C   LIG d   1       5.516  -3.838  -5.902  0.00  0.00    -0.016 A 
ATOM     48  C   LIG d   1       4.809  -5.008  -5.695  0.00  0.00    -0.046 A 
ATOM     49  C   LIG d   1       5.506  -6.217  -5.541  0.00  0.00    -0.017 A 
ATOM     50  H   LIG d   1       3.731  -4.992  -5.653  0.00  0.00     0.063 H 
ATOM     51  C   LIG d   1       6.923  -6.219  -5.599  0.00  0.00    -0.018 A 
ATOM     52  C   LIG d   1       4.823  -7.427  -5.329  0.00  0.00    -0.054 A 
ATOM     53  C   LIG d   1       7.612  -5.011  -5.811  0.00  0.00    -0.053 A 
ATOM     54  C   LIG d   1       7.615  -7.431  -5.444  0.00  0.00    -0.054 A 
ATOM     55  C   LIG d   1       6.920  -3.853  -5.964  0.00  0.00    -0.053 A 
ATOM     56  H   LIG d   1       8.691  -5.005  -5.858  0.00  0.00     0.062 H 
ATOM     57  H   LIG d   1       7.454  -2.929  -6.132  0.00  0.00     0.062 H 
ATOM     58  C   LIG d   1       6.921  -8.584  -5.241  0.00  0.00    -0.061 A 
ATOM     59  H   LIG d   1       8.695  -7.448  -5.487  0.00  0.00     0.062 H 
ATOM     60  C   LIG d   1       5.528  -8.583  -5.183  0.00  0.00    -0.061 A 
ATOM     61  H   LIG d   1       7.457  -9.515  -5.123  0.00  0.00     0.062 H 
ATOM     62  H   LIG d   1       5.002  -9.511  -5.020  0.00  0.00     0.062 H 
ATOM     63  H   LIG d   1       3.744  -7.441  -5.282  0.00  0.00     0.062 H 
ENDBRANCH  10  47
TORSDOF 3
ENDMDL
MODEL 3
REMARK VINA RESULT:      -8.0      4.496      6.454
REMARK  3 active torsions:
REMARK  status: ('A' for Active; 'I' for Inactive)
REMARK    1  A    between atoms: C_1  and  N_2 
REMARK    2  A    between atoms: C_5  and  N_8 
REMARK    3  A    between atoms: C_17  and  C_24 
ROOT
ATOM      1  N   LIG d   1       6.956  -0.487  -5.056  0.00  0.00    -0.298 N 
ATOM      2  C   LIG d   1       7.285  -1.660  -4.240  0.00  0.00     0.004 C 
ATOM      3  C   LIG d   1       6.156  -2.677  -4.260  0.00  0.00    -0.009 C 
ATOM      4  H   LIG d   1       6.514  -3.551  -3.695  0.00  0.00     0.033 H 
ATOM      5  C   LIG d   1       5.804  -3.076  -5.709  0.00  0.00    -0.038 C 
ATOM      6  C   LIG d   1       5.440  -1.784  -6.450  0.00  0.00     0.013 C 
ATOM      7  H   LIG d   1       5.095  -2.020  -7.468  0.00  0.00     0.038 H 
ATOM      8  C   LIG d   1       6.677  -0.871  -6.449  0.00  0.00     0.007 C 
ATOM      9  C   LIG d   1       4.342  -1.061  -5.703  0.00  0.00     0.034 A 
ATOM     10  C   LIG d   1       3.514  -0.247  -6.432  0.00  0.00     0.002 A 
ATOM     11  C   LIG d   1       2.505   0.498  -5.790  0.00  0.00    -0.047 A 
ATOM     12  C   LIG d   1       2.394   0.419  -4.435  0.00  0.00     0.004 A 
ATOM     13  C   LIG d   1       3.260  -0.417  -3.762  0.00  0.00     0.252 A 
ATOM     14  O   LIG d   1       3.190  -0.442  -2.544  0.00  0.00    -0.268 OA
ATOM     15  N   LIG d   1       4.172  -1.195  -4.394  0.00  0.00    -0.311 N 
ATOM     16  C   LIG d   1       4.908  -2.153  -3.569  0.00  0.00     0.030 C 
ATOM     17  H   LIG d   1       8.196  -2.137  -4.635  0.00  0.00     0.043 H 
ATOM     18  H   LIG d   1       7.458  -1.346  -3.201  0.00  0.00     0.043 H 
ATOM     19  H   LIG d   1       6.674  -3.561  -6.177  0.00  0.00     0.028 H 
ATOM     20  H   LIG d   1       4.954  -3.774  -5.702  0.00  0.00     0.028 H 
ATOM     21  H   LIG d   1       6.484   0.032  -7.046  0.00  0.00     0.043 H 
ATOM     22  H   LIG d   1       7.545  -1.405  -6.863  0.00  0.00     0.043 H 
ATOM     23  H   LIG d   1       1.831   1.120  -6.362  0.00  0.00     0.063 H 
ATOM     24  H   LIG d   1       1.645   0.995  -3.913  0.00  0.00     0.067 H 
ATOM     25  H   LIG d   1       4.235  -2.994  -3.342  0.00  0.00     0.050 H 
ATOM     26  H   LIG d   1       5.192  -1.648  -2.634  0.00  0.00     0.050 H 
ENDROOT
BRANCH   1  27
ATOM     27  C   LIG d   1       8.026   0.517  -4.992  0.00  0.00     0.020 C 
ATOM     28  C   LIG d   1       7.977   1.398  -6.243  0.00  0.00     0.003 C 
ATOM     29  C   LIG d   1       9.055   2.480  -6.141  0.00  0.00    -0.031 C 
ATOM     30  H   LIG d   1       6.988   1.872  -6.321  0.00  0.00     0.033 H 
ATOM     31  H   LIG d   1       8.160   0.781  -7.136  0.00  0.00     0.033 H 
ATOM     32  N   LIG d   1       8.823   3.292  -4.940  0.00  0.00     0.233 N 
ATOM     33  H   LIG d   1       9.012   3.123  -7.033  0.00  0.00     0.082 H 
ATOM     34  H   LIG d   1      10.045   2.006  -6.078  0.00  0.00     0.082 H 
ATOM     35  C   LIG d   1       8.912   2.476  -3.723  0.00  0.00    -0.031 C 
ATOM     36  H   LIG d   1       7.801   3.695  -4.999  0.00  0.00     0.203 HD
ATOM     37  C   LIG d   1       7.830   1.394  -3.751  0.00  0.00     0.003 C 
ATOM     38  H   LIG d   1       9.904   2.003  -3.671  0.00  0.00     0.082 H 
ATOM     39  H   LIG d   1       8.765   3.117  -2.840  0.00  0.00     0.082 H 
ATOM     40  H   LIG d   1       6.838   1.866  -3.789  0.00  0.00     0.033 H 
ATOM     41  H   LIG d   1       7.907   0.772  -2.847  0.00  0.00     0.033 H 
ATOM     42  H   LIG d   1       8.979  -0.029  -4.936  0.00  0.00     0.047 H 
BRANCH  32  43
ATOM     43  C   LIG d   1       9.755   4.427  -4.883  0.00  0.00    -0.043 C 
ATOM     44  H   LIG d   1       9.192   5.355  -4.709  0.00  0.00     0.078 H 
ATOM     45  H   LIG d   1      10.299   4.501  -5.836  0.00  0.00     0.078 H 
ATOM     46  H   LIG d   1      10.471   4.272  -4.063  0.00  0.00     0.078 H 
ENDBRANCH  32  43
ENDBRANCH   1  27
BRANCH  10  47
ATOM     47  C   LIG d   1       3.682  -0.150  -7.903  0.00  0.00    -0.016 A 
ATOM     48  C   LIG d   1       3.075  -1.082  -8.725  0.00  0.00    -0.046 A 
ATOM     49  C   LIG d   1       3.237  -0.984 -10.115  0.00  0.00    -0.017 A 
ATOM     50  H   LIG d   1       2.481  -1.877  -8.299  0.00  0.00     0.063 H 
ATOM     51  C   LIG d   1       4.020   0.067 -10.656  0.00  0.00    -0.018 A 
ATOM     52  C   LIG d   1       2.636  -1.913 -10.983  0.00  0.00    -0.054 A 
ATOM     53  C   LIG d   1       4.624   0.999  -9.792  0.00  0.00    -0.053 A 
ATOM     54  C   LIG d   1       4.179   0.160 -12.048  0.00  0.00    -0.054 A 
ATOM     55  C   LIG d   1       4.450   0.891  -8.449  0.00  0.00    -0.053 A 
ATOM     56  H   LIG d   1       5.221   1.803 -10.196  0.00  0.00     0.062 H 
ATOM     57  H   LIG d   1       4.912   1.613  -7.792  0.00  0.00     0.062 H 
ATOM     58  C   LIG d   1       3.582  -0.756 -12.858  0.00  0.00    -0.061 A 
ATOM     59  H   LIG d   1       4.772   0.956 -12.474  0.00  0.00     0.062 H 
ATOM     60  C   LIG d   1       2.812  -1.791 -12.328  0.00  0.00    -0.061 A 
ATOM     61  H   LIG d   1       3.706  -0.681 -13.929  0.00  0.00     0.062 H 
ATOM     62  H   LIG d   1       2.351  -2.504 -12.993  0.00  0.00     0.062 H 
ATOM     63  H   LIG d   1       2.038  -2.719 -10.586  0.00  0.00     0.062 H 
ENDBRANCH  10  47
TORSDOF 3
ENDMDL
MODEL 4
REMARK VINA RESULT:      -7.2      2.971      5.386
REMARK  3 active torsions:
REMARK  status: ('A' for Active; 'I' for Inactive)
REMARK    1  A    between atoms: C_1  and  N_2 
REMARK    2  A    between atoms: C_5  and  N_8 
REMARK    3  A    between atoms: C_17  and  C_24 
ROOT
ATOM      1  N   LIG d   1      11.954   2.652  -3.819  0.00  0.00    -0.298 N 
ATOM      2  C   LIG d   1      12.339   3.976  -3.320  0.00  0.00     0.004 C 
ATOM      3  C   LIG d   1      11.210   4.979  -3.494  0.00  0.00    -0.009 C 
ATOM      4  H   LIG d   1      11.550   5.915  -3.027  0.00  0.00     0.033 H 
ATOM      5  C   LIG d   1       9.920   4.473  -2.816  0.00  0.00    -0.038 C 
ATOM      6  C   LIG d   1       9.593   3.111  -3.440  0.00  0.00     0.013 C 
ATOM      7  H   LIG d   1       8.631   2.742  -3.054  0.00  0.00     0.038 H 
ATOM      8  C   LIG d   1      10.755   2.153  -3.126  0.00  0.00     0.007 C 
ATOM      9  C   LIG d   1       9.512   3.247  -4.944  0.00  0.00     0.034 A 
ATOM     10  C   LIG d   1       8.716   2.356  -5.615  0.00  0.00     0.002 A 
ATOM     11  C   LIG d   1       8.638   2.392  -7.022  0.00  0.00    -0.047 A 
ATOM     12  C   LIG d   1       9.393   3.303  -7.696  0.00  0.00     0.004 A 
ATOM     13  C   LIG d   1      10.174   4.169  -6.960  0.00  0.00     0.252 A 
ATOM     14  O   LIG d   1      10.888   4.947  -7.572  0.00  0.00    -0.268 OA
ATOM     15  N   LIG d   1      10.178   4.185  -5.605  0.00  0.00    -0.311 N 
ATOM     16  C   LIG d   1      10.926   5.265  -4.959  0.00  0.00     0.030 C 
ATOM     17  H   LIG d   1      12.587   3.908  -2.250  0.00  0.00     0.043 H 
ATOM     18  H   LIG d   1      13.218   4.335  -3.877  0.00  0.00     0.043 H 
ATOM     19  H   LIG d   1      10.090   4.374  -1.733  0.00  0.00     0.028 H 
ATOM     20  H   LIG d   1       9.105   5.189  -2.995  0.00  0.00     0.028 H 
ATOM     21  H   LIG d   1      10.520   1.141  -3.483  0.00  0.00     0.043 H 
ATOM     22  H   LIG d   1      10.942   2.126  -2.042  0.00  0.00     0.043 H 
ATOM     23  H   LIG d   1       7.991   1.711  -7.555  0.00  0.00     0.063 H 
ATOM     24  H   LIG d   1       9.371   3.340  -8.775  0.00  0.00     0.067 H 
ATOM     25  H   LIG d   1      10.331   6.186  -5.043  0.00  0.00     0.050 H 
ATOM     26  H   LIG d   1      11.876   5.390  -5.499  0.00  0.00     0.050 H 
ENDROOT
BRANCH   1  27
ATOM     27  C   LIG d   1      13.065   1.699  -3.698  0.00  0.00     0.020 C 
ATOM     28  C   LIG d   1      12.569   0.290  -4.033  0.00  0.00     0.003 C 
ATOM     29  C   LIG d   1      13.744  -0.688  -3.965  0.00  0.00    -0.031 C 
ATOM     30  H   LIG d   1      12.142   0.281  -5.046  0.00  0.00     0.033 H 
ATOM     31  H   LIG d   1      11.799  -0.012  -3.307  0.00  0.00     0.033 H 
ATOM     32  N   LIG d   1      14.781  -0.275  -4.920  0.00  0.00     0.233 N 
ATOM     33  H   LIG d   1      13.393  -1.699  -4.219  0.00  0.00     0.082 H 
ATOM     34  H   LIG d   1      14.162  -0.689  -2.948  0.00  0.00     0.082 H 
ATOM     35  C   LIG d   1      15.306   1.055  -4.591  0.00  0.00    -0.031 C 
ATOM     36  H   LIG d   1      14.317  -0.216  -5.915  0.00  0.00     0.203 HD
ATOM     37  C   LIG d   1      14.178   2.087  -4.676  0.00  0.00     0.003 C 
ATOM     38  H   LIG d   1      15.717   1.045  -3.570  0.00  0.00     0.082 H 
ATOM     39  H   LIG d   1      16.101   1.323  -5.303  0.00  0.00     0.082 H 
ATOM     40  H   LIG d   1      13.776   2.107  -5.699  0.00  0.00     0.033 H 
ATOM     41  H   LIG d   1      14.567   3.081  -4.414  0.00  0.00     0.033 H 
ATOM     42  H   LIG d   1      13.424   1.751  -2.660  0.00  0.00     0.047 H 
BRANCH  32  43
ATOM     43  C   LIG d   1      15.863  -1.268  -4.983  0.00  0.00    -0.043 C 
ATOM     44  H   LIG d   1      15.514  -2.156  -5.529  0.00  0.00     0.078 H 
ATOM     45  H   LIG d   1      16.156  -1.556  -3.963  0.00  0.00     0.078 H 
ATOM     46  H   LIG d   1      16.729  -0.833  -5.503  0.00  0.00     0.078 H 
ENDBRANCH  32  43
ENDBRANCH   1  27
BRANCH  10  47
ATOM     47  C   LIG d   1       7.934   1.348  -4.858  0.00  0.00    -0.016 A 
ATOM     48  C   LIG d   1       6.902   1.759  -4.034  0.00  0.00    -0.046 A 
ATOM     49  C   LIG d   1       6.166   0.801  -3.321  0.00  0.00    -0.017 A 
ATOM     50  H   LIG d   1       6.666   2.808  -3.942  0.00  0.00     0.063 H 
ATOM     51  C   LIG d   1       6.491  -0.572  -3.455  0.00  0.00    -0.018 A 
ATOM     52  C   LIG d   1       5.110   1.180  -2.473  0.00  0.00    -0.054 A 
ATOM     53  C   LIG d   1       7.547  -0.958  -4.301  0.00  0.00    -0.053 A 
ATOM     54  C   LIG d   1       5.751  -1.527  -2.738  0.00  0.00    -0.054 A 
ATOM     55  C   LIG d   1       8.244  -0.016  -4.988  0.00  0.00    -0.053 A 
ATOM     56  H   LIG d   1       7.800  -2.002  -4.409  0.00  0.00     0.062 H 
ATOM     57  H   LIG d   1       9.050  -0.319  -5.640  0.00  0.00     0.062 H 
ATOM     58  C   LIG d   1       4.735  -1.124  -1.927  0.00  0.00    -0.061 A 
ATOM     59  H   LIG d   1       5.987  -2.577  -2.831  0.00  0.00     0.062 H 
ATOM     60  C   LIG d   1       4.415   0.226  -1.794  0.00  0.00    -0.061 A 
ATOM     61  H   LIG d   1       4.167  -1.861  -1.378  0.00  0.00     0.062 H 
ATOM     62  H   LIG d   1       3.605   0.519  -1.144  0.00  0.00     0.062 H 
ATOM     63  H   LIG d   1       4.851   2.222  -2.360  0.00  0.00     0.062 H 
ENDBRANCH  10  47
TORSDOF 3
ENDMDL
MODEL 5
REMARK VINA RESULT:      -7.1      6.180      9.175
REMARK  3 active torsions:
REMARK  status: ('A' for Active; 'I' for Inactive)
REMARK    1  A    between atoms: C_1  and  N_2 
REMARK    2  A    between atoms: C_5  and  N_8 
REMARK    3  A    between atoms: C_17  and  C_24 
ROOT
ATOM      1  N   LIG d   1       3.156  -3.123  -9.858  0.00  0.00    -0.298 N 
ATOM      2  C   LIG d   1       4.195  -3.762 -10.672  0.00  0.00     0.004 C 
ATOM      3  C   LIG d   1       5.507  -2.998 -10.587  0.00  0.00    -0.009 C 
ATOM      4  H   LIG d   1       6.245  -3.583 -11.156  0.00  0.00     0.033 H 
ATOM      5  C   LIG d   1       5.955  -2.843  -9.118  0.00  0.00    -0.038 C 
ATOM      6  C   LIG d   1       4.816  -2.132  -8.378  0.00  0.00     0.013 C 
ATOM      7  H   LIG d   1       5.118  -1.916  -7.343  0.00  0.00     0.038 H 
ATOM      8  C   LIG d   1       3.570  -3.030  -8.448  0.00  0.00     0.007 C 
ATOM      9  C   LIG d   1       4.481  -0.836  -9.084  0.00  0.00     0.034 A 
ATOM     10  C   LIG d   1       3.939   0.171  -8.328  0.00  0.00     0.002 A 
ATOM     11  C   LIG d   1       3.554   1.384  -8.934  0.00  0.00    -0.047 A 
ATOM     12  C   LIG d   1       3.699   1.519 -10.281  0.00  0.00     0.004 A 
ATOM     13  C   LIG d   1       4.249   0.466 -10.982  0.00  0.00     0.252 A 
ATOM     14  O   LIG d   1       4.326   0.573 -12.195  0.00  0.00    -0.268 OA
ATOM     15  N   LIG d   1       4.696  -0.664 -10.382  0.00  0.00    -0.311 N 
ATOM     16  C   LIG d   1       5.406  -1.624 -11.227  0.00  0.00     0.030 C 
ATOM     17  H   LIG d   1       4.362  -4.789 -10.313  0.00  0.00     0.043 H 
ATOM     18  H   LIG d   1       3.871  -3.789 -11.722  0.00  0.00     0.043 H 
ATOM     19  H   LIG d   1       6.140  -3.837  -8.684  0.00  0.00     0.028 H 
ATOM     20  H   LIG d   1       6.878  -2.247  -9.077  0.00  0.00     0.028 H 
ATOM     21  H   LIG d   1       2.753  -2.594  -7.855  0.00  0.00     0.043 H 
ATOM     22  H   LIG d   1       3.803  -4.035  -8.067  0.00  0.00     0.043 H 
ATOM     23  H   LIG d   1       3.152   2.192  -8.340  0.00  0.00     0.063 H 
ATOM     24  H   LIG d   1       3.392   2.428 -10.775  0.00  0.00     0.067 H 
ATOM     25  H   LIG d   1       6.417  -1.231 -11.412  0.00  0.00     0.050 H 
ATOM     26  H   LIG d   1       4.863  -1.703 -12.180  0.00  0.00     0.050 H 
ENDROOT
BRANCH   1  27
ATOM     27  C   LIG d   1       1.876  -3.832  -9.984  0.00  0.00     0.020 C 
ATOM     28  C   LIG d   1       1.163  -3.378 -11.260  0.00  0.00     0.003 C 
ATOM     29  C   LIG d   1      -0.140  -4.164 -11.418  0.00  0.00    -0.031 C 
ATOM     30  H   LIG d   1       1.810  -3.562 -12.130  0.00  0.00     0.033 H 
ATOM     31  H   LIG d   1       0.936  -2.303 -11.193  0.00  0.00     0.033 H 
ATOM     32  N   LIG d   1       0.160  -5.600 -11.489  0.00  0.00     0.233 N 
ATOM     33  H   LIG d   1      -0.648  -3.850 -12.342  0.00  0.00     0.082 H 
ATOM     34  H   LIG d   1      -0.793  -3.968 -10.556  0.00  0.00     0.082 H 
ATOM     35  C   LIG d   1       0.802  -6.069 -10.255  0.00  0.00    -0.031 C 
ATOM     36  H   LIG d   1       0.868  -5.755 -12.316  0.00  0.00     0.203 HD
ATOM     37  C   LIG d   1       2.134  -5.340 -10.061  0.00  0.00     0.003 C 
ATOM     38  H   LIG d   1       0.143  -5.864  -9.398  0.00  0.00     0.082 H 
ATOM     39  H   LIG d   1       0.985  -7.153 -10.325  0.00  0.00     0.082 H 
ATOM     40  H   LIG d   1       2.798  -5.555 -10.911  0.00  0.00     0.033 H 
ATOM     41  H   LIG d   1       2.607  -5.679  -9.129  0.00  0.00     0.033 H 
ATOM     42  H   LIG d   1       1.280  -3.584  -9.094  0.00  0.00     0.047 H 
BRANCH  32  43
ATOM     43  C   LIG d   1      -1.053  -6.378 -11.780  0.00  0.00    -0.043 C 
ATOM     44  H   LIG d   1      -1.150  -6.513 -12.866  0.00  0.00     0.078 H 
ATOM     45  H   LIG d   1      -1.933  -5.839 -11.397  0.00  0.00     0.078 H 
ATOM     46  H   LIG d   1      -0.984  -7.360 -11.292  0.00  0.00     0.078 H 
ENDBRANCH  32  43
ENDBRANCH   1  27
BRANCH  10  47
ATOM     47  C   LIG d   1       3.756  -0.017  -6.869  0.00  0.00    -0.016 A 
ATOM     48  C   LIG d   1       4.777  -0.567  -6.116  0.00  0.00    -0.046 A 
ATOM     49  C   LIG d   1       4.599  -0.741  -4.735  0.00  0.00    -0.017 A 
ATOM     50  H   LIG d   1       5.704  -0.858  -6.587  0.00  0.00     0.063 H 
ATOM     51  C   LIG d   1       3.375  -0.353  -4.133  0.00  0.00    -0.018 A 
ATOM     52  C   LIG d   1       5.614  -1.297  -3.935  0.00  0.00    -0.054 A 
ATOM     53  C   LIG d   1       2.356   0.203  -4.928  0.00  0.00    -0.053 A 
ATOM     54  C   LIG d   1       3.201  -0.531  -2.751  0.00  0.00    -0.054 A 
ATOM     55  C   LIG d   1       2.550   0.370  -6.262  0.00  0.00    -0.053 A 
ATOM     56  H   LIG d   1       1.421   0.502  -4.477  0.00  0.00     0.062 H 
ATOM     57  H   LIG d   1       1.765   0.802  -6.865  0.00  0.00     0.062 H 
ATOM     58  C   LIG d   1       4.206  -1.071  -2.009  0.00  0.00    -0.061 A 
ATOM     59  H   LIG d   1       2.275  -0.239  -2.279  0.00  0.00     0.062 H 
ATOM     60  C   LIG d   1       5.409  -1.454  -2.599  0.00  0.00    -0.061 A 
ATOM     61  H   LIG d   1       4.069  -1.206  -0.945  0.00  0.00     0.062 H 
ATOM     62  H   LIG d   1       6.189  -1.881  -1.987  0.00  0.00     0.062 H 
ATOM     63  H   LIG d   1       6.551  -1.598  -4.380  0.00  0.00     0.062 H 
ENDBRANCH  10  47
TORSDOF 3
ENDMDL
MODEL 6
REMARK VINA RESULT:      -7.0      3.439      6.420
REMARK  3 active torsions:
REMARK  status: ('A' for Active; 'I' for Inactive)
REMARK    1  A    between atoms: C_1  and  N_2 
REMARK    2  A    between atoms: C_5  and  N_8 
REMARK    3  A    between atoms: C_17  and  C_24 
ROOT
ATOM      1  N   LIG d   1       7.293   0.280  -6.813  0.00  0.00    -0.298 N 
ATOM      2  C   LIG d   1       8.054   1.532  -6.756  0.00  0.00     0.004 C 
ATOM      3  C   LIG d   1       8.726   1.705  -5.403  0.00  0.00    -0.009 C 
ATOM      4  H   LIG d   1       9.334   2.619  -5.472  0.00  0.00     0.033 H 
ATOM      5  C   LIG d   1       9.614   0.486  -5.074  0.00  0.00    -0.038 C 
ATOM      6  C   LIG d   1       8.710  -0.750  -5.123  0.00  0.00     0.013 C 
ATOM      7  H   LIG d   1       9.275  -1.641  -4.810  0.00  0.00     0.038 H 
ATOM      8  C   LIG d   1       8.160  -0.881  -6.553  0.00  0.00     0.007 C 
ATOM      9  C   LIG d   1       7.529  -0.554  -4.199  0.00  0.00     0.034 A 
ATOM     10  C   LIG d   1       6.945  -1.679  -3.675  0.00  0.00     0.002 A 
ATOM     11  C   LIG d   1       5.807  -1.570  -2.851  0.00  0.00    -0.047 A 
ATOM     12  C   LIG d   1       5.284  -0.334  -2.617  0.00  0.00     0.004 A 
ATOM     13  C   LIG d   1       5.918   0.755  -3.176  0.00  0.00     0.252 A 
ATOM     14  O   LIG d   1       5.414   1.853  -3.006  0.00  0.00    -0.268 OA
ATOM     15  N   LIG d   1       7.061   0.650  -3.897  0.00  0.00    -0.311 N 
ATOM     16  C   LIG d   1       7.713   1.901  -4.287  0.00  0.00     0.030 C 
ATOM     17  H   LIG d   1       8.830   1.525  -7.536  0.00  0.00     0.043 H 
ATOM     18  H   LIG d   1       7.375   2.381  -6.922  0.00  0.00     0.043 H 
ATOM     19  H   LIG d   1      10.421   0.409  -5.819  0.00  0.00     0.028 H 
ATOM     20  H   LIG d   1      10.051   0.610  -4.072  0.00  0.00     0.028 H 
ATOM     21  H   LIG d   1       7.574  -1.805  -6.653  0.00  0.00     0.043 H 
ATOM     22  H   LIG d   1       8.986  -0.890  -7.279  0.00  0.00     0.043 H 
ATOM     23  H   LIG d   1       5.358  -2.450  -2.413  0.00  0.00     0.063 H 
ATOM     24  H   LIG d   1       4.399  -0.222  -2.008  0.00  0.00     0.067 H 
ATOM     25  H   LIG d   1       8.220   2.310  -3.401  0.00  0.00     0.050 H 
ATOM     26  H   LIG d   1       6.933   2.601  -4.620  0.00  0.00     0.050 H 
ENDROOT
BRANCH   1  27
ATOM     27  C   LIG d   1       6.601   0.142  -8.101  0.00  0.00     0.020 C 
ATOM     28  C   LIG d   1       5.475  -0.887  -7.971  0.00  0.00     0.003 C 
ATOM     29  C   LIG d   1       4.720  -0.982  -9.298  0.00  0.00    -0.031 C 
ATOM     30  H   LIG d   1       4.782  -0.575  -7.176  0.00  0.00     0.033 H 
ATOM     31  H   LIG d   1       5.902  -1.870  -7.721  0.00  0.00     0.033 H 
ATOM     32  N   LIG d   1       4.167   0.335  -9.642  0.00  0.00     0.233 N 
ATOM     33  H   LIG d   1       3.902  -1.710  -9.203  0.00  0.00     0.082 H 
ATOM     34  H   LIG d   1       5.411  -1.307 -10.090  0.00  0.00     0.082 H 
ATOM     35  C   LIG d   1       5.233   1.328  -9.820  0.00  0.00    -0.031 C 
ATOM     36  H   LIG d   1       3.538   0.664  -8.803  0.00  0.00     0.203 HD
ATOM     37  C   LIG d   1       6.004   1.493  -8.508  0.00  0.00     0.003 C 
ATOM     38  H   LIG d   1       5.921   0.992 -10.610  0.00  0.00     0.082 H 
ATOM     39  H   LIG d   1       4.790   2.294 -10.107  0.00  0.00     0.082 H 
ATOM     40  H   LIG d   1       5.320   1.842  -7.721  0.00  0.00     0.033 H 
ATOM     41  H   LIG d   1       6.813   2.225  -8.645  0.00  0.00     0.033 H 
ATOM     42  H   LIG d   1       7.350  -0.190  -8.836  0.00  0.00     0.047 H 
BRANCH  32  43
ATOM     43  C   LIG d   1       3.319   0.253 -10.840  0.00  0.00    -0.043 C 
ATOM     44  H   LIG d   1       3.953   0.139 -11.731  0.00  0.00     0.078 H 
ATOM     45  H   LIG d   1       2.722   1.172 -10.929  0.00  0.00     0.078 H 
ATOM     46  H   LIG d   1       2.647  -0.614 -10.754  0.00  0.00     0.078 H 
ENDBRANCH  32  43
ENDBRANCH   1  27
BRANCH  10  47
ATOM     47  C   LIG d   1       7.512  -3.015  -3.979  0.00  0.00    -0.016 A 
ATOM     48  C   LIG d   1       8.614  -3.467  -3.275  0.00  0.00    -0.046 A 
ATOM     49  C   LIG d   1       9.146  -4.733  -3.566  0.00  0.00    -0.017 A 
ATOM     50  H   LIG d   1       9.059  -2.851  -2.509  0.00  0.00     0.063 H 
ATOM     51  C   LIG d   1       8.547  -5.527  -4.576  0.00  0.00    -0.018 A 
ATOM     52  C   LIG d   1      10.265  -5.227  -2.873  0.00  0.00    -0.054 A 
ATOM     53  C   LIG d   1       7.427  -5.038  -5.273  0.00  0.00    -0.053 A 
ATOM     54  C   LIG d   1       9.084  -6.793  -4.863  0.00  0.00    -0.054 A 
ATOM     55  C   LIG d   1       6.923  -3.813  -4.973  0.00  0.00    -0.053 A 
ATOM     56  H   LIG d   1       6.965  -5.638  -6.043  0.00  0.00     0.062 H 
ATOM     57  H   LIG d   1       6.060  -3.446  -5.509  0.00  0.00     0.062 H 
ATOM     58  C   LIG d   1      10.167  -7.240  -4.172  0.00  0.00    -0.061 A 
ATOM     59  H   LIG d   1       8.637  -7.410  -5.629  0.00  0.00     0.062 H 
ATOM     60  C   LIG d   1      10.757  -6.459  -3.179  0.00  0.00    -0.061 A 
ATOM     61  H   LIG d   1      10.577  -8.214  -4.395  0.00  0.00     0.062 H 
ATOM     62  H   LIG d   1      11.617  -6.836  -2.646  0.00  0.00     0.062 H 
ATOM     63  H   LIG d   1      10.732  -4.633  -2.102  0.00  0.00     0.062 H 
ENDBRANCH  10  47
TORSDOF 3
ENDMDL
MODEL 7
REMARK VINA RESULT:      -6.9      3.976      6.725
REMARK  3 active torsions:
REMARK  status: ('A' for Active; 'I' for Inactive)
REMARK    1  A    between atoms: C_1  and  N_2 
REMARK    2  A    between atoms: C_5  and  N_8 
REMARK    3  A    between atoms: C_17  and  C_24 
ROOT
ATOM      1  N   LIG d   1       6.077  -0.023  -7.332  0.00  0.00    -0.298 N 
ATOM      2  C   LIG d   1       7.048   1.038  -7.618  0.00  0.00     0.004 C 
ATOM      3  C   LIG d   1       8.204   1.004  -6.632  0.00  0.00    -0.009 C 
ATOM      4  H   LIG d   1       8.918   1.773  -6.964  0.00  0.00     0.033 H 
ATOM      5  C   LIG d   1       8.873  -0.387  -6.621  0.00  0.00    -0.038 C 
ATOM      6  C   LIG d   1       7.779  -1.404  -6.274  0.00  0.00     0.013 C 
ATOM      7  H   LIG d   1       8.219  -2.406  -6.166  0.00  0.00     0.038 H 
ATOM      8  C   LIG d   1       6.712  -1.350  -7.379  0.00  0.00     0.007 C 
ATOM      9  C   LIG d   1       7.109  -1.007  -4.977  0.00  0.00     0.034 A 
ATOM     10  C   LIG d   1       6.547  -2.007  -4.227  0.00  0.00     0.002 A 
ATOM     11  C   LIG d   1       5.859  -1.700  -3.035  0.00  0.00    -0.047 A 
ATOM     12  C   LIG d   1       5.738  -0.395  -2.667  0.00  0.00     0.004 A 
ATOM     13  C   LIG d   1       6.326   0.562  -3.467  0.00  0.00     0.252 A 
ATOM     14  O   LIG d   1       6.168   1.732  -3.160  0.00  0.00    -0.268 OA
ATOM     15  N   LIG d   1       7.058   0.253  -4.566  0.00  0.00    -0.311 N 
ATOM     16  C   LIG d   1       7.760   1.356  -5.223  0.00  0.00     0.030 C 
ATOM     17  H   LIG d   1       7.448   0.904  -8.635  0.00  0.00     0.043 H 
ATOM     18  H   LIG d   1       6.552   2.017  -7.546  0.00  0.00     0.043 H 
ATOM     19  H   LIG d   1       9.298  -0.597  -7.615  0.00  0.00     0.028 H 
ATOM     20  H   LIG d   1       9.674  -0.404  -5.868  0.00  0.00     0.028 H 
ATOM     21  H   LIG d   1       5.951  -2.126  -7.212  0.00  0.00     0.043 H 
ATOM     22  H   LIG d   1       7.176  -1.499  -8.364  0.00  0.00     0.043 H 
ATOM     23  H   LIG d   1       5.437  -2.486  -2.425  0.00  0.00     0.063 H 
ATOM     24  H   LIG d   1       5.198  -0.128  -1.771  0.00  0.00     0.067 H 
ATOM     25  H   LIG d   1       8.640   1.609  -4.614  0.00  0.00     0.050 H 
ATOM     26  H   LIG d   1       7.078   2.219  -5.259  0.00  0.00     0.050 H 
ENDROOT
BRANCH   1  27
ATOM     27  C   LIG d   1       4.934   0.046  -8.252  0.00  0.00     0.020 C 
ATOM     28  C   LIG d   1       5.063  -1.052  -9.312  0.00  0.00     0.003 C 
ATOM     29  C   LIG d   1       3.840  -1.014 -10.231  0.00  0.00    -0.031 C 
ATOM     30  H   LIG d   1       5.123  -2.033  -8.820  0.00  0.00     0.033 H 
ATOM     31  H   LIG d   1       5.974  -0.884  -9.907  0.00  0.00     0.033 H 
ATOM     32  N   LIG d   1       2.623  -1.218  -9.435  0.00  0.00     0.233 N 
ATOM     33  H   LIG d   1       3.924  -1.811 -10.984  0.00  0.00     0.082 H 
ATOM     34  H   LIG d   1       3.789  -0.037 -10.733  0.00  0.00     0.082 H 
ATOM     35  C   LIG d   1       2.452  -0.151  -8.442  0.00  0.00    -0.031 C 
ATOM     36  H   LIG d   1       2.733  -2.168  -8.891  0.00  0.00     0.203 HD
ATOM     37  C   LIG d   1       3.634  -0.162  -7.469  0.00  0.00     0.003 C 
ATOM     38  H   LIG d   1       2.408   0.822  -8.954  0.00  0.00     0.082 H 
ATOM     39  H   LIG d   1       1.518  -0.314  -7.884  0.00  0.00     0.082 H 
ATOM     40  H   LIG d   1       3.671  -1.129  -6.947  0.00  0.00     0.033 H 
ATOM     41  H   LIG d   1       3.515   0.648  -6.735  0.00  0.00     0.033 H 
ATOM     42  H   LIG d   1       4.953   1.042  -8.718  0.00  0.00     0.047 H 
BRANCH  32  43
ATOM     43  C   LIG d   1       1.440  -1.327 -10.300  0.00  0.00    -0.043 C 
ATOM     44  H   LIG d   1       1.645  -2.038 -11.114  0.00  0.00     0.078 H 
ATOM     45  H   LIG d   1       1.206  -0.340 -10.726  0.00  0.00     0.078 H 
ATOM     46  H   LIG d   1       0.585  -1.684  -9.708  0.00  0.00     0.078 H 
ENDBRANCH  32  43
ENDBRANCH   1  27
BRANCH  10  47
ATOM     47  C   LIG d   1       6.660  -3.418  -4.672  0.00  0.00    -0.016 A 
ATOM     48  C   LIG d   1       5.553  -4.063  -5.192  0.00  0.00    -0.046 A 
ATOM     49  C   LIG d   1       5.667  -5.397  -5.613  0.00  0.00    -0.017 A 
ATOM     50  H   LIG d   1       4.610  -3.544  -5.274  0.00  0.00     0.063 H 
ATOM     51  C   LIG d   1       6.913  -6.062  -5.497  0.00  0.00    -0.018 A 
ATOM     52  C   LIG d   1       4.564  -6.087  -6.146  0.00  0.00    -0.054 A 
ATOM     53  C   LIG d   1       8.020  -5.377  -4.963  0.00  0.00    -0.053 A 
ATOM     54  C   LIG d   1       7.022  -7.397  -5.919  0.00  0.00    -0.054 A 
ATOM     55  C   LIG d   1       7.892  -4.084  -4.568  0.00  0.00    -0.053 A 
ATOM     56  H   LIG d   1       8.973  -5.877  -4.873  0.00  0.00     0.062 H 
ATOM     57  H   LIG d   1       8.747  -3.563  -4.164  0.00  0.00     0.062 H 
ATOM     58  C   LIG d   1       5.933  -8.034  -6.431  0.00  0.00    -0.061 A 
ATOM     59  H   LIG d   1       7.965  -7.917  -5.838  0.00  0.00     0.062 H 
ATOM     60  C   LIG d   1       4.707  -7.380  -6.545  0.00  0.00    -0.061 A 
ATOM     61  H   LIG d   1       6.020  -9.061  -6.756  0.00  0.00     0.062 H 
ATOM     62  H   LIG d   1       3.859  -7.909  -6.954  0.00  0.00     0.062 H 
ATOM     63  H   LIG d   1       3.608  -5.593  -6.240  0.00  0.00     0.062 H 
ENDBRANCH  10  47
TORSDOF 3
ENDMDL
MODEL 8
REMARK VINA RESULT:      -6.7      3.138      6.358
REMARK  3 active torsions:
REMARK  status: ('A' for Active; 'I' for Inactive)
REMARK    1  A    between atoms: C_1  and  N_2 
REMARK    2  A    between atoms: C_5  and  N_8 
REMARK    3  A    between atoms: C_17  and  C_24 
ROOT
ATOM      1  N   LIG d   1       9.552  -5.970  -4.648  0.00  0.00    -0.298 N 
ATOM      2  C   LIG d   1      10.978  -5.996  -4.309  0.00  0.00     0.004 C 
ATOM      3  C   LIG d   1      11.598  -4.614  -4.433  0.00  0.00    -0.009 C 
ATOM      4  H   LIG d   1      12.638  -4.707  -4.087  0.00  0.00     0.033 H 
ATOM      5  C   LIG d   1      10.829  -3.591  -3.568  0.00  0.00    -0.038 C 
ATOM      6  C   LIG d   1       9.370  -3.621  -4.036  0.00  0.00     0.013 C 
ATOM      7  H   LIG d   1       8.792  -2.846  -3.511  0.00  0.00     0.038 H 
ATOM      8  C   LIG d   1       8.818  -5.034  -3.781  0.00  0.00     0.007 C 
ATOM      9  C   LIG d   1       9.307  -3.372  -5.526  0.00  0.00     0.034 A 
ATOM     10  C   LIG d   1       8.158  -2.813  -6.024  0.00  0.00     0.002 A 
ATOM     11  C   LIG d   1       8.013  -2.605  -7.410  0.00  0.00    -0.047 A 
ATOM     12  C   LIG d   1       9.018  -2.999  -8.241  0.00  0.00     0.004 A 
ATOM     13  C   LIG d   1      10.145  -3.557  -7.675  0.00  0.00     0.252 A 
ATOM     14  O   LIG d   1      11.018  -3.957  -8.428  0.00  0.00    -0.268 OA
ATOM     15  N   LIG d   1      10.314  -3.676  -6.335  0.00  0.00    -0.311 N 
ATOM     16  C   LIG d   1      11.625  -4.131  -5.873  0.00  0.00     0.030 C 
ATOM     17  H   LIG d   1      11.103  -6.347  -3.273  0.00  0.00     0.043 H 
ATOM     18  H   LIG d   1      11.504  -6.680  -4.992  0.00  0.00     0.043 H 
ATOM     19  H   LIG d   1      10.905  -3.878  -2.508  0.00  0.00     0.028 H 
ATOM     20  H   LIG d   1      11.264  -2.591  -3.710  0.00  0.00     0.028 H 
ATOM     21  H   LIG d   1       7.746  -5.073  -4.024  0.00  0.00     0.043 H 
ATOM     22  H   LIG d   1       8.966  -5.316  -2.729  0.00  0.00     0.043 H 
ATOM     23  H   LIG d   1       7.122  -2.139  -7.807  0.00  0.00     0.063 H 
ATOM     24  H   LIG d   1       8.925  -2.873  -9.309  0.00  0.00     0.067 H 
ATOM     25  H   LIG d   1      12.328  -3.289  -5.963  0.00  0.00     0.050 H 
ATOM     26  H   LIG d   1      11.950  -4.952  -6.528  0.00  0.00     0.050 H 
ENDROOT
BRANCH   1  27
ATOM     27  C   LIG d   1       8.968  -7.316  -4.580  0.00  0.00     0.020 C 
ATOM     28  C   LIG d   1       9.000  -7.815  -3.133  0.00  0.00     0.003 C 
ATOM     29  C   LIG d   1       8.336  -9.192  -3.058  0.00  0.00    -0.031 C 
ATOM     30  H   LIG d   1       8.456  -7.110  -2.488  0.00  0.00     0.033 H 
ATOM     31  H   LIG d   1      10.044  -7.893  -2.792  0.00  0.00     0.033 H 
ATOM     32  N   LIG d   1       6.949  -9.093  -3.530  0.00  0.00     0.233 N 
ATOM     33  H   LIG d   1       8.345  -9.546  -2.017  0.00  0.00     0.082 H 
ATOM     34  H   LIG d   1       8.889  -9.900  -3.692  0.00  0.00     0.082 H 
ATOM     35  C   LIG d   1       6.895  -8.662  -4.932  0.00  0.00    -0.031 C 
ATOM     36  H   LIG d   1       6.442  -8.328  -2.924  0.00  0.00     0.203 HD
ATOM     37  C   LIG d   1       7.516  -7.269  -5.064  0.00  0.00     0.003 C 
ATOM     38  H   LIG d   1       7.455  -9.373  -5.557  0.00  0.00     0.082 H 
ATOM     39  H   LIG d   1       5.846  -8.627  -5.266  0.00  0.00     0.082 H 
ATOM     40  H   LIG d   1       6.949  -6.554  -4.451  0.00  0.00     0.033 H 
ATOM     41  H   LIG d   1       7.490  -6.952  -6.116  0.00  0.00     0.033 H 
ATOM     42  H   LIG d   1       9.574  -7.964  -5.230  0.00  0.00     0.047 H 
BRANCH  32  43
ATOM     43  C   LIG d   1       6.237 -10.365  -3.343  0.00  0.00    -0.043 C 
ATOM     44  H   LIG d   1       6.829 -11.024  -2.691  0.00  0.00     0.078 H 
ATOM     45  H   LIG d   1       6.092 -10.850  -4.319  0.00  0.00     0.078 H 
ATOM     46  H   LIG d   1       5.259 -10.173  -2.880  0.00  0.00     0.078 H 
ENDBRANCH  32  43
ENDBRANCH   1  27
BRANCH  10  47
ATOM     47  C   LIG d   1       7.064  -2.428  -5.100  0.00  0.00    -0.016 A 
ATOM     48  C   LIG d   1       7.089  -1.189  -4.487  0.00  0.00    -0.046 A 
ATOM     49  C   LIG d   1       6.050  -0.830  -3.615  0.00  0.00    -0.017 A 
ATOM     50  H   LIG d   1       7.901  -0.504  -4.679  0.00  0.00     0.063 H 
ATOM     51  C   LIG d   1       4.992  -1.742  -3.374  0.00  0.00    -0.018 A 
ATOM     52  C   LIG d   1       6.041   0.421  -2.972  0.00  0.00    -0.054 A 
ATOM     53  C   LIG d   1       4.997  -2.996  -4.014  0.00  0.00    -0.053 A 
ATOM     54  C   LIG d   1       3.955  -1.378  -2.500  0.00  0.00    -0.054 A 
ATOM     55  C   LIG d   1       6.007  -3.322  -4.860  0.00  0.00    -0.053 A 
ATOM     56  H   LIG d   1       4.194  -3.696  -3.837  0.00  0.00     0.062 H 
ATOM     57  H   LIG d   1       6.002  -4.284  -5.352  0.00  0.00     0.062 H 
ATOM     58  C   LIG d   1       3.978  -0.159  -1.896  0.00  0.00    -0.061 A 
ATOM     59  H   LIG d   1       3.142  -2.063  -2.309  0.00  0.00     0.062 H 
ATOM     60  C   LIG d   1       5.019   0.739  -2.131  0.00  0.00    -0.061 A 
ATOM     61  H   LIG d   1       3.179   0.118  -1.225  0.00  0.00     0.062 H 
ATOM     62  H   LIG d   1       5.013   1.700  -1.639  0.00  0.00     0.062 H 
ATOM     63  H   LIG d   1       6.840   1.126  -3.145  0.00  0.00     0.062 H 
ENDBRANCH  10  47
TORSDOF 3
ENDMDL
MODEL 9
REMARK VINA RESULT:      -6.6      5.160      7.342
REMARK  3 active torsions:
REMARK  status: ('A' for Active; 'I' for Inactive)
REMARK    1  A    between atoms: C_1  and  N_2 
REMARK    2  A    between atoms: C_5  and  N_8 
REMARK    3  A    between atoms: C_17  and  C_24 
ROOT
ATOM      1  N   LIG d   1       6.240  -2.082  -9.300  0.00  0.00    -0.298 N 
ATOM      2  C   LIG d   1       7.105  -1.396 -10.266  0.00  0.00     0.004 C 
ATOM      3  C   LIG d   1       6.624   0.023 -10.523  0.00  0.00    -0.009 C 
ATOM      4  H   LIG d   1       7.365   0.487 -11.190  0.00  0.00     0.033 H 
ATOM      5  C   LIG d   1       6.515   0.812  -9.201  0.00  0.00    -0.038 C 
ATOM      6  C   LIG d   1       5.562   0.028  -8.292  0.00  0.00     0.013 C 
ATOM      7  H   LIG d   1       5.379   0.591  -7.365  0.00  0.00     0.038 H 
ATOM      8  C   LIG d   1       6.188  -1.351  -8.023  0.00  0.00     0.007 C 
ATOM      9  C   LIG d   1       4.249  -0.202  -9.008  0.00  0.00     0.034 A 
ATOM     10  C   LIG d   1       3.128  -0.356  -8.234  0.00  0.00     0.002 A 
ATOM     11  C   LIG d   1       1.882  -0.627  -8.834  0.00  0.00    -0.047 A 
ATOM     12  C   LIG d   1       1.825  -0.767 -10.188  0.00  0.00     0.004 A 
ATOM     13  C   LIG d   1       2.990  -0.602 -10.907  0.00  0.00     0.252 A 
ATOM     14  O   LIG d   1       2.941  -0.781 -12.113  0.00  0.00    -0.268 OA
ATOM     15  N   LIG d   1       4.167  -0.257 -10.330  0.00  0.00    -0.311 N 
ATOM     16  C   LIG d   1       5.280   0.046 -11.231  0.00  0.00     0.030 C 
ATOM     17  H   LIG d   1       8.133  -1.354  -9.873  0.00  0.00     0.043 H 
ATOM     18  H   LIG d   1       7.100  -1.948 -11.217  0.00  0.00     0.043 H 
ATOM     19  H   LIG d   1       7.512   0.895  -8.742  0.00  0.00     0.028 H 
ATOM     20  H   LIG d   1       6.120   1.817  -9.405  0.00  0.00     0.028 H 
ATOM     21  H   LIG d   1       5.575  -1.914  -7.304  0.00  0.00     0.043 H 
ATOM     22  H   LIG d   1       7.206  -1.235  -7.625  0.00  0.00     0.043 H 
ATOM     23  H   LIG d   1       0.990  -0.722  -8.233  0.00  0.00     0.063 H 
ATOM     24  H   LIG d   1       0.888  -0.997 -10.674  0.00  0.00     0.067 H 
ATOM     25  H   LIG d   1       5.108   1.045 -11.658  0.00  0.00     0.050 H 
ATOM     26  H   LIG d   1       5.277  -0.702 -12.037  0.00  0.00     0.050 H 
ENDROOT
BRANCH   1  27
ATOM     27  C   LIG d   1       6.676  -3.469  -9.094  0.00  0.00     0.020 C 
ATOM     28  C   LIG d   1       8.119  -3.482  -8.580  0.00  0.00     0.003 C 
ATOM     29  C   LIG d   1       8.546  -4.926  -8.309  0.00  0.00    -0.031 C 
ATOM     30  H   LIG d   1       8.183  -2.899  -7.650  0.00  0.00     0.033 H 
ATOM     31  H   LIG d   1       8.783  -3.038  -9.337  0.00  0.00     0.033 H 
ATOM     32  N   LIG d   1       7.648  -5.524  -7.313  0.00  0.00     0.233 N 
ATOM     33  H   LIG d   1       9.578  -4.936  -7.927  0.00  0.00     0.082 H 
ATOM     34  H   LIG d   1       8.495  -5.504  -9.243  0.00  0.00     0.082 H 
ATOM     35  C   LIG d   1       6.265  -5.567  -7.803  0.00  0.00    -0.031 C 
ATOM     36  H   LIG d   1       7.667  -4.886  -6.418  0.00  0.00     0.203 HD
ATOM     37  C   LIG d   1       5.768  -4.141  -8.059  0.00  0.00     0.003 C 
ATOM     38  H   LIG d   1       6.225  -6.143  -8.739  0.00  0.00     0.082 H 
ATOM     39  H   LIG d   1       5.623  -6.048  -7.049  0.00  0.00     0.082 H 
ATOM     40  H   LIG d   1       5.795  -3.569  -7.121  0.00  0.00     0.033 H 
ATOM     41  H   LIG d   1       4.738  -4.174  -8.442  0.00  0.00     0.033 H 
ATOM     42  H   LIG d   1       6.603  -3.979 -10.066  0.00  0.00     0.047 H 
BRANCH  32  43
ATOM     43  C   LIG d   1       8.111  -6.864  -6.925  0.00  0.00    -0.043 C 
ATOM     44  H   LIG d   1       9.208  -6.867  -6.855  0.00  0.00     0.078 H 
ATOM     45  H   LIG d   1       7.789  -7.595  -7.681  0.00  0.00     0.078 H 
ATOM     46  H   LIG d   1       7.680  -7.132  -5.949  0.00  0.00     0.078 H 
ENDBRANCH  32  43
ENDBRANCH   1  27
BRANCH  10  47
ATOM     47  C   LIG d   1       3.227  -0.238  -6.758  0.00  0.00    -0.016 A 
ATOM     48  C   LIG d   1       3.968  -1.162  -6.045  0.00  0.00    -0.046 A 
ATOM     49  C   LIG d   1       4.058  -1.045  -4.650  0.00  0.00    -0.017 A 
ATOM     50  H   LIG d   1       4.472  -1.967  -6.559  0.00  0.00     0.063 H 
ATOM     51  C   LIG d   1       3.389   0.019  -3.993  0.00  0.00    -0.018 A 
ATOM     52  C   LIG d   1       4.801  -1.966  -3.890  0.00  0.00    -0.054 A 
ATOM     53  C   LIG d   1       2.644   0.943  -4.748  0.00  0.00    -0.053 A 
ATOM     54  C   LIG d   1       3.483   0.132  -2.596  0.00  0.00    -0.054 A 
ATOM     55  C   LIG d   1       2.574   0.816  -6.098  0.00  0.00    -0.053 A 
ATOM     56  H   LIG d   1       2.133   1.756  -4.255  0.00  0.00     0.062 H 
ATOM     57  H   LIG d   1       2.004   1.532  -6.672  0.00  0.00     0.062 H 
ATOM     58  C   LIG d   1       4.212  -0.777  -1.893  0.00  0.00    -0.061 A 
ATOM     59  H   LIG d   1       2.980   0.938  -2.082  0.00  0.00     0.062 H 
ATOM     60  C   LIG d   1       4.870  -1.824  -2.538  0.00  0.00    -0.061 A 
ATOM     61  H   LIG d   1       4.282  -0.687  -0.819  0.00  0.00     0.062 H 
ATOM     62  H   LIG d   1       5.440  -2.532  -1.956  0.00  0.00     0.062 H 
ATOM     63  H   LIG d   1       5.315  -2.781  -4.376  0.00  0.00     0.062 H 
ENDBRANCH  10  47
TORSDOF 3
ENDMDL
