MODEL 1
REMARK VINA RESULT:      -4.9      0.000      0.000
REMARK  6 active torsions:
REMARK  status: ('A' for Active; 'I' for Inactive)
REMARK    1  A    between atoms: C_1  and  C_2 
REMARK    2  A    between atoms: C_2  and  N_3 
REMARK    3  A    between atoms: N_3  and  C_4 
REMARK    4  A    between atoms: N_3  and  C_6 
REMARK    5  A    between atoms: C_4  and  C_5 
REMARK    6  A    between atoms: C_8  and  C_15 
ROOT
ATOM      1  C   LIG d   1       3.905  -0.085  -4.878  0.00  0.00     0.128 A 
ATOM      2  C   LIG d   1       2.998   0.011  -5.915  0.00  0.00    -0.000 A 
ATOM      3  C   LIG d   1       3.452  -0.130  -7.224  0.00  0.00     0.045 A 
ATOM      4  N   LIG d   1       4.727  -0.351  -7.467  0.00  0.00    -0.216 NA
ATOM      5  C   LIG d   1       5.617  -0.446  -6.473  0.00  0.00     0.255 A 
ATOM      6  N   LIG d   1       5.219  -0.309  -5.173  0.00  0.00    -0.182 N 
ATOM      7  N   LIG d   1       6.370  -0.452  -4.389  0.00  0.00    -0.151 NA
ATOM      8  C   LIG d   1       7.371  -0.654  -5.210  0.00  0.00     0.141 A 
ATOM      9  N   LIG d   1       6.927  -0.660  -6.461  0.00  0.00    -0.197 NA
ATOM     10  H   LIG d   1       1.952   0.191  -5.715  0.00  0.00     0.067 H 
ATOM     11  H   LIG d   1       8.400  -0.802  -4.914  0.00  0.00     0.107 H 
ENDROOT
BRANCH   1  12
ATOM     12  N   LIG d   1       3.493   0.050  -3.571  0.00  0.00    -0.316 N 
BRANCH  12  13
ATOM     13  C   LIG d   1       3.725   1.306  -2.854  0.00  0.00     0.011 C 
ATOM     14  H   LIG d   1       2.770   1.734  -2.551  0.00  0.00     0.046 H 
ATOM     15  H   LIG d   1       4.245   2.007  -3.508  0.00  0.00     0.046 H 
BRANCH  13  16
ATOM     16  C   LIG d   1       4.579   1.036  -1.613  0.00  0.00    -0.049 C 
ATOM     17  H   LIG d   1       5.599   1.375  -1.794  0.00  0.00     0.025 H 
ATOM     18  H   LIG d   1       4.163   1.574  -0.761  0.00  0.00     0.025 H 
ATOM     19  H   LIG d   1       4.583  -0.033  -1.402  0.00  0.00     0.025 H 
ENDBRANCH  13  16
ENDBRANCH  12  13
BRANCH  12  20
ATOM     20  C   LIG d   1       2.821  -1.064  -2.896  0.00  0.00     0.011 C 
ATOM     21  H   LIG d   1       2.351  -0.703  -1.980  0.00  0.00     0.046 H 
ATOM     22  H   LIG d   1       2.061  -1.482  -3.554  0.00  0.00     0.046 H 
BRANCH  20  23
ATOM     23  C   LIG d   1       3.847  -2.145  -2.550  0.00  0.00    -0.049 C 
ATOM     24  H   LIG d   1       4.847  -1.788  -2.795  0.00  0.00     0.025 H 
ATOM     25  H   LIG d   1       3.793  -2.370  -1.485  0.00  0.00     0.025 H 
ATOM     26  H   LIG d   1       3.632  -3.047  -3.123  0.00  0.00     0.025 H 
ENDBRANCH  20  23
ENDBRANCH  12  20
ENDBRANCH   1  12
BRANCH   3  27
ATOM     27  C   LIG d   1       2.477  -0.030  -8.369  0.00  0.00    -0.022 C 
ATOM     28  H   LIG d   1       2.005  -0.999  -8.529  0.00  0.00     0.029 H 
ATOM     29  H   LIG d   1       1.715   0.713  -8.135  0.00  0.00     0.029 H 
ATOM     30  H   LIG d   1       3.009   0.269  -9.273  0.00  0.00     0.029 H 
ENDBRANCH   3  27
TORSDOF 6
ENDMDL
MODEL 2
REMARK VINA RESULT:      -4.6      1.094      2.913
REMARK  6 active torsions:
REMARK  status: ('A' for Active; 'I' for Inactive)
REMARK    1  A    between atoms: C_1  and  C_2 
REMARK    2  A    between atoms: C_2  and  N_3 
REMARK    3  A    between atoms: N_3  and  C_4 
REMARK    4  A    between atoms: N_3  and  C_6 
REMARK    5  A    between atoms: C_4  and  C_5 
REMARK    6  A    between atoms: C_8  and  C_15 
ROOT
ATOM      1  C   LIG d   1       4.563  -0.260  -4.736  0.00  0.00     0.128 A 
ATOM      2  C   LIG d   1       5.909  -0.542  -4.613  0.00  0.00    -0.000 A 
ATOM      3  C   LIG d   1       6.668  -0.731  -5.765  0.00  0.00     0.045 A 
ATOM      4  N   LIG d   1       6.108  -0.642  -6.953  0.00  0.00    -0.216 NA
ATOM      5  C   LIG d   1       4.806  -0.369  -7.088  0.00  0.00     0.255 A 
ATOM      6  N   LIG d   1       4.020  -0.181  -5.986  0.00  0.00    -0.182 N 
ATOM      7  N   LIG d   1       2.727   0.075  -6.459  0.00  0.00    -0.151 NA
ATOM      8  C   LIG d   1       2.781   0.028  -7.767  0.00  0.00     0.141 A 
ATOM      9  N   LIG d   1       4.025  -0.230  -8.154  0.00  0.00    -0.197 NA
ATOM     10  H   LIG d   1       6.368  -0.614  -3.637  0.00  0.00     0.067 H 
ATOM     11  H   LIG d   1       1.943   0.184  -8.431  0.00  0.00     0.107 H 
ENDROOT
BRANCH   1  12
ATOM     12  N   LIG d   1       3.781  -0.067  -3.618  0.00  0.00    -0.316 N 
BRANCH  12  13
ATOM     13  C   LIG d   1       3.793   1.227  -2.930  0.00  0.00     0.011 C 
ATOM     14  H   LIG d   1       2.769   1.541  -2.731  0.00  0.00     0.046 H 
ATOM     15  H   LIG d   1       4.285   1.969  -3.559  0.00  0.00     0.046 H 
BRANCH  13  16
ATOM     16  C   LIG d   1       4.551   1.095  -1.608  0.00  0.00    -0.049 C 
ATOM     17  H   LIG d   1       4.484   2.032  -1.055  0.00  0.00     0.025 H 
ATOM     18  H   LIG d   1       4.113   0.291  -1.016  0.00  0.00     0.025 H 
ATOM     19  H   LIG d   1       5.598   0.868  -1.811  0.00  0.00     0.025 H 
ENDBRANCH  13  16
ENDBRANCH  12  13
BRANCH  12  20
ATOM     20  C   LIG d   1       2.938  -1.155  -3.117  0.00  0.00     0.011 C 
ATOM     21  H   LIG d   1       2.217  -0.756  -2.402  0.00  0.00     0.046 H 
ATOM     22  H   LIG d   1       2.407  -1.616  -3.948  0.00  0.00     0.046 H 
BRANCH  20  23
ATOM     23  C   LIG d   1       3.813  -2.203  -2.426  0.00  0.00    -0.049 C 
ATOM     24  H   LIG d   1       3.909  -3.077  -3.071  0.00  0.00     0.025 H 
ATOM     25  H   LIG d   1       4.801  -1.783  -2.236  0.00  0.00     0.025 H 
ATOM     26  H   LIG d   1       3.353  -2.496  -1.483  0.00  0.00     0.025 H 
ENDBRANCH  20  23
ENDBRANCH  12  20
ENDBRANCH   1  12
BRANCH   3  27
ATOM     27  C   LIG d   1       8.139  -1.039  -5.651  0.00  0.00    -0.022 C 
ATOM     28  H   LIG d   1       8.270  -2.028  -5.211  0.00  0.00     0.029 H 
ATOM     29  H   LIG d   1       8.592  -1.019  -6.642  0.00  0.00     0.029 H 
ATOM     30  H   LIG d   1       8.618  -0.294  -5.017  0.00  0.00     0.029 H 
ENDBRANCH   3  27
TORSDOF 6
ENDMDL
MODEL 3
REMARK VINA RESULT:      -4.6      1.111      1.902
REMARK  6 active torsions:
REMARK  status: ('A' for Active; 'I' for Inactive)
REMARK    1  A    between atoms: C_1  and  C_2 
REMARK    2  A    between atoms: C_2  and  N_3 
REMARK    3  A    between atoms: N_3  and  C_4 
REMARK    4  A    between atoms: N_3  and  C_6 
REMARK    5  A    between atoms: C_4  and  C_5 
REMARK    6  A    between atoms: C_8  and  C_15 
ROOT
ATOM      1  C   LIG d   1       4.140  -0.548  -5.258  0.00  0.00     0.128 A 
ATOM      2  C   LIG d   1       3.269   0.015  -6.170  0.00  0.00    -0.000 A 
ATOM      3  C   LIG d   1       3.463  -0.226  -7.528  0.00  0.00     0.045 A 
ATOM      4  N   LIG d   1       4.462  -0.982  -7.934  0.00  0.00    -0.216 NA
ATOM      5  C   LIG d   1       5.313  -1.535  -7.062  0.00  0.00     0.255 A 
ATOM      6  N   LIG d   1       5.166  -1.321  -5.721  0.00  0.00    -0.182 N 
ATOM      7  N   LIG d   1       6.203  -2.020  -5.091  0.00  0.00    -0.151 NA
ATOM      8  C   LIG d   1       6.906  -2.596  -6.035  0.00  0.00     0.141 A 
ATOM      9  N   LIG d   1       6.374  -2.318  -7.220  0.00  0.00    -0.197 NA
ATOM     10  H   LIG d   1       2.449   0.635  -5.836  0.00  0.00     0.067 H 
ATOM     11  H   LIG d   1       7.779  -3.211  -5.874  0.00  0.00     0.107 H 
ENDROOT
BRANCH   1  12
ATOM     12  N   LIG d   1       3.979  -0.330  -3.908  0.00  0.00    -0.316 N 
BRANCH  12  13
ATOM     13  C   LIG d   1       3.026  -1.139  -3.143  0.00  0.00     0.011 C 
ATOM     14  H   LIG d   1       2.311  -1.598  -3.824  0.00  0.00     0.046 H 
ATOM     15  H   LIG d   1       2.497  -0.503  -2.434  0.00  0.00     0.046 H 
BRANCH  13  16
ATOM     16  C   LIG d   1       3.780  -2.232  -2.383  0.00  0.00    -0.049 C 
ATOM     17  H   LIG d   1       4.567  -1.778  -1.779  0.00  0.00     0.025 H 
ATOM     18  H   LIG d   1       3.088  -2.768  -1.735  0.00  0.00     0.025 H 
ATOM     19  H   LIG d   1       4.225  -2.928  -3.095  0.00  0.00     0.025 H 
ENDBRANCH  13  16
ENDBRANCH  12  13
BRANCH  12  20
ATOM     20  C   LIG d   1       4.761   0.711  -3.235  0.00  0.00     0.011 C 
ATOM     21  H   LIG d   1       5.645   0.263  -2.780  0.00  0.00     0.046 H 
ATOM     22  H   LIG d   1       5.067   1.462  -3.961  0.00  0.00     0.046 H 
BRANCH  20  23
ATOM     23  C   LIG d   1       3.907   1.369  -2.149  0.00  0.00    -0.049 C 
ATOM     24  H   LIG d   1       4.150   2.430  -2.091  0.00  0.00     0.025 H 
ATOM     25  H   LIG d   1       2.852   1.253  -2.397  0.00  0.00     0.025 H 
ATOM     26  H   LIG d   1       4.111   0.896  -1.190  0.00  0.00     0.025 H 
ENDBRANCH  20  23
ENDBRANCH  12  20
ENDBRANCH   1  12
BRANCH   3  27
ATOM     27  C   LIG d   1       2.524   0.379  -8.539  0.00  0.00    -0.022 C 
ATOM     28  H   LIG d   1       2.930   1.327  -8.890  0.00  0.00     0.029 H 
ATOM     29  H   LIG d   1       2.408  -0.302  -9.382  0.00  0.00     0.029 H 
ATOM     30  H   LIG d   1       1.552   0.550  -8.074  0.00  0.00     0.029 H 
ENDBRANCH   3  27
TORSDOF 6
ENDMDL
MODEL 4
REMARK VINA RESULT:      -4.5      1.804      3.445
REMARK  6 active torsions:
REMARK  status: ('A' for Active; 'I' for Inactive)
REMARK    1  A    between atoms: C_1  and  C_2 
REMARK    2  A    between atoms: C_2  and  N_3 
REMARK    3  A    between atoms: N_3  and  C_4 
REMARK    4  A    between atoms: N_3  and  C_6 
REMARK    5  A    between atoms: C_4  and  C_5 
REMARK    6  A    between atoms: C_8  and  C_15 
ROOT
ATOM      1  C   LIG d   1       6.108   0.265  -3.746  0.00  0.00     0.128 A 
ATOM      2  C   LIG d   1       7.180   1.073  -3.420  0.00  0.00    -0.000 A 
ATOM      3  C   LIG d   1       7.940   1.633  -4.443  0.00  0.00     0.045 A 
ATOM      4  N   LIG d   1       7.640   1.395  -5.703  0.00  0.00    -0.216 NA
ATOM      5  C   LIG d   1       6.606   0.615  -6.034  0.00  0.00     0.255 A 
ATOM      6  N   LIG d   1       5.834   0.039  -5.064  0.00  0.00    -0.182 N 
ATOM      7  N   LIG d   1       4.855  -0.710  -5.728  0.00  0.00    -0.151 NA
ATOM      8  C   LIG d   1       5.068  -0.567  -7.013  0.00  0.00     0.141 A 
ATOM      9  N   LIG d   1       6.111   0.232  -7.206  0.00  0.00    -0.197 NA
ATOM     10  H   LIG d   1       7.425   1.269  -2.386  0.00  0.00     0.067 H 
ATOM     11  H   LIG d   1       4.480  -1.023  -7.796  0.00  0.00     0.107 H 
ENDROOT
BRANCH   1  12
ATOM     12  N   LIG d   1       5.335  -0.306  -2.760  0.00  0.00    -0.316 N 
BRANCH  12  13
ATOM     13  C   LIG d   1       4.608   0.545  -1.814  0.00  0.00     0.011 C 
ATOM     14  H   LIG d   1       5.315   1.165  -1.265  0.00  0.00     0.046 H 
ATOM     15  H   LIG d   1       4.054  -0.081  -1.114  0.00  0.00     0.046 H 
BRANCH  13  16
ATOM     16  C   LIG d   1       3.632   1.441  -2.579  0.00  0.00    -0.049 C 
ATOM     17  H   LIG d   1       3.709   1.233  -3.647  0.00  0.00     0.025 H 
ATOM     18  H   LIG d   1       2.614   1.241  -2.243  0.00  0.00     0.025 H 
ATOM     19  H   LIG d   1       3.878   2.486  -2.394  0.00  0.00     0.025 H 
ENDBRANCH  13  16
ENDBRANCH  12  13
BRANCH  12  20
ATOM     20  C   LIG d   1       5.237  -1.764  -2.657  0.00  0.00     0.011 C 
ATOM     21  H   LIG d   1       5.575  -2.217  -3.590  0.00  0.00     0.046 H 
ATOM     22  H   LIG d   1       5.862  -2.113  -1.837  0.00  0.00     0.046 H 
BRANCH  20  23
ATOM     23  C   LIG d   1       3.783  -2.162  -2.395  0.00  0.00    -0.049 C 
ATOM     24  H   LIG d   1       3.641  -2.334  -1.328  0.00  0.00     0.025 H 
ATOM     25  H   LIG d   1       3.122  -1.359  -2.724  0.00  0.00     0.025 H 
ATOM     26  H   LIG d   1       3.551  -3.073  -2.945  0.00  0.00     0.025 H 
ENDBRANCH  20  23
ENDBRANCH  12  20
ENDBRANCH   1  12
BRANCH   3  27
ATOM     27  C   LIG d   1       9.113   2.518  -4.107  0.00  0.00    -0.022 C 
ATOM     28  H   LIG d   1       9.927   2.322  -4.806  0.00  0.00     0.029 H 
ATOM     29  H   LIG d   1       8.814   3.563  -4.181  0.00  0.00     0.029 H 
ATOM     30  H   LIG d   1       9.448   2.307  -3.092  0.00  0.00     0.029 H 
ENDBRANCH   3  27
TORSDOF 6
ENDMDL
MODEL 5
REMARK VINA RESULT:      -4.4      2.149      3.702
REMARK  6 active torsions:
REMARK  status: ('A' for Active; 'I' for Inactive)
REMARK    1  A    between atoms: C_1  and  C_2 
REMARK    2  A    between atoms: C_2  and  N_3 
REMARK    3  A    between atoms: N_3  and  C_4 
REMARK    4  A    between atoms: N_3  and  C_6 
REMARK    5  A    between atoms: C_4  and  C_5 
REMARK    6  A    between atoms: C_8  and  C_15 
ROOT
ATOM      1  C   LIG d   1       5.964  -0.924  -3.900  0.00  0.00     0.128 A 
ATOM      2  C   LIG d   1       6.285  -2.264  -3.994  0.00  0.00    -0.000 A 
ATOM      3  C   LIG d   1       7.553  -2.625  -4.443  0.00  0.00     0.045 A 
ATOM      4  N   LIG d   1       8.432  -1.702  -4.772  0.00  0.00    -0.216 NA
ATOM      5  C   LIG d   1       8.136  -0.400  -4.685  0.00  0.00     0.255 A 
ATOM      6  N   LIG d   1       6.902   0.002  -4.255  0.00  0.00    -0.182 N 
ATOM      7  N   LIG d   1       6.909   1.402  -4.285  0.00  0.00    -0.151 NA
ATOM      8  C   LIG d   1       8.090   1.771  -4.717  0.00  0.00     0.141 A 
ATOM      9  N   LIG d   1       8.835   0.697  -4.952  0.00  0.00    -0.197 NA
ATOM     10  H   LIG d   1       5.564  -3.022  -3.724  0.00  0.00     0.067 H 
ATOM     11  H   LIG d   1       8.411   2.793  -4.853  0.00  0.00     0.107 H 
ENDROOT
BRANCH   1  12
ATOM     12  N   LIG d   1       4.720  -0.530  -3.461  0.00  0.00    -0.316 N 
BRANCH  12  13
ATOM     13  C   LIG d   1       3.672  -0.198  -4.429  0.00  0.00     0.011 C 
ATOM     14  H   LIG d   1       3.807  -0.796  -5.329  0.00  0.00     0.046 H 
ATOM     15  H   LIG d   1       3.734   0.860  -4.683  0.00  0.00     0.046 H 
BRANCH  13  16
ATOM     16  C   LIG d   1       2.301  -0.497  -3.819  0.00  0.00    -0.049 C 
ATOM     17  H   LIG d   1       2.031  -1.534  -4.023  0.00  0.00     0.025 H 
ATOM     18  H   LIG d   1       2.339  -0.337  -2.742  0.00  0.00     0.025 H 
ATOM     19  H   LIG d   1       1.556   0.165  -4.260  0.00  0.00     0.025 H 
ENDBRANCH  13  16
ENDBRANCH  12  13
BRANCH  12  20
ATOM     20  C   LIG d   1       4.444  -0.442  -2.024  0.00  0.00     0.011 C 
ATOM     21  H   LIG d   1       3.427  -0.785  -1.829  0.00  0.00     0.046 H 
ATOM     22  H   LIG d   1       5.150  -1.067  -1.479  0.00  0.00     0.046 H 
BRANCH  20  23
ATOM     23  C   LIG d   1       4.589   1.010  -1.564  0.00  0.00    -0.049 C 
ATOM     24  H   LIG d   1       4.204   1.676  -2.337  0.00  0.00     0.025 H 
ATOM     25  H   LIG d   1       4.023   1.158  -0.644  0.00  0.00     0.025 H 
ATOM     26  H   LIG d   1       5.640   1.232  -1.385  0.00  0.00     0.025 H 
ENDBRANCH  20  23
ENDBRANCH  12  20
ENDBRANCH   1  12
BRANCH   3  27
ATOM     27  C   LIG d   1       7.922  -4.083  -4.552  0.00  0.00    -0.022 C 
ATOM     28  H   LIG d   1       9.002  -4.192  -4.454  0.00  0.00     0.029 H 
ATOM     29  H   LIG d   1       7.426  -4.644  -3.761  0.00  0.00     0.029 H 
ATOM     30  H   LIG d   1       7.605  -4.466  -5.522  0.00  0.00     0.029 H 
ENDBRANCH   3  27
TORSDOF 6
ENDMDL
MODEL 6
REMARK VINA RESULT:      -4.3      2.987      4.514
REMARK  6 active torsions:
REMARK  status: ('A' for Active; 'I' for Inactive)
REMARK    1  A    between atoms: C_1  and  C_2 
REMARK    2  A    between atoms: C_2  and  N_3 
REMARK    3  A    between atoms: N_3  and  C_4 
REMARK    4  A    between atoms: N_3  and  C_6 
REMARK    5  A    between atoms: C_4  and  C_5 
REMARK    6  A    between atoms: C_8  and  C_15 
ROOT
ATOM      1  C   LIG d   1       6.720  -0.986  -4.004  0.00  0.00     0.128 A 
ATOM      2  C   LIG d   1       5.758  -0.734  -3.045  0.00  0.00    -0.000 A 
ATOM      3  C   LIG d   1       5.522   0.581  -2.655  0.00  0.00     0.045 A 
ATOM      4  N   LIG d   1       6.205   1.569  -3.194  0.00  0.00    -0.216 NA
ATOM      5  C   LIG d   1       7.139   1.341  -4.124  0.00  0.00     0.255 A 
ATOM      6  N   LIG d   1       7.410   0.066  -4.534  0.00  0.00    -0.182 N 
ATOM      7  N   LIG d   1       8.425   0.165  -5.494  0.00  0.00    -0.151 NA
ATOM      8  C   LIG d   1       8.716   1.437  -5.615  0.00  0.00     0.141 A 
ATOM      9  N   LIG d   1       7.944   2.150  -4.803  0.00  0.00    -0.197 NA
ATOM     10  H   LIG d   1       5.198  -1.546  -2.604  0.00  0.00     0.067 H 
ATOM     11  H   LIG d   1       9.463   1.844  -6.280  0.00  0.00     0.107 H 
ENDROOT
BRANCH   1  12
ATOM     12  N   LIG d   1       6.982  -2.275  -4.414  0.00  0.00    -0.316 N 
BRANCH  12  13
ATOM     13  C   LIG d   1       8.049  -3.046  -3.771  0.00  0.00     0.011 C 
ATOM     14  H   LIG d   1       7.623  -3.925  -3.290  0.00  0.00     0.046 H 
ATOM     15  H   LIG d   1       8.545  -2.427  -3.023  0.00  0.00     0.046 H 
BRANCH  13  16
ATOM     16  C   LIG d   1       9.068  -3.485  -4.826  0.00  0.00    -0.049 C 
ATOM     17  H   LIG d   1       8.918  -4.539  -5.058  0.00  0.00     0.025 H 
ATOM     18  H   LIG d   1       8.934  -2.890  -5.729  0.00  0.00     0.025 H 
ATOM     19  H   LIG d   1      10.076  -3.338  -4.439  0.00  0.00     0.025 H 
ENDBRANCH  13  16
ENDBRANCH  12  13
BRANCH  12  20
ATOM     20  C   LIG d   1       6.193  -2.876  -5.492  0.00  0.00     0.011 C 
ATOM     21  H   LIG d   1       5.680  -2.090  -6.048  0.00  0.00     0.046 H 
ATOM     22  H   LIG d   1       6.852  -3.424  -6.163  0.00  0.00     0.046 H 
BRANCH  20  23
ATOM     23  C   LIG d   1       5.160  -3.835  -4.896  0.00  0.00    -0.049 C 
ATOM     24  H   LIG d   1       5.620  -4.811  -4.740  0.00  0.00     0.025 H 
ATOM     25  H   LIG d   1       4.809  -3.443  -3.941  0.00  0.00     0.025 H 
ATOM     26  H   LIG d   1       4.318  -3.934  -5.580  0.00  0.00     0.025 H 
ENDBRANCH  20  23
ENDBRANCH  12  20
ENDBRANCH   1  12
BRANCH   3  27
ATOM     27  C   LIG d   1       4.476   0.876  -1.611  0.00  0.00    -0.022 C 
ATOM     28  H   LIG d   1       3.838   1.690  -1.956  0.00  0.00     0.029 H 
ATOM     29  H   LIG d   1       3.870  -0.014  -1.440  0.00  0.00     0.029 H 
ATOM     30  H   LIG d   1       4.964   1.167  -0.680  0.00  0.00     0.029 H 
ENDBRANCH   3  27
TORSDOF 6
ENDMDL
MODEL 7
REMARK VINA RESULT:      -4.2      1.444      4.347
REMARK  6 active torsions:
REMARK  status: ('A' for Active; 'I' for Inactive)
REMARK    1  A    between atoms: C_1  and  C_2 
REMARK    2  A    between atoms: C_2  and  N_3 
REMARK    3  A    between atoms: N_3  and  C_4 
REMARK    4  A    between atoms: N_3  and  C_6 
REMARK    5  A    between atoms: C_4  and  C_5 
REMARK    6  A    between atoms: C_8  and  C_15 
ROOT
ATOM      1  C   LIG d   1       3.688   0.083  -7.042  0.00  0.00     0.128 A 
ATOM      2  C   LIG d   1       2.923   0.054  -5.892  0.00  0.00    -0.000 A 
ATOM      3  C   LIG d   1       3.535  -0.256  -4.681  0.00  0.00     0.045 A 
ATOM      4  N   LIG d   1       4.824  -0.518  -4.633  0.00  0.00    -0.216 NA
ATOM      5  C   LIG d   1       5.578  -0.495  -5.738  0.00  0.00     0.255 A 
ATOM      6  N   LIG d   1       5.020  -0.201  -6.950  0.00  0.00    -0.182 N 
ATOM      7  N   LIG d   1       6.057  -0.264  -7.890  0.00  0.00    -0.151 NA
ATOM      8  C   LIG d   1       7.147  -0.585  -7.237  0.00  0.00     0.141 A 
ATOM      9  N   LIG d   1       6.871  -0.717  -5.945  0.00  0.00    -0.197 NA
ATOM     10  H   LIG d   1       1.865   0.270  -5.932  0.00  0.00     0.067 H 
ATOM     11  H   LIG d   1       8.123  -0.714  -7.681  0.00  0.00     0.107 H 
ENDROOT
BRANCH   1  12
ATOM     12  N   LIG d   1       3.116   0.385  -8.257  0.00  0.00    -0.316 N 
BRANCH  12  13
ATOM     13  C   LIG d   1       2.744   1.768  -8.569  0.00  0.00     0.011 C 
ATOM     14  H   LIG d   1       2.477   2.288  -7.649  0.00  0.00     0.046 H 
ATOM     15  H   LIG d   1       1.891   1.770  -9.248  0.00  0.00     0.046 H 
BRANCH  13  16
ATOM     16  C   LIG d   1       3.926   2.478  -9.231  0.00  0.00    -0.049 C 
ATOM     17  H   LIG d   1       4.817   2.353  -8.614  0.00  0.00     0.025 H 
ATOM     18  H   LIG d   1       4.103   2.048 -10.217  0.00  0.00     0.025 H 
ATOM     19  H   LIG d   1       3.701   3.540  -9.332  0.00  0.00     0.025 H 
ENDBRANCH  13  16
ENDBRANCH  12  13
BRANCH  12  20
ATOM     20  C   LIG d   1       2.881  -0.675  -9.241  0.00  0.00     0.011 C 
ATOM     21  H   LIG d   1       3.645  -0.625 -10.018  0.00  0.00     0.046 H 
ATOM     22  H   LIG d   1       2.927  -1.645  -8.748  0.00  0.00     0.046 H 
BRANCH  20  23
ATOM     23  C   LIG d   1       1.500  -0.489  -9.872  0.00  0.00    -0.049 C 
ATOM     24  H   LIG d   1       1.215  -1.401 -10.398  0.00  0.00     0.025 H 
ATOM     25  H   LIG d   1       0.769  -0.279  -9.090  0.00  0.00     0.025 H 
ATOM     26  H   LIG d   1       1.530   0.342 -10.575  0.00  0.00     0.025 H 
ENDBRANCH  20  23
ENDBRANCH  12  20
ENDBRANCH   1  12
BRANCH   3  27
ATOM     27  C   LIG d   1       2.717  -0.292  -3.415  0.00  0.00    -0.022 C 
ATOM     28  H   LIG d   1       1.795   0.271  -3.563  0.00  0.00     0.029 H 
ATOM     29  H   LIG d   1       2.476  -1.325  -3.166  0.00  0.00     0.029 H 
ATOM     30  H   LIG d   1       3.288   0.155  -2.601  0.00  0.00     0.029 H 
ENDBRANCH   3  27
TORSDOF 6
ENDMDL
MODEL 8
REMARK VINA RESULT:      -4.2      1.598      3.583
REMARK  6 active torsions:
REMARK  status: ('A' for Active; 'I' for Inactive)
REMARK    1  A    between atoms: C_1  and  C_2 
REMARK    2  A    between atoms: C_2  and  N_3 
REMARK    3  A    between atoms: N_3  and  C_4 
REMARK    4  A    between atoms: N_3  and  C_6 
REMARK    5  A    between atoms: C_4  and  C_5 
REMARK    6  A    between atoms: C_8  and  C_15 
ROOT
ATOM      1  C   LIG d   1       5.532  -0.566  -4.767  0.00  0.00     0.128 A 
ATOM      2  C   LIG d   1       4.823  -0.610  -5.952  0.00  0.00    -0.000 A 
ATOM      3  C   LIG d   1       3.559  -0.030  -6.005  0.00  0.00     0.045 A 
ATOM      4  N   LIG d   1       3.048   0.553  -4.940  0.00  0.00    -0.216 NA
ATOM      5  C   LIG d   1       3.722   0.603  -3.786  0.00  0.00     0.255 A 
ATOM      6  N   LIG d   1       4.964   0.042  -3.685  0.00  0.00    -0.182 N 
ATOM      7  N   LIG d   1       5.390   0.256  -2.368  0.00  0.00    -0.151 NA
ATOM      8  C   LIG d   1       4.429   0.902  -1.755  0.00  0.00     0.141 A 
ATOM      9  N   LIG d   1       3.429   1.122  -2.599  0.00  0.00    -0.197 NA
ATOM     10  H   LIG d   1       5.243  -1.088  -6.826  0.00  0.00     0.067 H 
ATOM     11  H   LIG d   1       4.452   1.217  -0.721  0.00  0.00     0.107 H 
ENDROOT
BRANCH   1  12
ATOM     12  N   LIG d   1       6.785  -1.130  -4.678  0.00  0.00    -0.316 N 
BRANCH  12  13
ATOM     13  C   LIG d   1       7.921  -0.505  -5.360  0.00  0.00     0.011 C 
ATOM     14  H   LIG d   1       7.630  -0.232  -6.374  0.00  0.00     0.046 H 
ATOM     15  H   LIG d   1       8.754  -1.207  -5.398  0.00  0.00     0.046 H 
BRANCH  13  16
ATOM     16  C   LIG d   1       8.346   0.751  -4.596  0.00  0.00    -0.049 C 
ATOM     17  H   LIG d   1       8.589   1.542  -5.306  0.00  0.00     0.025 H 
ATOM     18  H   LIG d   1       7.531   1.078  -3.951  0.00  0.00     0.025 H 
ATOM     19  H   LIG d   1       9.223   0.526  -3.989  0.00  0.00     0.025 H 
ENDBRANCH  13  16
ENDBRANCH  12  13
BRANCH  12  20
ATOM     20  C   LIG d   1       6.983  -2.356  -3.900  0.00  0.00     0.011 C 
ATOM     21  H   LIG d   1       7.981  -2.348  -3.459  0.00  0.00     0.046 H 
ATOM     22  H   LIG d   1       6.236  -2.409  -3.109  0.00  0.00     0.046 H 
BRANCH  20  23
ATOM     23  C   LIG d   1       6.842  -3.572  -4.818  0.00  0.00    -0.049 C 
ATOM     24  H   LIG d   1       7.832  -3.932  -5.098  0.00  0.00     0.025 H 
ATOM     25  H   LIG d   1       6.303  -4.362  -4.294  0.00  0.00     0.025 H 
ATOM     26  H   LIG d   1       6.291  -3.288  -5.714  0.00  0.00     0.025 H 
ENDBRANCH  20  23
ENDBRANCH  12  20
ENDBRANCH   1  12
BRANCH   3  27
ATOM     27  C   LIG d   1       2.770  -0.067  -7.289  0.00  0.00    -0.022 C 
ATOM     28  H   LIG d   1       3.369  -0.538  -8.069  0.00  0.00     0.029 H 
ATOM     29  H   LIG d   1       1.855  -0.639  -7.137  0.00  0.00     0.029 H 
ATOM     30  H   LIG d   1       2.518   0.950  -7.590  0.00  0.00     0.029 H 
ENDBRANCH   3  27
TORSDOF 6
ENDMDL
MODEL 9
REMARK VINA RESULT:      -4.2      1.942      4.683
REMARK  6 active torsions:
REMARK  status: ('A' for Active; 'I' for Inactive)
REMARK    1  A    between atoms: C_1  and  C_2 
REMARK    2  A    between atoms: C_2  and  N_3 
REMARK    3  A    between atoms: N_3  and  C_4 
REMARK    4  A    between atoms: N_3  and  C_6 
REMARK    5  A    between atoms: C_4  and  C_5 
REMARK    6  A    between atoms: C_8  and  C_15 
ROOT
ATOM      1  C   LIG d   1       4.376  -0.954  -6.035  0.00  0.00     0.128 A 
ATOM      2  C   LIG d   1       4.753  -2.271  -6.213  0.00  0.00    -0.000 A 
ATOM      3  C   LIG d   1       4.668  -3.149  -5.136  0.00  0.00     0.045 A 
ATOM      4  N   LIG d   1       4.232  -2.729  -3.966  0.00  0.00    -0.216 NA
ATOM      5  C   LIG d   1       3.863  -1.457  -3.779  0.00  0.00     0.255 A 
ATOM      6  N   LIG d   1       3.936  -0.558  -4.806  0.00  0.00    -0.182 N 
ATOM      7  N   LIG d   1       3.491   0.667  -4.292  0.00  0.00    -0.151 NA
ATOM      8  C   LIG d   1       3.189   0.468  -3.032  0.00  0.00     0.141 A 
ATOM      9  N   LIG d   1       3.400  -0.805  -2.719  0.00  0.00    -0.197 NA
ATOM     10  H   LIG d   1       5.110  -2.615  -7.173  0.00  0.00     0.067 H 
ATOM     11  H   LIG d   1       2.815   1.221  -2.355  0.00  0.00     0.107 H 
ENDROOT
BRANCH   1  12
ATOM     12  N   LIG d   1       4.448  -0.057  -7.078  0.00  0.00    -0.316 N 
BRANCH  12  13
ATOM     13  C   LIG d   1       3.227   0.569  -7.592  0.00  0.00     0.011 C 
ATOM     14  H   LIG d   1       3.492   1.401  -8.243  0.00  0.00     0.046 H 
ATOM     15  H   LIG d   1       2.629   0.937  -6.758  0.00  0.00     0.046 H 
BRANCH  13  16
ATOM     16  C   LIG d   1       2.420  -0.462  -8.384  0.00  0.00    -0.049 C 
ATOM     17  H   LIG d   1       2.045  -0.004  -9.300  0.00  0.00     0.025 H 
ATOM     18  H   LIG d   1       3.059  -1.308  -8.636  0.00  0.00     0.025 H 
ATOM     19  H   LIG d   1       1.581  -0.806  -7.781  0.00  0.00     0.025 H 
ENDBRANCH  13  16
ENDBRANCH  12  13
BRANCH  12  20
ATOM     20  C   LIG d   1       5.746   0.272  -7.673  0.00  0.00     0.011 C 
ATOM     21  H   LIG d   1       6.435   0.588  -6.888  0.00  0.00     0.046 H 
ATOM     22  H   LIG d   1       6.147  -0.605  -8.178  0.00  0.00     0.046 H 
BRANCH  20  23
ATOM     23  C   LIG d   1       5.571   1.407  -8.684  0.00  0.00    -0.049 C 
ATOM     24  H   LIG d   1       6.499   1.974  -8.758  0.00  0.00     0.025 H 
ATOM     25  H   LIG d   1       5.322   0.989  -9.660  0.00  0.00     0.025 H 
ATOM     26  H   LIG d   1       4.768   2.066  -8.355  0.00  0.00     0.025 H 
ENDBRANCH  20  23
ENDBRANCH  12  20
ENDBRANCH   1  12
BRANCH   3  27
ATOM     27  C   LIG d   1       5.074  -4.590  -5.310  0.00  0.00    -0.022 C 
ATOM     28  H   LIG d   1       5.126  -5.073  -4.334  0.00  0.00     0.029 H 
ATOM     29  H   LIG d   1       4.340  -5.103  -5.931  0.00  0.00     0.029 H 
ATOM     30  H   LIG d   1       6.052  -4.636  -5.790  0.00  0.00     0.029 H 
ENDBRANCH   3  27
TORSDOF 6
ENDMDL
MODEL 10
REMARK VINA RESULT:      -4.2      3.012      4.847
REMARK  6 active torsions:
REMARK  status: ('A' for Active; 'I' for Inactive)
REMARK    1  A    between atoms: C_1  and  C_2 
REMARK    2  A    between atoms: C_2  and  N_3 
REMARK    3  A    between atoms: N_3  and  C_4 
REMARK    4  A    between atoms: N_3  and  C_6 
REMARK    5  A    between atoms: C_4  and  C_5 
REMARK    6  A    between atoms: C_8  and  C_15 
ROOT
ATOM      1  C   LIG d   1       6.962  -0.860  -4.061  0.00  0.00     0.128 A 
ATOM      2  C   LIG d   1       7.800   0.055  -4.669  0.00  0.00    -0.000 A 
ATOM      3  C   LIG d   1       7.665   1.405  -4.358  0.00  0.00     0.045 A 
ATOM      4  N   LIG d   1       6.752   1.803  -3.496  0.00  0.00    -0.216 NA
ATOM      5  C   LIG d   1       5.934   0.929  -2.899  0.00  0.00     0.255 A 
ATOM      6  N   LIG d   1       6.026  -0.406  -3.178  0.00  0.00    -0.182 N 
ATOM      7  N   LIG d   1       5.042  -1.040  -2.408  0.00  0.00    -0.151 NA
ATOM      8  C   LIG d   1       4.421  -0.104  -1.732  0.00  0.00     0.141 A 
ATOM      9  N   LIG d   1       4.955   1.078  -2.014  0.00  0.00    -0.197 NA
ATOM     10  H   LIG d   1       8.549  -0.273  -5.375  0.00  0.00     0.067 H 
ATOM     11  H   LIG d   1       3.606  -0.270  -1.043  0.00  0.00     0.107 H 
ENDROOT
BRANCH   1  12
ATOM     12  N   LIG d   1       7.066  -2.204  -4.344  0.00  0.00    -0.316 N 
BRANCH  12  13
ATOM     13  C   LIG d   1       7.997  -3.043  -3.585  0.00  0.00     0.011 C 
ATOM     14  H   LIG d   1       7.447  -3.610  -2.836  0.00  0.00     0.046 H 
ATOM     15  H   LIG d   1       8.737  -2.411  -3.092  0.00  0.00     0.046 H 
BRANCH  13  16
ATOM     16  C   LIG d   1       8.705  -4.009  -4.538  0.00  0.00    -0.049 C 
ATOM     17  H   LIG d   1       8.061  -4.212  -5.394  0.00  0.00     0.025 H 
ATOM     18  H   LIG d   1       9.638  -3.563  -4.882  0.00  0.00     0.025 H 
ATOM     19  H   LIG d   1       8.919  -4.942  -4.015  0.00  0.00     0.025 H 
ENDBRANCH  13  16
ENDBRANCH  12  13
BRANCH  12  20
ATOM     20  C   LIG d   1       6.245  -2.795  -5.404  0.00  0.00     0.011 C 
ATOM     21  H   LIG d   1       5.859  -2.004  -6.048  0.00  0.00     0.046 H 
ATOM     22  H   LIG d   1       6.852  -3.480  -5.995  0.00  0.00     0.046 H 
BRANCH  20  23
ATOM     23  C   LIG d   1       5.077  -3.559  -4.779  0.00  0.00    -0.049 C 
ATOM     24  H   LIG d   1       4.148  -3.267  -5.269  0.00  0.00     0.025 H 
ATOM     25  H   LIG d   1       5.233  -4.631  -4.908  0.00  0.00     0.025 H 
ATOM     26  H   LIG d   1       5.017  -3.326  -3.716  0.00  0.00     0.025 H 
ENDBRANCH  20  23
ENDBRANCH  12  20
ENDBRANCH   1  12
BRANCH   3  27
ATOM     27  C   LIG d   1       8.570   2.418  -5.011  0.00  0.00    -0.022 C 
ATOM     28  H   LIG d   1       8.780   3.224  -4.307  0.00  0.00     0.029 H 
ATOM     29  H   LIG d   1       9.504   1.937  -5.303  0.00  0.00     0.029 H 
ATOM     30  H   LIG d   1       8.080   2.826  -5.895  0.00  0.00     0.029 H 
ENDBRANCH   3  27
TORSDOF 6
ENDMDL
