MODEL 1
REMARK VINA RESULT:      -6.1      0.000      0.000
REMARK  10 active torsions:
REMARK  status: ('A' for Active; 'I' for Inactive)
REMARK    1  A    between atoms: C_5  and  O_7 
REMARK    2  A    between atoms: C_13  and  C_17 
REMARK    3  A    between atoms: C_15  and  O_16 
REMARK    4  A    between atoms: C_17  and  O_18 
REMARK    5  A    between atoms: C_19  and  C_21 
REMARK    6  A    between atoms: C_23  and  O_36 
REMARK    7  A    between atoms: C_25  and  O_35 
REMARK    8  A    between atoms: C_27  and  O_34 
REMARK    9  A    between atoms: C_29  and  C_32 
REMARK   10  A    between atoms: C_32  and  O_33 
ROOT
ATOM      1  C   LIG d   1       3.872  -2.335  -2.881  0.00  0.00    -0.058 A 
ATOM      2  C   LIG d   1       4.435  -2.212  -4.140  0.00  0.00    -0.057 A 
ATOM      3  C   LIG d   1       5.209  -1.110  -4.460  0.00  0.00    -0.023 A 
ATOM      4  C   LIG d   1       5.419  -0.126  -3.494  0.00  0.00     0.068 A 
ATOM      5  C   LIG d   1       4.844  -0.248  -2.223  0.00  0.00     0.128 A 
ATOM      6  C   LIG d   1       4.069  -1.361  -1.924  0.00  0.00    -0.019 A 
ATOM      7  C   LIG d   1       6.262   1.043  -3.812  0.00  0.00     0.201 C 
ATOM      8  O   LIG d   1       6.230   2.047  -3.127  0.00  0.00    -0.286 OA
ATOM      9  C   LIG d   1       7.147   0.954  -4.991  0.00  0.00     0.068 A 
ATOM     10  C   LIG d   1       6.924  -0.037  -5.949  0.00  0.00    -0.023 A 
ATOM     11  C   LIG d   1       7.770  -0.117  -7.040  0.00  0.00    -0.052 A 
ATOM     12  C   LIG d   1       8.816   0.777  -7.189  0.00  0.00    -0.018 A 
ATOM     13  C   LIG d   1       9.037   1.764  -6.249  0.00  0.00    -0.014 A 
ATOM     14  C   LIG d   1       8.205   1.860  -5.143  0.00  0.00     0.128 A 
ATOM     15  C   LIG d   1       5.787  -1.008  -5.839  0.00  0.00     0.040 C 
ATOM     16  H   LIG d   1       6.143  -1.993  -6.141  0.00  0.00     0.042 H 
ATOM     17  H   LIG d   1       3.271  -3.201  -2.648  0.00  0.00     0.062 H 
ATOM     18  H   LIG d   1       4.268  -2.981  -4.879  0.00  0.00     0.062 H 
ATOM     19  H   LIG d   1       3.622  -1.463  -0.947  0.00  0.00     0.065 H 
ATOM     20  H   LIG d   1       7.612  -0.883  -7.785  0.00  0.00     0.062 H 
ATOM     21  H   LIG d   1       9.854   2.458  -6.374  0.00  0.00     0.066 H 
ENDROOT
BRANCH  15  22
ATOM     22  C   LIG d   1       4.681  -0.575  -6.803  0.00  0.00     0.098 C 
ATOM     23  H   LIG d   1       3.810  -0.249  -6.234  0.00  0.00     0.063 H 
ATOM     24  O   LIG d   1       5.151   0.502  -7.615  0.00  0.00    -0.365 OA
ATOM     25  C   LIG d   1       4.182   1.002  -8.539  0.00  0.00     0.110 C 
ATOM     26  C   LIG d   1       3.774  -0.116  -9.504  0.00  0.00     0.112 C 
ATOM     27  H   LIG d   1       3.306   1.349  -7.994  0.00  0.00     0.065 H 
ATOM     28  C   LIG d   1       3.229  -1.299  -8.699  0.00  0.00     0.112 C 
ATOM     29  H   LIG d   1       3.004   0.251 -10.181  0.00  0.00     0.065 H 
ATOM     30  C   LIG d   1       4.293  -1.756  -7.697  0.00  0.00     0.110 C 
ATOM     31  H   LIG d   1       2.331  -0.992  -8.163  0.00  0.00     0.065 H 
ATOM     32  H   LIG d   1       3.893  -2.562  -7.082  0.00  0.00     0.065 H 
BRANCH  25  33
ATOM     33  C   LIG d   1       4.784   2.165  -9.332  0.00  0.00     0.073 C 
ATOM     34  H   LIG d   1       4.346   2.189 -10.330  0.00  0.00     0.058 H 
ATOM     35  H   LIG d   1       4.573   3.102  -8.819  0.00  0.00     0.058 H 
BRANCH  33  36
ATOM     36  O   LIG d   1       6.198   1.987  -9.437  0.00  0.00    -0.392 OA
ATOM     37  H   LIG d   1       6.674   2.114  -8.604  0.00  0.00     0.209 HD
ENDBRANCH  33  36
ENDBRANCH  25  33
BRANCH  26  38
ATOM     38  O   LIG d   1       4.912  -0.536 -10.259  0.00  0.00    -0.387 OA
ATOM     39  H   LIG d   1       5.672  -0.790  -9.716  0.00  0.00     0.210 HD
ENDBRANCH  26  38
BRANCH  28  40
ATOM     40  O   LIG d   1       2.912  -2.375  -9.584  0.00  0.00    -0.387 OA
ATOM     41  H   LIG d   1       1.964  -2.533  -9.689  0.00  0.00     0.210 HD
ENDBRANCH  28  40
BRANCH  30  42
ATOM     42  O   LIG d   1       5.447  -2.220  -8.402  0.00  0.00    -0.387 OA
ATOM     43  H   LIG d   1       5.452  -1.990  -9.341  0.00  0.00     0.210 HD
ENDBRANCH  30  42
ENDBRANCH  15  22
BRANCH   5  44
ATOM     44  O   LIG d   1       5.043   0.715  -1.288  0.00  0.00    -0.506 OA
ATOM     45  H   LIG d   1       5.623   1.431  -1.580  0.00  0.00     0.292 HD
ENDBRANCH   5  44
BRANCH  14  46
ATOM     46  O   LIG d   1       8.414   2.825  -4.213  0.00  0.00    -0.506 OA
ATOM     47  H   LIG d   1       8.843   3.619  -4.560  0.00  0.00     0.292 HD
ENDBRANCH  14  46
BRANCH  12  48
ATOM     48  C   LIG d   1       9.724   0.672  -8.387  0.00  0.00     0.069 C 
ATOM     49  H   LIG d   1      10.664   0.208  -8.092  0.00  0.00     0.061 H 
ATOM     50  H   LIG d   1       9.243   0.063  -9.154  0.00  0.00     0.061 H 
BRANCH  48  51
ATOM     51  O   LIG d   1       9.979   1.978  -8.907  0.00  0.00    -0.390 OA
ATOM     52  H   LIG d   1      10.741   2.419  -8.506  0.00  0.00     0.210 HD
ENDBRANCH  48  51
ENDBRANCH  12  48
TORSDOF 10
ENDMDL
MODEL 2
REMARK VINA RESULT:      -5.9      9.043     11.099
REMARK  10 active torsions:
REMARK  status: ('A' for Active; 'I' for Inactive)
REMARK    1  A    between atoms: C_5  and  O_7 
REMARK    2  A    between atoms: C_13  and  C_17 
REMARK    3  A    between atoms: C_15  and  O_16 
REMARK    4  A    between atoms: C_17  and  O_18 
REMARK    5  A    between atoms: C_19  and  C_21 
REMARK    6  A    between atoms: C_23  and  O_36 
REMARK    7  A    between atoms: C_25  and  O_35 
REMARK    8  A    between atoms: C_27  and  O_34 
REMARK    9  A    between atoms: C_29  and  C_32 
REMARK   10  A    between atoms: C_32  and  O_33 
ROOT
ATOM      1  C   LIG d   1      10.758   6.417   0.319  0.00  0.00    -0.058 A 
ATOM      2  C   LIG d   1      10.184   7.217  -0.654  0.00  0.00    -0.057 A 
ATOM      3  C   LIG d   1      10.658   7.195  -1.954  0.00  0.00    -0.023 A 
ATOM      4  C   LIG d   1      11.722   6.350  -2.272  0.00  0.00     0.068 A 
ATOM      5  C   LIG d   1      12.306   5.545  -1.286  0.00  0.00     0.128 A 
ATOM      6  C   LIG d   1      11.816   5.585   0.012  0.00  0.00    -0.019 A 
ATOM      7  C   LIG d   1      12.223   6.297  -3.660  0.00  0.00     0.201 C 
ATOM      8  O   LIG d   1      13.311   5.817  -3.917  0.00  0.00    -0.286 OA
ATOM      9  C   LIG d   1      11.361   6.845  -4.726  0.00  0.00     0.068 A 
ATOM     10  C   LIG d   1      10.301   7.689  -4.390  0.00  0.00    -0.023 A 
ATOM     11  C   LIG d   1       9.493   8.183  -5.399  0.00  0.00    -0.052 A 
ATOM     12  C   LIG d   1       9.735   7.857  -6.721  0.00  0.00    -0.018 A 
ATOM     13  C   LIG d   1      10.787   7.028  -7.059  0.00  0.00    -0.014 A 
ATOM     14  C   LIG d   1      11.608   6.516  -6.065  0.00  0.00     0.128 A 
ATOM     15  C   LIG d   1      10.019   8.088  -2.973  0.00  0.00     0.040 C 
ATOM     16  H   LIG d   1       8.940   8.076  -2.818  0.00  0.00     0.042 H 
ATOM     17  H   LIG d   1      10.376   6.446   1.328  0.00  0.00     0.062 H 
ATOM     18  H   LIG d   1       9.360   7.865  -0.397  0.00  0.00     0.062 H 
ATOM     19  H   LIG d   1      12.261   4.968   0.778  0.00  0.00     0.065 H 
ATOM     20  H   LIG d   1       8.665   8.832  -5.152  0.00  0.00     0.062 H 
ATOM     21  H   LIG d   1      10.971   6.781  -8.094  0.00  0.00     0.066 H 
ENDROOT
BRANCH  15  22
ATOM     22  C   LIG d   1      10.524   9.516  -2.759  0.00  0.00     0.098 C 
ATOM     23  H   LIG d   1      11.607   9.503  -2.631  0.00  0.00     0.063 H 
ATOM     24  O   LIG d   1      10.188  10.316  -3.894  0.00  0.00    -0.365 OA
ATOM     25  C   LIG d   1      10.638  11.670  -3.808  0.00  0.00     0.110 C 
ATOM     26  C   LIG d   1       9.988  12.347  -2.597  0.00  0.00     0.112 C 
ATOM     27  H   LIG d   1      11.721  11.685  -3.694  0.00  0.00     0.065 H 
ATOM     28  C   LIG d   1      10.334  11.555  -1.333  0.00  0.00     0.112 C 
ATOM     29  H   LIG d   1      10.363  13.365  -2.504  0.00  0.00     0.065 H 
ATOM     30  C   LIG d   1       9.870  10.106  -1.507  0.00  0.00     0.110 C 
ATOM     31  H   LIG d   1      11.411  11.576  -1.173  0.00  0.00     0.065 H 
ATOM     32  H   LIG d   1      10.161   9.522  -0.634  0.00  0.00     0.065 H 
BRANCH  25  33
ATOM     33  C   LIG d   1      10.248  12.420  -5.083  0.00  0.00     0.073 C 
ATOM     34  H   LIG d   1       9.886  13.415  -4.822  0.00  0.00     0.058 H 
ATOM     35  H   LIG d   1      11.117  12.508  -5.733  0.00  0.00     0.058 H 
BRANCH  33  36
ATOM     36  O   LIG d   1       9.216  11.702  -5.760  0.00  0.00    -0.392 OA
ATOM     37  H   LIG d   1       8.956  12.091  -6.607  0.00  0.00     0.209 HD
ENDBRANCH  33  36
ENDBRANCH  25  33
BRANCH  26  38
ATOM     38  O   LIG d   1       8.570  12.375  -2.770  0.00  0.00    -0.387 OA
ATOM     39  H   LIG d   1       8.093  11.738  -2.219  0.00  0.00     0.210 HD
ENDBRANCH  26  38
BRANCH  28  40
ATOM     40  O   LIG d   1       9.673  12.137  -0.208  0.00  0.00    -0.387 OA
ATOM     41  H   LIG d   1       9.804  13.091  -0.125  0.00  0.00     0.210 HD
ENDBRANCH  28  40
BRANCH  30  42
ATOM     42  O   LIG d   1       8.448  10.072  -1.651  0.00  0.00    -0.387 OA
ATOM     43  H   LIG d   1       7.974   9.901  -0.825  0.00  0.00     0.210 HD
ENDBRANCH  30  42
ENDBRANCH  15  22
BRANCH   5  44
ATOM     44  O   LIG d   1      13.346   4.731  -1.597  0.00  0.00    -0.506 OA
ATOM     45  H   LIG d   1      14.067   4.750  -0.953  0.00  0.00     0.292 HD
ENDBRANCH   5  44
BRANCH  14  46
ATOM     46  O   LIG d   1      12.643   5.701  -6.387  0.00  0.00    -0.506 OA
ATOM     47  H   LIG d   1      13.082   5.301  -5.624  0.00  0.00     0.292 HD
ENDBRANCH  14  46
BRANCH  12  48
ATOM     48  C   LIG d   1       8.843   8.409  -7.803  0.00  0.00     0.069 C 
ATOM     49  H   LIG d   1       8.983   7.835  -8.718  0.00  0.00     0.061 H 
ATOM     50  H   LIG d   1       7.803   8.339  -7.485  0.00  0.00     0.061 H 
BRANCH  48  51
ATOM     51  O   LIG d   1       9.177   9.777  -8.043  0.00  0.00    -0.390 OA
ATOM     52  H   LIG d   1       8.686  10.404  -7.493  0.00  0.00     0.210 HD
ENDBRANCH  48  51
ENDBRANCH  12  48
TORSDOF 10
ENDMDL
MODEL 3
REMARK VINA RESULT:      -5.8      6.837     10.818
REMARK  10 active torsions:
REMARK  status: ('A' for Active; 'I' for Inactive)
REMARK    1  A    between atoms: C_5  and  O_7 
REMARK    2  A    between atoms: C_13  and  C_17 
REMARK    3  A    between atoms: C_15  and  O_16 
REMARK    4  A    between atoms: C_17  and  O_18 
REMARK    5  A    between atoms: C_19  and  C_21 
REMARK    6  A    between atoms: C_23  and  O_36 
REMARK    7  A    between atoms: C_25  and  O_35 
REMARK    8  A    between atoms: C_27  and  O_34 
REMARK    9  A    between atoms: C_29  and  C_32 
REMARK   10  A    between atoms: C_32  and  O_33 
ROOT
ATOM      1  C   LIG d   1       9.413   3.637  -5.805  0.00  0.00    -0.058 A 
ATOM      2  C   LIG d   1       9.263   4.694  -4.923  0.00  0.00    -0.057 A 
ATOM      3  C   LIG d   1       9.734   5.954  -5.247  0.00  0.00    -0.023 A 
ATOM      4  C   LIG d   1      10.358   6.147  -6.480  0.00  0.00     0.068 A 
ATOM      5  C   LIG d   1      10.516   5.076  -7.369  0.00  0.00     0.128 A 
ATOM      6  C   LIG d   1      10.038   3.821  -7.022  0.00  0.00    -0.019 A 
ATOM      7  C   LIG d   1      10.844   7.491  -6.850  0.00  0.00     0.201 C 
ATOM      8  O   LIG d   1      11.641   7.644  -7.756  0.00  0.00    -0.286 OA
ATOM      9  C   LIG d   1      10.330   8.645  -6.085  0.00  0.00     0.068 A 
ATOM     10  C   LIG d   1       9.707   8.435  -4.854  0.00  0.00    -0.023 A 
ATOM     11  C   LIG d   1       9.218   9.524  -4.155  0.00  0.00    -0.052 A 
ATOM     12  C   LIG d   1       9.353  10.804  -4.661  0.00  0.00    -0.018 A 
ATOM     13  C   LIG d   1       9.975  11.019  -5.875  0.00  0.00    -0.014 A 
ATOM     14  C   LIG d   1      10.468   9.941  -6.596  0.00  0.00     0.128 A 
ATOM     15  C   LIG d   1       9.564   7.067  -4.257  0.00  0.00     0.040 C 
ATOM     16  H   LIG d   1       8.574   6.985  -3.810  0.00  0.00     0.042 H 
ATOM     17  H   LIG d   1       9.040   2.660  -5.537  0.00  0.00     0.062 H 
ATOM     18  H   LIG d   1       8.775   4.533  -3.974  0.00  0.00     0.062 H 
ATOM     19  H   LIG d   1      10.155   2.990  -7.702  0.00  0.00     0.065 H 
ATOM     20  H   LIG d   1       8.728   9.374  -3.204  0.00  0.00     0.062 H 
ATOM     21  H   LIG d   1      10.077  12.023  -6.261  0.00  0.00     0.066 H 
ENDROOT
BRANCH  15  22
ATOM     22  C   LIG d   1      10.611   6.904  -3.154  0.00  0.00     0.098 C 
ATOM     23  H   LIG d   1      11.375   6.198  -3.479  0.00  0.00     0.063 H 
ATOM     24  O   LIG d   1      11.215   8.169  -2.879  0.00  0.00    -0.365 OA
ATOM     25  C   LIG d   1      12.231   8.125  -1.875  0.00  0.00     0.110 C 
ATOM     26  C   LIG d   1      11.621   7.645  -0.554  0.00  0.00     0.112 C 
ATOM     27  H   LIG d   1      13.016   7.436  -2.183  0.00  0.00     0.065 H 
ATOM     28  C   LIG d   1      10.978   6.272  -0.768  0.00  0.00     0.112 C 
ATOM     29  H   LIG d   1      12.402   7.569   0.201  0.00  0.00     0.065 H 
ATOM     30  C   LIG d   1       9.936   6.375  -1.885  0.00  0.00     0.110 C 
ATOM     31  H   LIG d   1      11.744   5.550  -1.049  0.00  0.00     0.065 H 
ATOM     32  H   LIG d   1       9.512   5.390  -2.081  0.00  0.00     0.065 H 
BRANCH  25  33
ATOM     33  C   LIG d   1      12.823   9.523  -1.685  0.00  0.00     0.073 C 
ATOM     34  H   LIG d   1      13.160   9.637  -0.655  0.00  0.00     0.058 H 
ATOM     35  H   LIG d   1      13.667   9.654  -2.361  0.00  0.00     0.058 H 
BRANCH  33  36
ATOM     36  O   LIG d   1      11.826  10.504  -1.972  0.00  0.00    -0.392 OA
ATOM     37  H   LIG d   1      12.082  11.138  -2.656  0.00  0.00     0.209 HD
ENDBRANCH  33  36
ENDBRANCH  25  33
BRANCH  26  38
ATOM     38  O   LIG d   1      10.627   8.576  -0.121  0.00  0.00    -0.387 OA
ATOM     39  H   LIG d   1      10.473   8.570   0.835  0.00  0.00     0.210 HD
ENDBRANCH  26  38
BRANCH  28  40
ATOM     40  O   LIG d   1      10.343   5.847   0.440  0.00  0.00    -0.387 OA
ATOM     41  H   LIG d   1      10.725   5.047   0.825  0.00  0.00     0.210 HD
ENDBRANCH  28  40
BRANCH  30  42
ATOM     42  O   LIG d   1       8.896   7.272  -1.489  0.00  0.00    -0.387 OA
ATOM     43  H   LIG d   1       8.007   6.897  -1.560  0.00  0.00     0.210 HD
ENDBRANCH  30  42
ENDBRANCH  15  22
BRANCH   5  44
ATOM     44  O   LIG d   1      11.131   5.266  -8.562  0.00  0.00    -0.506 OA
ATOM     45  H   LIG d   1      11.886   5.869  -8.524  0.00  0.00     0.292 HD
ENDBRANCH   5  44
BRANCH  14  46
ATOM     46  O   LIG d   1      11.080  10.142  -7.791  0.00  0.00    -0.506 OA
ATOM     47  H   LIG d   1      11.681  10.900  -7.802  0.00  0.00     0.292 HD
ENDBRANCH  14  46
BRANCH  12  48
ATOM     48  C   LIG d   1       8.814  11.976  -3.882  0.00  0.00     0.069 C 
ATOM     49  H   LIG d   1       9.580  12.342  -3.198  0.00  0.00     0.061 H 
ATOM     50  H   LIG d   1       8.533  12.772  -4.571  0.00  0.00     0.061 H 
BRANCH  48  51
ATOM     51  O   LIG d   1       7.667  11.565  -3.136  0.00  0.00    -0.390 OA
ATOM     52  H   LIG d   1       7.099  12.296  -2.853  0.00  0.00     0.210 HD
ENDBRANCH  48  51
ENDBRANCH  12  48
TORSDOF 10
ENDMDL
MODEL 4
REMARK VINA RESULT:      -5.7      2.337      5.866
REMARK  10 active torsions:
REMARK  status: ('A' for Active; 'I' for Inactive)
REMARK    1  A    between atoms: C_5  and  O_7 
REMARK    2  A    between atoms: C_13  and  C_17 
REMARK    3  A    between atoms: C_15  and  O_16 
REMARK    4  A    between atoms: C_17  and  O_18 
REMARK    5  A    between atoms: C_19  and  C_21 
REMARK    6  A    between atoms: C_23  and  O_36 
REMARK    7  A    between atoms: C_25  and  O_35 
REMARK    8  A    between atoms: C_27  and  O_34 
REMARK    9  A    between atoms: C_29  and  C_32 
REMARK   10  A    between atoms: C_32  and  O_33 
ROOT
ATOM      1  C   LIG d   1       3.437  -3.364  -9.632  0.00  0.00    -0.058 A 
ATOM      2  C   LIG d   1       4.085  -3.294  -8.410  0.00  0.00    -0.057 A 
ATOM      3  C   LIG d   1       3.980  -2.162  -7.621  0.00  0.00    -0.023 A 
ATOM      4  C   LIG d   1       3.207  -1.092  -8.073  0.00  0.00     0.068 A 
ATOM      5  C   LIG d   1       2.557  -1.160  -9.311  0.00  0.00     0.128 A 
ATOM      6  C   LIG d   1       2.678  -2.305 -10.087  0.00  0.00    -0.019 A 
ATOM      7  C   LIG d   1       3.066   0.114  -7.231  0.00  0.00     0.201 C 
ATOM      8  O   LIG d   1       2.664   1.162  -7.698  0.00  0.00    -0.286 OA
ATOM      9  C   LIG d   1       3.429   0.004  -5.804  0.00  0.00     0.068 A 
ATOM     10  C   LIG d   1       4.202  -1.073  -5.369  0.00  0.00    -0.023 A 
ATOM     11  C   LIG d   1       4.523  -1.170  -4.026  0.00  0.00    -0.052 A 
ATOM     12  C   LIG d   1       4.093  -0.209  -3.128  0.00  0.00    -0.018 A 
ATOM     13  C   LIG d   1       3.334   0.863  -3.554  0.00  0.00    -0.014 A 
ATOM     14  C   LIG d   1       2.996   0.978  -4.895  0.00  0.00     0.128 A 
ATOM     15  C   LIG d   1       4.710  -2.122  -6.313  0.00  0.00     0.040 C 
ATOM     16  H   LIG d   1       4.616  -3.095  -5.832  0.00  0.00     0.042 H 
ATOM     17  H   LIG d   1       3.529  -4.254 -10.235  0.00  0.00     0.062 H 
ATOM     18  H   LIG d   1       4.677  -4.130  -8.070  0.00  0.00     0.062 H 
ATOM     19  H   LIG d   1       2.181  -2.366 -11.043  0.00  0.00     0.065 H 
ATOM     20  H   LIG d   1       5.115  -2.002  -3.676  0.00  0.00     0.062 H 
ATOM     21  H   LIG d   1       3.005   1.610  -2.846  0.00  0.00     0.066 H 
ENDROOT
BRANCH  15  22
ATOM     22  C   LIG d   1       6.191  -1.856  -6.586  0.00  0.00     0.098 C 
ATOM     23  H   LIG d   1       6.332  -1.638  -7.645  0.00  0.00     0.063 H 
ATOM     24  O   LIG d   1       6.627  -0.740  -5.808  0.00  0.00    -0.365 OA
ATOM     25  C   LIG d   1       7.998  -0.390  -6.007  0.00  0.00     0.110 C 
ATOM     26  C   LIG d   1       8.889  -1.569  -5.604  0.00  0.00     0.112 C 
ATOM     27  H   LIG d   1       8.163  -0.153  -7.058  0.00  0.00     0.065 H 
ATOM     28  C   LIG d   1       8.496  -2.800  -6.426  0.00  0.00     0.112 C 
ATOM     29  H   LIG d   1       9.932  -1.319  -5.797  0.00  0.00     0.065 H 
ATOM     30  C   LIG d   1       7.009  -3.094  -6.207  0.00  0.00     0.110 C 
ATOM     31  H   LIG d   1       8.677  -2.605  -7.483  0.00  0.00     0.065 H 
ATOM     32  H   LIG d   1       6.708  -3.935  -6.831  0.00  0.00     0.065 H 
BRANCH  25  33
ATOM     33  C   LIG d   1       8.344   0.828  -5.148  0.00  0.00     0.073 C 
ATOM     34  H   LIG d   1       8.950   0.512  -4.298  0.00  0.00     0.058 H 
ATOM     35  H   LIG d   1       8.904   1.547  -5.745  0.00  0.00     0.058 H 
BRANCH  33  36
ATOM     36  O   LIG d   1       7.141   1.435  -4.676  0.00  0.00    -0.392 OA
ATOM     37  H   LIG d   1       6.733   0.974  -3.930  0.00  0.00     0.209 HD
ENDBRANCH  33  36
ENDBRANCH  25  33
BRANCH  26  38
ATOM     38  O   LIG d   1       8.714  -1.847  -4.214  0.00  0.00    -0.387 OA
ATOM     39  H   LIG d   1       9.414  -1.489  -3.649  0.00  0.00     0.210 HD
ENDBRANCH  26  38
BRANCH  28  40
ATOM     40  O   LIG d   1       9.272  -3.924  -6.007  0.00  0.00    -0.387 OA
ATOM     41  H   LIG d   1       9.476  -4.547  -6.716  0.00  0.00     0.210 HD
ENDBRANCH  28  40
BRANCH  30  42
ATOM     42  O   LIG d   1       6.781  -3.413  -4.832  0.00  0.00    -0.387 OA
ATOM     43  H   LIG d   1       7.030  -2.708  -4.219  0.00  0.00     0.210 HD
ENDBRANCH  30  42
ENDBRANCH  15  22
BRANCH   5  44
ATOM     44  O   LIG d   1       1.814  -0.114  -9.750  0.00  0.00    -0.506 OA
ATOM     45  H   LIG d   1       1.069  -0.369 -10.312  0.00  0.00     0.292 HD
ENDBRANCH   5  44
BRANCH  14  46
ATOM     46  O   LIG d   1       2.250   2.027  -5.323  0.00  0.00    -0.506 OA
ATOM     47  H   LIG d   1       2.137   2.064  -6.283  0.00  0.00     0.292 HD
ENDBRANCH  14  46
BRANCH  12  48
ATOM     48  C   LIG d   1       4.456  -0.334  -1.671  0.00  0.00     0.069 C 
ATOM     49  H   LIG d   1       3.593  -0.693  -1.111  0.00  0.00     0.061 H 
ATOM     50  H   LIG d   1       5.280  -1.039  -1.561  0.00  0.00     0.061 H 
BRANCH  48  51
ATOM     51  O   LIG d   1       4.852   0.944  -1.168  0.00  0.00    -0.390 OA
ATOM     52  H   LIG d   1       5.530   1.383  -1.700  0.00  0.00     0.210 HD
ENDBRANCH  48  51
ENDBRANCH  12  48
TORSDOF 10
ENDMDL
MODEL 5
REMARK VINA RESULT:      -5.6      7.566     10.792
REMARK  10 active torsions:
REMARK  status: ('A' for Active; 'I' for Inactive)
REMARK    1  A    between atoms: C_5  and  O_7 
REMARK    2  A    between atoms: C_13  and  C_17 
REMARK    3  A    between atoms: C_15  and  O_16 
REMARK    4  A    between atoms: C_17  and  O_18 
REMARK    5  A    between atoms: C_19  and  C_21 
REMARK    6  A    between atoms: C_23  and  O_36 
REMARK    7  A    between atoms: C_25  and  O_35 
REMARK    8  A    between atoms: C_27  and  O_34 
REMARK    9  A    between atoms: C_29  and  C_32 
REMARK   10  A    between atoms: C_32  and  O_33 
ROOT
ATOM      1  C   LIG d   1      10.209  11.217   0.310  0.00  0.00    -0.058 A 
ATOM      2  C   LIG d   1       9.945  10.580  -0.891  0.00  0.00    -0.057 A 
ATOM      3  C   LIG d   1      10.380   9.285  -1.112  0.00  0.00    -0.023 A 
ATOM      4  C   LIG d   1      11.085   8.627  -0.104  0.00  0.00     0.068 A 
ATOM      5  C   LIG d   1      11.357   9.273   1.108  0.00  0.00     0.128 A 
ATOM      6  C   LIG d   1      10.913  10.573   1.307  0.00  0.00    -0.019 A 
ATOM      7  C   LIG d   1      11.535   7.236  -0.316  0.00  0.00     0.201 C 
ATOM      8  O   LIG d   1      12.389   6.738   0.392  0.00  0.00    -0.286 OA
ATOM      9  C   LIG d   1      10.913   6.470  -1.414  0.00  0.00     0.068 A 
ATOM     10  C   LIG d   1      10.211   7.144  -2.415  0.00  0.00    -0.023 A 
ATOM     11  C   LIG d   1       9.622   6.412  -3.430  0.00  0.00    -0.052 A 
ATOM     12  C   LIG d   1       9.734   5.034  -3.462  0.00  0.00    -0.018 A 
ATOM     13  C   LIG d   1      10.434   4.362  -2.479  0.00  0.00    -0.014 A 
ATOM     14  C   LIG d   1      11.028   5.075  -1.448  0.00  0.00     0.128 A 
ATOM     15  C   LIG d   1      10.087   8.639  -2.432  0.00  0.00     0.040 C 
ATOM     16  H   LIG d   1       9.071   8.899  -2.728  0.00  0.00     0.042 H 
ATOM     17  H   LIG d   1       9.863  12.227   0.466  0.00  0.00     0.062 H 
ATOM     18  H   LIG d   1       9.396  11.099  -1.663  0.00  0.00     0.062 H 
ATOM     19  H   LIG d   1      11.119  11.079   2.238  0.00  0.00     0.065 H 
ATOM     20  H   LIG d   1       9.070   6.922  -4.207  0.00  0.00     0.062 H 
ATOM     21  H   LIG d   1      10.519   3.286  -2.514  0.00  0.00     0.066 H 
ENDROOT
BRANCH  15  22
ATOM     22  C   LIG d   1      11.055   9.196  -3.477  0.00  0.00     0.098 C 
ATOM     23  H   LIG d   1      11.857   9.740  -2.976  0.00  0.00     0.063 H 
ATOM     24  O   LIG d   1      11.610   8.120  -4.235  0.00  0.00    -0.365 OA
ATOM     25  C   LIG d   1      12.552   8.531  -5.228  0.00  0.00     0.110 C 
ATOM     26  C   LIG d   1      11.860   9.454  -6.236  0.00  0.00     0.112 C 
ATOM     27  H   LIG d   1      13.373   9.066  -4.751  0.00  0.00     0.065 H 
ATOM     28  C   LIG d   1      11.264  10.653  -5.492  0.00  0.00     0.112 C 
ATOM     29  H   LIG d   1      12.587   9.803  -6.968  0.00  0.00     0.065 H 
ATOM     30  C   LIG d   1      10.303  10.145  -4.413  0.00  0.00     0.110 C 
ATOM     31  H   LIG d   1      12.065  11.227  -5.026  0.00  0.00     0.065 H 
ATOM     32  H   LIG d   1       9.917  10.990  -3.843  0.00  0.00     0.065 H 
BRANCH  25  33
ATOM     33  C   LIG d   1      13.099   7.300  -5.955  0.00  0.00     0.073 C 
ATOM     34  H   LIG d   1      13.336   7.563  -6.986  0.00  0.00     0.058 H 
ATOM     35  H   LIG d   1      13.999   6.951  -5.451  0.00  0.00     0.058 H 
BRANCH  33  36
ATOM     36  O   LIG d   1      12.114   6.265  -5.943  0.00  0.00    -0.392 OA
ATOM     37  H   LIG d   1      12.237   5.612  -5.240  0.00  0.00     0.209 HD
ENDBRANCH  33  36
ENDBRANCH  25  33
BRANCH  26  38
ATOM     38  O   LIG d   1      10.818   8.739  -6.901  0.00  0.00    -0.387 OA
ATOM     39  H   LIG d   1       9.926   8.998  -6.629  0.00  0.00     0.210 HD
ENDBRANCH  26  38
BRANCH  28  40
ATOM     40  O   LIG d   1      10.554  11.483  -6.413  0.00  0.00    -0.387 OA
ATOM     41  H   LIG d   1      10.660  11.223  -7.339  0.00  0.00     0.210 HD
ENDBRANCH  28  40
BRANCH  30  42
ATOM     42  O   LIG d   1       9.218   9.448  -5.028  0.00  0.00    -0.387 OA
ATOM     43  H   LIG d   1       9.402   9.151  -5.930  0.00  0.00     0.210 HD
ENDBRANCH  30  42
ENDBRANCH  15  22
BRANCH   5  44
ATOM     44  O   LIG d   1      12.050   8.633   2.082  0.00  0.00    -0.506 OA
ATOM     45  H   LIG d   1      11.511   8.037   2.621  0.00  0.00     0.292 HD
ENDBRANCH   5  44
BRANCH  14  46
ATOM     46  O   LIG d   1      11.717   4.424  -0.477  0.00  0.00    -0.506 OA
ATOM     47  H   LIG d   1      12.283   4.998   0.057  0.00  0.00     0.292 HD
ENDBRANCH  14  46
BRANCH  12  48
ATOM     48  C   LIG d   1       9.086   4.257  -4.579  0.00  0.00     0.069 C 
ATOM     49  H   LIG d   1       9.320   3.199  -4.470  0.00  0.00     0.061 H 
ATOM     50  H   LIG d   1       8.005   4.396  -4.538  0.00  0.00     0.061 H 
BRANCH  48  51
ATOM     51  O   LIG d   1       9.579   4.727  -5.835  0.00  0.00    -0.390 OA
ATOM     52  H   LIG d   1       9.691   4.032  -6.499  0.00  0.00     0.210 HD
ENDBRANCH  48  51
ENDBRANCH  12  48
TORSDOF 10
ENDMDL
MODEL 6
REMARK VINA RESULT:      -5.6      8.069     11.498
REMARK  10 active torsions:
REMARK  status: ('A' for Active; 'I' for Inactive)
REMARK    1  A    between atoms: C_5  and  O_7 
REMARK    2  A    between atoms: C_13  and  C_17 
REMARK    3  A    between atoms: C_15  and  O_16 
REMARK    4  A    between atoms: C_17  and  O_18 
REMARK    5  A    between atoms: C_19  and  C_21 
REMARK    6  A    between atoms: C_23  and  O_36 
REMARK    7  A    between atoms: C_25  and  O_35 
REMARK    8  A    between atoms: C_27  and  O_34 
REMARK    9  A    between atoms: C_29  and  C_32 
REMARK   10  A    between atoms: C_32  and  O_33 
ROOT
ATOM      1  C   LIG d   1       9.298   6.356  -9.623  0.00  0.00    -0.058 A 
ATOM      2  C   LIG d   1       9.162   6.735  -8.298  0.00  0.00    -0.057 A 
ATOM      3  C   LIG d   1       9.626   7.964  -7.866  0.00  0.00    -0.023 A 
ATOM      4  C   LIG d   1      10.230   8.821  -8.787  0.00  0.00     0.068 A 
ATOM      5  C   LIG d   1      10.374   8.435 -10.125  0.00  0.00     0.128 A 
ATOM      6  C   LIG d   1       9.902   7.196 -10.536  0.00  0.00    -0.019 A 
ATOM      7  C   LIG d   1      10.709  10.147  -8.346  0.00  0.00     0.201 C 
ATOM      8  O   LIG d   1      11.491  10.789  -9.020  0.00  0.00    -0.286 OA
ATOM      9  C   LIG d   1      10.208  10.668  -7.058  0.00  0.00     0.068 A 
ATOM     10  C   LIG d   1       9.605   9.797  -6.149  0.00  0.00    -0.023 A 
ATOM     11  C   LIG d   1       9.127  10.302  -4.953  0.00  0.00    -0.052 A 
ATOM     12  C   LIG d   1       9.253  11.648  -4.655  0.00  0.00    -0.018 A 
ATOM     13  C   LIG d   1       9.854  12.513  -5.548  0.00  0.00    -0.014 A 
ATOM     14  C   LIG d   1      10.336  12.029  -6.756  0.00  0.00     0.128 A 
ATOM     15  C   LIG d   1       9.473   8.329  -6.420  0.00  0.00     0.040 C 
ATOM     16  H   LIG d   1       8.490   8.001  -6.082  0.00  0.00     0.042 H 
ATOM     17  H   LIG d   1       8.930   5.393  -9.944  0.00  0.00     0.062 H 
ATOM     18  H   LIG d   1       8.690   6.064  -7.596  0.00  0.00     0.062 H 
ATOM     19  H   LIG d   1      10.009   6.891 -11.566  0.00  0.00     0.065 H 
ATOM     20  H   LIG d   1       8.653   9.640  -4.243  0.00  0.00     0.062 H 
ATOM     21  H   LIG d   1       9.950  13.561  -5.307  0.00  0.00     0.066 H 
ENDROOT
BRANCH  15  22
ATOM     22  C   LIG d   1      10.538   7.585  -5.612  0.00  0.00     0.098 C 
ATOM     23  H   LIG d   1      11.284   7.170  -6.290  0.00  0.00     0.063 H 
ATOM     24  O   LIG d   1      11.168   8.492  -4.706  0.00  0.00    -0.365 OA
ATOM     25  C   LIG d   1      12.202   7.902  -3.915  0.00  0.00     0.110 C 
ATOM     26  C   LIG d   1      11.610   6.780  -3.057  0.00  0.00     0.112 C 
ATOM     27  H   LIG d   1      12.970   7.492  -4.569  0.00  0.00     0.065 H 
ATOM     28  C   LIG d   1      10.940   5.749  -3.970  0.00  0.00     0.112 C 
ATOM     29  H   LIG d   1      12.404   6.301  -2.486  0.00  0.00     0.065 H 
ATOM     30  C   LIG d   1       9.879   6.451  -4.823  0.00  0.00     0.110 C 
ATOM     31  H   LIG d   1      11.689   5.297  -4.620  0.00  0.00     0.065 H 
ATOM     32  H   LIG d   1       9.436   5.735  -5.515  0.00  0.00     0.065 H 
BRANCH  25  33
ATOM     33  C   LIG d   1      12.821   8.967  -3.006  0.00  0.00     0.073 C 
ATOM     34  H   LIG d   1      13.190   8.496  -2.095  0.00  0.00     0.058 H 
ATOM     35  H   LIG d   1      13.646   9.452  -3.525  0.00  0.00     0.058 H 
BRANCH  33  36
ATOM     36  O   LIG d   1      11.830   9.940  -2.671  0.00  0.00    -0.392 OA
ATOM     37  H   LIG d   1      12.193  10.791  -2.388  0.00  0.00     0.209 HD
ENDBRANCH  33  36
ENDBRANCH  25  33
BRANCH  26  38
ATOM     38  O   LIG d   1      10.640   7.325  -2.160  0.00  0.00    -0.387 OA
ATOM     39  H   LIG d   1      10.004   7.921  -2.582  0.00  0.00     0.210 HD
ENDBRANCH  26  38
BRANCH  28  40
ATOM     40  O   LIG d   1      10.322   4.735  -3.176  0.00  0.00    -0.387 OA
ATOM     41  H   LIG d   1      10.883   4.395  -2.466  0.00  0.00     0.210 HD
ENDBRANCH  28  40
BRANCH  30  42
ATOM     42  O   LIG d   1       8.861   6.988  -3.975  0.00  0.00    -0.387 OA
ATOM     43  H   LIG d   1       8.712   7.936  -4.092  0.00  0.00     0.210 HD
ENDBRANCH  30  42
ENDBRANCH  15  22
BRANCH   5  44
ATOM     44  O   LIG d   1      10.969   9.268 -11.015  0.00  0.00    -0.506 OA
ATOM     45  H   LIG d   1      11.901   9.067 -11.179  0.00  0.00     0.292 HD
ENDBRANCH   5  44
BRANCH  14  46
ATOM     46  O   LIG d   1      10.928  12.871  -7.640  0.00  0.00    -0.506 OA
ATOM     47  H   LIG d   1      10.569  13.769  -7.629  0.00  0.00     0.292 HD
ENDBRANCH  14  46
BRANCH  12  48
ATOM     48  C   LIG d   1       8.726  12.176  -3.346  0.00  0.00     0.069 C 
ATOM     49  H   LIG d   1       9.458  11.993  -2.559  0.00  0.00     0.061 H 
ATOM     50  H   LIG d   1       8.547  13.247  -3.433  0.00  0.00     0.061 H 
BRANCH  48  51
ATOM     51  O   LIG d   1       7.503  11.512  -3.022  0.00  0.00    -0.390 OA
ATOM     52  H   LIG d   1       6.921  11.368  -3.781  0.00  0.00     0.210 HD
ENDBRANCH  48  51
ENDBRANCH  12  48
TORSDOF 10
ENDMDL
MODEL 7
REMARK VINA RESULT:      -5.4      9.442     13.694
REMARK  10 active torsions:
REMARK  status: ('A' for Active; 'I' for Inactive)
REMARK    1  A    between atoms: C_5  and  O_7 
REMARK    2  A    between atoms: C_13  and  C_17 
REMARK    3  A    between atoms: C_15  and  O_16 
REMARK    4  A    between atoms: C_17  and  O_18 
REMARK    5  A    between atoms: C_19  and  C_21 
REMARK    6  A    between atoms: C_23  and  O_36 
REMARK    7  A    between atoms: C_25  and  O_35 
REMARK    8  A    between atoms: C_27  and  O_34 
REMARK    9  A    between atoms: C_29  and  C_32 
REMARK   10  A    between atoms: C_32  and  O_33 
ROOT
ATOM      1  C   LIG d   1      -2.514 -11.397 -10.542  0.00  0.00    -0.058 A 
ATOM      2  C   LIG d   1      -2.424 -10.068 -10.164  0.00  0.00    -0.057 A 
ATOM      3  C   LIG d   1      -3.159  -9.098 -10.823  0.00  0.00    -0.023 A 
ATOM      4  C   LIG d   1      -3.995  -9.479 -11.873  0.00  0.00     0.068 A 
ATOM      5  C   LIG d   1      -4.080 -10.822 -12.259  0.00  0.00     0.128 A 
ATOM      6  C   LIG d   1      -3.333 -11.778 -11.585  0.00  0.00    -0.019 A 
ATOM      7  C   LIG d   1      -4.804  -8.458 -12.570  0.00  0.00     0.201 C 
ATOM      8  O   LIG d   1      -5.304  -8.686 -13.654  0.00  0.00    -0.286 OA
ATOM      9  C   LIG d   1      -4.986  -7.152 -11.906  0.00  0.00     0.068 A 
ATOM     10  C   LIG d   1      -4.140  -6.786 -10.858  0.00  0.00    -0.023 A 
ATOM     11  C   LIG d   1      -4.332  -5.565 -10.236  0.00  0.00    -0.052 A 
ATOM     12  C   LIG d   1      -5.338  -4.712 -10.653  0.00  0.00    -0.018 A 
ATOM     13  C   LIG d   1      -6.173  -5.065 -11.695  0.00  0.00    -0.014 A 
ATOM     14  C   LIG d   1      -6.003  -6.288 -12.329  0.00  0.00     0.128 A 
ATOM     15  C   LIG d   1      -3.022  -7.669 -10.392  0.00  0.00     0.040 C 
ATOM     16  H   LIG d   1      -2.984  -7.637  -9.303  0.00  0.00     0.042 H 
ATOM     17  H   LIG d   1      -1.934 -12.141 -10.018  0.00  0.00     0.062 H 
ATOM     18  H   LIG d   1      -1.776  -9.786  -9.349  0.00  0.00     0.062 H 
ATOM     19  H   LIG d   1      -3.392 -12.816 -11.876  0.00  0.00     0.065 H 
ATOM     20  H   LIG d   1      -3.689  -5.273  -9.419  0.00  0.00     0.062 H 
ATOM     21  H   LIG d   1      -6.955  -4.392 -12.015  0.00  0.00     0.066 H 
ENDROOT
BRANCH  15  22
ATOM     22  C   LIG d   1      -1.704  -7.117 -10.940  0.00  0.00     0.098 C 
ATOM     23  H   LIG d   1      -1.281  -7.825 -11.652  0.00  0.00     0.063 H 
ATOM     24  O   LIG d   1      -1.946  -5.869 -11.594  0.00  0.00    -0.365 OA
ATOM     25  C   LIG d   1      -0.778  -5.276 -12.166  0.00  0.00     0.110 C 
ATOM     26  C   LIG d   1       0.243  -4.990 -11.061  0.00  0.00     0.112 C 
ATOM     27  H   LIG d   1      -0.343  -5.959 -12.894  0.00  0.00     0.065 H 
ATOM     28  C   LIG d   1       0.573  -6.297 -10.333  0.00  0.00     0.112 C 
ATOM     29  H   LIG d   1       1.150  -4.578 -11.501  0.00  0.00     0.065 H 
ATOM     30  C   LIG d   1      -0.721  -6.906  -9.786  0.00  0.00     0.110 C 
ATOM     31  H   LIG d   1       1.038  -6.994 -11.029  0.00  0.00     0.065 H 
ATOM     32  H   LIG d   1      -0.502  -7.863  -9.314  0.00  0.00     0.065 H 
BRANCH  25  33
ATOM     33  C   LIG d   1      -1.159  -3.966 -12.860  0.00  0.00     0.073 C 
ATOM     34  H   LIG d   1      -0.319  -3.272 -12.811  0.00  0.00     0.058 H 
ATOM     35  H   LIG d   1      -1.407  -4.164 -13.901  0.00  0.00     0.058 H 
BRANCH  33  36
ATOM     36  O   LIG d   1      -2.290  -3.391 -12.202  0.00  0.00    -0.392 OA
ATOM     37  H   LIG d   1      -3.133  -3.570 -12.640  0.00  0.00     0.209 HD
ENDBRANCH  33  36
ENDBRANCH  25  33
BRANCH  26  38
ATOM     38  O   LIG d   1      -0.306  -4.052 -10.133  0.00  0.00    -0.387 OA
ATOM     39  H   LIG d   1      -0.547  -4.438  -9.279  0.00  0.00     0.210 HD
ENDBRANCH  26  38
BRANCH  28  40
ATOM     40  O   LIG d   1       1.470  -6.029  -9.253  0.00  0.00    -0.387 OA
ATOM     41  H   LIG d   1       1.043  -5.993  -8.387  0.00  0.00     0.210 HD
ENDBRANCH  28  40
BRANCH  30  42
ATOM     42  O   LIG d   1      -1.297  -6.020  -8.823  0.00  0.00    -0.387 OA
ATOM     43  H   LIG d   1      -1.788  -5.283  -9.212  0.00  0.00     0.210 HD
ENDBRANCH  30  42
ENDBRANCH  15  22
BRANCH   5  44
ATOM     44  O   LIG d   1      -4.889 -11.187 -13.285  0.00  0.00    -0.506 OA
ATOM     45  H   LIG d   1      -5.086 -12.133 -13.313  0.00  0.00     0.292 HD
ENDBRANCH   5  44
BRANCH  14  46
ATOM     46  O   LIG d   1      -6.819  -6.644 -13.353  0.00  0.00    -0.506 OA
ATOM     47  H   LIG d   1      -7.241  -7.506 -13.239  0.00  0.00     0.292 HD
ENDBRANCH  14  46
BRANCH  12  48
ATOM     48  C   LIG d   1      -5.527  -3.386  -9.963  0.00  0.00     0.069 C 
ATOM     49  H   LIG d   1      -4.799  -2.670 -10.343  0.00  0.00     0.061 H 
ATOM     50  H   LIG d   1      -6.535  -3.017 -10.156  0.00  0.00     0.061 H 
BRANCH  48  51
ATOM     51  O   LIG d   1      -5.342  -3.551  -8.555  0.00  0.00    -0.390 OA
ATOM     52  H   LIG d   1      -4.643  -4.178  -8.321  0.00  0.00     0.210 HD
ENDBRANCH  48  51
ENDBRANCH  12  48
TORSDOF 10
ENDMDL
MODEL 8
REMARK VINA RESULT:      -5.4      8.766     10.263
REMARK  10 active torsions:
REMARK  status: ('A' for Active; 'I' for Inactive)
REMARK    1  A    between atoms: C_5  and  O_7 
REMARK    2  A    between atoms: C_13  and  C_17 
REMARK    3  A    between atoms: C_15  and  O_16 
REMARK    4  A    between atoms: C_17  and  O_18 
REMARK    5  A    between atoms: C_19  and  C_21 
REMARK    6  A    between atoms: C_23  and  O_36 
REMARK    7  A    between atoms: C_25  and  O_35 
REMARK    8  A    between atoms: C_27  and  O_34 
REMARK    9  A    between atoms: C_29  and  C_32 
REMARK   10  A    between atoms: C_32  and  O_33 
ROOT
ATOM      1  C   LIG d   1      13.111   5.550  -1.756  0.00  0.00    -0.058 A 
ATOM      2  C   LIG d   1      12.899   6.414  -2.816  0.00  0.00    -0.057 A 
ATOM      3  C   LIG d   1      11.809   7.266  -2.823  0.00  0.00    -0.023 A 
ATOM      4  C   LIG d   1      10.928   7.247  -1.741  0.00  0.00     0.068 A 
ATOM      5  C   LIG d   1      11.139   6.368  -0.671  0.00  0.00     0.128 A 
ATOM      6  C   LIG d   1      12.238   5.521  -0.687  0.00  0.00    -0.019 A 
ATOM      7  C   LIG d   1       9.773   8.167  -1.722  0.00  0.00     0.201 C 
ATOM      8  O   LIG d   1       8.836   7.984  -0.969  0.00  0.00    -0.286 OA
ATOM      9  C   LIG d   1       9.794   9.318  -2.646  0.00  0.00     0.068 A 
ATOM     10  C   LIG d   1      10.682   9.323  -3.724  0.00  0.00    -0.023 A 
ATOM     11  C   LIG d   1      10.700  10.414  -4.573  0.00  0.00    -0.052 A 
ATOM     12  C   LIG d   1       9.845  11.482  -4.368  0.00  0.00    -0.018 A 
ATOM     13  C   LIG d   1       8.959  11.480  -3.308  0.00  0.00    -0.014 A 
ATOM     14  C   LIG d   1       8.927  10.398  -2.439  0.00  0.00     0.128 A 
ATOM     15  C   LIG d   1      11.607   8.175  -3.997  0.00  0.00     0.040 C 
ATOM     16  H   LIG d   1      12.575   8.574  -4.298  0.00  0.00     0.042 H 
ATOM     17  H   LIG d   1      13.967   4.892  -1.766  0.00  0.00     0.062 H 
ATOM     18  H   LIG d   1      13.589   6.423  -3.646  0.00  0.00     0.062 H 
ATOM     19  H   LIG d   1      12.409   4.840   0.133  0.00  0.00     0.065 H 
ATOM     20  H   LIG d   1      11.387  10.433  -5.407  0.00  0.00     0.062 H 
ATOM     21  H   LIG d   1       8.293  12.317  -3.157  0.00  0.00     0.066 H 
ENDROOT
BRANCH  15  22
ATOM     22  C   LIG d   1      11.038   7.356  -5.158  0.00  0.00     0.098 C 
ATOM     23  H   LIG d   1      10.404   6.561  -4.765  0.00  0.00     0.063 H 
ATOM     24  O   LIG d   1      10.265   8.206  -6.007  0.00  0.00    -0.365 OA
ATOM     25  C   LIG d   1       9.664   7.533  -7.116  0.00  0.00     0.110 C 
ATOM     26  C   LIG d   1      10.760   6.926  -7.997  0.00  0.00     0.112 C 
ATOM     27  H   LIG d   1       9.013   6.740  -6.749  0.00  0.00     0.065 H 
ATOM     28  C   LIG d   1      11.614   5.974  -7.154  0.00  0.00     0.112 C 
ATOM     29  H   LIG d   1      10.303   6.375  -8.819  0.00  0.00     0.065 H 
ATOM     30  C   LIG d   1      12.188   6.742  -5.960  0.00  0.00     0.110 C 
ATOM     31  H   LIG d   1      10.996   5.151  -6.796  0.00  0.00     0.065 H 
ATOM     32  H   LIG d   1      12.752   6.060  -5.325  0.00  0.00     0.065 H 
BRANCH  25  33
ATOM     33  C   LIG d   1       8.844   8.531  -7.936  0.00  0.00     0.073 C 
ATOM     34  H   LIG d   1       8.824   8.214  -8.979  0.00  0.00     0.058 H 
ATOM     35  H   LIG d   1       7.827   8.569  -7.548  0.00  0.00     0.058 H 
BRANCH  33  36
ATOM     36  O   LIG d   1       9.439   9.826  -7.843  0.00  0.00    -0.392 OA
ATOM     37  H   LIG d   1       9.225  10.412  -8.582  0.00  0.00     0.209 HD
ENDBRANCH  33  36
ENDBRANCH  25  33
BRANCH  26  38
ATOM     38  O   LIG d   1      11.584   7.968  -8.523  0.00  0.00    -0.387 OA
ATOM     39  H   LIG d   1      11.799   8.661  -7.882  0.00  0.00     0.210 HD
ENDBRANCH  26  38
BRANCH  28  40
ATOM     40  O   LIG d   1      12.683   5.458  -7.950  0.00  0.00    -0.387 OA
ATOM     41  H   LIG d   1      13.409   5.081  -7.436  0.00  0.00     0.210 HD
ENDBRANCH  28  40
BRANCH  30  42
ATOM     42  O   LIG d   1      13.051   7.781  -6.429  0.00  0.00    -0.387 OA
ATOM     43  H   LIG d   1      13.816   7.461  -6.927  0.00  0.00     0.210 HD
ENDBRANCH  30  42
ENDBRANCH  15  22
BRANCH   5  44
ATOM     44  O   LIG d   1      10.276   6.346   0.374  0.00  0.00    -0.506 OA
ATOM     45  H   LIG d   1       9.950   5.463   0.596  0.00  0.00     0.292 HD
ENDBRANCH   5  44
BRANCH  14  46
ATOM     46  O   LIG d   1       8.061  10.388  -1.395  0.00  0.00    -0.506 OA
ATOM     47  H   LIG d   1       7.659   9.525  -1.226  0.00  0.00     0.292 HD
ENDBRANCH  14  46
BRANCH  12  48
ATOM     48  C   LIG d   1       9.881  12.660  -5.307  0.00  0.00     0.069 C 
ATOM     49  H   LIG d   1       9.312  13.484  -4.879  0.00  0.00     0.061 H 
ATOM     50  H   LIG d   1      10.914  12.971  -5.459  0.00  0.00     0.061 H 
BRANCH  48  51
ATOM     51  O   LIG d   1       9.307  12.286  -6.561  0.00  0.00    -0.390 OA
ATOM     52  H   LIG d   1       9.759  11.550  -6.997  0.00  0.00     0.210 HD
ENDBRANCH  48  51
ENDBRANCH  12  48
TORSDOF 10
ENDMDL
MODEL 9
REMARK VINA RESULT:      -5.4      4.980      9.055
REMARK  10 active torsions:
REMARK  status: ('A' for Active; 'I' for Inactive)
REMARK    1  A    between atoms: C_5  and  O_7 
REMARK    2  A    between atoms: C_13  and  C_17 
REMARK    3  A    between atoms: C_15  and  O_16 
REMARK    4  A    between atoms: C_17  and  O_18 
REMARK    5  A    between atoms: C_19  and  C_21 
REMARK    6  A    between atoms: C_23  and  O_36 
REMARK    7  A    between atoms: C_25  and  O_35 
REMARK    8  A    between atoms: C_27  and  O_34 
REMARK    9  A    between atoms: C_29  and  C_32 
REMARK   10  A    between atoms: C_32  and  O_33 
ROOT
ATOM      1  C   LIG d   1       8.360   1.382  -4.303  0.00  0.00    -0.058 A 
ATOM      2  C   LIG d   1       8.609   2.683  -3.900  0.00  0.00    -0.057 A 
ATOM      3  C   LIG d   1       9.139   3.606  -4.785  0.00  0.00    -0.023 A 
ATOM      4  C   LIG d   1       9.414   3.207  -6.093  0.00  0.00     0.068 A 
ATOM      5  C   LIG d   1       9.169   1.889  -6.499  0.00  0.00     0.128 A 
ATOM      6  C   LIG d   1       8.639   0.981  -5.594  0.00  0.00    -0.019 A 
ATOM      7  C   LIG d   1       9.958   4.186  -7.056  0.00  0.00     0.201 C 
ATOM      8  O   LIG d   1      10.483   3.825  -8.091  0.00  0.00    -0.286 OA
ATOM      9  C   LIG d   1       9.841   5.620  -6.721  0.00  0.00     0.068 A 
ATOM     10  C   LIG d   1       9.564   6.001  -5.407  0.00  0.00    -0.023 A 
ATOM     11  C   LIG d   1       9.444   7.348  -5.111  0.00  0.00    -0.052 A 
ATOM     12  C   LIG d   1       9.606   8.303  -6.098  0.00  0.00    -0.018 A 
ATOM     13  C   LIG d   1       9.887   7.932  -7.398  0.00  0.00    -0.014 A 
ATOM     14  C   LIG d   1      10.007   6.588  -7.720  0.00  0.00     0.128 A 
ATOM     15  C   LIG d   1       9.407   4.999  -4.303  0.00  0.00     0.040 C 
ATOM     16  H   LIG d   1       8.579   5.312  -3.666  0.00  0.00     0.042 H 
ATOM     17  H   LIG d   1       7.947   0.675  -3.600  0.00  0.00     0.062 H 
ATOM     18  H   LIG d   1       8.388   2.981  -2.886  0.00  0.00     0.062 H 
ATOM     19  H   LIG d   1       8.447  -0.037  -5.898  0.00  0.00     0.065 H 
ATOM     20  H   LIG d   1       9.223   7.656  -4.100  0.00  0.00     0.062 H 
ATOM     21  H   LIG d   1      10.015   8.685  -8.161  0.00  0.00     0.066 H 
ENDROOT
BRANCH  15  22
ATOM     22  C   LIG d   1      10.687   4.991  -3.467  0.00  0.00     0.098 C 
ATOM     23  H   LIG d   1      11.226   4.059  -3.637  0.00  0.00     0.063 H 
ATOM     24  O   LIG d   1      11.511   6.095  -3.845  0.00  0.00    -0.365 OA
ATOM     25  C   LIG d   1      12.751   6.166  -3.137  0.00  0.00     0.110 C 
ATOM     26  C   LIG d   1      12.474   6.331  -1.639  0.00  0.00     0.112 C 
ATOM     27  H   LIG d   1      13.317   5.251  -3.303  0.00  0.00     0.065 H 
ATOM     28  C   LIG d   1      11.615   5.158  -1.156  0.00  0.00     0.112 C 
ATOM     29  H   LIG d   1      13.417   6.341  -1.094  0.00  0.00     0.065 H 
ATOM     30  C   LIG d   1      10.327   5.107  -1.983  0.00  0.00     0.110 C 
ATOM     31  H   LIG d   1      12.166   4.226  -1.282  0.00  0.00     0.065 H 
ATOM     32  H   LIG d   1       9.735   4.243  -1.683  0.00  0.00     0.065 H 
BRANCH  25  33
ATOM     33  C   LIG d   1      13.558   7.365  -3.641  0.00  0.00     0.073 C 
ATOM     34  H   LIG d   1      14.172   7.756  -2.829  0.00  0.00     0.058 H 
ATOM     35  H   LIG d   1      14.199   7.051  -4.463  0.00  0.00     0.058 H 
BRANCH  33  36
ATOM     36  O   LIG d   1      12.665   8.383  -4.094  0.00  0.00    -0.392 OA
ATOM     37  H   LIG d   1      12.902   8.762  -4.952  0.00  0.00     0.209 HD
ENDBRANCH  33  36
ENDBRANCH  25  33
BRANCH  26  38
ATOM     38  O   LIG d   1      11.778   7.557  -1.413  0.00  0.00    -0.387 OA
ATOM     39  H   LIG d   1      12.358   8.324  -1.297  0.00  0.00     0.210 HD
ENDBRANCH  26  38
BRANCH  28  40
ATOM     40  O   LIG d   1      11.291   5.339   0.224  0.00  0.00    -0.387 OA
ATOM     41  H   LIG d   1      12.046   5.249   0.821  0.00  0.00     0.210 HD
ENDBRANCH  28  40
BRANCH  30  42
ATOM     42  O   LIG d   1       9.572   6.301  -1.767  0.00  0.00    -0.387 OA
ATOM     43  H   LIG d   1       9.736   6.720  -0.912  0.00  0.00     0.210 HD
ENDBRANCH  30  42
ENDBRANCH  15  22
BRANCH   5  44
ATOM     44  O   LIG d   1       9.447   1.504  -7.769  0.00  0.00    -0.506 OA
ATOM     45  H   LIG d   1       9.973   0.695  -7.828  0.00  0.00     0.292 HD
ENDBRANCH   5  44
BRANCH  14  46
ATOM     46  O   LIG d   1      10.283   6.213  -8.994  0.00  0.00    -0.506 OA
ATOM     47  H   LIG d   1      10.989   6.725  -9.411  0.00  0.00     0.292 HD
ENDBRANCH  14  46
BRANCH  12  48
ATOM     48  C   LIG d   1       9.472   9.764  -5.752  0.00  0.00     0.069 C 
ATOM     49  H   LIG d   1      10.419  10.270  -5.938  0.00  0.00     0.061 H 
ATOM     50  H   LIG d   1       8.694  10.213  -6.369  0.00  0.00     0.061 H 
BRANCH  48  51
ATOM     51  O   LIG d   1       9.124   9.897  -4.373  0.00  0.00    -0.390 OA
ATOM     52  H   LIG d   1       8.332   9.403  -4.118  0.00  0.00     0.210 HD
ENDBRANCH  48  51
ENDBRANCH  12  48
TORSDOF 10
ENDMDL
