MODEL 1
REMARK VINA RESULT:      -7.0      0.000      0.000
REMARK  1 active torsions:
REMARK  status: ('A' for Active; 'I' for Inactive)
REMARK    1  A    between atoms: C_4  and  C_7 
ROOT
ATOM      1  C   LIG d   1       6.537  -4.131  -5.268  0.00  0.00    -0.011 C 
ATOM      2  H   LIG d   1       6.656  -3.549  -6.181  0.00  0.00     0.035 H 
ATOM      3  C   LIG d   1       7.819  -4.042  -4.435  0.00  0.00    -0.041 C 
ATOM      4  C   LIG d   1       8.231  -2.573  -4.289  0.00  0.00    -0.012 C 
ATOM      5  C   LIG d   1       7.033  -1.780  -3.822  0.00  0.00     0.020 A 
ATOM      6  C   LIG d   1       5.762  -2.229  -3.897  0.00  0.00    -0.019 A 
ATOM      7  C   LIG d   1       4.911  -1.191  -3.353  0.00  0.00     0.003 A 
ATOM      8  C   LIG d   1       3.527  -1.094  -3.174  0.00  0.00    -0.052 A 
ATOM      9  C   LIG d   1       3.054   0.065  -2.612  0.00  0.00    -0.061 A 
ATOM     10  C   LIG d   1       3.896   1.099  -2.235  0.00  0.00    -0.060 A 
ATOM     11  C   LIG d   1       5.268   1.031  -2.402  0.00  0.00    -0.038 A 
ATOM     12  C   LIG d   1       5.778  -0.135  -2.970  0.00  0.00     0.047 A 
ATOM     13  N   LIG d   1       7.051  -0.526  -3.269  0.00  0.00    -0.358 N 
ATOM     14  H   LIG d   1       7.848   0.003  -3.114  0.00  0.00     0.166 HD
ATOM     15  C   LIG d   1       5.363  -3.572  -4.454  0.00  0.00    -0.019 C 
ATOM     16  H   LIG d   1       7.641  -4.468  -3.448  0.00  0.00     0.028 H 
ATOM     17  H   LIG d   1       8.615  -4.595  -4.933  0.00  0.00     0.028 H 
ATOM     18  H   LIG d   1       9.034  -2.488  -3.556  0.00  0.00     0.033 H 
ATOM     19  H   LIG d   1       8.570  -2.190  -5.252  0.00  0.00     0.033 H 
ATOM     20  H   LIG d   1       2.863  -1.894  -3.464  0.00  0.00     0.062 H 
ATOM     21  H   LIG d   1       1.990   0.175  -2.458  0.00  0.00     0.062 H 
ATOM     22  H   LIG d   1       3.467   1.988  -1.797  0.00  0.00     0.062 H 
ATOM     23  H   LIG d   1       5.915   1.844  -2.104  0.00  0.00     0.064 H 
ATOM     24  H   LIG d   1       4.492  -3.456  -5.100  0.00  0.00     0.032 H 
ATOM     25  H   LIG d   1       5.128  -4.252  -3.636  0.00  0.00     0.032 H 
ENDROOT
BRANCH   1  26
ATOM     26  C   LIG d   1       6.264  -5.570  -5.620  0.00  0.00    -0.044 A 
ATOM     27  C   LIG d   1       4.987  -5.967  -5.967  0.00  0.00    -0.058 A 
ATOM     28  C   LIG d   1       4.737  -7.287  -6.292  0.00  0.00    -0.061 A 
ATOM     29  H   LIG d   1       4.184  -5.245  -5.985  0.00  0.00     0.062 H 
ATOM     30  C   LIG d   1       5.766  -8.211  -6.270  0.00  0.00    -0.062 A 
ATOM     31  H   LIG d   1       3.739  -7.597  -6.563  0.00  0.00     0.062 H 
ATOM     32  C   LIG d   1       7.044  -7.814  -5.923  0.00  0.00    -0.061 A 
ATOM     33  H   LIG d   1       5.570  -9.243  -6.519  0.00  0.00     0.062 H 
ATOM     34  C   LIG d   1       7.293  -6.494  -5.598  0.00  0.00    -0.058 A 
ATOM     35  H   LIG d   1       7.847  -8.535  -5.906  0.00  0.00     0.062 H 
ATOM     36  H   LIG d   1       8.292  -6.184  -5.327  0.00  0.00     0.062 H 
ENDBRANCH   1  26
TORSDOF 1
ENDMDL
MODEL 2
REMARK VINA RESULT:      -7.0      2.054      4.068
REMARK  1 active torsions:
REMARK  status: ('A' for Active; 'I' for Inactive)
REMARK    1  A    between atoms: C_4  and  C_7 
ROOT
ATOM      1  C   LIG d   1       8.031  -3.570  -4.005  0.00  0.00    -0.011 C 
ATOM      2  H   LIG d   1       7.694  -4.279  -3.249  0.00  0.00     0.035 H 
ATOM      3  C   LIG d   1       7.435  -3.947  -5.363  0.00  0.00    -0.041 C 
ATOM      4  C   LIG d   1       5.924  -4.158  -5.215  0.00  0.00    -0.012 C 
ATOM      5  C   LIG d   1       5.339  -2.964  -4.499  0.00  0.00     0.020 A 
ATOM      6  C   LIG d   1       6.075  -2.078  -3.793  0.00  0.00    -0.019 A 
ATOM      7  C   LIG d   1       5.159  -1.088  -3.265  0.00  0.00     0.003 A 
ATOM      8  C   LIG d   1       5.345   0.050  -2.474  0.00  0.00    -0.052 A 
ATOM      9  C   LIG d   1       4.223   0.774  -2.156  0.00  0.00    -0.061 A 
ATOM     10  C   LIG d   1       2.960   0.407  -2.592  0.00  0.00    -0.060 A 
ATOM     11  C   LIG d   1       2.747  -0.715  -3.375  0.00  0.00    -0.038 A 
ATOM     12  C   LIG d   1       3.868  -1.470  -3.714  0.00  0.00     0.047 A 
ATOM     13  N   LIG d   1       4.016  -2.607  -4.455  0.00  0.00    -0.358 N 
ATOM     14  H   LIG d   1       3.294  -3.090  -4.885  0.00  0.00     0.166 HD
ATOM     15  C   LIG d   1       7.571  -2.157  -3.623  0.00  0.00    -0.019 C 
ATOM     16  H   LIG d   1       7.621  -3.146  -6.078  0.00  0.00     0.028 H 
ATOM     17  H   LIG d   1       7.897  -4.867  -5.720  0.00  0.00     0.028 H 
ATOM     18  H   LIG d   1       5.468  -4.251  -6.202  0.00  0.00     0.033 H 
ATOM     19  H   LIG d   1       5.735  -5.061  -4.635  0.00  0.00     0.033 H 
ATOM     20  H   LIG d   1       6.324   0.345  -2.129  0.00  0.00     0.062 H 
ATOM     21  H   LIG d   1       4.327   1.660  -1.546  0.00  0.00     0.062 H 
ATOM     22  H   LIG d   1       2.113   1.015  -2.312  0.00  0.00     0.062 H 
ATOM     23  H   LIG d   1       1.758  -0.992  -3.709  0.00  0.00     0.064 H 
ATOM     24  H   LIG d   1       7.832  -1.956  -2.584  0.00  0.00     0.032 H 
ATOM     25  H   LIG d   1       8.052  -1.427  -4.273  0.00  0.00     0.032 H 
ENDROOT
BRANCH   1  26
ATOM     26  C   LIG d   1       9.536  -3.602  -4.089  0.00  0.00    -0.044 A 
ATOM     27  C   LIG d   1      10.194  -2.807  -5.008  0.00  0.00    -0.058 A 
ATOM     28  C   LIG d   1      11.574  -2.836  -5.084  0.00  0.00    -0.061 A 
ATOM     29  H   LIG d   1       9.630  -2.163  -5.666  0.00  0.00     0.062 H 
ATOM     30  C   LIG d   1      12.295  -3.661  -4.240  0.00  0.00    -0.062 A 
ATOM     31  H   LIG d   1      12.088  -2.216  -5.802  0.00  0.00     0.062 H 
ATOM     32  C   LIG d   1      11.637  -4.455  -3.320  0.00  0.00    -0.061 A 
ATOM     33  H   LIG d   1      13.373  -3.686  -4.302  0.00  0.00     0.062 H 
ATOM     34  C   LIG d   1      10.257  -4.427  -3.245  0.00  0.00    -0.058 A 
ATOM     35  H   LIG d   1      12.200  -5.099  -2.661  0.00  0.00     0.062 H 
ATOM     36  H   LIG d   1       9.742  -5.047  -2.527  0.00  0.00     0.062 H 
ENDBRANCH   1  26
TORSDOF 1
ENDMDL
MODEL 3
REMARK VINA RESULT:      -6.8      3.896      7.644
REMARK  1 active torsions:
REMARK  status: ('A' for Active; 'I' for Inactive)
REMARK    1  A    between atoms: C_4  and  C_7 
ROOT
ATOM      1  C   LIG d   1       8.913   1.881  -4.162  0.00  0.00    -0.011 C 
ATOM      2  H   LIG d   1       9.601   1.271  -3.577  0.00  0.00     0.035 H 
ATOM      3  C   LIG d   1       8.924   1.409  -5.618  0.00  0.00    -0.041 C 
ATOM      4  C   LIG d   1       8.735  -0.111  -5.663  0.00  0.00    -0.012 C 
ATOM      5  C   LIG d   1       7.537  -0.472  -4.816  0.00  0.00     0.020 A 
ATOM      6  C   LIG d   1       6.991   0.354  -3.899  0.00  0.00    -0.019 A 
ATOM      7  C   LIG d   1       5.872  -0.349  -3.306  0.00  0.00     0.003 A 
ATOM      8  C   LIG d   1       4.948   0.002  -2.317  0.00  0.00    -0.052 A 
ATOM      9  C   LIG d   1       3.997  -0.934  -1.996  0.00  0.00    -0.061 A 
ATOM     10  C   LIG d   1       3.944  -2.173  -2.614  0.00  0.00    -0.060 A 
ATOM     11  C   LIG d   1       4.847  -2.547  -3.595  0.00  0.00    -0.038 A 
ATOM     12  C   LIG d   1       5.824  -1.616  -3.942  0.00  0.00     0.047 A 
ATOM     13  N   LIG d   1       6.845  -1.655  -4.847  0.00  0.00    -0.358 N 
ATOM     14  H   LIG d   1       7.050  -2.406  -5.425  0.00  0.00     0.166 HD
ATOM     15  C   LIG d   1       7.496   1.742  -3.593  0.00  0.00    -0.019 C 
ATOM     16  H   LIG d   1       8.113   1.892  -6.163  0.00  0.00     0.028 H 
ATOM     17  H   LIG d   1       9.877   1.671  -6.078  0.00  0.00     0.028 H 
ATOM     18  H   LIG d   1       8.564  -0.429  -6.692  0.00  0.00     0.033 H 
ATOM     19  H   LIG d   1       9.624  -0.602  -5.268  0.00  0.00     0.033 H 
ATOM     20  H   LIG d   1       4.980   0.965  -1.829  0.00  0.00     0.062 H 
ATOM     21  H   LIG d   1       3.266  -0.698  -1.236  0.00  0.00     0.062 H 
ATOM     22  H   LIG d   1       3.174  -2.871  -2.322  0.00  0.00     0.062 H 
ATOM     23  H   LIG d   1       4.796  -3.516  -4.070  0.00  0.00     0.064 H 
ATOM     24  H   LIG d   1       7.518   1.894  -2.514  0.00  0.00     0.032 H 
ATOM     25  H   LIG d   1       6.841   2.479  -4.056  0.00  0.00     0.032 H 
ENDROOT
BRANCH   1  26
ATOM     26  C   LIG d   1       9.341   3.325  -4.097  0.00  0.00    -0.044 A 
ATOM     27  C   LIG d   1       9.775   3.864  -2.901  0.00  0.00    -0.058 A 
ATOM     28  C   LIG d   1      10.168   5.188  -2.841  0.00  0.00    -0.061 A 
ATOM     29  H   LIG d   1       9.807   3.251  -2.013  0.00  0.00     0.062 H 
ATOM     30  C   LIG d   1      10.128   5.972  -3.980  0.00  0.00    -0.062 A 
ATOM     31  H   LIG d   1      10.507   5.609  -1.907  0.00  0.00     0.062 H 
ATOM     32  C   LIG d   1       9.695   5.433  -5.176  0.00  0.00    -0.061 A 
ATOM     33  H   LIG d   1      10.431   7.007  -3.933  0.00  0.00     0.062 H 
ATOM     34  C   LIG d   1       9.301   4.109  -5.235  0.00  0.00    -0.058 A 
ATOM     35  H   LIG d   1       9.664   6.045  -6.065  0.00  0.00     0.062 H 
ATOM     36  H   LIG d   1       8.962   3.687  -6.170  0.00  0.00     0.062 H 
ENDBRANCH   1  26
TORSDOF 1
ENDMDL
MODEL 4
REMARK VINA RESULT:      -6.8      4.409      5.337
REMARK  1 active torsions:
REMARK  status: ('A' for Active; 'I' for Inactive)
REMARK    1  A    between atoms: C_4  and  C_7 
ROOT
ATOM      1  C   LIG d   1       4.177  -1.241  -7.993  0.00  0.00    -0.011 C 
ATOM      2  H   LIG d   1       5.182  -0.845  -8.142  0.00  0.00     0.035 H 
ATOM      3  C   LIG d   1       4.264  -2.720  -7.611  0.00  0.00    -0.041 C 
ATOM      4  C   LIG d   1       5.269  -2.893  -6.467  0.00  0.00    -0.012 C 
ATOM      5  C   LIG d   1       4.932  -1.904  -5.376  0.00  0.00     0.020 A 
ATOM      6  C   LIG d   1       4.138  -0.828  -5.559  0.00  0.00    -0.019 A 
ATOM      7  C   LIG d   1       4.059  -0.136  -4.289  0.00  0.00     0.003 A 
ATOM      8  C   LIG d   1       3.392   1.023  -3.880  0.00  0.00    -0.052 A 
ATOM      9  C   LIG d   1       3.544   1.396  -2.567  0.00  0.00    -0.061 A 
ATOM     10  C   LIG d   1       4.319   0.667  -1.680  0.00  0.00    -0.060 A 
ATOM     11  C   LIG d   1       4.991  -0.482  -2.058  0.00  0.00    -0.038 A 
ATOM     12  C   LIG d   1       4.855  -0.885  -3.385  0.00  0.00     0.047 A 
ATOM     13  N   LIG d   1       5.367  -1.945  -4.077  0.00  0.00    -0.358 N 
ATOM     14  H   LIG d   1       5.950  -2.625  -3.705  0.00  0.00     0.166 HD
ATOM     15  C   LIG d   1       3.483  -0.465  -6.868  0.00  0.00    -0.019 C 
ATOM     16  H   LIG d   1       3.283  -3.070  -7.288  0.00  0.00     0.028 H 
ATOM     17  H   LIG d   1       4.591  -3.301  -8.473  0.00  0.00     0.028 H 
ATOM     18  H   LIG d   1       5.205  -3.908  -6.072  0.00  0.00     0.033 H 
ATOM     19  H   LIG d   1       6.277  -2.704  -6.834  0.00  0.00     0.033 H 
ATOM     20  H   LIG d   1       2.786   1.598  -4.564  0.00  0.00     0.062 H 
ATOM     21  H   LIG d   1       3.044   2.286  -2.215  0.00  0.00     0.062 H 
ATOM     22  H   LIG d   1       4.403   1.007  -0.658  0.00  0.00     0.062 H 
ATOM     23  H   LIG d   1       5.593  -1.042  -1.357  0.00  0.00     0.064 H 
ATOM     24  H   LIG d   1       3.586   0.606  -7.044  0.00  0.00     0.032 H 
ATOM     25  H   LIG d   1       2.427  -0.733  -6.835  0.00  0.00     0.032 H 
ENDROOT
BRANCH   1  26
ATOM     26  C   LIG d   1       3.385  -1.095  -9.267  0.00  0.00    -0.044 A 
ATOM     27  C   LIG d   1       4.016  -1.212 -10.491  0.00  0.00    -0.058 A 
ATOM     28  C   LIG d   1       3.290  -1.080 -11.659  0.00  0.00    -0.061 A 
ATOM     29  H   LIG d   1       5.078  -1.408 -10.534  0.00  0.00     0.062 H 
ATOM     30  C   LIG d   1       1.931  -0.831 -11.603  0.00  0.00    -0.062 A 
ATOM     31  H   LIG d   1       3.783  -1.171 -12.615  0.00  0.00     0.062 H 
ATOM     32  C   LIG d   1       1.299  -0.715 -10.379  0.00  0.00    -0.061 A 
ATOM     33  H   LIG d   1       1.364  -0.724 -12.515  0.00  0.00     0.062 H 
ATOM     34  C   LIG d   1       2.026  -0.846  -9.211  0.00  0.00    -0.058 A 
ATOM     35  H   LIG d   1       0.238  -0.520 -10.335  0.00  0.00     0.062 H 
ATOM     36  H   LIG d   1       1.533  -0.755  -8.254  0.00  0.00     0.062 H 
ENDBRANCH   1  26
TORSDOF 1
ENDMDL
MODEL 5
REMARK VINA RESULT:      -6.7      1.302      6.543
REMARK  1 active torsions:
REMARK  status: ('A' for Active; 'I' for Inactive)
REMARK    1  A    between atoms: C_4  and  C_7 
ROOT
ATOM      1  C   LIG d   1       5.950  -2.212  -3.394  0.00  0.00    -0.011 C 
ATOM      2  H   LIG d   1       6.130  -2.795  -2.491  0.00  0.00     0.035 H 
ATOM      3  C   LIG d   1       7.288  -1.774  -3.995  0.00  0.00    -0.041 C 
ATOM      4  C   LIG d   1       8.216  -2.988  -4.111  0.00  0.00    -0.012 C 
ATOM      5  C   LIG d   1       7.467  -4.102  -4.802  0.00  0.00     0.020 A 
ATOM      6  C   LIG d   1       6.124  -4.133  -4.935  0.00  0.00    -0.019 A 
ATOM      7  C   LIG d   1       5.794  -5.349  -5.649  0.00  0.00     0.003 A 
ATOM      8  C   LIG d   1       4.581  -5.905  -6.067  0.00  0.00    -0.052 A 
ATOM      9  C   LIG d   1       4.644  -7.101  -6.737  0.00  0.00    -0.061 A 
ATOM     10  C   LIG d   1       5.847  -7.739  -6.994  0.00  0.00    -0.060 A 
ATOM     11  C   LIG d   1       7.062  -7.212  -6.591  0.00  0.00    -0.038 A 
ATOM     12  C   LIG d   1       7.029  -5.998  -5.908  0.00  0.00     0.047 A 
ATOM     13  N   LIG d   1       8.016  -5.216  -5.381  0.00  0.00    -0.358 N 
ATOM     14  H   LIG d   1       8.964  -5.419  -5.412  0.00  0.00     0.166 HD
ATOM     15  C   LIG d   1       5.191  -3.069  -4.414  0.00  0.00    -0.019 C 
ATOM     16  H   LIG d   1       7.120  -1.349  -4.984  0.00  0.00     0.028 H 
ATOM     17  H   LIG d   1       7.748  -1.025  -3.350  0.00  0.00     0.028 H 
ATOM     18  H   LIG d   1       9.097  -2.721  -4.697  0.00  0.00     0.033 H 
ATOM     19  H   LIG d   1       8.520  -3.313  -3.117  0.00  0.00     0.033 H 
ATOM     20  H   LIG d   1       3.638  -5.416  -5.872  0.00  0.00     0.062 H 
ATOM     21  H   LIG d   1       3.727  -7.561  -7.075  0.00  0.00     0.062 H 
ATOM     22  H   LIG d   1       5.838  -8.678  -7.526  0.00  0.00     0.062 H 
ATOM     23  H   LIG d   1       7.994  -7.719  -6.796  0.00  0.00     0.064 H 
ATOM     24  H   LIG d   1       4.333  -3.538  -3.932  0.00  0.00     0.032 H 
ATOM     25  H   LIG d   1       4.854  -2.443  -5.240  0.00  0.00     0.032 H 
ENDROOT
BRANCH   1  26
ATOM     26  C   LIG d   1       5.130  -0.995  -3.050  0.00  0.00    -0.044 A 
ATOM     27  C   LIG d   1       3.754  -1.091  -2.964  0.00  0.00    -0.058 A 
ATOM     28  C   LIG d   1       3.001   0.025  -2.647  0.00  0.00    -0.061 A 
ATOM     29  H   LIG d   1       3.267  -2.038  -3.143  0.00  0.00     0.062 H 
ATOM     30  C   LIG d   1       3.626   1.237  -2.417  0.00  0.00    -0.062 A 
ATOM     31  H   LIG d   1       1.927  -0.050  -2.580  0.00  0.00     0.062 H 
ATOM     32  C   LIG d   1       5.002   1.332  -2.502  0.00  0.00    -0.061 A 
ATOM     33  H   LIG d   1       3.038   2.109  -2.174  0.00  0.00     0.062 H 
ATOM     34  C   LIG d   1       5.754   0.217  -2.820  0.00  0.00    -0.058 A 
ATOM     35  H   LIG d   1       5.490   2.279  -2.322  0.00  0.00     0.062 H 
ATOM     36  H   LIG d   1       6.830   0.292  -2.887  0.00  0.00     0.062 H 
ENDBRANCH   1  26
TORSDOF 1
ENDMDL
MODEL 6
REMARK VINA RESULT:      -6.7      1.645      2.348
REMARK  1 active torsions:
REMARK  status: ('A' for Active; 'I' for Inactive)
REMARK    1  A    between atoms: C_4  and  C_7 
ROOT
ATOM      1  C   LIG d   1       4.815  -4.166  -5.688  0.00  0.00    -0.011 C 
ATOM      2  H   LIG d   1       3.737  -4.314  -5.750  0.00  0.00     0.035 H 
ATOM      3  C   LIG d   1       5.291  -3.374  -6.909  0.00  0.00    -0.041 C 
ATOM      4  C   LIG d   1       4.415  -2.129  -7.083  0.00  0.00    -0.012 C 
ATOM      5  C   LIG d   1       4.340  -1.404  -5.760  0.00  0.00     0.020 A 
ATOM      6  C   LIG d   1       4.670  -1.965  -4.577  0.00  0.00    -0.019 A 
ATOM      7  C   LIG d   1       4.468  -0.958  -3.556  0.00  0.00     0.003 A 
ATOM      8  C   LIG d   1       4.642  -0.965  -2.169  0.00  0.00    -0.052 A 
ATOM      9  C   LIG d   1       4.347   0.197  -1.501  0.00  0.00    -0.061 A 
ATOM     10  C   LIG d   1       3.897   1.330  -2.158  0.00  0.00    -0.060 A 
ATOM     11  C   LIG d   1       3.713   1.365  -3.529  0.00  0.00    -0.038 A 
ATOM     12  C   LIG d   1       4.006   0.200  -4.234  0.00  0.00     0.047 A 
ATOM     13  N   LIG d   1       3.940  -0.108  -5.563  0.00  0.00    -0.358 N 
ATOM     14  H   LIG d   1       3.654   0.500  -6.262  0.00  0.00     0.166 HD
ATOM     15  C   LIG d   1       5.153  -3.384  -4.413  0.00  0.00    -0.019 C 
ATOM     16  H   LIG d   1       6.328  -3.070  -6.764  0.00  0.00     0.028 H 
ATOM     17  H   LIG d   1       5.217  -3.998  -7.799  0.00  0.00     0.028 H 
ATOM     18  H   LIG d   1       4.854  -1.473  -7.835  0.00  0.00     0.033 H 
ATOM     19  H   LIG d   1       3.414  -2.427  -7.393  0.00  0.00     0.033 H 
ATOM     20  H   LIG d   1       4.993  -1.843  -1.647  0.00  0.00     0.062 H 
ATOM     21  H   LIG d   1       4.470   0.229  -0.428  0.00  0.00     0.062 H 
ATOM     22  H   LIG d   1       3.680   2.218  -1.581  0.00  0.00     0.062 H 
ATOM     23  H   LIG d   1       3.361   2.255  -4.030  0.00  0.00     0.064 H 
ATOM     24  H   LIG d   1       4.654  -3.844  -3.559  0.00  0.00     0.032 H 
ATOM     25  H   LIG d   1       6.231  -3.388  -4.256  0.00  0.00     0.032 H 
ENDROOT
BRANCH   1  26
ATOM     26  C   LIG d   1       5.506  -5.504  -5.655  0.00  0.00    -0.044 A 
ATOM     27  C   LIG d   1       6.886  -5.570  -5.598  0.00  0.00    -0.058 A 
ATOM     28  C   LIG d   1       7.519  -6.797  -5.567  0.00  0.00    -0.061 A 
ATOM     29  H   LIG d   1       7.468  -4.660  -5.578  0.00  0.00     0.062 H 
ATOM     30  C   LIG d   1       6.773  -7.961  -5.592  0.00  0.00    -0.062 A 
ATOM     31  H   LIG d   1       8.596  -6.848  -5.523  0.00  0.00     0.062 H 
ATOM     32  C   LIG d   1       5.393  -7.896  -5.648  0.00  0.00    -0.061 A 
ATOM     33  H   LIG d   1       7.268  -8.920  -5.571  0.00  0.00     0.062 H 
ATOM     34  C   LIG d   1       4.760  -6.668  -5.681  0.00  0.00    -0.058 A 
ATOM     35  H   LIG d   1       4.810  -8.805  -5.667  0.00  0.00     0.062 H 
ATOM     36  H   LIG d   1       3.681  -6.617  -5.725  0.00  0.00     0.062 H 
ENDBRANCH   1  26
TORSDOF 1
ENDMDL
MODEL 7
REMARK VINA RESULT:      -6.7      5.261      6.454
REMARK  1 active torsions:
REMARK  status: ('A' for Active; 'I' for Inactive)
REMARK    1  A    between atoms: C_4  and  C_7 
ROOT
ATOM      1  C   LIG d   1       2.672   0.154  -8.587  0.00  0.00    -0.011 C 
ATOM      2  H   LIG d   1       1.617  -0.051  -8.408  0.00  0.00     0.035 H 
ATOM      3  C   LIG d   1       2.955   1.637  -8.332  0.00  0.00    -0.041 C 
ATOM      4  C   LIG d   1       2.378   2.039  -6.970  0.00  0.00    -0.012 C 
ATOM      5  C   LIG d   1       2.850   1.046  -5.935  0.00  0.00     0.020 A 
ATOM      6  C   LIG d   1       3.359  -0.168  -6.237  0.00  0.00    -0.019 A 
ATOM      7  C   LIG d   1       3.693  -0.814  -4.985  0.00  0.00     0.003 A 
ATOM      8  C   LIG d   1       4.244  -2.062  -4.678  0.00  0.00    -0.052 A 
ATOM      9  C   LIG d   1       4.427  -2.349  -3.349  0.00  0.00    -0.061 A 
ATOM     10  C   LIG d   1       4.085  -1.455  -2.348  0.00  0.00    -0.060 A 
ATOM     11  C   LIG d   1       3.536  -0.214  -2.622  0.00  0.00    -0.038 A 
ATOM     12  C   LIG d   1       3.339   0.106  -3.964  0.00  0.00     0.047 A 
ATOM     13  N   LIG d   1       2.833   1.216  -4.575  0.00  0.00    -0.358 N 
ATOM     14  H   LIG d   1       2.510   2.007  -4.117  0.00  0.00     0.166 HD
ATOM     15  C   LIG d   1       3.527  -0.697  -7.640  0.00  0.00    -0.019 C 
ATOM     16  H   LIG d   1       4.031   1.807  -8.335  0.00  0.00     0.028 H 
ATOM     17  H   LIG d   1       2.490   2.235  -9.115  0.00  0.00     0.028 H 
ATOM     18  H   LIG d   1       2.727   3.037  -6.705  0.00  0.00     0.033 H 
ATOM     19  H   LIG d   1       1.289   2.030  -7.017  0.00  0.00     0.033 H 
ATOM     20  H   LIG d   1       4.515  -2.766  -5.451  0.00  0.00     0.062 H 
ATOM     21  H   LIG d   1       4.852  -3.304  -3.073  0.00  0.00     0.062 H 
ATOM     22  H   LIG d   1       4.252  -1.735  -1.318  0.00  0.00     0.062 H 
ATOM     23  H   LIG d   1       3.273   0.475  -1.832  0.00  0.00     0.064 H 
ATOM     24  H   LIG d   1       3.196  -1.735  -7.681  0.00  0.00     0.032 H 
ATOM     25  H   LIG d   1       4.574  -0.631  -7.932  0.00  0.00     0.032 H 
ENDROOT
BRANCH   1  26
ATOM     26  C   LIG d   1       3.015  -0.186 -10.015  0.00  0.00    -0.044 A 
ATOM     27  C   LIG d   1       4.238   0.186 -10.540  0.00  0.00    -0.058 A 
ATOM     28  C   LIG d   1       4.553  -0.128 -11.848  0.00  0.00    -0.061 A 
ATOM     29  H   LIG d   1       4.948   0.720  -9.926  0.00  0.00     0.062 H 
ATOM     30  C   LIG d   1       3.643  -0.813 -12.633  0.00  0.00    -0.062 A 
ATOM     31  H   LIG d   1       5.508   0.163 -12.259  0.00  0.00     0.062 H 
ATOM     32  C   LIG d   1       2.420  -1.185 -12.108  0.00  0.00    -0.061 A 
ATOM     33  H   LIG d   1       3.887  -1.054 -13.657  0.00  0.00     0.062 H 
ATOM     34  C   LIG d   1       2.105  -0.871 -10.799  0.00  0.00    -0.058 A 
ATOM     35  H   LIG d   1       1.710  -1.721 -12.720  0.00  0.00     0.062 H 
ATOM     36  H   LIG d   1       1.149  -1.162 -10.389  0.00  0.00     0.062 H 
ENDBRANCH   1  26
TORSDOF 1
ENDMDL
MODEL 8
REMARK VINA RESULT:      -6.6      2.191      6.737
REMARK  1 active torsions:
REMARK  status: ('A' for Active; 'I' for Inactive)
REMARK    1  A    between atoms: C_4  and  C_7 
ROOT
ATOM      1  C   LIG d   1       5.687  -1.718  -4.442  0.00  0.00    -0.011 C 
ATOM      2  H   LIG d   1       6.104  -1.317  -5.365  0.00  0.00     0.035 H 
ATOM      3  C   LIG d   1       4.738  -2.874  -4.771  0.00  0.00    -0.041 C 
ATOM      4  C   LIG d   1       5.439  -3.856  -5.716  0.00  0.00    -0.012 C 
ATOM      5  C   LIG d   1       6.791  -4.200  -5.137  0.00  0.00     0.020 A 
ATOM      6  C   LIG d   1       7.401  -3.476  -4.174  0.00  0.00    -0.019 A 
ATOM      7  C   LIG d   1       8.665  -4.123  -3.890  0.00  0.00     0.003 A 
ATOM      8  C   LIG d   1       9.702  -3.830  -3.000  0.00  0.00    -0.052 A 
ATOM      9  C   LIG d   1      10.778  -4.683  -2.998  0.00  0.00    -0.061 A 
ATOM     10  C   LIG d   1      10.845  -5.785  -3.834  0.00  0.00    -0.060 A 
ATOM     11  C   LIG d   1       9.834  -6.098  -4.726  0.00  0.00    -0.038 A 
ATOM     12  C   LIG d   1       8.729  -5.250  -4.750  0.00  0.00     0.047 A 
ATOM     13  N   LIG d   1       7.581  -5.263  -5.488  0.00  0.00    -0.358 N 
ATOM     14  H   LIG d   1       7.357  -5.926  -6.160  0.00  0.00     0.166 HD
ATOM     15  C   LIG d   1       6.822  -2.232  -3.548  0.00  0.00    -0.019 C 
ATOM     16  H   LIG d   1       4.461  -3.390  -3.851  0.00  0.00     0.028 H 
ATOM     17  H   LIG d   1       3.842  -2.483  -5.252  0.00  0.00     0.028 H 
ATOM     18  H   LIG d   1       4.841  -4.763  -5.812  0.00  0.00     0.033 H 
ATOM     19  H   LIG d   1       5.567  -3.394  -6.694  0.00  0.00     0.033 H 
ATOM     20  H   LIG d   1       9.659  -2.973  -2.344  0.00  0.00     0.062 H 
ATOM     21  H   LIG d   1      11.599  -4.488  -2.323  0.00  0.00     0.062 H 
ATOM     22  H   LIG d   1      11.716  -6.422  -3.789  0.00  0.00     0.062 H 
ATOM     23  H   LIG d   1       9.898  -6.961  -5.373  0.00  0.00     0.064 H 
ATOM     24  H   LIG d   1       7.597  -1.469  -3.466  0.00  0.00     0.032 H 
ATOM     25  H   LIG d   1       6.431  -2.468  -2.559  0.00  0.00     0.032 H 
ENDROOT
BRANCH   1  26
ATOM     26  C   LIG d   1       4.929  -0.634  -3.719  0.00  0.00    -0.044 A 
ATOM     27  C   LIG d   1       5.332  -0.231  -2.460  0.00  0.00    -0.058 A 
ATOM     28  C   LIG d   1       4.638   0.764  -1.798  0.00  0.00    -0.061 A 
ATOM     29  H   LIG d   1       6.189  -0.693  -1.994  0.00  0.00     0.062 H 
ATOM     30  C   LIG d   1       3.541   1.357  -2.396  0.00  0.00    -0.062 A 
ATOM     31  H   LIG d   1       4.952   1.079  -0.815  0.00  0.00     0.062 H 
ATOM     32  C   LIG d   1       3.139   0.954  -3.656  0.00  0.00    -0.061 A 
ATOM     33  H   LIG d   1       2.996   2.131  -1.877  0.00  0.00     0.062 H 
ATOM     34  C   LIG d   1       3.832  -0.042  -4.317  0.00  0.00    -0.058 A 
ATOM     35  H   LIG d   1       2.282   1.417  -4.123  0.00  0.00     0.062 H 
ATOM     36  H   LIG d   1       3.518  -0.357  -5.302  0.00  0.00     0.062 H 
ENDBRANCH   1  26
TORSDOF 1
ENDMDL
MODEL 9
REMARK VINA RESULT:      -6.3      2.977      6.820
REMARK  1 active torsions:
REMARK  status: ('A' for Active; 'I' for Inactive)
REMARK    1  A    between atoms: C_4  and  C_7 
ROOT
ATOM      1  C   LIG d   1       7.205  -1.441  -3.941  0.00  0.00    -0.011 C 
ATOM      2  H   LIG d   1       8.071  -0.788  -4.051  0.00  0.00     0.035 H 
ATOM      3  C   LIG d   1       6.729  -1.894  -5.324  0.00  0.00    -0.041 C 
ATOM      4  C   LIG d   1       7.923  -2.429  -6.124  0.00  0.00    -0.012 C 
ATOM      5  C   LIG d   1       8.662  -3.433  -5.272  0.00  0.00     0.020 A 
ATOM      6  C   LIG d   1       8.512  -3.536  -3.934  0.00  0.00    -0.019 A 
ATOM      7  C   LIG d   1       9.382  -4.605  -3.489  0.00  0.00     0.003 A 
ATOM      8  C   LIG d   1       9.642  -5.155  -2.229  0.00  0.00    -0.052 A 
ATOM      9  C   LIG d   1      10.547  -6.185  -2.177  0.00  0.00    -0.061 A 
ATOM     10  C   LIG d   1      11.180  -6.668  -3.311  0.00  0.00    -0.060 A 
ATOM     11  C   LIG d   1      10.943  -6.142  -4.569  0.00  0.00    -0.038 A 
ATOM     12  C   LIG d   1      10.028  -5.094  -4.653  0.00  0.00     0.047 A 
ATOM     13  N   LIG d   1       9.570  -4.361  -5.710  0.00  0.00    -0.358 N 
ATOM     14  H   LIG d   1       9.845  -4.481  -6.632  0.00  0.00     0.166 HD
ATOM     15  C   LIG d   1       7.593  -2.669  -3.110  0.00  0.00    -0.019 C 
ATOM     16  H   LIG d   1       5.985  -2.682  -5.212  0.00  0.00     0.028 H 
ATOM     17  H   LIG d   1       6.288  -1.049  -5.851  0.00  0.00     0.028 H 
ATOM     18  H   LIG d   1       7.566  -2.913  -7.033  0.00  0.00     0.033 H 
ATOM     19  H   LIG d   1       8.589  -1.606  -6.381  0.00  0.00     0.033 H 
ATOM     20  H   LIG d   1       9.153  -4.786  -1.340  0.00  0.00     0.062 H 
ATOM     21  H   LIG d   1      10.773  -6.635  -1.221  0.00  0.00     0.062 H 
ATOM     22  H   LIG d   1      11.884  -7.481  -3.210  0.00  0.00     0.062 H 
ATOM     23  H   LIG d   1      11.444  -6.526  -5.446  0.00  0.00     0.064 H 
ATOM     24  H   LIG d   1       8.107  -2.350  -2.202  0.00  0.00     0.032 H 
ATOM     25  H   LIG d   1       6.698  -3.232  -2.848  0.00  0.00     0.032 H 
ENDROOT
BRANCH   1  26
ATOM     26  C   LIG d   1       6.096  -0.693  -3.247  0.00  0.00    -0.044 A 
ATOM     27  C   LIG d   1       5.104  -1.389  -2.583  0.00  0.00    -0.058 A 
ATOM     28  C   LIG d   1       4.087  -0.704  -1.944  0.00  0.00    -0.061 A 
ATOM     29  H   LIG d   1       5.123  -2.469  -2.563  0.00  0.00     0.062 H 
ATOM     30  C   LIG d   1       4.064   0.679  -1.970  0.00  0.00    -0.062 A 
ATOM     31  H   LIG d   1       3.312  -1.247  -1.426  0.00  0.00     0.062 H 
ATOM     32  C   LIG d   1       5.057   1.375  -2.633  0.00  0.00    -0.061 A 
ATOM     33  H   LIG d   1       3.268   1.214  -1.475  0.00  0.00     0.062 H 
ATOM     34  C   LIG d   1       6.073   0.689  -3.273  0.00  0.00    -0.058 A 
ATOM     35  H   LIG d   1       5.039   2.455  -2.653  0.00  0.00     0.062 H 
ATOM     36  H   LIG d   1       6.849   1.233  -3.791  0.00  0.00     0.062 H 
ENDBRANCH   1  26
TORSDOF 1
ENDMDL
