MODEL 1
REMARK VINA RESULT:      -7.1      0.000      0.000
REMARK  4 active torsions:
REMARK  status: ('A' for Active; 'I' for Inactive)
REMARK    1  A    between atoms: C_6  and  N_7 
REMARK       I    between atoms: N_7  and  C_8 
REMARK    2  A    between atoms: C_8  and  C_10 
REMARK    3  A    between atoms: C_10  and  C_11 
REMARK    4  A    between atoms: C_10  and  C_15 
ROOT
ATOM      1  N   LIG d   1       3.327  -0.322  -5.638  0.00  0.00    -0.284 N 
ATOM      2  C   LIG d   1       4.384  -0.082  -4.837  0.00  0.00     0.252 C 
ATOM      3  O   LIG d   1       5.451   0.229  -5.320  0.00  0.00    -0.273 OA
ATOM      4  H   LIG d   1       2.456  -0.506  -5.250  0.00  0.00     0.155 HD
ENDROOT
BRANCH   1   5
ATOM      5  C   LIG d   1       3.484  -0.307  -7.029  0.00  0.00     0.034 A 
ATOM      6  C   LIG d   1       3.990  -1.423  -7.684  0.00  0.00    -0.040 A 
ATOM      7  C   LIG d   1       4.145  -1.405  -9.056  0.00  0.00    -0.047 A 
ATOM      8  H   LIG d   1       4.258  -2.305  -7.120  0.00  0.00     0.064 H 
ATOM      9  C   LIG d   1       3.796  -0.278  -9.778  0.00  0.00     0.013 A 
ATOM     10  H   LIG d   1       4.537  -2.272  -9.566  0.00  0.00     0.063 H 
ATOM     11  C   LIG d   1       3.292   0.834  -9.128  0.00  0.00    -0.047 A 
ATOM     12  I   LIG d   1       4.033  -0.255 -11.860  0.00  0.00    -0.044 I 
ATOM     13  C   LIG d   1       3.137   0.823  -7.756  0.00  0.00    -0.040 A 
ATOM     14  H   LIG d   1       3.021   1.714  -9.694  0.00  0.00     0.063 H 
ATOM     15  H   LIG d   1       2.744   1.693  -7.249  0.00  0.00     0.064 H 
ENDBRANCH   1   5
BRANCH   2  16
ATOM     16  C   LIG d   1       4.238  -0.198  -3.342  0.00  0.00     0.289 C 
ATOM     17 BR   LIG d   1       2.398  -0.732  -2.903  0.00  0.00    -0.056 Br
BRANCH  16  18
ATOM     18  C   LIG d   1       5.215  -1.252  -2.815  0.00  0.00     0.422 C 
ATOM     19  F   LIG d   1       4.774  -1.716  -1.572  0.00  0.00    -0.168 F 
ATOM     20  F   LIG d   1       5.279  -2.320  -3.716  0.00  0.00    -0.168 F 
ATOM     21  F   LIG d   1       6.485  -0.682  -2.677  0.00  0.00    -0.168 F 
ENDBRANCH  16  18
BRANCH  16  22
ATOM     22  C   LIG d   1       4.546   1.153  -2.692  0.00  0.00     0.422 C 
ATOM     23  F   LIG d   1       4.490   1.024  -1.301  0.00  0.00    -0.168 F 
ATOM     24  F   LIG d   1       5.825   1.573  -3.072  0.00  0.00    -0.168 F 
ATOM     25  F   LIG d   1       3.602   2.097  -3.111  0.00  0.00    -0.168 F 
ENDBRANCH  16  22
ENDBRANCH   2  16
TORSDOF 4
ENDMDL
MODEL 2
REMARK VINA RESULT:      -7.0      1.606      2.687
REMARK  4 active torsions:
REMARK  status: ('A' for Active; 'I' for Inactive)
REMARK    1  A    between atoms: C_6  and  N_7 
REMARK       I    between atoms: N_7  and  C_8 
REMARK    2  A    between atoms: C_8  and  C_10 
REMARK    3  A    between atoms: C_10  and  C_11 
REMARK    4  A    between atoms: C_10  and  C_15 
ROOT
ATOM      1  N   LIG d   1       4.644  -0.515  -5.708  0.00  0.00    -0.284 N 
ATOM      2  C   LIG d   1       3.955  -0.340  -4.563  0.00  0.00     0.252 C 
ATOM      3  O   LIG d   1       2.743  -0.381  -4.573  0.00  0.00    -0.273 OA
ATOM      4  H   LIG d   1       5.614  -0.548  -5.690  0.00  0.00     0.155 HD
ENDROOT
BRANCH   1   5
ATOM      5  C   LIG d   1       3.962  -0.647  -6.923  0.00  0.00     0.034 A 
ATOM      6  C   LIG d   1       3.980  -1.857  -7.603  0.00  0.00    -0.040 A 
ATOM      7  C   LIG d   1       3.306  -1.984  -8.802  0.00  0.00    -0.047 A 
ATOM      8  H   LIG d   1       4.518  -2.700  -7.193  0.00  0.00     0.064 H 
ATOM      9  C   LIG d   1       2.613  -0.907  -9.324  0.00  0.00     0.013 A 
ATOM     10  H   LIG d   1       3.320  -2.925  -9.332  0.00  0.00     0.063 H 
ATOM     11  C   LIG d   1       2.593   0.299  -8.648  0.00  0.00    -0.047 A 
ATOM     12  I   LIG d   1       1.592  -1.104 -11.144  0.00  0.00    -0.044 I 
ATOM     13  C   LIG d   1       3.266   0.433  -7.450  0.00  0.00    -0.040 A 
ATOM     14  H   LIG d   1       2.051   1.139  -9.059  0.00  0.00     0.063 H 
ATOM     15  H   LIG d   1       3.251   1.376  -6.923  0.00  0.00     0.064 H 
ENDBRANCH   1   5
BRANCH   2  16
ATOM     16  C   LIG d   1       4.691  -0.096  -3.271  0.00  0.00     0.289 C 
ATOM     17 BR   LIG d   1       6.477   0.625  -3.660  0.00  0.00    -0.056 Br
BRANCH  16  18
ATOM     18  C   LIG d   1       3.909   0.908  -2.421  0.00  0.00     0.422 C 
ATOM     19  F   LIG d   1       4.613   1.169  -1.242  0.00  0.00    -0.168 F 
ATOM     20  F   LIG d   1       3.743   2.097  -3.138  0.00  0.00    -0.168 F 
ATOM     21  F   LIG d   1       2.654   0.375  -2.106  0.00  0.00    -0.168 F 
ENDBRANCH  16  18
BRANCH  16  22
ATOM     22  C   LIG d   1       4.829  -1.414  -2.505  0.00  0.00     0.422 C 
ATOM     23  F   LIG d   1       3.910  -2.342  -3.005  0.00  0.00    -0.168 F 
ATOM     24  F   LIG d   1       6.127  -1.911  -2.661  0.00  0.00    -0.168 F 
ATOM     25  F   LIG d   1       4.575  -1.192  -1.146  0.00  0.00    -0.168 F 
ENDBRANCH  16  22
ENDBRANCH   2  16
TORSDOF 4
ENDMDL
MODEL 3
REMARK VINA RESULT:      -6.4      1.635      2.945
REMARK  4 active torsions:
REMARK  status: ('A' for Active; 'I' for Inactive)
REMARK    1  A    between atoms: C_6  and  N_7 
REMARK       I    between atoms: N_7  and  C_8 
REMARK    2  A    between atoms: C_8  and  C_10 
REMARK    3  A    between atoms: C_10  and  C_11 
REMARK    4  A    between atoms: C_10  and  C_15 
ROOT
ATOM      1  N   LIG d   1       3.835  -1.328  -5.646  0.00  0.00    -0.284 N 
ATOM      2  C   LIG d   1       4.676  -0.503  -4.991  0.00  0.00     0.252 C 
ATOM      3  O   LIG d   1       5.572   0.050  -5.592  0.00  0.00    -0.273 OA
ATOM      4  H   LIG d   1       3.078  -1.719  -5.180  0.00  0.00     0.155 HD
ENDROOT
BRANCH   1   5
ATOM      5  C   LIG d   1       4.053  -1.622  -6.997  0.00  0.00     0.034 A 
ATOM      6  C   LIG d   1       3.402  -0.890  -7.982  0.00  0.00    -0.040 A 
ATOM      7  C   LIG d   1       3.619  -1.183  -9.314  0.00  0.00    -0.047 A 
ATOM      8  H   LIG d   1       2.730  -0.090  -7.706  0.00  0.00     0.064 H 
ATOM      9  C   LIG d   1       4.484  -2.203  -9.667  0.00  0.00     0.013 A 
ATOM     10  H   LIG d   1       3.114  -0.615 -10.081  0.00  0.00     0.063 H 
ATOM     11  C   LIG d   1       5.133  -2.933  -8.688  0.00  0.00    -0.047 A 
ATOM     12  I   LIG d   1       4.810  -2.644 -11.689  0.00  0.00    -0.044 I 
ATOM     13  C   LIG d   1       4.920  -2.646  -7.355  0.00  0.00    -0.040 A 
ATOM     14  H   LIG d   1       5.808  -3.729  -8.966  0.00  0.00     0.063 H 
ATOM     15  H   LIG d   1       5.427  -3.217  -6.590  0.00  0.00     0.064 H 
ENDBRANCH   1   5
BRANCH   2  16
ATOM     16  C   LIG d   1       4.501  -0.267  -3.513  0.00  0.00     0.289 C 
ATOM     17 BR   LIG d   1       5.795   1.083  -2.907  0.00  0.00    -0.056 Br
BRANCH  16  18
ATOM     18  C   LIG d   1       3.079   0.230  -3.241  0.00  0.00     0.422 C 
ATOM     19  F   LIG d   1       2.603   0.915  -4.362  0.00  0.00    -0.168 F 
ATOM     20  F   LIG d   1       2.246  -0.862  -2.973  0.00  0.00    -0.168 F 
ATOM     21  F   LIG d   1       3.089   1.090  -2.138  0.00  0.00    -0.168 F 
ENDBRANCH  16  18
BRANCH  16  22
ATOM     22  C   LIG d   1       4.737  -1.576  -2.755  0.00  0.00     0.422 C 
ATOM     23  F   LIG d   1       6.071  -1.967  -2.906  0.00  0.00    -0.168 F 
ATOM     24  F   LIG d   1       4.456  -1.387  -1.398  0.00  0.00    -0.168 F 
ATOM     25  F   LIG d   1       3.899  -2.571  -3.271  0.00  0.00    -0.168 F 
ENDBRANCH  16  22
ENDBRANCH   2  16
TORSDOF 4
ENDMDL
MODEL 4
REMARK VINA RESULT:      -6.3      4.122      5.056
REMARK  4 active torsions:
REMARK  status: ('A' for Active; 'I' for Inactive)
REMARK    1  A    between atoms: C_6  and  N_7 
REMARK       I    between atoms: N_7  and  C_8 
REMARK    2  A    between atoms: C_8  and  C_10 
REMARK    3  A    between atoms: C_10  and  C_11 
REMARK    4  A    between atoms: C_10  and  C_15 
ROOT
ATOM      1  N   LIG d   1       6.530   1.030  -4.198  0.00  0.00    -0.284 N 
ATOM      2  C   LIG d   1       6.042   0.021  -3.450  0.00  0.00     0.252 C 
ATOM      3  O   LIG d   1       6.802  -0.740  -2.889  0.00  0.00    -0.273 OA
ATOM      4  H   LIG d   1       5.924   1.677  -4.593  0.00  0.00     0.155 HD
ENDROOT
BRANCH   1   5
ATOM      5  C   LIG d   1       7.909   1.143  -4.407  0.00  0.00     0.034 A 
ATOM      6  C   LIG d   1       8.651   2.059  -3.672  0.00  0.00    -0.040 A 
ATOM      7  C   LIG d   1      10.012   2.169  -3.881  0.00  0.00    -0.047 A 
ATOM      8  H   LIG d   1       8.165   2.681  -2.935  0.00  0.00     0.064 H 
ATOM      9  C   LIG d   1      10.635   1.368  -4.821  0.00  0.00     0.013 A 
ATOM     10  H   LIG d   1      10.590   2.881  -3.310  0.00  0.00     0.063 H 
ATOM     11  C   LIG d   1       9.899   0.456  -5.554  0.00  0.00    -0.047 A 
ATOM     12  I   LIG d   1      12.700   1.539  -5.135  0.00  0.00    -0.044 I 
ATOM     13  C   LIG d   1       8.538   0.342  -5.351  0.00  0.00    -0.040 A 
ATOM     14  H   LIG d   1      10.388  -0.168  -6.288  0.00  0.00     0.063 H 
ATOM     15  H   LIG d   1       7.963  -0.371  -5.924  0.00  0.00     0.064 H 
ENDBRANCH   1   5
BRANCH   2  16
ATOM     16  C   LIG d   1       4.553  -0.162  -3.309  0.00  0.00     0.289 C 
ATOM     17 BR   LIG d   1       3.714  -0.097  -5.085  0.00  0.00    -0.056 Br
BRANCH  16  18
ATOM     18  C   LIG d   1       4.265  -1.516  -2.657  0.00  0.00     0.422 C 
ATOM     19  F   LIG d   1       5.031  -2.506  -3.280  0.00  0.00    -0.168 F 
ATOM     20  F   LIG d   1       4.593  -1.459  -1.298  0.00  0.00    -0.168 F 
ATOM     21  F   LIG d   1       2.907  -1.820  -2.796  0.00  0.00    -0.168 F 
ENDBRANCH  16  18
BRANCH  16  22
ATOM     22  C   LIG d   1       3.982   0.957  -2.435  0.00  0.00     0.422 C 
ATOM     23  F   LIG d   1       2.674   0.634  -2.061  0.00  0.00    -0.168 F 
ATOM     24  F   LIG d   1       4.773   1.105  -1.290  0.00  0.00    -0.168 F 
ATOM     25  F   LIG d   1       3.979   2.157  -3.156  0.00  0.00    -0.168 F 
ENDBRANCH  16  22
ENDBRANCH   2  16
TORSDOF 4
ENDMDL
MODEL 5
REMARK VINA RESULT:      -6.2      3.247      3.933
REMARK  4 active torsions:
REMARK  status: ('A' for Active; 'I' for Inactive)
REMARK    1  A    between atoms: C_6  and  N_7 
REMARK       I    between atoms: N_7  and  C_8 
REMARK    2  A    between atoms: C_8  and  C_10 
REMARK    3  A    between atoms: C_10  and  C_11 
REMARK    4  A    between atoms: C_10  and  C_15 
ROOT
ATOM      1  N   LIG d   1       5.719   0.000  -5.267  0.00  0.00    -0.284 N 
ATOM      2  C   LIG d   1       5.530  -0.289  -3.965  0.00  0.00     0.252 C 
ATOM      3  O   LIG d   1       6.450  -0.711  -3.298  0.00  0.00    -0.273 OA
ATOM      4  H   LIG d   1       5.002   0.400  -5.785  0.00  0.00     0.155 HD
ENDROOT
BRANCH   1   5
ATOM      5  C   LIG d   1       6.950  -0.277  -5.874  0.00  0.00     0.034 A 
ATOM      6  C   LIG d   1       7.921   0.711  -5.962  0.00  0.00    -0.040 A 
ATOM      7  C   LIG d   1       9.134   0.435  -6.562  0.00  0.00    -0.047 A 
ATOM      8  H   LIG d   1       7.729   1.695  -5.558  0.00  0.00     0.064 H 
ATOM      9  C   LIG d   1       9.381  -0.826  -7.074  0.00  0.00     0.013 A 
ATOM     10  H   LIG d   1       9.890   1.203  -6.631  0.00  0.00     0.063 H 
ATOM     11  C   LIG d   1       8.416  -1.812  -6.988  0.00  0.00    -0.047 A 
ATOM     12  I   LIG d   1      11.223  -1.242  -7.984  0.00  0.00    -0.044 I 
ATOM     13  C   LIG d   1       7.201  -1.541  -6.390  0.00  0.00    -0.040 A 
ATOM     14  H   LIG d   1       8.612  -2.796  -7.389  0.00  0.00     0.063 H 
ATOM     15  H   LIG d   1       6.447  -2.312  -6.324  0.00  0.00     0.064 H 
ENDBRANCH   1   5
BRANCH   2  16
ATOM     16  C   LIG d   1       4.175  -0.085  -3.337  0.00  0.00     0.289 C 
ATOM     17 BR   LIG d   1       2.873   0.391  -4.730  0.00  0.00    -0.056 Br
BRANCH  16  18
ATOM     18  C   LIG d   1       3.734  -1.377  -2.646  0.00  0.00     0.422 C 
ATOM     19  F   LIG d   1       4.000  -2.466  -3.481  0.00  0.00    -0.168 F 
ATOM     20  F   LIG d   1       4.437  -1.528  -1.446  0.00  0.00    -0.168 F 
ATOM     21  F   LIG d   1       2.362  -1.318  -2.378  0.00  0.00    -0.168 F 
ENDBRANCH  16  18
BRANCH  16  22
ATOM     22  C   LIG d   1       4.254   1.043  -2.306  0.00  0.00     0.422 C 
ATOM     23  F   LIG d   1       5.168   2.009  -2.741  0.00  0.00    -0.168 F 
ATOM     24  F   LIG d   1       2.992   1.628  -2.157  0.00  0.00    -0.168 F 
ATOM     25  F   LIG d   1       4.675   0.523  -1.077  0.00  0.00    -0.168 F 
ENDBRANCH  16  22
ENDBRANCH   2  16
TORSDOF 4
ENDMDL
MODEL 6
REMARK VINA RESULT:      -6.2      1.372      2.035
REMARK  4 active torsions:
REMARK  status: ('A' for Active; 'I' for Inactive)
REMARK    1  A    between atoms: C_6  and  N_7 
REMARK       I    between atoms: N_7  and  C_8 
REMARK    2  A    between atoms: C_8  and  C_10 
REMARK    3  A    between atoms: C_10  and  C_11 
REMARK    4  A    between atoms: C_10  and  C_15 
ROOT
ATOM      1  N   LIG d   1       3.999   0.279  -5.990  0.00  0.00    -0.284 N 
ATOM      2  C   LIG d   1       4.372  -0.689  -5.130  0.00  0.00     0.252 C 
ATOM      3  O   LIG d   1       4.719  -1.772  -5.550  0.00  0.00    -0.273 OA
ATOM      4  H   LIG d   1       3.785   1.166  -5.659  0.00  0.00     0.155 HD
ENDROOT
BRANCH   1   5
ATOM      5  C   LIG d   1       3.918   0.005  -7.361  0.00  0.00     0.034 A 
ATOM      6  C   LIG d   1       5.052   0.100  -8.157  0.00  0.00    -0.040 A 
ATOM      7  C   LIG d   1       4.970  -0.170  -9.508  0.00  0.00    -0.047 A 
ATOM      8  H   LIG d   1       5.999   0.381  -7.718  0.00  0.00     0.064 H 
ATOM      9  C   LIG d   1       3.759  -0.536 -10.069  0.00  0.00     0.013 A 
ATOM     10  H   LIG d   1       5.851  -0.097 -10.129  0.00  0.00     0.063 H 
ATOM     11  C   LIG d   1       2.629  -0.632  -9.278  0.00  0.00    -0.047 A 
ATOM     12  I   LIG d   1       3.638  -0.945 -12.120  0.00  0.00    -0.044 I 
ATOM     13  C   LIG d   1       2.705  -0.361  -7.926  0.00  0.00    -0.040 A 
ATOM     14  H   LIG d   1       1.684  -0.917  -9.718  0.00  0.00     0.063 H 
ATOM     15  H   LIG d   1       1.821  -0.435  -7.309  0.00  0.00     0.064 H 
ENDBRANCH   1   5
BRANCH   2  16
ATOM     16  C   LIG d   1       4.360  -0.424  -3.647  0.00  0.00     0.289 C 
ATOM     17 BR   LIG d   1       3.972  -2.094  -2.686  0.00  0.00    -0.056 Br
BRANCH  16  18
ATOM     18  C   LIG d   1       5.728   0.109  -3.213  0.00  0.00     0.422 C 
ATOM     19  F   LIG d   1       6.292   0.849  -4.257  0.00  0.00    -0.168 F 
ATOM     20  F   LIG d   1       5.575   0.928  -2.089  0.00  0.00    -0.168 F 
ATOM     21  F   LIG d   1       6.567  -0.965  -2.897  0.00  0.00    -0.168 F 
ENDBRANCH  16  18
BRANCH  16  22
ATOM     22  C   LIG d   1       3.283   0.613  -3.321  0.00  0.00     0.422 C 
ATOM     23  F   LIG d   1       3.777   1.896  -3.581  0.00  0.00    -0.168 F 
ATOM     24  F   LIG d   1       2.154   0.378  -4.113  0.00  0.00    -0.168 F 
ATOM     25  F   LIG d   1       2.933   0.514  -1.970  0.00  0.00    -0.168 F 
ENDBRANCH  16  22
ENDBRANCH   2  16
TORSDOF 4
ENDMDL
MODEL 7
REMARK VINA RESULT:      -6.2      3.553      4.455
REMARK  4 active torsions:
REMARK  status: ('A' for Active; 'I' for Inactive)
REMARK    1  A    between atoms: C_6  and  N_7 
REMARK       I    between atoms: N_7  and  C_8 
REMARK    2  A    between atoms: C_8  and  C_10 
REMARK    3  A    between atoms: C_10  and  C_11 
REMARK    4  A    between atoms: C_10  and  C_15 
ROOT
ATOM      1  N   LIG d   1       6.501  -0.711  -3.627  0.00  0.00    -0.284 N 
ATOM      2  C   LIG d   1       5.379  -0.291  -4.244  0.00  0.00     0.252 C 
ATOM      3  O   LIG d   1       5.387  -0.085  -5.439  0.00  0.00    -0.273 OA
ATOM      4  H   LIG d   1       6.479  -0.939  -2.684  0.00  0.00     0.155 HD
ENDROOT
BRANCH   1   5
ATOM      5  C   LIG d   1       7.698  -0.816  -4.345  0.00  0.00     0.034 A 
ATOM      6  C   LIG d   1       8.454   0.320  -4.608  0.00  0.00    -0.040 A 
ATOM      7  C   LIG d   1       9.634   0.213  -5.316  0.00  0.00    -0.047 A 
ATOM      8  H   LIG d   1       8.120   1.285  -4.254  0.00  0.00     0.064 H 
ATOM      9  C   LIG d   1      10.064  -1.024  -5.764  0.00  0.00     0.013 A 
ATOM     10  H   LIG d   1      10.223   1.095  -5.521  0.00  0.00     0.063 H 
ATOM     11  C   LIG d   1       9.314  -2.155  -5.503  0.00  0.00    -0.047 A 
ATOM     12  I   LIG d   1      11.856  -1.181  -6.839  0.00  0.00    -0.044 I 
ATOM     13  C   LIG d   1       8.132  -2.055  -4.796  0.00  0.00    -0.040 A 
ATOM     14  H   LIG d   1       9.652  -3.119  -5.854  0.00  0.00     0.063 H 
ATOM     15  H   LIG d   1       7.546  -2.940  -4.593  0.00  0.00     0.064 H 
ENDBRANCH   1   5
BRANCH   2  16
ATOM     16  C   LIG d   1       4.116  -0.081  -3.450  0.00  0.00     0.289 C 
ATOM     17 BR   LIG d   1       2.657   0.430  -4.664  0.00  0.00    -0.056 Br
BRANCH  16  18
ATOM     18  C   LIG d   1       3.747  -1.377  -2.725  0.00  0.00     0.422 C 
ATOM     19  F   LIG d   1       2.413  -1.316  -2.312  0.00  0.00    -0.168 F 
ATOM     20  F   LIG d   1       3.918  -2.461  -3.593  0.00  0.00    -0.168 F 
ATOM     21  F   LIG d   1       4.575  -1.539  -1.609  0.00  0.00    -0.168 F 
ENDBRANCH  16  18
BRANCH  16  22
ATOM     22  C   LIG d   1       4.338   1.032  -2.424  0.00  0.00     0.422 C 
ATOM     23  F   LIG d   1       3.168   1.787  -2.295  0.00  0.00    -0.168 F 
ATOM     24  F   LIG d   1       4.668   0.467  -1.187  0.00  0.00    -0.168 F 
ATOM     25  F   LIG d   1       5.383   1.860  -2.851  0.00  0.00    -0.168 F 
ENDBRANCH  16  22
ENDBRANCH   2  16
TORSDOF 4
ENDMDL
MODEL 8
REMARK VINA RESULT:      -6.0      3.778      4.907
REMARK  4 active torsions:
REMARK  status: ('A' for Active; 'I' for Inactive)
REMARK    1  A    between atoms: C_6  and  N_7 
REMARK       I    between atoms: N_7  and  C_8 
REMARK    2  A    between atoms: C_8  and  C_10 
REMARK    3  A    between atoms: C_10  and  C_11 
REMARK    4  A    between atoms: C_10  and  C_15 
ROOT
ATOM      1  N   LIG d   1       6.750   0.004  -3.459  0.00  0.00    -0.284 N 
ATOM      2  C   LIG d   1       5.549   0.124  -4.059  0.00  0.00     0.252 C 
ATOM      3  O   LIG d   1       5.486   0.377  -5.243  0.00  0.00    -0.273 OA
ATOM      4  H   LIG d   1       6.802  -0.263  -2.528  0.00  0.00     0.155 HD
ENDROOT
BRANCH   1   5
ATOM      5  C   LIG d   1       7.921   0.266  -4.179  0.00  0.00     0.034 A 
ATOM      6  C   LIG d   1       8.481  -0.720  -4.980  0.00  0.00    -0.040 A 
ATOM      7  C   LIG d   1       9.637  -0.459  -5.689  0.00  0.00    -0.047 A 
ATOM      8  H   LIG d   1       8.010  -1.690  -5.052  0.00  0.00     0.064 H 
ATOM      9  C   LIG d   1      10.237   0.785  -5.601  0.00  0.00     0.013 A 
ATOM     10  H   LIG d   1      10.073  -1.225  -6.312  0.00  0.00     0.063 H 
ATOM     11  C   LIG d   1       9.681   1.769  -4.804  0.00  0.00    -0.047 A 
ATOM     12  I   LIG d   1      11.991   1.178  -6.677  0.00  0.00    -0.044 I 
ATOM     13  C   LIG d   1       8.526   1.513  -4.092  0.00  0.00    -0.040 A 
ATOM     14  H   LIG d   1      10.152   2.739  -4.737  0.00  0.00     0.063 H 
ATOM     15  H   LIG d   1       8.093   2.282  -3.469  0.00  0.00     0.064 H 
ENDBRANCH   1   5
BRANCH   2  16
ATOM     16  C   LIG d   1       4.285  -0.059  -3.259  0.00  0.00     0.289 C 
ATOM     17 BR   LIG d   1       4.415  -1.707  -2.196  0.00  0.00    -0.056 Br
BRANCH  16  18
ATOM     18  C   LIG d   1       4.097   1.138  -2.324  0.00  0.00     0.422 C 
ATOM     19  F   LIG d   1       4.779   0.905  -1.126  0.00  0.00    -0.168 F 
ATOM     20  F   LIG d   1       4.604   2.291  -2.933  0.00  0.00    -0.168 F 
ATOM     21  F   LIG d   1       2.735   1.312  -2.058  0.00  0.00    -0.168 F 
ENDBRANCH  16  18
BRANCH  16  22
ATOM     22  C   LIG d   1       3.089  -0.157  -4.208  0.00  0.00     0.422 C 
ATOM     23  F   LIG d   1       2.739   1.122  -4.651  0.00  0.00    -0.168 F 
ATOM     24  F   LIG d   1       3.429  -0.954  -5.306  0.00  0.00    -0.168 F 
ATOM     25  F   LIG d   1       2.005  -0.730  -3.534  0.00  0.00    -0.168 F 
ENDBRANCH  16  22
ENDBRANCH   2  16
TORSDOF 4
ENDMDL
MODEL 9
REMARK VINA RESULT:      -6.0      3.813      4.959
REMARK  4 active torsions:
REMARK  status: ('A' for Active; 'I' for Inactive)
REMARK    1  A    between atoms: C_6  and  N_7 
REMARK       I    between atoms: N_7  and  C_8 
REMARK    2  A    between atoms: C_8  and  C_10 
REMARK    3  A    between atoms: C_10  and  C_11 
REMARK    4  A    between atoms: C_10  and  C_15 
ROOT
ATOM      1  N   LIG d   1       6.779   0.492  -3.612  0.00  0.00    -0.284 N 
ATOM      2  C   LIG d   1       5.650   0.081  -4.222  0.00  0.00     0.252 C 
ATOM      3  O   LIG d   1       5.589   0.059  -5.433  0.00  0.00    -0.273 OA
ATOM      4  H   LIG d   1       6.852   0.447  -2.645  0.00  0.00     0.155 HD
ENDROOT
BRANCH   1   5
ATOM      5  C   LIG d   1       7.847   0.983  -4.372  0.00  0.00     0.034 A 
ATOM      6  C   LIG d   1       8.734   0.102  -4.978  0.00  0.00    -0.040 A 
ATOM      7  C   LIG d   1       9.786   0.589  -5.727  0.00  0.00    -0.047 A 
ATOM      8  H   LIG d   1       8.597  -0.964  -4.866  0.00  0.00     0.064 H 
ATOM      9  C   LIG d   1       9.957   1.954  -5.874  0.00  0.00     0.013 A 
ATOM     10  H   LIG d   1      10.476  -0.095  -6.198  0.00  0.00     0.063 H 
ATOM     11  C   LIG d   1       9.076   2.833  -5.272  0.00  0.00    -0.047 A 
ATOM     12  I   LIG d   1      11.557   2.690  -7.011  0.00  0.00    -0.044 I 
ATOM     13  C   LIG d   1       8.023   2.352  -4.521  0.00  0.00    -0.040 A 
ATOM     14  H   LIG d   1       9.213   3.899  -5.389  0.00  0.00     0.063 H 
ATOM     15  H   LIG d   1       7.335   3.040  -4.050  0.00  0.00     0.064 H 
ENDBRANCH   1   5
BRANCH   2  16
ATOM     16  C   LIG d   1       4.464  -0.351  -3.400  0.00  0.00     0.289 C 
ATOM     17 BR   LIG d   1       4.487   0.587  -1.673  0.00  0.00    -0.056 Br
BRANCH  16  18
ATOM     18  C   LIG d   1       3.173  -0.011  -4.148  0.00  0.00     0.422 C 
ATOM     19  F   LIG d   1       2.973   1.373  -4.126  0.00  0.00    -0.168 F 
ATOM     20  F   LIG d   1       3.274  -0.446  -5.474  0.00  0.00    -0.168 F 
ATOM     21  F   LIG d   1       2.093  -0.648  -3.529  0.00  0.00    -0.168 F 
ENDBRANCH  16  18
BRANCH  16  22
ATOM     22  C   LIG d   1       4.531  -1.861  -3.160  0.00  0.00     0.422 C 
ATOM     23  F   LIG d   1       4.054  -2.534  -4.290  0.00  0.00    -0.168 F 
ATOM     24  F   LIG d   1       5.857  -2.237  -2.919  0.00  0.00    -0.168 F 
ATOM     25  F   LIG d   1       3.744  -2.193  -2.052  0.00  0.00    -0.168 F 
ENDBRANCH  16  22
ENDBRANCH   2  16
TORSDOF 4
ENDMDL
