MODEL 1
REMARK VINA RESULT:      -5.9      0.000      0.000
REMARK  12 active torsions:
REMARK  status: ('A' for Active; 'I' for Inactive)
REMARK    1  A    between atoms: C_1  and  C_2 
REMARK    2  A    between atoms: C_2  and  C_3 
REMARK    3  A    between atoms: C_2  and  C_4 
REMARK    4  A    between atoms: C_2  and  C_5 
REMARK    5  A    between atoms: C_5  and  N_6 
REMARK    6  A    between atoms: C_10  and  C_12 
REMARK    7  A    between atoms: C_14  and  C_17 
REMARK    8  A    between atoms: C_20  and  N_23 
REMARK    9  A    between atoms: N_23  and  C_24 
REMARK   10  A    between atoms: C_24  and  C_25 
REMARK   11  A    between atoms: C_25  and  O_26 
REMARK   12  A    between atoms: O_26  and  C_27 
ROOT
ATOM      1  N   LIG d   1       5.542  -1.742  -4.155  0.00  0.00     0.244 N 
ATOM      2  C   LIG d   1       4.673  -2.488  -5.090  0.00  0.00    -0.031 C 
ATOM      3  C   LIG d   1       5.641  -3.387  -5.899  0.00  0.00    -0.007 C 
ATOM      4  C   LIG d   1       6.872  -2.456  -6.058  0.00  0.00     0.004 C 
ATOM      5  C   LIG d   1       6.902  -1.687  -4.721  0.00  0.00     0.059 C 
ATOM      6  H   LIG d   1       7.608  -2.159  -4.037  0.00  0.00     0.095 H 
ATOM      7  H   LIG d   1       3.958  -3.099  -4.540  0.00  0.00     0.082 H 
ATOM      8  H   LIG d   1       4.151  -1.798  -5.754  0.00  0.00     0.082 H 
ATOM      9  H   LIG d   1       5.900  -4.285  -5.339  0.00  0.00     0.032 H 
ATOM     10  H   LIG d   1       5.217  -3.642  -6.870  0.00  0.00     0.032 H 
ATOM     11  H   LIG d   1       7.783  -3.042  -6.187  0.00  0.00     0.033 H 
ATOM     12  H   LIG d   1       6.732  -1.771  -6.894  0.00  0.00     0.033 H 
ATOM     13  H   LIG d   1       5.563  -2.217  -3.265  0.00  0.00     0.204 HD
ENDROOT
BRANCH   5  14
ATOM     14  C   LIG d   1       7.298  -0.254  -4.963  0.00  0.00     0.276 A 
ATOM     15  O   LIG d   1       6.905   0.503  -5.996  0.00  0.00    -0.332 OA
ATOM     16  N   LIG d   1       7.514   1.773  -5.816  0.00  0.00    -0.056 NA
ATOM     17  C   LIG d   1       8.223   1.694  -4.717  0.00  0.00     0.204 A 
ATOM     18  N   LIG d   1       8.085   0.457  -4.206  0.00  0.00    -0.186 NA
BRANCH  17  19
ATOM     19  C   LIG d   1       9.041   2.785  -4.133  0.00  0.00     0.041 A 
ATOM     20  C   LIG d   1       9.935   2.522  -3.100  0.00  0.00     0.041 A 
ATOM     21  N   LIG d   1      10.668   3.486  -2.581  0.00  0.00    -0.240 NA
ATOM     22  H   LIG d   1      10.032   1.514  -2.721  0.00  0.00     0.084 H 
ATOM     23  C   LIG d   1      10.578   4.737  -3.010  0.00  0.00     0.119 A 
ATOM     24  C   LIG d   1       9.701   5.078  -4.038  0.00  0.00    -0.021 A 
ATOM     25  C   LIG d   1       8.920   4.095  -4.611  0.00  0.00    -0.046 A 
ATOM     26  H   LIG d   1       9.634   6.100  -4.381  0.00  0.00     0.065 H 
ATOM     27  H   LIG d   1       8.232   4.332  -5.409  0.00  0.00     0.063 H 
BRANCH  23  28
ATOM     28  N   LIG d   1      11.367   5.718  -2.428  0.00  0.00    -0.327 N 
ATOM     29  H   LIG d   1      12.269   5.508  -2.139  0.00  0.00     0.147 HD
BRANCH  28  30
ATOM     30  C   LIG d   1      10.839   7.074  -2.252  0.00  0.00     0.034 C 
ATOM     31  H   LIG d   1      11.647   7.796  -2.365  0.00  0.00     0.048 H 
ATOM     32  H   LIG d   1      10.073   7.265  -3.003  0.00  0.00     0.048 H 
BRANCH  30  33
ATOM     33  C   LIG d   1      10.229   7.205  -0.855  0.00  0.00     0.063 C 
ATOM     34  H   LIG d   1      10.225   6.230  -0.368  0.00  0.00     0.058 H 
ATOM     35  H   LIG d   1      10.822   7.904  -0.264  0.00  0.00     0.058 H 
BRANCH  33  36
ATOM     36  O   LIG d   1       8.889   7.689  -0.963  0.00  0.00    -0.381 OA
BRANCH  36  37
ATOM     37  C   LIG d   1       8.766   9.103  -0.793  0.00  0.00     0.036 C 
ATOM     38  H   LIG d   1       9.104   9.378   0.207  0.00  0.00     0.052 H 
ATOM     39  H   LIG d   1       9.379   9.612  -1.537  0.00  0.00     0.052 H 
ATOM     40  H   LIG d   1       7.724   9.394  -0.917  0.00  0.00     0.052 H 
ENDBRANCH  36  37
ENDBRANCH  33  36
ENDBRANCH  30  33
ENDBRANCH  28  30
ENDBRANCH  23  28
ENDBRANCH  17  19
ENDBRANCH   5  14
BRANCH   1  41
ATOM     41  C   LIG d   1       5.024  -0.380  -3.979  0.00  0.00    -0.026 C 
ATOM     42  H   LIG d   1       4.406  -0.111  -4.835  0.00  0.00     0.082 H 
ATOM     43  H   LIG d   1       5.857   0.319  -3.898  0.00  0.00     0.082 H 
BRANCH  41  44
ATOM     44  C   LIG d   1       4.182  -0.315  -2.702  0.00  0.00     0.002 C 
BRANCH  44  45
ATOM     45  C   LIG d   1       4.509  -1.517  -1.814  0.00  0.00    -0.055 C 
ATOM     46  H   LIG d   1       4.543  -1.200  -0.772  0.00  0.00     0.024 H 
ATOM     47  H   LIG d   1       3.740  -2.279  -1.937  0.00  0.00     0.024 H 
ATOM     48  H   LIG d   1       5.477  -1.927  -2.102  0.00  0.00     0.024 H 
ENDBRANCH  44  45
BRANCH  44  49
ATOM     49  C   LIG d   1       2.697  -0.341  -3.070  0.00  0.00    -0.055 C 
ATOM     50  H   LIG d   1       2.590  -0.310  -4.154  0.00  0.00     0.024 H 
ATOM     51  H   LIG d   1       2.243  -1.256  -2.687  0.00  0.00     0.024 H 
ATOM     52  H   LIG d   1       2.198   0.522  -2.630  0.00  0.00     0.024 H 
ENDBRANCH  44  49
BRANCH  44  53
ATOM     53  C   LIG d   1       4.498   0.978  -1.948  0.00  0.00    -0.055 C 
ATOM     54  H   LIG d   1       3.583   1.555  -1.816  0.00  0.00     0.024 H 
ATOM     55  H   LIG d   1       4.918   0.736  -0.972  0.00  0.00     0.024 H 
ATOM     56  H   LIG d   1       5.219   1.564  -2.518  0.00  0.00     0.024 H 
ENDBRANCH  44  53
ENDBRANCH  41  44
ENDBRANCH   1  41
TORSDOF 12
ENDMDL
MODEL 2
REMARK VINA RESULT:      -5.8      1.737      2.242
REMARK  12 active torsions:
REMARK  status: ('A' for Active; 'I' for Inactive)
REMARK    1  A    between atoms: C_1  and  C_2 
REMARK    2  A    between atoms: C_2  and  C_3 
REMARK    3  A    between atoms: C_2  and  C_4 
REMARK    4  A    between atoms: C_2  and  C_5 
REMARK    5  A    between atoms: C_5  and  N_6 
REMARK    6  A    between atoms: C_10  and  C_12 
REMARK    7  A    between atoms: C_14  and  C_17 
REMARK    8  A    between atoms: C_20  and  N_23 
REMARK    9  A    between atoms: N_23  and  C_24 
REMARK   10  A    between atoms: C_24  and  C_25 
REMARK   11  A    between atoms: C_25  and  O_26 
REMARK   12  A    between atoms: O_26  and  C_27 
ROOT
ATOM      1  N   LIG d   1       3.788  -0.720  -5.511  0.00  0.00     0.244 N 
ATOM      2  C   LIG d   1       2.832   0.229  -6.119  0.00  0.00    -0.031 C 
ATOM      3  C   LIG d   1       3.013   0.050  -7.648  0.00  0.00    -0.007 C 
ATOM      4  C   LIG d   1       4.543  -0.179  -7.756  0.00  0.00     0.004 C 
ATOM      5  C   LIG d   1       4.866  -0.987  -6.481  0.00  0.00     0.059 C 
ATOM      6  H   LIG d   1       4.900  -2.051  -6.715  0.00  0.00     0.095 H 
ATOM      7  H   LIG d   1       1.812  -0.019  -5.826  0.00  0.00     0.082 H 
ATOM      8  H   LIG d   1       3.074   1.251  -5.826  0.00  0.00     0.082 H 
ATOM      9  H   LIG d   1       2.462  -0.819  -8.006  0.00  0.00     0.032 H 
ATOM     10  H   LIG d   1       2.714   0.949  -8.185  0.00  0.00     0.032 H 
ATOM     11  H   LIG d   1       4.784  -0.757  -8.650  0.00  0.00     0.033 H 
ATOM     12  H   LIG d   1       5.076   0.771  -7.756  0.00  0.00     0.033 H 
ATOM     13  H   LIG d   1       3.312  -1.581  -5.288  0.00  0.00     0.204 HD
ENDROOT
BRANCH   5  14
ATOM     14  C   LIG d   1       6.188  -0.541  -5.914  0.00  0.00     0.276 A 
ATOM     15  O   LIG d   1       7.190  -1.346  -5.538  0.00  0.00    -0.332 OA
ATOM     16  N   LIG d   1       8.231  -0.499  -5.072  0.00  0.00    -0.056 NA
ATOM     17  C   LIG d   1       7.791   0.729  -5.188  0.00  0.00     0.204 A 
ATOM     18  N   LIG d   1       6.548   0.693  -5.701  0.00  0.00    -0.186 NA
BRANCH  17  19
ATOM     19  C   LIG d   1       8.539   1.956  -4.817  0.00  0.00     0.041 A 
ATOM     20  C   LIG d   1       8.887   2.196  -3.491  0.00  0.00     0.041 A 
ATOM     21  N   LIG d   1       9.556   3.281  -3.157  0.00  0.00    -0.240 NA
ATOM     22  H   LIG d   1       8.610   1.483  -2.728  0.00  0.00     0.084 H 
ATOM     23  C   LIG d   1       9.912   4.185  -4.058  0.00  0.00     0.119 A 
ATOM     24  C   LIG d   1       9.594   4.016  -5.403  0.00  0.00    -0.021 A 
ATOM     25  C   LIG d   1       8.899   2.890  -5.795  0.00  0.00    -0.046 A 
ATOM     26  H   LIG d   1       9.888   4.758  -6.131  0.00  0.00     0.065 H 
ATOM     27  H   LIG d   1       8.640   2.733  -6.831  0.00  0.00     0.063 H 
BRANCH  23  28
ATOM     28  N   LIG d   1      10.611   5.314  -3.655  0.00  0.00    -0.327 N 
ATOM     29  H   LIG d   1      11.164   5.795  -4.291  0.00  0.00     0.147 HD
BRANCH  28  30
ATOM     30  C   LIG d   1      10.511   5.782  -2.270  0.00  0.00     0.034 C 
ATOM     31  H   LIG d   1      10.243   4.948  -1.624  0.00  0.00     0.048 H 
ATOM     32  H   LIG d   1      11.471   6.191  -1.956  0.00  0.00     0.048 H 
BRANCH  30  33
ATOM     33  C   LIG d   1       9.438   6.868  -2.175  0.00  0.00     0.063 C 
ATOM     34  H   LIG d   1       9.709   7.703  -2.821  0.00  0.00     0.058 H 
ATOM     35  H   LIG d   1       8.478   6.459  -2.492  0.00  0.00     0.058 H 
BRANCH  33  36
ATOM     36  O   LIG d   1       9.339   7.323  -0.824  0.00  0.00    -0.381 OA
BRANCH  36  37
ATOM     37  C   LIG d   1      10.564   7.242  -0.092  0.00  0.00     0.036 C 
ATOM     38  H   LIG d   1      11.293   7.925  -0.529  0.00  0.00     0.052 H 
ATOM     39  H   LIG d   1      10.385   7.518   0.947  0.00  0.00     0.052 H 
ATOM     40  H   LIG d   1      10.948   6.224  -0.138  0.00  0.00     0.052 H 
ENDBRANCH  36  37
ENDBRANCH  33  36
ENDBRANCH  30  33
ENDBRANCH  28  30
ENDBRANCH  23  28
ENDBRANCH  17  19
ENDBRANCH   5  14
BRANCH   1  41
ATOM     41  C   LIG d   1       4.356  -0.136  -4.290  0.00  0.00    -0.026 C 
ATOM     42  H   LIG d   1       4.044   0.905  -4.205  0.00  0.00     0.082 H 
ATOM     43  H   LIG d   1       5.444  -0.186  -4.334  0.00  0.00     0.082 H 
BRANCH  41  44
ATOM     44  C   LIG d   1       3.860  -0.918  -3.071  0.00  0.00     0.002 C 
BRANCH  44  45
ATOM     45  C   LIG d   1       2.336  -0.810  -2.981  0.00  0.00    -0.055 C 
ATOM     46  H   LIG d   1       1.899  -1.023  -3.956  0.00  0.00     0.024 H 
ATOM     47  H   LIG d   1       1.964  -1.528  -2.251  0.00  0.00     0.024 H 
ATOM     48  H   LIG d   1       2.063   0.199  -2.672  0.00  0.00     0.024 H 
ENDBRANCH  44  45
BRANCH  44  49
ATOM     49  C   LIG d   1       4.489  -0.339  -1.803  0.00  0.00    -0.055 C 
ATOM     50  H   LIG d   1       4.064   0.645  -1.603  0.00  0.00     0.024 H 
ATOM     51  H   LIG d   1       4.285  -1.000  -0.961  0.00  0.00     0.024 H 
ATOM     52  H   LIG d   1       5.567  -0.248  -1.940  0.00  0.00     0.024 H 
ENDBRANCH  44  49
BRANCH  44  53
ATOM     53  C   LIG d   1       4.259  -2.389  -3.213  0.00  0.00    -0.055 C 
ATOM     54  H   LIG d   1       4.621  -2.761  -2.255  0.00  0.00     0.024 H 
ATOM     55  H   LIG d   1       3.393  -2.972  -3.525  0.00  0.00     0.024 H 
ATOM     56  H   LIG d   1       5.048  -2.480  -3.960  0.00  0.00     0.024 H 
ENDBRANCH  44  53
ENDBRANCH  41  44
ENDBRANCH   1  41
TORSDOF 12
ENDMDL
MODEL 3
REMARK VINA RESULT:      -5.5      3.230      4.674
REMARK  12 active torsions:
REMARK  status: ('A' for Active; 'I' for Inactive)
REMARK    1  A    between atoms: C_1  and  C_2 
REMARK    2  A    between atoms: C_2  and  C_3 
REMARK    3  A    between atoms: C_2  and  C_4 
REMARK    4  A    between atoms: C_2  and  C_5 
REMARK    5  A    between atoms: C_5  and  N_6 
REMARK    6  A    between atoms: C_10  and  C_12 
REMARK    7  A    between atoms: C_14  and  C_17 
REMARK    8  A    between atoms: C_20  and  N_23 
REMARK    9  A    between atoms: N_23  and  C_24 
REMARK   10  A    between atoms: C_24  and  C_25 
REMARK   11  A    between atoms: C_25  and  O_26 
REMARK   12  A    between atoms: O_26  and  C_27 
ROOT
ATOM      1  N   LIG d   1       5.361  -1.536  -3.740  0.00  0.00     0.244 N 
ATOM      2  C   LIG d   1       5.249  -2.614  -4.746  0.00  0.00    -0.031 C 
ATOM      3  C   LIG d   1       6.543  -3.449  -4.578  0.00  0.00    -0.007 C 
ATOM      4  C   LIG d   1       7.590  -2.346  -4.272  0.00  0.00     0.004 C 
ATOM      5  C   LIG d   1       6.789  -1.329  -3.432  0.00  0.00     0.059 C 
ATOM      6  H   LIG d   1       6.967  -1.502  -2.370  0.00  0.00     0.095 H 
ATOM      7  H   LIG d   1       4.372  -3.229  -4.547  0.00  0.00     0.082 H 
ATOM      8  H   LIG d   1       5.197  -2.192  -5.750  0.00  0.00     0.082 H 
ATOM      9  H   LIG d   1       6.453  -4.144  -3.743  0.00  0.00     0.032 H 
ATOM     10  H   LIG d   1       6.790  -3.976  -5.498  0.00  0.00     0.032 H 
ATOM     11  H   LIG d   1       8.421  -2.753  -3.695  0.00  0.00     0.033 H 
ATOM     12  H   LIG d   1       7.948  -1.888  -5.193  0.00  0.00     0.033 H 
ATOM     13  H   LIG d   1       4.868  -1.804  -2.902  0.00  0.00     0.204 HD
ENDROOT
BRANCH   5  14
ATOM     14  C   LIG d   1       7.195   0.074  -3.802  0.00  0.00     0.276 A 
ATOM     15  O   LIG d   1       6.992   1.169  -3.059  0.00  0.00    -0.332 OA
ATOM     16  N   LIG d   1       7.536   2.257  -3.791  0.00  0.00    -0.056 NA
ATOM     17  C   LIG d   1       8.012   1.755  -4.904  0.00  0.00     0.204 A 
ATOM     18  N   LIG d   1       7.799   0.427  -4.901  0.00  0.00    -0.186 NA
BRANCH  17  19
ATOM     19  C   LIG d   1       8.674   2.522  -5.987  0.00  0.00     0.041 A 
ATOM     20  C   LIG d   1       8.559   2.115  -7.313  0.00  0.00     0.041 A 
ATOM     21  N   LIG d   1       9.140   2.797  -8.279  0.00  0.00    -0.240 NA
ATOM     22  H   LIG d   1       7.982   1.234  -7.553  0.00  0.00     0.084 H 
ATOM     23  C   LIG d   1       9.861   3.881  -8.031  0.00  0.00     0.119 A 
ATOM     24  C   LIG d   1      10.026   4.346  -6.729  0.00  0.00    -0.021 A 
ATOM     25  C   LIG d   1       9.428   3.663  -5.689  0.00  0.00    -0.046 A 
ATOM     26  H   LIG d   1      10.615   5.230  -6.535  0.00  0.00     0.065 H 
ATOM     27  H   LIG d   1       9.539   4.002  -4.669  0.00  0.00     0.063 H 
BRANCH  23  28
ATOM     28  N   LIG d   1      10.459   4.561  -9.083  0.00  0.00    -0.327 N 
ATOM     29  H   LIG d   1      11.133   4.120  -9.624  0.00  0.00     0.147 HD
BRANCH  28  30
ATOM     30  C   LIG d   1      10.071   5.943  -9.377  0.00  0.00     0.034 C 
ATOM     31  H   LIG d   1      10.183   6.550  -8.479  0.00  0.00     0.048 H 
ATOM     32  H   LIG d   1      10.710   6.339 -10.165  0.00  0.00     0.048 H 
BRANCH  30  33
ATOM     33  C   LIG d   1       8.612   5.975  -9.837  0.00  0.00     0.063 C 
ATOM     34  H   LIG d   1       8.059   5.176  -9.344  0.00  0.00     0.058 H 
ATOM     35  H   LIG d   1       8.171   6.938  -9.575  0.00  0.00     0.058 H 
BRANCH  33  36
ATOM     36  O   LIG d   1       8.555   5.793 -11.253  0.00  0.00    -0.381 OA
BRANCH  36  37
ATOM     37  C   LIG d   1       9.500   6.581 -11.979  0.00  0.00     0.036 C 
ATOM     38  H   LIG d   1       9.045   6.930 -12.906  0.00  0.00     0.052 H 
ATOM     39  H   LIG d   1       9.798   7.439 -11.375  0.00  0.00     0.052 H 
ATOM     40  H   LIG d   1      10.376   5.976 -12.210  0.00  0.00     0.052 H 
ENDBRANCH  36  37
ENDBRANCH  33  36
ENDBRANCH  30  33
ENDBRANCH  28  30
ENDBRANCH  23  28
ENDBRANCH  17  19
ENDBRANCH   5  14
BRANCH   1  41
ATOM     41  C   LIG d   1       4.788  -0.296  -4.279  0.00  0.00    -0.026 C 
ATOM     42  H   LIG d   1       4.603  -0.413  -5.346  0.00  0.00     0.082 H 
ATOM     43  H   LIG d   1       5.485   0.527  -4.119  0.00  0.00     0.082 H 
BRANCH  41  44
ATOM     44  C   LIG d   1       3.469   0.009  -3.563  0.00  0.00     0.002 C 
BRANCH  44  45
ATOM     45  C   LIG d   1       3.652   1.224  -2.652  0.00  0.00    -0.055 C 
ATOM     46  H   LIG d   1       4.559   1.757  -2.935  0.00  0.00     0.024 H 
ATOM     47  H   LIG d   1       2.794   1.887  -2.755  0.00  0.00     0.024 H 
ATOM     48  H   LIG d   1       3.733   0.892  -1.617  0.00  0.00     0.024 H 
ENDBRANCH  44  45
BRANCH  44  49
ATOM     49  C   LIG d   1       3.055  -1.201  -2.724  0.00  0.00    -0.055 C 
ATOM     50  H   LIG d   1       2.098  -0.999  -2.242  0.00  0.00     0.024 H 
ATOM     51  H   LIG d   1       2.959  -2.076  -3.367  0.00  0.00     0.024 H 
ATOM     52  H   LIG d   1       3.811  -1.392  -1.963  0.00  0.00     0.024 H 
ENDBRANCH  44  49
BRANCH  44  53
ATOM     53  C   LIG d   1       2.383   0.306  -4.600  0.00  0.00    -0.055 C 
ATOM     54  H   LIG d   1       2.766   1.014  -5.334  0.00  0.00     0.024 H 
ATOM     55  H   LIG d   1       2.097  -0.618  -5.101  0.00  0.00     0.024 H 
ATOM     56  H   LIG d   1       1.513   0.734  -4.101  0.00  0.00     0.024 H 
ENDBRANCH  44  53
ENDBRANCH  41  44
ENDBRANCH   1  41
TORSDOF 12
ENDMDL
MODEL 4
REMARK VINA RESULT:      -5.4      5.511     10.456
REMARK  12 active torsions:
REMARK  status: ('A' for Active; 'I' for Inactive)
REMARK    1  A    between atoms: C_1  and  C_2 
REMARK    2  A    between atoms: C_2  and  C_3 
REMARK    3  A    between atoms: C_2  and  C_4 
REMARK    4  A    between atoms: C_2  and  C_5 
REMARK    5  A    between atoms: C_5  and  N_6 
REMARK    6  A    between atoms: C_10  and  C_12 
REMARK    7  A    between atoms: C_14  and  C_17 
REMARK    8  A    between atoms: C_20  and  N_23 
REMARK    9  A    between atoms: N_23  and  C_24 
REMARK   10  A    between atoms: C_24  and  C_25 
REMARK   11  A    between atoms: C_25  and  O_26 
REMARK   12  A    between atoms: O_26  and  C_27 
ROOT
ATOM      1  N   LIG d   1       5.788  -1.130  -4.513  0.00  0.00     0.244 N 
ATOM      2  C   LIG d   1       6.650  -2.331  -4.495  0.00  0.00    -0.031 C 
ATOM      3  C   LIG d   1       7.823  -1.990  -5.450  0.00  0.00    -0.007 C 
ATOM      4  C   LIG d   1       7.098  -1.182  -6.558  0.00  0.00     0.004 C 
ATOM      5  C   LIG d   1       6.022  -0.402  -5.774  0.00  0.00     0.059 C 
ATOM      6  H   LIG d   1       6.377   0.606  -5.559  0.00  0.00     0.095 H 
ATOM      7  H   LIG d   1       7.023  -2.516  -3.488  0.00  0.00     0.082 H 
ATOM      8  H   LIG d   1       6.101  -3.197  -4.863  0.00  0.00     0.082 H 
ATOM      9  H   LIG d   1       8.571  -1.379  -4.946  0.00  0.00     0.032 H 
ATOM     10  H   LIG d   1       8.270  -2.896  -5.857  0.00  0.00     0.032 H 
ATOM     11  H   LIG d   1       7.790  -0.496  -7.049  0.00  0.00     0.033 H 
ATOM     12  H   LIG d   1       6.637  -1.850  -7.285  0.00  0.00     0.033 H 
ATOM     13  H   LIG d   1       6.020  -0.537  -3.730  0.00  0.00     0.204 HD
ENDROOT
BRANCH   5  14
ATOM     14  C   LIG d   1       4.747  -0.342  -6.575  0.00  0.00     0.276 A 
ATOM     15  O   LIG d   1       3.709   0.469  -6.334  0.00  0.00    -0.332 OA
ATOM     16  N   LIG d   1       2.741   0.187  -7.334  0.00  0.00    -0.056 NA
ATOM     17  C   LIG d   1       3.247  -0.758  -8.086  0.00  0.00     0.204 A 
ATOM     18  N   LIG d   1       4.467  -1.073  -7.616  0.00  0.00    -0.186 NA
BRANCH  17  19
ATOM     19  C   LIG d   1       2.585  -1.379  -9.260  0.00  0.00     0.041 A 
ATOM     20  C   LIG d   1       2.743  -2.736  -9.524  0.00  0.00     0.041 A 
ATOM     21  N   LIG d   1       2.153  -3.293 -10.562  0.00  0.00    -0.240 NA
ATOM     22  H   LIG d   1       3.353  -3.340  -8.868  0.00  0.00     0.084 H 
ATOM     23  C   LIG d   1       1.401  -2.590 -11.396  0.00  0.00     0.119 A 
ATOM     24  C   LIG d   1       1.201  -1.225 -11.200  0.00  0.00    -0.021 A 
ATOM     25  C   LIG d   1       1.798  -0.605 -10.121  0.00  0.00    -0.046 A 
ATOM     26  H   LIG d   1       0.586  -0.659 -11.884  0.00  0.00     0.065 H 
ATOM     27  H   LIG d   1       1.659   0.451  -9.944  0.00  0.00     0.063 H 
BRANCH  23  28
ATOM     28  N   LIG d   1       0.805  -3.221 -12.479  0.00  0.00    -0.327 N 
ATOM     29  H   LIG d   1       1.355  -3.584 -13.191  0.00  0.00     0.147 HD
BRANCH  28  30
ATOM     30  C   LIG d   1      -0.654  -3.341 -12.546  0.00  0.00     0.034 C 
ATOM     31  H   LIG d   1      -1.101  -2.785 -11.723  0.00  0.00     0.048 H 
ATOM     32  H   LIG d   1      -1.008  -2.935 -13.493  0.00  0.00     0.048 H 
BRANCH  30  33
ATOM     33  C   LIG d   1      -1.049  -4.814 -12.442  0.00  0.00     0.063 C 
ATOM     34  H   LIG d   1      -1.483  -5.141 -13.387  0.00  0.00     0.058 H 
ATOM     35  H   LIG d   1      -0.165  -5.413 -12.222  0.00  0.00     0.058 H 
BRANCH  33  36
ATOM     36  O   LIG d   1      -2.009  -4.978 -11.396  0.00  0.00    -0.381 OA
BRANCH  36  37
ATOM     37  C   LIG d   1      -1.431  -5.135 -10.098  0.00  0.00     0.036 C 
ATOM     38  H   LIG d   1      -1.279  -6.196  -9.895  0.00  0.00     0.052 H 
ATOM     39  H   LIG d   1      -0.473  -4.617 -10.061  0.00  0.00     0.052 H 
ATOM     40  H   LIG d   1      -2.102  -4.715  -9.349  0.00  0.00     0.052 H 
ENDBRANCH  36  37
ENDBRANCH  33  36
ENDBRANCH  30  33
ENDBRANCH  28  30
ENDBRANCH  23  28
ENDBRANCH  17  19
ENDBRANCH   5  14
BRANCH   1  41
ATOM     41  C   LIG d   1       4.378  -1.533  -4.429  0.00  0.00    -0.026 C 
ATOM     42  H   LIG d   1       4.301  -2.614  -4.544  0.00  0.00     0.082 H 
ATOM     43  H   LIG d   1       3.812  -1.042  -5.221  0.00  0.00     0.082 H 
BRANCH  41  44
ATOM     44  C   LIG d   1       3.810  -1.122  -3.069  0.00  0.00     0.002 C 
BRANCH  44  45
ATOM     45  C   LIG d   1       4.699  -0.041  -2.451  0.00  0.00    -0.055 C 
ATOM     46  H   LIG d   1       4.780   0.799  -3.139  0.00  0.00     0.024 H 
ATOM     47  H   LIG d   1       4.259   0.299  -1.513  0.00  0.00     0.024 H 
ATOM     48  H   LIG d   1       5.689  -0.452  -2.259  0.00  0.00     0.024 H 
ENDBRANCH  44  45
BRANCH  44  49
ATOM     49  C   LIG d   1       3.771  -2.340  -2.145  0.00  0.00    -0.055 C 
ATOM     50  H   LIG d   1       3.964  -3.243  -2.724  0.00  0.00     0.024 H 
ATOM     51  H   LIG d   1       4.533  -2.236  -1.372  0.00  0.00     0.024 H 
ATOM     52  H   LIG d   1       2.788  -2.411  -1.678  0.00  0.00     0.024 H 
ENDBRANCH  44  49
BRANCH  44  53
ATOM     53  C   LIG d   1       2.393  -0.575  -3.252  0.00  0.00    -0.055 C 
ATOM     54  H   LIG d   1       2.129  -0.595  -4.309  0.00  0.00     0.024 H 
ATOM     55  H   LIG d   1       1.690  -1.191  -2.691  0.00  0.00     0.024 H 
ATOM     56  H   LIG d   1       2.350   0.451  -2.886  0.00  0.00     0.024 H 
ENDBRANCH  44  53
ENDBRANCH  41  44
ENDBRANCH   1  41
TORSDOF 12
ENDMDL
MODEL 5
REMARK VINA RESULT:      -5.1      5.007     10.089
REMARK  12 active torsions:
REMARK  status: ('A' for Active; 'I' for Inactive)
REMARK    1  A    between atoms: C_1  and  C_2 
REMARK    2  A    between atoms: C_2  and  C_3 
REMARK    3  A    between atoms: C_2  and  C_4 
REMARK    4  A    between atoms: C_2  and  C_5 
REMARK    5  A    between atoms: C_5  and  N_6 
REMARK    6  A    between atoms: C_10  and  C_12 
REMARK    7  A    between atoms: C_14  and  C_17 
REMARK    8  A    between atoms: C_20  and  N_23 
REMARK    9  A    between atoms: N_23  and  C_24 
REMARK   10  A    between atoms: C_24  and  C_25 
REMARK   11  A    between atoms: C_25  and  O_26 
REMARK   12  A    between atoms: O_26  and  C_27 
ROOT
ATOM      1  N   LIG d   1       5.250  -0.492  -3.570  0.00  0.00     0.244 N 
ATOM      2  C   LIG d   1       5.750   0.517  -2.610  0.00  0.00    -0.031 C 
ATOM      3  C   LIG d   1       4.541   0.821  -1.690  0.00  0.00    -0.007 C 
ATOM      4  C   LIG d   1       3.360   0.760  -2.695  0.00  0.00     0.004 C 
ATOM      5  C   LIG d   1       3.784  -0.365  -3.662  0.00  0.00     0.059 C 
ATOM      6  H   LIG d   1       3.312  -1.303  -3.370  0.00  0.00     0.095 H 
ATOM      7  H   LIG d   1       6.576   0.110  -2.028  0.00  0.00     0.082 H 
ATOM      8  H   LIG d   1       6.062   1.418  -3.137  0.00  0.00     0.082 H 
ATOM      9  H   LIG d   1       4.436   0.059  -0.918  0.00  0.00     0.032 H 
ATOM     10  H   LIG d   1       4.626   1.813  -1.249  0.00  0.00     0.032 H 
ATOM     11  H   LIG d   1       2.433   0.500  -2.184  0.00  0.00     0.033 H 
ATOM     12  H   LIG d   1       3.256   1.706  -3.226  0.00  0.00     0.033 H 
ATOM     13  H   LIG d   1       5.492  -1.415  -3.244  0.00  0.00     0.204 HD
ENDROOT
BRANCH   5  14
ATOM     14  C   LIG d   1       3.389  -0.005  -5.071  0.00  0.00     0.276 A 
ATOM     15  O   LIG d   1       3.025   1.211  -5.495  0.00  0.00    -0.332 OA
ATOM     16  N   LIG d   1       2.745   1.086  -6.882  0.00  0.00    -0.056 NA
ATOM     17  C   LIG d   1       2.948  -0.172  -7.189  0.00  0.00     0.204 A 
ATOM     18  N   LIG d   1       3.339  -0.827  -6.081  0.00  0.00    -0.186 NA
BRANCH  17  19
ATOM     19  C   LIG d   1       2.776  -0.773  -8.534  0.00  0.00     0.041 A 
ATOM     20  C   LIG d   1       2.114  -0.075  -9.541  0.00  0.00     0.041 A 
ATOM     21  N   LIG d   1       1.964  -0.602 -10.739  0.00  0.00    -0.240 NA
ATOM     22  H   LIG d   1       1.724   0.912  -9.338  0.00  0.00     0.084 H 
ATOM     23  C   LIG d   1       2.422  -1.811 -11.030  0.00  0.00     0.119 A 
ATOM     24  C   LIG d   1       3.089  -2.572 -10.073  0.00  0.00    -0.021 A 
ATOM     25  C   LIG d   1       3.272  -2.053  -8.808  0.00  0.00    -0.046 A 
ATOM     26  H   LIG d   1       3.459  -3.556 -10.319  0.00  0.00     0.065 H 
ATOM     27  H   LIG d   1       3.786  -2.621  -8.047  0.00  0.00     0.063 H 
BRANCH  23  28
ATOM     28  N   LIG d   1       2.233  -2.325 -12.305  0.00  0.00    -0.327 N 
ATOM     29  H   LIG d   1       2.398  -1.768 -13.082  0.00  0.00     0.147 HD
BRANCH  28  30
ATOM     30  C   LIG d   1       1.785  -3.710 -12.478  0.00  0.00     0.034 C 
ATOM     31  H   LIG d   1       2.080  -4.066 -13.464  0.00  0.00     0.048 H 
ATOM     32  H   LIG d   1       2.243  -4.337 -11.713  0.00  0.00     0.048 H 
BRANCH  30  33
ATOM     33  C   LIG d   1       0.263  -3.773 -12.346  0.00  0.00     0.063 C 
ATOM     34  H   LIG d   1      -0.162  -2.797 -12.577  0.00  0.00     0.058 H 
ATOM     35  H   LIG d   1      -0.132  -4.515 -13.042  0.00  0.00     0.058 H 
BRANCH  33  36
ATOM     36  O   LIG d   1      -0.086  -4.141 -11.010  0.00  0.00    -0.381 OA
BRANCH  36  37
ATOM     37  C   LIG d   1       0.566  -5.325 -10.545  0.00  0.00     0.036 C 
ATOM     38  H   LIG d   1       0.386  -5.441  -9.476  0.00  0.00     0.052 H 
ATOM     39  H   LIG d   1       0.171  -6.190 -11.077  0.00  0.00     0.052 H 
ATOM     40  H   LIG d   1       1.638  -5.244 -10.725  0.00  0.00     0.052 H 
ENDBRANCH  36  37
ENDBRANCH  33  36
ENDBRANCH  30  33
ENDBRANCH  28  30
ENDBRANCH  23  28
ENDBRANCH  17  19
ENDBRANCH   5  14
BRANCH   1  41
ATOM     41  C   LIG d   1       5.851  -0.258  -4.889  0.00  0.00    -0.026 C 
ATOM     42  H   LIG d   1       6.394   0.686  -4.880  0.00  0.00     0.082 H 
ATOM     43  H   LIG d   1       5.065  -0.219  -5.644  0.00  0.00     0.082 H 
BRANCH  41  44
ATOM     44  C   LIG d   1       6.817  -1.399  -5.219  0.00  0.00     0.002 C 
BRANCH  44  45
ATOM     45  C   LIG d   1       6.695  -1.758  -6.701  0.00  0.00    -0.055 C 
ATOM     46  H   LIG d   1       5.694  -1.513  -7.053  0.00  0.00     0.024 H 
ATOM     47  H   LIG d   1       7.430  -1.192  -7.273  0.00  0.00     0.024 H 
ATOM     48  H   LIG d   1       6.876  -2.824  -6.832  0.00  0.00     0.024 H 
ENDBRANCH  44  45
BRANCH  44  49
ATOM     49  C   LIG d   1       6.470  -2.622  -4.368  0.00  0.00    -0.055 C 
ATOM     50  H   LIG d   1       6.739  -3.529  -4.908  0.00  0.00     0.024 H 
ATOM     51  H   LIG d   1       7.023  -2.581  -3.429  0.00  0.00     0.024 H 
ATOM     52  H   LIG d   1       5.400  -2.627  -4.158  0.00  0.00     0.024 H 
ENDBRANCH  44  49
BRANCH  44  53
ATOM     53  C   LIG d   1       8.250  -0.957  -4.916  0.00  0.00    -0.055 C 
ATOM     54  H   LIG d   1       8.765  -0.730  -5.849  0.00  0.00     0.024 H 
ATOM     55  H   LIG d   1       8.230  -0.067  -4.287  0.00  0.00     0.024 H 
ATOM     56  H   LIG d   1       8.775  -1.759  -4.396  0.00  0.00     0.024 H 
ENDBRANCH  44  53
ENDBRANCH  41  44
ENDBRANCH   1  41
TORSDOF 12
ENDMDL
MODEL 6
REMARK VINA RESULT:      -5.1      1.680      2.826
REMARK  12 active torsions:
REMARK  status: ('A' for Active; 'I' for Inactive)
REMARK    1  A    between atoms: C_1  and  C_2 
REMARK    2  A    between atoms: C_2  and  C_3 
REMARK    3  A    between atoms: C_2  and  C_4 
REMARK    4  A    between atoms: C_2  and  C_5 
REMARK    5  A    between atoms: C_5  and  N_6 
REMARK    6  A    between atoms: C_10  and  C_12 
REMARK    7  A    between atoms: C_14  and  C_17 
REMARK    8  A    between atoms: C_20  and  N_23 
REMARK    9  A    between atoms: N_23  and  C_24 
REMARK   10  A    between atoms: C_24  and  C_25 
REMARK   11  A    between atoms: C_25  and  O_26 
REMARK   12  A    between atoms: O_26  and  C_27 
ROOT
ATOM      1  N   LIG d   1       4.274  -0.654  -4.399  0.00  0.00     0.244 N 
ATOM      2  C   LIG d   1       3.907  -2.011  -3.943  0.00  0.00    -0.031 C 
ATOM      3  C   LIG d   1       3.723  -1.878  -2.410  0.00  0.00    -0.007 C 
ATOM      4  C   LIG d   1       4.845  -0.870  -2.047  0.00  0.00     0.004 C 
ATOM      5  C   LIG d   1       4.869   0.078  -3.265  0.00  0.00     0.059 C 
ATOM      6  H   LIG d   1       4.282   0.971  -3.052  0.00  0.00     0.095 H 
ATOM      7  H   LIG d   1       2.976  -2.331  -4.410  0.00  0.00     0.082 H 
ATOM      8  H   LIG d   1       4.707  -2.716  -4.169  0.00  0.00     0.082 H 
ATOM      9  H   LIG d   1       2.741  -1.473  -2.169  0.00  0.00     0.032 H 
ATOM     10  H   LIG d   1       3.882  -2.834  -1.913  0.00  0.00     0.032 H 
ATOM     11  H   LIG d   1       4.591  -0.323  -1.138  0.00  0.00     0.033 H 
ATOM     12  H   LIG d   1       5.801  -1.380  -1.937  0.00  0.00     0.033 H 
ATOM     13  H   LIG d   1       3.447  -0.171  -4.719  0.00  0.00     0.204 HD
ENDROOT
BRANCH   5  14
ATOM     14  C   LIG d   1       6.290   0.458  -3.590  0.00  0.00     0.276 A 
ATOM     15  O   LIG d   1       7.260  -0.386  -3.964  0.00  0.00    -0.332 OA
ATOM     16  N   LIG d   1       8.422   0.405  -4.168  0.00  0.00    -0.056 NA
ATOM     17  C   LIG d   1       8.082   1.641  -3.900  0.00  0.00     0.204 A 
ATOM     18  N   LIG d   1       6.784   1.663  -3.550  0.00  0.00    -0.186 NA
BRANCH  17  19
ATOM     19  C   LIG d   1       8.979   2.821  -3.971  0.00  0.00     0.041 A 
ATOM     20  C   LIG d   1       9.941   3.037  -2.988  0.00  0.00     0.041 A 
ATOM     21  N   LIG d   1      10.743   4.080  -3.050  0.00  0.00    -0.240 NA
ATOM     22  H   LIG d   1      10.032   2.340  -2.168  0.00  0.00     0.084 H 
ATOM     23  C   LIG d   1      10.663   4.964  -4.034  0.00  0.00     0.119 A 
ATOM     24  C   LIG d   1       9.722   4.817  -5.051  0.00  0.00    -0.021 A 
ATOM     25  C   LIG d   1       8.866   3.735  -5.025  0.00  0.00    -0.046 A 
ATOM     26  H   LIG d   1       9.663   5.542  -5.849  0.00  0.00     0.065 H 
ATOM     27  H   LIG d   1       8.128   3.596  -5.801  0.00  0.00     0.063 H 
BRANCH  23  28
ATOM     28  N   LIG d   1      11.527   6.049  -4.051  0.00  0.00    -0.327 N 
ATOM     29  H   LIG d   1      12.487   5.906  -4.036  0.00  0.00     0.147 HD
BRANCH  28  30
ATOM     30  C   LIG d   1      10.991   7.412  -4.094  0.00  0.00     0.034 C 
ATOM     31  H   LIG d   1      11.808   8.120  -4.224  0.00  0.00     0.048 H 
ATOM     32  H   LIG d   1      10.296   7.503  -4.929  0.00  0.00     0.048 H 
BRANCH  30  33
ATOM     33  C   LIG d   1      10.258   7.713  -2.786  0.00  0.00     0.063 C 
ATOM     34  H   LIG d   1       9.947   8.757  -2.775  0.00  0.00     0.058 H 
ATOM     35  H   LIG d   1       9.379   7.071  -2.706  0.00  0.00     0.058 H 
BRANCH  33  36
ATOM     36  O   LIG d   1      11.131   7.465  -1.682  0.00  0.00    -0.381 OA
BRANCH  36  37
ATOM     37  C   LIG d   1      10.504   6.800  -0.583  0.00  0.00     0.036 C 
ATOM     38  H   LIG d   1      10.192   5.802  -0.894  0.00  0.00     0.052 H 
ATOM     39  H   LIG d   1      11.211   6.719   0.243  0.00  0.00     0.052 H 
ATOM     40  H   LIG d   1       9.632   7.370  -0.263  0.00  0.00     0.052 H 
ENDBRANCH  36  37
ENDBRANCH  33  36
ENDBRANCH  30  33
ENDBRANCH  28  30
ENDBRANCH  23  28
ENDBRANCH  17  19
ENDBRANCH   5  14
BRANCH   1  41
ATOM     41  C   LIG d   1       5.248  -0.747  -5.494  0.00  0.00    -0.026 C 
ATOM     42  H   LIG d   1       5.727  -1.726  -5.473  0.00  0.00     0.082 H 
ATOM     43  H   LIG d   1       6.004   0.030  -5.374  0.00  0.00     0.082 H 
BRANCH  41  44
ATOM     44  C   LIG d   1       4.531  -0.557  -6.832  0.00  0.00     0.002 C 
BRANCH  44  45
ATOM     45  C   LIG d   1       3.192   0.145  -6.599  0.00  0.00    -0.055 C 
ATOM     46  H   LIG d   1       2.460  -0.579  -6.243  0.00  0.00     0.024 H 
ATOM     47  H   LIG d   1       3.318   0.930  -5.854  0.00  0.00     0.024 H 
ATOM     48  H   LIG d   1       2.846   0.584  -7.534  0.00  0.00     0.024 H 
ENDBRANCH  44  45
BRANCH  44  49
ATOM     49  C   LIG d   1       4.286  -1.922  -7.477  0.00  0.00    -0.055 C 
ATOM     50  H   LIG d   1       5.207  -2.506  -7.453  0.00  0.00     0.024 H 
ATOM     51  H   LIG d   1       3.508  -2.451  -6.925  0.00  0.00     0.024 H 
ATOM     52  H   LIG d   1       3.969  -1.786  -8.510  0.00  0.00     0.024 H 
ENDBRANCH  44  49
BRANCH  44  53
ATOM     53  C   LIG d   1       5.400   0.296  -7.760  0.00  0.00    -0.055 C 
ATOM     54  H   LIG d   1       5.823   1.128  -7.198  0.00  0.00     0.024 H 
ATOM     55  H   LIG d   1       6.206  -0.315  -8.166  0.00  0.00     0.024 H 
ATOM     56  H   LIG d   1       4.789   0.682  -8.576  0.00  0.00     0.024 H 
ENDBRANCH  44  53
ENDBRANCH  41  44
ENDBRANCH   1  41
TORSDOF 12
ENDMDL
MODEL 7
REMARK VINA RESULT:      -5.1      2.573      3.076
REMARK  12 active torsions:
REMARK  status: ('A' for Active; 'I' for Inactive)
REMARK    1  A    between atoms: C_1  and  C_2 
REMARK    2  A    between atoms: C_2  and  C_3 
REMARK    3  A    between atoms: C_2  and  C_4 
REMARK    4  A    between atoms: C_2  and  C_5 
REMARK    5  A    between atoms: C_5  and  N_6 
REMARK    6  A    between atoms: C_10  and  C_12 
REMARK    7  A    between atoms: C_14  and  C_17 
REMARK    8  A    between atoms: C_20  and  N_23 
REMARK    9  A    between atoms: N_23  and  C_24 
REMARK   10  A    between atoms: C_24  and  C_25 
REMARK   11  A    between atoms: C_25  and  O_26 
REMARK   12  A    between atoms: O_26  and  C_27 
ROOT
ATOM      1  N   LIG d   1       3.769  -0.601  -5.259  0.00  0.00     0.244 N 
ATOM      2  C   LIG d   1       2.778   0.300  -5.883  0.00  0.00    -0.031 C 
ATOM      3  C   LIG d   1       2.802  -0.067  -7.389  0.00  0.00    -0.007 C 
ATOM      4  C   LIG d   1       4.309  -0.357  -7.615  0.00  0.00     0.004 C 
ATOM      5  C   LIG d   1       4.740  -1.017  -6.288  0.00  0.00     0.059 C 
ATOM      6  H   LIG d   1       4.728  -2.102  -6.393  0.00  0.00     0.095 H 
ATOM      7  H   LIG d   1       1.787   0.122  -5.466  0.00  0.00     0.082 H 
ATOM      8  H   LIG d   1       3.069   1.340  -5.741  0.00  0.00     0.082 H 
ATOM      9  H   LIG d   1       2.200  -0.953  -7.584  0.00  0.00     0.032 H 
ATOM     10  H   LIG d   1       2.471   0.772  -8.000  0.00  0.00     0.032 H 
ATOM     11  H   LIG d   1       4.448  -1.044  -8.450  0.00  0.00     0.033 H 
ATOM     12  H   LIG d   1       4.860   0.569  -7.781  0.00  0.00     0.033 H 
ATOM     13  H   LIG d   1       3.300  -1.413  -4.887  0.00  0.00     0.204 HD
ENDROOT
BRANCH   5  14
ATOM     14  C   LIG d   1       6.121  -0.550  -5.908  0.00  0.00     0.276 A 
ATOM     15  O   LIG d   1       7.020  -1.252  -5.207  0.00  0.00    -0.332 OA
ATOM     16  N   LIG d   1       8.171  -0.428  -5.091  0.00  0.00    -0.056 NA
ATOM     17  C   LIG d   1       7.890   0.692  -5.709  0.00  0.00     0.204 A 
ATOM     18  N   LIG d   1       6.641   0.608  -6.203  0.00  0.00    -0.186 NA
BRANCH  17  19
ATOM     19  C   LIG d   1       8.797   1.858  -5.843  0.00  0.00     0.041 A 
ATOM     20  C   LIG d   1       9.726   1.915  -6.878  0.00  0.00     0.041 A 
ATOM     21  N   LIG d   1      10.529   2.951  -7.005  0.00  0.00    -0.240 NA
ATOM     22  H   LIG d   1       9.785   1.102  -7.588  0.00  0.00     0.084 H 
ATOM     23  C   LIG d   1      10.495   3.968  -6.155  0.00  0.00     0.119 A 
ATOM     24  C   LIG d   1       9.596   3.979  -5.092  0.00  0.00    -0.021 A 
ATOM     25  C   LIG d   1       8.733   2.914  -4.927  0.00  0.00    -0.046 A 
ATOM     26  H   LIG d   1       9.575   4.811  -4.404  0.00  0.00     0.065 H 
ATOM     27  H   LIG d   1       8.026   2.898  -4.112  0.00  0.00     0.063 H 
BRANCH  23  28
ATOM     28  N   LIG d   1      11.366   5.034  -6.328  0.00  0.00    -0.327 N 
ATOM     29  H   LIG d   1      12.319   4.908  -6.193  0.00  0.00     0.147 HD
BRANCH  28  30
ATOM     30  C   LIG d   1      10.848   6.349  -6.715  0.00  0.00     0.034 C 
ATOM     31  H   LIG d   1      11.057   6.525  -7.770  0.00  0.00     0.048 H 
ATOM     32  H   LIG d   1       9.771   6.377  -6.548  0.00  0.00     0.048 H 
BRANCH  30  33
ATOM     33  C   LIG d   1      11.525   7.431  -5.873  0.00  0.00     0.063 C 
ATOM     34  H   LIG d   1      12.126   6.962  -5.094  0.00  0.00     0.058 H 
ATOM     35  H   LIG d   1      12.167   8.039  -6.511  0.00  0.00     0.058 H 
BRANCH  33  36
ATOM     36  O   LIG d   1      10.528   8.260  -5.271  0.00  0.00    -0.381 OA
BRANCH  36  37
ATOM     37  C   LIG d   1       9.225   8.105  -5.838  0.00  0.00     0.036 C 
ATOM     38  H   LIG d   1       8.817   9.087  -6.081  0.00  0.00     0.052 H 
ATOM     39  H   LIG d   1       9.292   7.504  -6.745  0.00  0.00     0.052 H 
ATOM     40  H   LIG d   1       8.573   7.609  -5.119  0.00  0.00     0.052 H 
ENDBRANCH  36  37
ENDBRANCH  33  36
ENDBRANCH  30  33
ENDBRANCH  28  30
ENDBRANCH  23  28
ENDBRANCH  17  19
ENDBRANCH   5  14
BRANCH   1  41
ATOM     41  C   LIG d   1       4.468   0.106  -4.178  0.00  0.00    -0.026 C 
ATOM     42  H   LIG d   1       4.204   1.163  -4.204  0.00  0.00     0.082 H 
ATOM     43  H   LIG d   1       5.545  -0.004  -4.308  0.00  0.00     0.082 H 
BRANCH  41  44
ATOM     44  C   LIG d   1       4.056  -0.490  -2.829  0.00  0.00     0.002 C 
BRANCH  44  45
ATOM     45  C   LIG d   1       4.800  -1.808  -2.605  0.00  0.00    -0.055 C 
ATOM     46  H   LIG d   1       4.337  -2.350  -1.781  0.00  0.00     0.024 H 
ATOM     47  H   LIG d   1       4.752  -2.411  -3.510  0.00  0.00     0.024 H 
ATOM     48  H   LIG d   1       5.842  -1.598  -2.363  0.00  0.00     0.024 H 
ENDBRANCH  44  45
BRANCH  44  49
ATOM     49  C   LIG d   1       2.548  -0.749  -2.827  0.00  0.00    -0.055 C 
ATOM     50  H   LIG d   1       2.040   0.063  -2.306  0.00  0.00     0.024 H 
ATOM     51  H   LIG d   1       2.186  -0.803  -3.854  0.00  0.00     0.024 H 
ATOM     52  H   LIG d   1       2.341  -1.691  -2.319  0.00  0.00     0.024 H 
ENDBRANCH  44  49
BRANCH  44  53
ATOM     53  C   LIG d   1       4.407   0.492  -1.709  0.00  0.00    -0.055 C 
ATOM     54  H   LIG d   1       3.997   1.474  -1.945  0.00  0.00     0.024 H 
ATOM     55  H   LIG d   1       3.983   0.138  -0.770  0.00  0.00     0.024 H 
ATOM     56  H   LIG d   1       5.490   0.563  -1.615  0.00  0.00     0.024 H 
ENDBRANCH  44  53
ENDBRANCH  41  44
ENDBRANCH   1  41
TORSDOF 12
ENDMDL
MODEL 8
REMARK VINA RESULT:      -5.0      5.478      9.822
REMARK  12 active torsions:
REMARK  status: ('A' for Active; 'I' for Inactive)
REMARK    1  A    between atoms: C_1  and  C_2 
REMARK    2  A    between atoms: C_2  and  C_3 
REMARK    3  A    between atoms: C_2  and  C_4 
REMARK    4  A    between atoms: C_2  and  C_5 
REMARK    5  A    between atoms: C_5  and  N_6 
REMARK    6  A    between atoms: C_10  and  C_12 
REMARK    7  A    between atoms: C_14  and  C_17 
REMARK    8  A    between atoms: C_20  and  N_23 
REMARK    9  A    between atoms: N_23  and  C_24 
REMARK   10  A    between atoms: C_24  and  C_25 
REMARK   11  A    between atoms: C_25  and  O_26 
REMARK   12  A    between atoms: O_26  and  C_27 
ROOT
ATOM      1  N   LIG d   1       5.354  -0.606  -3.772  0.00  0.00     0.244 N 
ATOM      2  C   LIG d   1       5.702   0.306  -2.661  0.00  0.00    -0.031 C 
ATOM      3  C   LIG d   1       4.440   0.338  -1.764  0.00  0.00    -0.007 C 
ATOM      4  C   LIG d   1       3.304   0.287  -2.820  0.00  0.00     0.004 C 
ATOM      5  C   LIG d   1       3.886  -0.634  -3.913  0.00  0.00     0.059 C 
ATOM      6  H   LIG d   1       3.521  -1.652  -3.773  0.00  0.00     0.095 H 
ATOM      7  H   LIG d   1       6.554  -0.082  -2.103  0.00  0.00     0.082 H 
ATOM      8  H   LIG d   1       5.921   1.303  -3.044  0.00  0.00     0.082 H 
ATOM      9  H   LIG d   1       4.404  -0.532  -1.110  0.00  0.00     0.032 H 
ATOM     10  H   LIG d   1       4.394   1.261  -1.187  0.00  0.00     0.032 H 
ATOM     11  H   LIG d   1       2.400  -0.146  -2.392  0.00  0.00     0.033 H 
ATOM     12  H   LIG d   1       3.104   1.281  -3.220  0.00  0.00     0.033 H 
ATOM     13  H   LIG d   1       5.694  -1.533  -3.565  0.00  0.00     0.204 HD
ENDROOT
BRANCH   5  14
ATOM     14  C   LIG d   1       3.492  -0.125  -5.275  0.00  0.00     0.276 A 
ATOM     15  O   LIG d   1       3.038   1.104  -5.550  0.00  0.00    -0.332 OA
ATOM     16  N   LIG d   1       2.800   1.139  -6.949  0.00  0.00    -0.056 NA
ATOM     17  C   LIG d   1       3.111  -0.047  -7.410  0.00  0.00     0.204 A 
ATOM     18  N   LIG d   1       3.531  -0.809  -6.383  0.00  0.00    -0.186 NA
BRANCH  17  19
ATOM     19  C   LIG d   1       3.017  -0.479  -8.826  0.00  0.00     0.041 A 
ATOM     20  C   LIG d   1       4.148  -0.922  -9.505  0.00  0.00     0.041 A 
ATOM     21  N   LIG d   1       4.069  -1.312 -10.761  0.00  0.00    -0.240 NA
ATOM     22  H   LIG d   1       5.101  -0.951  -8.996  0.00  0.00     0.084 H 
ATOM     23  C   LIG d   1       2.923  -1.289 -11.427  0.00  0.00     0.119 A 
ATOM     24  C   LIG d   1       1.750  -0.853 -10.815  0.00  0.00    -0.021 A 
ATOM     25  C   LIG d   1       1.791  -0.441  -9.498  0.00  0.00    -0.046 A 
ATOM     26  H   LIG d   1       0.821  -0.837 -11.365  0.00  0.00     0.065 H 
ATOM     27  H   LIG d   1       0.896  -0.099  -8.999  0.00  0.00     0.063 H 
BRANCH  23  28
ATOM     28  N   LIG d   1       2.892  -1.705 -12.751  0.00  0.00    -0.327 N 
ATOM     29  H   LIG d   1       2.290  -2.416 -13.022  0.00  0.00     0.147 HD
BRANCH  28  30
ATOM     30  C   LIG d   1       3.767  -1.068 -13.739  0.00  0.00     0.034 C 
ATOM     31  H   LIG d   1       3.736   0.013 -13.608  0.00  0.00     0.048 H 
ATOM     32  H   LIG d   1       4.788  -1.422 -13.601  0.00  0.00     0.048 H 
BRANCH  30  33
ATOM     33  C   LIG d   1       3.289  -1.425 -15.147  0.00  0.00     0.063 C 
ATOM     34  H   LIG d   1       3.309  -2.507 -15.274  0.00  0.00     0.058 H 
ATOM     35  H   LIG d   1       2.270  -1.062 -15.288  0.00  0.00     0.058 H 
BRANCH  33  36
ATOM     36  O   LIG d   1       4.149  -0.816 -16.112  0.00  0.00    -0.381 OA
BRANCH  36  37
ATOM     37  C   LIG d   1       3.516   0.196 -16.898  0.00  0.00     0.036 C 
ATOM     38  H   LIG d   1       2.822   0.758 -16.274  0.00  0.00     0.052 H 
ATOM     39  H   LIG d   1       4.273   0.870 -17.300  0.00  0.00     0.052 H 
ATOM     40  H   LIG d   1       2.970  -0.270 -17.718  0.00  0.00     0.052 H 
ENDBRANCH  36  37
ENDBRANCH  33  36
ENDBRANCH  30  33
ENDBRANCH  28  30
ENDBRANCH  23  28
ENDBRANCH  17  19
ENDBRANCH   5  14
BRANCH   1  41
ATOM     41  C   LIG d   1       5.961  -0.121  -5.018  0.00  0.00    -0.026 C 
ATOM     42  H   LIG d   1       6.372   0.876  -4.859  0.00  0.00     0.082 H 
ATOM     43  H   LIG d   1       5.202  -0.081  -5.800  0.00  0.00     0.082 H 
BRANCH  41  44
ATOM     44  C   LIG d   1       7.081  -1.073  -5.444  0.00  0.00     0.002 C 
BRANCH  44  45
ATOM     45  C   LIG d   1       6.869  -2.438  -4.785  0.00  0.00    -0.055 C 
ATOM     46  H   LIG d   1       5.911  -2.444  -4.266  0.00  0.00     0.024 H 
ATOM     47  H   LIG d   1       6.873  -3.214  -5.549  0.00  0.00     0.024 H 
ATOM     48  H   LIG d   1       7.671  -2.624  -4.072  0.00  0.00     0.024 H 
ENDBRANCH  44  45
BRANCH  44  49
ATOM     49  C   LIG d   1       8.430  -0.500  -5.006  0.00  0.00    -0.055 C 
ATOM     50  H   LIG d   1       8.529   0.521  -5.376  0.00  0.00     0.024 H 
ATOM     51  H   LIG d   1       8.489  -0.498  -3.917  0.00  0.00     0.024 H 
ATOM     52  H   LIG d   1       9.235  -1.113  -5.412  0.00  0.00     0.024 H 
ENDBRANCH  44  49
BRANCH  44  53
ATOM     53  C   LIG d   1       7.064  -1.232  -6.965  0.00  0.00    -0.055 C 
ATOM     54  H   LIG d   1       8.082  -1.369  -7.328  0.00  0.00     0.024 H 
ATOM     55  H   LIG d   1       6.463  -2.101  -7.233  0.00  0.00     0.024 H 
ATOM     56  H   LIG d   1       6.633  -0.339  -7.419  0.00  0.00     0.024 H 
ENDBRANCH  44  53
ENDBRANCH  41  44
ENDBRANCH   1  41
TORSDOF 12
ENDMDL
MODEL 9
REMARK VINA RESULT:      -5.0      5.240      7.935
REMARK  12 active torsions:
REMARK  status: ('A' for Active; 'I' for Inactive)
REMARK    1  A    between atoms: C_1  and  C_2 
REMARK    2  A    between atoms: C_2  and  C_3 
REMARK    3  A    between atoms: C_2  and  C_4 
REMARK    4  A    between atoms: C_2  and  C_5 
REMARK    5  A    between atoms: C_5  and  N_6 
REMARK    6  A    between atoms: C_10  and  C_12 
REMARK    7  A    between atoms: C_14  and  C_17 
REMARK    8  A    between atoms: C_20  and  N_23 
REMARK    9  A    between atoms: N_23  and  C_24 
REMARK   10  A    between atoms: C_24  and  C_25 
REMARK   11  A    between atoms: C_25  and  O_26 
REMARK   12  A    between atoms: O_26  and  C_27 
ROOT
ATOM      1  N   LIG d   1       3.650  -0.767  -5.333  0.00  0.00     0.244 N 
ATOM      2  C   LIG d   1       3.013   0.370  -6.031  0.00  0.00    -0.031 C 
ATOM      3  C   LIG d   1       2.858  -0.103  -7.498  0.00  0.00    -0.007 C 
ATOM      4  C   LIG d   1       4.162  -0.918  -7.703  0.00  0.00     0.004 C 
ATOM      5  C   LIG d   1       4.381  -1.577  -6.325  0.00  0.00     0.059 C 
ATOM      6  H   LIG d   1       3.989  -2.594  -6.334  0.00  0.00     0.095 H 
ATOM      7  H   LIG d   1       2.037   0.584  -5.596  0.00  0.00     0.082 H 
ATOM      8  H   LIG d   1       3.652   1.251  -5.981  0.00  0.00     0.082 H 
ATOM      9  H   LIG d   1       1.979  -0.736  -7.613  0.00  0.00     0.032 H 
ATOM     10  H   LIG d   1       2.818   0.746  -8.180  0.00  0.00     0.032 H 
ATOM     11  H   LIG d   1       4.025  -1.676  -8.475  0.00  0.00     0.033 H 
ATOM     12  H   LIG d   1       4.994  -0.259  -7.952  0.00  0.00     0.033 H 
ATOM     13  H   LIG d   1       2.941  -1.331  -4.890  0.00  0.00     0.204 HD
ENDROOT
BRANCH   5  14
ATOM     14  C   LIG d   1       5.851  -1.592  -5.992  0.00  0.00     0.276 A 
ATOM     15  O   LIG d   1       6.731  -0.629  -6.293  0.00  0.00    -0.332 OA
ATOM     16  N   LIG d   1       7.986  -1.062  -5.789  0.00  0.00    -0.056 NA
ATOM     17  C   LIG d   1       7.782  -2.233  -5.238  0.00  0.00     0.204 A 
ATOM     18  N   LIG d   1       6.480  -2.546  -5.367  0.00  0.00    -0.186 NA
BRANCH  17  19
ATOM     19  C   LIG d   1       8.813  -3.073  -4.582  0.00  0.00     0.041 A 
ATOM     20  C   LIG d   1       8.472  -4.301  -4.023  0.00  0.00     0.041 A 
ATOM     21  N   LIG d   1       9.385  -5.054  -3.444  0.00  0.00    -0.240 NA
ATOM     22  H   LIG d   1       7.448  -4.644  -4.069  0.00  0.00     0.084 H 
ATOM     23  C   LIG d   1      10.652  -4.672  -3.360  0.00  0.00     0.119 A 
ATOM     24  C   LIG d   1      11.067  -3.453  -3.890  0.00  0.00    -0.021 A 
ATOM     25  C   LIG d   1      10.141  -2.638  -4.510  0.00  0.00    -0.046 A 
ATOM     26  H   LIG d   1      12.101  -3.150  -3.817  0.00  0.00     0.065 H 
ATOM     27  H   LIG d   1      10.436  -1.688  -4.931  0.00  0.00     0.063 H 
BRANCH  23  28
ATOM     28  N   LIG d   1      11.575  -5.498  -2.735  0.00  0.00    -0.327 N 
ATOM     29  H   LIG d   1      12.373  -5.118  -2.334  0.00  0.00     0.147 HD
BRANCH  28  30
ATOM     30  C   LIG d   1      11.345  -6.944  -2.678  0.00  0.00     0.034 C 
ATOM     31  H   LIG d   1      10.570  -7.216  -3.393  0.00  0.00     0.048 H 
ATOM     32  H   LIG d   1      12.268  -7.468  -2.926  0.00  0.00     0.048 H 
BRANCH  30  33
ATOM     33  C   LIG d   1      10.900  -7.335  -1.268  0.00  0.00     0.063 C 
ATOM     34  H   LIG d   1      11.777  -7.474  -0.636  0.00  0.00     0.058 H 
ATOM     35  H   LIG d   1      10.275  -6.543  -0.852  0.00  0.00     0.058 H 
BRANCH  33  36
ATOM     36  O   LIG d   1      10.153  -8.552  -1.323  0.00  0.00    -0.381 OA
BRANCH  36  37
ATOM     37  C   LIG d   1      10.355  -9.303  -2.522  0.00  0.00     0.036 C 
ATOM     38  H   LIG d   1       9.985  -8.731  -3.374  0.00  0.00     0.052 H 
ATOM     39  H   LIG d   1      11.419  -9.502  -2.652  0.00  0.00     0.052 H 
ATOM     40  H   LIG d   1       9.813 -10.246  -2.456  0.00  0.00     0.052 H 
ENDBRANCH  36  37
ENDBRANCH  33  36
ENDBRANCH  30  33
ENDBRANCH  28  30
ENDBRANCH  23  28
ENDBRANCH  17  19
ENDBRANCH   5  14
BRANCH   1  41
ATOM     41  C   LIG d   1       4.587  -0.263  -4.320  0.00  0.00    -0.026 C 
ATOM     42  H   LIG d   1       4.735   0.807  -4.462  0.00  0.00     0.082 H 
ATOM     43  H   LIG d   1       5.542  -0.779  -4.419  0.00  0.00     0.082 H 
BRANCH  41  44
ATOM     44  C   LIG d   1       4.014  -0.518  -2.924  0.00  0.00     0.002 C 
BRANCH  44  45
ATOM     45  C   LIG d   1       2.497  -0.692  -3.019  0.00  0.00    -0.055 C 
ATOM     46  H   LIG d   1       2.012   0.273  -2.874  0.00  0.00     0.024 H 
ATOM     47  H   LIG d   1       2.237  -1.085  -4.001  0.00  0.00     0.024 H 
ATOM     48  H   LIG d   1       2.163  -1.387  -2.249  0.00  0.00     0.024 H 
ENDBRANCH  44  45
BRANCH  44  49
ATOM     49  C   LIG d   1       4.336   0.671  -2.017  0.00  0.00    -0.055 C 
ATOM     50  H   LIG d   1       5.016   0.353  -1.227  0.00  0.00     0.024 H 
ATOM     51  H   LIG d   1       4.806   1.461  -2.604  0.00  0.00     0.024 H 
ATOM     52  H   LIG d   1       3.415   1.050  -1.573  0.00  0.00     0.024 H 
ENDBRANCH  44  49
BRANCH  44  53
ATOM     53  C   LIG d   1       4.638  -1.787  -2.341  0.00  0.00    -0.055 C 
ATOM     54  H   LIG d   1       5.632  -1.932  -2.764  0.00  0.00     0.024 H 
ATOM     55  H   LIG d   1       4.715  -1.690  -1.258  0.00  0.00     0.024 H 
ATOM     56  H   LIG d   1       4.011  -2.645  -2.585  0.00  0.00     0.024 H 
ENDBRANCH  44  53
ENDBRANCH  41  44
ENDBRANCH   1  41
TORSDOF 12
ENDMDL
