MODEL 1
REMARK VINA RESULT:      -5.3      0.000      0.000
REMARK  8 active torsions:
REMARK  status: ('A' for Active; 'I' for Inactive)
REMARK    1  A    between atoms: C_3  and  O_8 
REMARK    2  A    between atoms: C_6  and  N_7 
REMARK    3  A    between atoms: O_8  and  C_9 
REMARK    4  A    between atoms: C_11  and  O_24 
REMARK    5  A    between atoms: C_13  and  O_23 
REMARK    6  A    between atoms: C_15  and  O_22 
REMARK    7  A    between atoms: C_17  and  C_20 
REMARK    8  A    between atoms: C_20  and  O_21 
ROOT
ATOM      1  C   LIG d   1       3.359   0.133  -5.894  0.00  0.00     0.231 C 
ATOM      2  H   LIG d   1       4.221   0.732  -6.184  0.00  0.00     0.108 H 
ATOM      3  C   LIG d   1       2.776   0.676  -4.586  0.00  0.00     0.145 C 
ATOM      4  H   LIG d   1       1.890   0.103  -4.317  0.00  0.00     0.068 H 
ATOM      5  C   LIG d   1       3.826   0.548  -3.477  0.00  0.00     0.115 C 
ATOM      6  H   LIG d   1       4.692   1.163  -3.723  0.00  0.00     0.065 H 
ATOM      7  C   LIG d   1       4.254  -0.917  -3.358  0.00  0.00     0.112 C 
ATOM      8  H   LIG d   1       3.398  -1.524  -3.063  0.00  0.00     0.065 H 
ATOM      9  C   LIG d   1       4.777  -1.400  -4.714  0.00  0.00     0.114 C 
ATOM     10  H   LIG d   1       5.659  -0.821  -4.989  0.00  0.00     0.065 H 
ATOM     11  O   LIG d   1       3.763  -1.225  -5.705  0.00  0.00    -0.331 OA
ENDROOT
BRANCH   1  12
ATOM     12  O   LIG d   1       2.367   0.197  -6.920  0.00  0.00    -0.461 OA
BRANCH  12  13
ATOM     13  C   LIG d   1       2.810   0.275  -8.204  0.00  0.00     0.124 A 
ATOM     14  C   LIG d   1       2.738  -0.837  -9.031  0.00  0.00    -0.018 A 
ATOM     15  C   LIG d   1       3.186  -0.759 -10.334  0.00  0.00    -0.038 A 
ATOM     16  H   LIG d   1       2.330  -1.764  -8.654  0.00  0.00     0.066 H 
ATOM     17  C   LIG d   1       3.710   0.433 -10.818  0.00  0.00     0.025 A 
ATOM     18  H   LIG d   1       3.129  -1.623 -10.978  0.00  0.00     0.064 H 
ATOM     19  C   LIG d   1       3.783   1.545  -9.989  0.00  0.00    -0.038 A 
ATOM     20  C   LIG d   1       3.328   1.467  -8.687  0.00  0.00    -0.018 A 
ATOM     21  H   LIG d   1       4.191   2.473 -10.364  0.00  0.00     0.064 H 
ATOM     22  H   LIG d   1       3.381   2.332  -8.044  0.00  0.00     0.066 H 
BRANCH  17  23
ATOM     23  N   LIG d   1       4.164   0.514 -12.138  0.00  0.00    -0.358 N 
ATOM     24  H   LIG d   1       3.974  -0.205 -12.762  0.00  0.00     0.142 HD
ATOM     25  H   LIG d   1       4.670   1.288 -12.431  0.00  0.00     0.142 HD
ENDBRANCH  17  23
ENDBRANCH  12  13
ENDBRANCH   1  12
BRANCH   3  26
ATOM     26  O   LIG d   1       2.425   2.050  -4.755  0.00  0.00    -0.383 OA
ATOM     27  H   LIG d   1       1.480   2.230  -4.657  0.00  0.00     0.210 HD
ENDBRANCH   3  26
BRANCH   9  28
ATOM     28  C   LIG d   1       5.148  -2.881  -4.619  0.00  0.00     0.073 C 
ATOM     29  H   LIG d   1       5.122  -3.327  -5.613  0.00  0.00     0.058 H 
ATOM     30  H   LIG d   1       6.152  -2.978  -4.203  0.00  0.00     0.058 H 
BRANCH  28  31
ATOM     31  O   LIG d   1       4.214  -3.552  -3.770  0.00  0.00    -0.392 OA
ATOM     32  H   LIG d   1       4.403  -4.492  -3.643  0.00  0.00     0.209 HD
ENDBRANCH  28  31
ENDBRANCH   9  28
BRANCH   5  33
ATOM     33  O   LIG d   1       3.266   0.985  -2.237  0.00  0.00    -0.386 OA
ATOM     34  H   LIG d   1       2.375   1.354  -2.315  0.00  0.00     0.210 HD
ENDBRANCH   5  33
BRANCH   7  35
ATOM     35  O   LIG d   1       5.285  -1.035  -2.376  0.00  0.00    -0.387 OA
ATOM     36  H   LIG d   1       5.162  -1.772  -1.762  0.00  0.00     0.210 HD
ENDBRANCH   7  35
TORSDOF 8
ENDMDL
MODEL 2
REMARK VINA RESULT:      -5.2      5.540      7.414
REMARK  8 active torsions:
REMARK  status: ('A' for Active; 'I' for Inactive)
REMARK    1  A    between atoms: C_3  and  O_8 
REMARK    2  A    between atoms: C_6  and  N_7 
REMARK    3  A    between atoms: O_8  and  C_9 
REMARK    4  A    between atoms: C_11  and  O_24 
REMARK    5  A    between atoms: C_13  and  O_23 
REMARK    6  A    between atoms: C_15  and  O_22 
REMARK    7  A    between atoms: C_17  and  C_20 
REMARK    8  A    between atoms: C_20  and  O_21 
ROOT
ATOM      1  C   LIG d   1       8.164   1.528  -4.112  0.00  0.00     0.231 C 
ATOM      2  H   LIG d   1       8.331   0.451  -4.088  0.00  0.00     0.108 H 
ATOM      3  C   LIG d   1       8.130   2.009  -5.565  0.00  0.00     0.145 C 
ATOM      4  H   LIG d   1       7.923   3.078  -5.590  0.00  0.00     0.068 H 
ATOM      5  C   LIG d   1       9.489   1.734  -6.218  0.00  0.00     0.115 C 
ATOM      6  H   LIG d   1       9.672   0.660  -6.239  0.00  0.00     0.065 H 
ATOM      7  C   LIG d   1      10.585   2.425  -5.402  0.00  0.00     0.112 C 
ATOM      8  H   LIG d   1      10.430   3.504  -5.424  0.00  0.00     0.065 H 
ATOM      9  C   LIG d   1      10.524   1.931  -3.954  0.00  0.00     0.114 C 
ATOM     10  H   LIG d   1      10.721   0.859  -3.929  0.00  0.00     0.065 H 
ATOM     11  O   LIG d   1       9.225   2.189  -3.418  0.00  0.00    -0.331 OA
ENDROOT
BRANCH   1  12
ATOM     12  O   LIG d   1       6.919   1.831  -3.480  0.00  0.00    -0.461 OA
BRANCH  12  13
ATOM     13  C   LIG d   1       6.113   0.781  -3.168  0.00  0.00     0.124 A 
ATOM     14  C   LIG d   1       4.866   1.008  -2.605  0.00  0.00    -0.018 A 
ATOM     15  C   LIG d   1       4.045  -0.057  -2.290  0.00  0.00    -0.038 A 
ATOM     16  H   LIG d   1       4.536   2.019  -2.413  0.00  0.00     0.066 H 
ATOM     17  C   LIG d   1       4.469  -1.356  -2.537  0.00  0.00     0.025 A 
ATOM     18  H   LIG d   1       3.074   0.119  -1.853  0.00  0.00     0.064 H 
ATOM     19  C   LIG d   1       5.718  -1.582  -3.101  0.00  0.00    -0.038 A 
ATOM     20  C   LIG d   1       6.535  -0.516  -3.421  0.00  0.00    -0.018 A 
ATOM     21  H   LIG d   1       6.049  -2.593  -3.294  0.00  0.00     0.064 H 
ATOM     22  H   LIG d   1       7.504  -0.691  -3.863  0.00  0.00     0.066 H 
BRANCH  17  23
ATOM     23  N   LIG d   1       3.638  -2.436  -2.220  0.00  0.00    -0.358 N 
ATOM     24  H   LIG d   1       2.832  -2.292  -1.700  0.00  0.00     0.142 HD
ATOM     25  H   LIG d   1       3.869  -3.330  -2.518  0.00  0.00     0.142 HD
ENDBRANCH  17  23
ENDBRANCH  12  13
ENDBRANCH   1  12
BRANCH   3  26
ATOM     26  O   LIG d   1       7.108   1.307  -6.275  0.00  0.00    -0.383 OA
ATOM     27  H   LIG d   1       7.430   0.810  -7.040  0.00  0.00     0.210 HD
ENDBRANCH   3  26
BRANCH   9  28
ATOM     28  C   LIG d   1      11.576   2.664  -3.120  0.00  0.00     0.073 C 
ATOM     29  H   LIG d   1      12.399   1.985  -2.896  0.00  0.00     0.058 H 
ATOM     30  H   LIG d   1      11.953   3.520  -3.681  0.00  0.00     0.058 H 
BRANCH  28  31
ATOM     31  O   LIG d   1      10.985   3.116  -1.900  0.00  0.00    -0.392 OA
ATOM     32  H   LIG d   1      11.624   3.444  -1.251  0.00  0.00     0.209 HD
ENDBRANCH  28  31
ENDBRANCH   9  28
BRANCH   5  33
ATOM     33  O   LIG d   1       9.490   2.245  -7.552  0.00  0.00    -0.386 OA
ATOM     34  H   LIG d   1      10.320   2.669  -7.810  0.00  0.00     0.210 HD
ENDBRANCH   5  33
BRANCH   7  35
ATOM     35  O   LIG d   1      11.863   2.115  -5.962  0.00  0.00    -0.387 OA
ATOM     36  H   LIG d   1      11.857   2.005  -6.922  0.00  0.00     0.210 HD
ENDBRANCH   7  35
TORSDOF 8
ENDMDL
MODEL 3
REMARK VINA RESULT:      -5.1      1.781      3.243
REMARK  8 active torsions:
REMARK  status: ('A' for Active; 'I' for Inactive)
REMARK    1  A    between atoms: C_3  and  O_8 
REMARK    2  A    between atoms: C_6  and  N_7 
REMARK    3  A    between atoms: O_8  and  C_9 
REMARK    4  A    between atoms: C_11  and  O_24 
REMARK    5  A    between atoms: C_13  and  O_23 
REMARK    6  A    between atoms: C_15  and  O_22 
REMARK    7  A    between atoms: C_17  and  C_20 
REMARK    8  A    between atoms: C_20  and  O_21 
ROOT
ATOM      1  C   LIG d   1       4.460  -0.502  -5.645  0.00  0.00     0.231 C 
ATOM      2  H   LIG d   1       3.637  -1.211  -5.727  0.00  0.00     0.108 H 
ATOM      3  C   LIG d   1       5.738  -1.246  -5.246  0.00  0.00     0.145 C 
ATOM      4  H   LIG d   1       6.569  -0.544  -5.203  0.00  0.00     0.068 H 
ATOM      5  C   LIG d   1       5.536  -1.888  -3.869  0.00  0.00     0.115 C 
ATOM      6  H   LIG d   1       4.738  -2.627  -3.925  0.00  0.00     0.065 H 
ATOM      7  C   LIG d   1       5.158  -0.800  -2.860  0.00  0.00     0.112 C 
ATOM      8  H   LIG d   1       5.978  -0.088  -2.766  0.00  0.00     0.065 H 
ATOM      9  C   LIG d   1       3.904  -0.071  -3.351  0.00  0.00     0.114 C 
ATOM     10  H   LIG d   1       3.073  -0.775  -3.404  0.00  0.00     0.065 H 
ATOM     11  O   LIG d   1       4.150   0.475  -4.649  0.00  0.00    -0.331 OA
ENDROOT
BRANCH   1  12
ATOM     12  O   LIG d   1       4.659   0.145  -6.903  0.00  0.00    -0.461 OA
BRANCH  12  13
ATOM     13  C   LIG d   1       3.734  -0.089  -7.872  0.00  0.00     0.124 A 
ATOM     14  C   LIG d   1       3.099   0.974  -8.496  0.00  0.00    -0.018 A 
ATOM     15  C   LIG d   1       2.161   0.737  -9.481  0.00  0.00    -0.038 A 
ATOM     16  H   LIG d   1       3.339   1.988  -8.212  0.00  0.00     0.066 H 
ATOM     17  C   LIG d   1       1.852  -0.567  -9.846  0.00  0.00     0.025 A 
ATOM     18  H   LIG d   1       1.667   1.564  -9.968  0.00  0.00     0.064 H 
ATOM     19  C   LIG d   1       2.488  -1.631  -9.220  0.00  0.00    -0.038 A 
ATOM     20  C   LIG d   1       3.431  -1.392  -8.239  0.00  0.00    -0.018 A 
ATOM     21  H   LIG d   1       2.249  -2.646  -9.503  0.00  0.00     0.064 H 
ATOM     22  H   LIG d   1       3.928  -2.219  -7.755  0.00  0.00     0.066 H 
BRANCH  17  23
ATOM     23  N   LIG d   1       0.903  -0.808 -10.845  0.00  0.00    -0.358 N 
ATOM     24  H   LIG d   1       1.094  -1.442 -11.554  0.00  0.00     0.142 HD
ATOM     25  H   LIG d   1       0.053  -0.341 -10.829  0.00  0.00     0.142 HD
ENDBRANCH  17  23
ENDBRANCH  12  13
ENDBRANCH   1  12
BRANCH   3  26
ATOM     26  O   LIG d   1       6.018  -2.262  -6.210  0.00  0.00    -0.383 OA
ATOM     27  H   LIG d   1       6.909  -2.631  -6.146  0.00  0.00     0.210 HD
ENDBRANCH   3  26
BRANCH   9  28
ATOM     28  C   LIG d   1       3.556   1.058  -2.379  0.00  0.00     0.073 C 
ATOM     29  H   LIG d   1       3.318   1.960  -2.941  0.00  0.00     0.058 H 
ATOM     30  H   LIG d   1       2.696   0.766  -1.777  0.00  0.00     0.058 H 
BRANCH  28  31
ATOM     31  O   LIG d   1       4.674   1.310  -1.523  0.00  0.00    -0.392 OA
ATOM     32  H   LIG d   1       5.340   1.894  -1.909  0.00  0.00     0.209 HD
ENDBRANCH  28  31
ENDBRANCH   9  28
BRANCH   5  33
ATOM     33  O   LIG d   1       6.748  -2.523  -3.456  0.00  0.00    -0.386 OA
ATOM     34  H   LIG d   1       6.878  -3.404  -3.833  0.00  0.00     0.210 HD
ENDBRANCH   5  33
BRANCH   7  35
ATOM     35  O   LIG d   1       4.897  -1.399  -1.588  0.00  0.00    -0.387 OA
ATOM     36  H   LIG d   1       5.649  -1.376  -0.980  0.00  0.00     0.210 HD
ENDBRANCH   7  35
TORSDOF 8
ENDMDL
MODEL 4
REMARK VINA RESULT:      -5.0      5.341      7.420
REMARK  8 active torsions:
REMARK  status: ('A' for Active; 'I' for Inactive)
REMARK    1  A    between atoms: C_3  and  O_8 
REMARK    2  A    between atoms: C_6  and  N_7 
REMARK    3  A    between atoms: O_8  and  C_9 
REMARK    4  A    between atoms: C_11  and  O_24 
REMARK    5  A    between atoms: C_13  and  O_23 
REMARK    6  A    between atoms: C_15  and  O_22 
REMARK    7  A    between atoms: C_17  and  C_20 
REMARK    8  A    between atoms: C_20  and  O_21 
ROOT
ATOM      1  C   LIG d   1       7.253  -2.026  -3.656  0.00  0.00     0.231 C 
ATOM      2  H   LIG d   1       7.731  -2.051  -2.677  0.00  0.00     0.108 H 
ATOM      3  C   LIG d   1       7.371  -0.618  -4.246  0.00  0.00     0.145 C 
ATOM      4  H   LIG d   1       6.930  -0.603  -5.242  0.00  0.00     0.068 H 
ATOM      5  C   LIG d   1       6.630   0.371  -3.341  0.00  0.00     0.115 C 
ATOM      6  H   LIG d   1       7.104   0.393  -2.360  0.00  0.00     0.065 H 
ATOM      7  C   LIG d   1       5.173  -0.078  -3.196  0.00  0.00     0.112 C 
ATOM      8  H   LIG d   1       4.684  -0.051  -4.170  0.00  0.00     0.065 H 
ATOM      9  C   LIG d   1       5.138  -1.508  -2.648  0.00  0.00     0.114 C 
ATOM     10  H   LIG d   1       5.589  -1.526  -1.656  0.00  0.00     0.065 H 
ATOM     11  O   LIG d   1       5.872  -2.369  -3.521  0.00  0.00    -0.331 OA
ENDROOT
BRANCH   1  12
ATOM     12  O   LIG d   1       7.895  -2.962  -4.523  0.00  0.00    -0.461 OA
BRANCH  12  13
ATOM     13  C   LIG d   1       8.529  -4.013  -3.937  0.00  0.00     0.124 A 
ATOM     14  C   LIG d   1       9.207  -3.835  -2.740  0.00  0.00    -0.018 A 
ATOM     15  C   LIG d   1       9.849  -4.901  -2.144  0.00  0.00    -0.038 A 
ATOM     16  H   LIG d   1       9.231  -2.860  -2.274  0.00  0.00     0.066 H 
ATOM     17  C   LIG d   1       9.817  -6.154  -2.743  0.00  0.00     0.025 A 
ATOM     18  H   LIG d   1      10.376  -4.762  -1.212  0.00  0.00     0.064 H 
ATOM     19  C   LIG d   1       9.139  -6.331  -3.941  0.00  0.00    -0.038 A 
ATOM     20  C   LIG d   1       8.492  -5.265  -4.533  0.00  0.00    -0.018 A 
ATOM     21  H   LIG d   1       9.113  -7.306  -4.408  0.00  0.00     0.064 H 
ATOM     22  H   LIG d   1       7.961  -5.404  -5.463  0.00  0.00     0.066 H 
BRANCH  17  23
ATOM     23  N   LIG d   1      10.467  -7.235  -2.139  0.00  0.00    -0.358 N 
ATOM     24  H   LIG d   1      11.369  -7.131  -1.796  0.00  0.00     0.142 HD
ATOM     25  H   LIG d   1      10.017  -8.091  -2.064  0.00  0.00     0.142 HD
ENDBRANCH  17  23
ENDBRANCH  12  13
ENDBRANCH   1  12
BRANCH   3  26
ATOM     26  O   LIG d   1       8.749  -0.250  -4.328  0.00  0.00    -0.383 OA
ATOM     27  H   LIG d   1       9.250  -0.415  -3.517  0.00  0.00     0.210 HD
ENDBRANCH   3  26
BRANCH   9  28
ATOM     28  C   LIG d   1       3.688  -1.985  -2.559  0.00  0.00     0.073 C 
ATOM     29  H   LIG d   1       3.667  -3.072  -2.487  0.00  0.00     0.058 H 
ATOM     30  H   LIG d   1       3.216  -1.552  -1.677  0.00  0.00     0.058 H 
BRANCH  28  31
ATOM     31  O   LIG d   1       2.978  -1.571  -3.730  0.00  0.00    -0.392 OA
ATOM     32  H   LIG d   1       2.737  -2.298  -4.321  0.00  0.00     0.209 HD
ENDBRANCH  28  31
ENDBRANCH   9  28
BRANCH   5  33
ATOM     33  O   LIG d   1       6.673   1.675  -3.922  0.00  0.00    -0.386 OA
ATOM     34  H   LIG d   1       5.921   1.875  -4.497  0.00  0.00     0.210 HD
ENDBRANCH   5  33
BRANCH   7  35
ATOM     35  O   LIG d   1       4.491   0.797  -2.295  0.00  0.00    -0.387 OA
ATOM     36  H   LIG d   1       4.812   0.753  -1.384  0.00  0.00     0.210 HD
ENDBRANCH   7  35
TORSDOF 8
ENDMDL
MODEL 5
REMARK VINA RESULT:      -5.0      6.248      8.153
REMARK  8 active torsions:
REMARK  status: ('A' for Active; 'I' for Inactive)
REMARK    1  A    between atoms: C_3  and  O_8 
REMARK    2  A    between atoms: C_6  and  N_7 
REMARK    3  A    between atoms: O_8  and  C_9 
REMARK    4  A    between atoms: C_11  and  O_24 
REMARK    5  A    between atoms: C_13  and  O_23 
REMARK    6  A    between atoms: C_15  and  O_22 
REMARK    7  A    between atoms: C_17  and  C_20 
REMARK    8  A    between atoms: C_20  and  O_21 
ROOT
ATOM      1  C   LIG d   1       9.064   1.821  -3.656  0.00  0.00     0.231 C 
ATOM      2  H   LIG d   1       9.087   1.229  -2.741  0.00  0.00     0.108 H 
ATOM      3  C   LIG d   1      10.279   1.473  -4.520  0.00  0.00     0.145 C 
ATOM      4  H   LIG d   1      10.236   2.035  -5.452  0.00  0.00     0.068 H 
ATOM      5  C   LIG d   1      11.558   1.839  -3.760  0.00  0.00     0.115 C 
ATOM      6  H   LIG d   1      11.627   1.240  -2.853  0.00  0.00     0.065 H 
ATOM      7  C   LIG d   1      11.514   3.325  -3.391  0.00  0.00     0.112 C 
ATOM      8  H   LIG d   1      11.497   3.926  -4.300  0.00  0.00     0.065 H 
ATOM      9  C   LIG d   1      10.251   3.603  -2.572  0.00  0.00     0.114 C 
ATOM     10  H   LIG d   1      10.289   3.033  -1.643  0.00  0.00     0.065 H 
ATOM     11  O   LIG d   1       9.101   3.211  -3.325  0.00  0.00    -0.331 OA
ENDROOT
BRANCH   1  12
ATOM     12  O   LIG d   1       7.866   1.535  -4.379  0.00  0.00    -0.461 OA
BRANCH  12  13
ATOM     13  C   LIG d   1       6.953   0.733  -3.769  0.00  0.00     0.124 A 
ATOM     14  C   LIG d   1       7.063  -0.646  -3.871  0.00  0.00    -0.018 A 
ATOM     15  C   LIG d   1       6.137  -1.461  -3.251  0.00  0.00    -0.038 A 
ATOM     16  H   LIG d   1       7.873  -1.083  -4.436  0.00  0.00     0.066 H 
ATOM     17  C   LIG d   1       5.095  -0.900  -2.524  0.00  0.00     0.025 A 
ATOM     18  H   LIG d   1       6.222  -2.534  -3.329  0.00  0.00     0.064 H 
ATOM     19  C   LIG d   1       4.986   0.481  -2.423  0.00  0.00    -0.038 A 
ATOM     20  C   LIG d   1       5.916   1.294  -3.039  0.00  0.00    -0.018 A 
ATOM     21  H   LIG d   1       4.175   0.919  -1.858  0.00  0.00     0.064 H 
ATOM     22  H   LIG d   1       5.833   2.368  -2.957  0.00  0.00     0.066 H 
BRANCH  17  23
ATOM     23  N   LIG d   1       4.156  -1.724  -1.895  0.00  0.00    -0.358 N 
ATOM     24  H   LIG d   1       3.536  -2.248  -2.425  0.00  0.00     0.142 HD
ATOM     25  H   LIG d   1       4.125  -1.772  -0.926  0.00  0.00     0.142 HD
ENDBRANCH  17  23
ENDBRANCH  12  13
ENDBRANCH   1  12
BRANCH   3  26
ATOM     26  O   LIG d   1      10.276   0.073  -4.804  0.00  0.00    -0.383 OA
ATOM     27  H   LIG d   1      10.109  -0.140  -5.733  0.00  0.00     0.210 HD
ENDBRANCH   3  26
BRANCH   9  28
ATOM     28  C   LIG d   1      10.168   5.097  -2.253  0.00  0.00     0.073 C 
ATOM     29  H   LIG d   1      10.817   5.649  -2.931  0.00  0.00     0.058 H 
ATOM     30  H   LIG d   1       9.140   5.438  -2.374  0.00  0.00     0.058 H 
BRANCH  28  31
ATOM     31  O   LIG d   1      10.588   5.319  -0.904  0.00  0.00    -0.392 OA
ATOM     32  H   LIG d   1       9.910   5.717  -0.342  0.00  0.00     0.209 HD
ENDBRANCH  28  31
ENDBRANCH   9  28
BRANCH   5  33
ATOM     33  O   LIG d   1      12.695   1.585  -4.588  0.00  0.00    -0.386 OA
ATOM     34  H   LIG d   1      13.541   1.795  -4.170  0.00  0.00     0.210 HD
ENDBRANCH   5  33
BRANCH   7  35
ATOM     35  O   LIG d   1      12.670   3.659  -2.619  0.00  0.00    -0.387 OA
ATOM     36  H   LIG d   1      12.660   3.302  -1.721  0.00  0.00     0.210 HD
ENDBRANCH   7  35
TORSDOF 8
ENDMDL
MODEL 6
REMARK VINA RESULT:      -4.9      9.961     10.912
REMARK  8 active torsions:
REMARK  status: ('A' for Active; 'I' for Inactive)
REMARK    1  A    between atoms: C_3  and  O_8 
REMARK    2  A    between atoms: C_6  and  N_7 
REMARK    3  A    between atoms: O_8  and  C_9 
REMARK    4  A    between atoms: C_11  and  O_24 
REMARK    5  A    between atoms: C_13  and  O_23 
REMARK    6  A    between atoms: C_15  and  O_22 
REMARK    7  A    between atoms: C_17  and  C_20 
REMARK    8  A    between atoms: C_20  and  O_21 
ROOT
ATOM      1  C   LIG d   1      11.218   6.704  -3.626  0.00  0.00     0.231 C 
ATOM      2  H   LIG d   1      10.496   5.959  -3.959  0.00  0.00     0.108 H 
ATOM      3  C   LIG d   1      12.313   6.023  -2.801  0.00  0.00     0.145 C 
ATOM      4  H   LIG d   1      13.057   6.760  -2.503  0.00  0.00     0.068 H 
ATOM      5  C   LIG d   1      11.685   5.395  -1.553  0.00  0.00     0.115 C 
ATOM      6  H   LIG d   1      10.978   4.621  -1.851  0.00  0.00     0.065 H 
ATOM      7  C   LIG d   1      10.951   6.481  -0.761  0.00  0.00     0.112 C 
ATOM      8  H   LIG d   1      11.667   7.229  -0.419  0.00  0.00     0.065 H 
ATOM      9  C   LIG d   1       9.910   7.147  -1.665  0.00  0.00     0.114 C 
ATOM     10  H   LIG d   1       9.171   6.407  -1.972  0.00  0.00     0.065 H 
ATOM     11  O   LIG d   1      10.557   7.683  -2.821  0.00  0.00    -0.331 OA
ENDROOT
BRANCH   1  12
ATOM     12  O   LIG d   1      11.804   7.340  -4.763  0.00  0.00    -0.461 OA
BRANCH  12  13
ATOM     13  C   LIG d   1      10.956   7.771  -5.736  0.00  0.00     0.124 A 
ATOM     14  C   LIG d   1      10.679   9.124  -5.865  0.00  0.00    -0.018 A 
ATOM     15  C   LIG d   1       9.820   9.562  -6.854  0.00  0.00    -0.038 A 
ATOM     16  H   LIG d   1      11.136   9.835  -5.193  0.00  0.00     0.066 H 
ATOM     17  C   LIG d   1       9.233   8.647  -7.718  0.00  0.00     0.025 A 
ATOM     18  H   LIG d   1       9.604  10.615  -6.955  0.00  0.00     0.064 H 
ATOM     19  C   LIG d   1       9.511   7.293  -7.587  0.00  0.00    -0.038 A 
ATOM     20  C   LIG d   1      10.375   6.857  -6.602  0.00  0.00    -0.018 A 
ATOM     21  H   LIG d   1       9.054   6.580  -8.260  0.00  0.00     0.064 H 
ATOM     22  H   LIG d   1      10.594   5.804  -6.504  0.00  0.00     0.066 H 
BRANCH  17  23
ATOM     23  N   LIG d   1       8.363   9.090  -8.720  0.00  0.00    -0.358 N 
ATOM     24  H   LIG d   1       8.482   9.969  -9.113  0.00  0.00     0.142 HD
ATOM     25  H   LIG d   1       7.639   8.518  -9.021  0.00  0.00     0.142 HD
ENDBRANCH  17  23
ENDBRANCH  12  13
ENDBRANCH   1  12
BRANCH   3  26
ATOM     26  O   LIG d   1      12.937   5.005  -3.586  0.00  0.00    -0.383 OA
ATOM     27  H   LIG d   1      12.852   5.136  -4.540  0.00  0.00     0.210 HD
ENDBRANCH   3  26
BRANCH   9  28
ATOM     28  C   LIG d   1       9.216   8.275  -0.898  0.00  0.00     0.073 C 
ATOM     29  H   LIG d   1       9.544   8.263   0.141  0.00  0.00     0.058 H 
ATOM     30  H   LIG d   1       9.474   9.233  -1.350  0.00  0.00     0.058 H 
BRANCH  28  31
ATOM     31  O   LIG d   1       7.800   8.087  -0.954  0.00  0.00    -0.392 OA
ATOM     32  H   LIG d   1       7.467   7.868  -1.835  0.00  0.00     0.209 HD
ENDBRANCH  28  31
ENDBRANCH   9  28
BRANCH   5  33
ATOM     33  O   LIG d   1      12.709   4.819  -0.740  0.00  0.00    -0.386 OA
ATOM     34  H   LIG d   1      13.595   4.876  -1.125  0.00  0.00     0.210 HD
ENDBRANCH   5  33
BRANCH   7  35
ATOM     35  O   LIG d   1      10.300   5.891   0.367  0.00  0.00    -0.387 OA
ATOM     36  H   LIG d   1      10.897   5.674   1.097  0.00  0.00     0.210 HD
ENDBRANCH   7  35
TORSDOF 8
ENDMDL
MODEL 7
REMARK VINA RESULT:      -4.9      3.375      6.275
REMARK  8 active torsions:
REMARK  status: ('A' for Active; 'I' for Inactive)
REMARK    1  A    between atoms: C_3  and  O_8 
REMARK    2  A    between atoms: C_6  and  N_7 
REMARK    3  A    between atoms: O_8  and  C_9 
REMARK    4  A    between atoms: C_11  and  O_24 
REMARK    5  A    between atoms: C_13  and  O_23 
REMARK    6  A    between atoms: C_15  and  O_22 
REMARK    7  A    between atoms: C_17  and  C_20 
REMARK    8  A    between atoms: C_20  and  O_21 
ROOT
ATOM      1  C   LIG d   1       3.850   0.117  -7.876  0.00  0.00     0.231 C 
ATOM      2  H   LIG d   1       2.893   0.543  -7.576  0.00  0.00     0.108 H 
ATOM      3  C   LIG d   1       4.392   0.879  -9.088  0.00  0.00     0.145 C 
ATOM      4  H   LIG d   1       5.367   0.479  -9.363  0.00  0.00     0.068 H 
ATOM      5  C   LIG d   1       3.421   0.714 -10.261  0.00  0.00     0.115 C 
ATOM      6  H   LIG d   1       2.461   1.160 -10.005  0.00  0.00     0.065 H 
ATOM      7  C   LIG d   1       3.233  -0.778 -10.550  0.00  0.00     0.112 C 
ATOM      8  H   LIG d   1       4.184  -1.213 -10.856  0.00  0.00     0.065 H 
ATOM      9  C   LIG d   1       2.737  -1.478  -9.281  0.00  0.00     0.114 C 
ATOM     10  H   LIG d   1       1.766  -1.071  -8.999  0.00  0.00     0.065 H 
ATOM     11  O   LIG d   1       3.671  -1.258  -8.222  0.00  0.00    -0.331 OA
ENDROOT
BRANCH   1  12
ATOM     12  O   LIG d   1       4.777   0.220  -6.794  0.00  0.00    -0.461 OA
BRANCH  12  13
ATOM     13  C   LIG d   1       4.475  -0.458  -5.654  0.00  0.00     0.124 A 
ATOM     14  C   LIG d   1       5.262  -1.528  -5.254  0.00  0.00    -0.018 A 
ATOM     15  C   LIG d   1       4.956  -2.215  -4.096  0.00  0.00    -0.038 A 
ATOM     16  H   LIG d   1       6.114  -1.823  -5.848  0.00  0.00     0.066 H 
ATOM     17  C   LIG d   1       3.860  -1.836  -3.332  0.00  0.00     0.025 A 
ATOM     18  H   LIG d   1       5.569  -3.048  -3.784  0.00  0.00     0.064 H 
ATOM     19  C   LIG d   1       3.073  -0.765  -3.734  0.00  0.00    -0.038 A 
ATOM     20  C   LIG d   1       3.383  -0.075  -4.889  0.00  0.00    -0.018 A 
ATOM     21  H   LIG d   1       2.220  -0.469  -3.140  0.00  0.00     0.064 H 
ATOM     22  H   LIG d   1       2.773   0.760  -5.199  0.00  0.00     0.066 H 
BRANCH  17  23
ATOM     23  N   LIG d   1       3.551  -2.531  -2.159  0.00  0.00    -0.358 N 
ATOM     24  H   LIG d   1       4.189  -2.562  -1.429  0.00  0.00     0.142 HD
ATOM     25  H   LIG d   1       2.697  -2.985  -2.074  0.00  0.00     0.142 HD
ENDBRANCH  17  23
ENDBRANCH  12  13
ENDBRANCH   1  12
BRANCH   3  26
ATOM     26  O   LIG d   1       4.518   2.264  -8.762  0.00  0.00    -0.383 OA
ATOM     27  H   LIG d   1       3.703   2.772  -8.882  0.00  0.00     0.210 HD
ENDBRANCH   3  26
BRANCH   9  28
ATOM     28  C   LIG d   1       2.606  -2.979  -9.544  0.00  0.00     0.073 C 
ATOM     29  H   LIG d   1       3.313  -3.275 -10.319  0.00  0.00     0.058 H 
ATOM     30  H   LIG d   1       2.821  -3.529  -8.628  0.00  0.00     0.058 H 
BRANCH  28  31
ATOM     31  O   LIG d   1       1.275  -3.272  -9.975  0.00  0.00    -0.392 OA
ATOM     32  H   LIG d   1       0.850  -2.549 -10.458  0.00  0.00     0.209 HD
ENDBRANCH  28  31
ENDBRANCH   9  28
BRANCH   5  33
ATOM     33  O   LIG d   1       3.955   1.361 -11.418  0.00  0.00    -0.386 OA
ATOM     34  H   LIG d   1       4.797   0.995 -11.720  0.00  0.00     0.210 HD
ENDBRANCH   5  33
BRANCH   7  35
ATOM     35  O   LIG d   1       2.273  -0.945 -11.595  0.00  0.00    -0.387 OA
ATOM     36  H   LIG d   1       2.003  -1.862 -11.741  0.00  0.00     0.210 HD
ENDBRANCH   7  35
TORSDOF 8
ENDMDL
MODEL 8
REMARK VINA RESULT:      -4.9      4.837      6.063
REMARK  8 active torsions:
REMARK  status: ('A' for Active; 'I' for Inactive)
REMARK    1  A    between atoms: C_3  and  O_8 
REMARK    2  A    between atoms: C_6  and  N_7 
REMARK    3  A    between atoms: O_8  and  C_9 
REMARK    4  A    between atoms: C_11  and  O_24 
REMARK    5  A    between atoms: C_13  and  O_23 
REMARK    6  A    between atoms: C_15  and  O_22 
REMARK    7  A    between atoms: C_17  and  C_20 
REMARK    8  A    between atoms: C_20  and  O_21 
ROOT
ATOM      1  C   LIG d   1       6.570  -0.033  -4.023  0.00  0.00     0.231 C 
ATOM      2  H   LIG d   1       7.188  -0.245  -3.151  0.00  0.00     0.108 H 
ATOM      3  C   LIG d   1       5.235   0.565  -3.571  0.00  0.00     0.145 C 
ATOM      4  H   LIG d   1       4.633   0.814  -4.444  0.00  0.00     0.068 H 
ATOM      5  C   LIG d   1       4.490  -0.462  -2.712  0.00  0.00     0.115 C 
ATOM      6  H   LIG d   1       5.068  -0.673  -1.813  0.00  0.00     0.065 H 
ATOM      7  C   LIG d   1       4.306  -1.751  -3.517  0.00  0.00     0.112 C 
ATOM      8  H   LIG d   1       3.685  -1.550  -4.390  0.00  0.00     0.065 H 
ATOM      9  C   LIG d   1       5.677  -2.259  -3.974  0.00  0.00     0.114 C 
ATOM     10  H   LIG d   1       6.283  -2.500  -3.101  0.00  0.00     0.065 H 
ATOM     11  O   LIG d   1       6.328  -1.245  -4.742  0.00  0.00    -0.331 OA
ENDROOT
BRANCH   1  12
ATOM     12  O   LIG d   1       7.246   0.897  -4.871  0.00  0.00    -0.461 OA
BRANCH  12  13
ATOM     13  C   LIG d   1       8.517   1.237  -4.526  0.00  0.00     0.124 A 
ATOM     14  C   LIG d   1       8.739   2.283  -3.642  0.00  0.00    -0.018 A 
ATOM     15  C   LIG d   1      10.029   2.628  -3.290  0.00  0.00    -0.038 A 
ATOM     16  H   LIG d   1       7.902   2.828  -3.229  0.00  0.00     0.066 H 
ATOM     17  C   LIG d   1      11.104   1.928  -3.821  0.00  0.00     0.025 A 
ATOM     18  H   LIG d   1      10.202   3.442  -2.602  0.00  0.00     0.064 H 
ATOM     19  C   LIG d   1      10.880   0.881  -4.705  0.00  0.00    -0.038 A 
ATOM     20  C   LIG d   1       9.589   0.533  -5.052  0.00  0.00    -0.018 A 
ATOM     21  H   LIG d   1      11.716   0.335  -5.119  0.00  0.00     0.064 H 
ATOM     22  H   LIG d   1       9.416  -0.283  -5.737  0.00  0.00     0.066 H 
BRANCH  17  23
ATOM     23  N   LIG d   1      12.411   2.275  -3.464  0.00  0.00    -0.358 N 
ATOM     24  H   LIG d   1      12.841   3.040  -3.878  0.00  0.00     0.142 HD
ATOM     25  H   LIG d   1      12.889   1.751  -2.802  0.00  0.00     0.142 HD
ENDBRANCH  17  23
ENDBRANCH  12  13
ENDBRANCH   1  12
BRANCH   3  26
ATOM     26  O   LIG d   1       5.477   1.745  -2.803  0.00  0.00    -0.383 OA
ATOM     27  H   LIG d   1       6.295   1.719  -2.289  0.00  0.00     0.210 HD
ENDBRANCH   3  26
BRANCH   9  28
ATOM     28  C   LIG d   1       5.496  -3.513  -4.832  0.00  0.00     0.073 C 
ATOM     29  H   LIG d   1       6.191  -3.482  -5.671  0.00  0.00     0.058 H 
ATOM     30  H   LIG d   1       5.694  -4.398  -4.228  0.00  0.00     0.058 H 
BRANCH  28  31
ATOM     31  O   LIG d   1       4.155  -3.562  -5.325  0.00  0.00    -0.392 OA
ATOM     32  H   LIG d   1       3.870  -2.754  -5.773  0.00  0.00     0.209 HD
ENDBRANCH  28  31
ENDBRANCH   9  28
BRANCH   5  33
ATOM     33  O   LIG d   1       3.211   0.060  -2.345  0.00  0.00    -0.386 OA
ATOM     34  H   LIG d   1       3.183   0.446  -1.459  0.00  0.00     0.210 HD
ENDBRANCH   5  33
BRANCH   7  35
ATOM     35  O   LIG d   1       3.677  -2.740  -2.699  0.00  0.00    -0.387 OA
ATOM     36  H   LIG d   1       2.909  -2.415  -2.209  0.00  0.00     0.210 HD
ENDBRANCH   7  35
TORSDOF 8
ENDMDL
MODEL 9
REMARK VINA RESULT:      -4.9      3.464      6.691
REMARK  8 active torsions:
REMARK  status: ('A' for Active; 'I' for Inactive)
REMARK    1  A    between atoms: C_3  and  O_8 
REMARK    2  A    between atoms: C_6  and  N_7 
REMARK    3  A    between atoms: O_8  and  C_9 
REMARK    4  A    between atoms: C_11  and  O_24 
REMARK    5  A    between atoms: C_13  and  O_23 
REMARK    6  A    between atoms: C_15  and  O_22 
REMARK    7  A    between atoms: C_17  and  C_20 
REMARK    8  A    between atoms: C_20  and  O_21 
ROOT
ATOM      1  C   LIG d   1       4.738  -3.794  -5.690  0.00  0.00     0.231 C 
ATOM      2  H   LIG d   1       5.772  -4.004  -5.963  0.00  0.00     0.108 H 
ATOM      3  C   LIG d   1       3.824  -4.871  -6.280  0.00  0.00     0.145 C 
ATOM      4  H   LIG d   1       2.796  -4.684  -5.974  0.00  0.00     0.068 H 
ATOM      5  C   LIG d   1       3.919  -4.829  -7.809  0.00  0.00     0.115 C 
ATOM      6  H   LIG d   1       4.937  -5.067  -8.117  0.00  0.00     0.065 H 
ATOM      7  C   LIG d   1       3.552  -3.424  -8.296  0.00  0.00     0.112 C 
ATOM      8  H   LIG d   1       2.517  -3.206  -8.032  0.00  0.00     0.065 H 
ATOM      9  C   LIG d   1       4.474  -2.402  -7.626  0.00  0.00     0.114 C 
ATOM     10  H   LIG d   1       5.505  -2.595  -7.924  0.00  0.00     0.065 H 
ATOM     11  O   LIG d   1       4.359  -2.516  -6.206  0.00  0.00    -0.331 OA
ENDROOT
BRANCH   1  12
ATOM     12  O   LIG d   1       4.613  -3.789  -4.267  0.00  0.00    -0.461 OA
BRANCH  12  13
ATOM     13  C   LIG d   1       4.675  -2.581  -3.645  0.00  0.00     0.124 A 
ATOM     14  C   LIG d   1       5.872  -1.880  -3.611  0.00  0.00    -0.018 A 
ATOM     15  C   LIG d   1       5.936  -0.652  -2.981  0.00  0.00    -0.038 A 
ATOM     16  H   LIG d   1       6.754  -2.294  -4.077  0.00  0.00     0.066 H 
ATOM     17  C   LIG d   1       4.802  -0.120  -2.382  0.00  0.00     0.025 A 
ATOM     18  H   LIG d   1       6.867  -0.106  -2.955  0.00  0.00     0.064 H 
ATOM     19  C   LIG d   1       3.605  -0.823  -2.417  0.00  0.00    -0.038 A 
ATOM     20  C   LIG d   1       3.541  -2.047  -3.052  0.00  0.00    -0.018 A 
ATOM     21  H   LIG d   1       2.722  -0.409  -1.951  0.00  0.00     0.064 H 
ATOM     22  H   LIG d   1       2.609  -2.592  -3.082  0.00  0.00     0.066 H 
BRANCH  17  23
ATOM     23  N   LIG d   1       4.865   1.124  -1.745  0.00  0.00    -0.358 N 
ATOM     24  H   LIG d   1       4.338   1.867  -2.077  0.00  0.00     0.142 HD
ATOM     25  H   LIG d   1       5.438   1.244  -0.971  0.00  0.00     0.142 HD
ENDBRANCH  17  23
ENDBRANCH  12  13
ENDBRANCH   1  12
BRANCH   3  26
ATOM     26  O   LIG d   1       4.237  -6.155  -5.810  0.00  0.00    -0.383 OA
ATOM     27  H   LIG d   1       4.266  -6.231  -4.847  0.00  0.00     0.210 HD
ENDBRANCH   3  26
BRANCH   9  28
ATOM     28  C   LIG d   1       4.072  -0.991  -8.060  0.00  0.00     0.073 C 
ATOM     29  H   LIG d   1       4.876  -0.295  -7.824  0.00  0.00     0.058 H 
ATOM     30  H   LIG d   1       3.887  -0.981  -9.135  0.00  0.00     0.058 H 
BRANCH  28  31
ATOM     31  O   LIG d   1       2.884  -0.601  -7.368  0.00  0.00    -0.392 OA
ATOM     32  H   LIG d   1       2.720   0.352  -7.375  0.00  0.00     0.209 HD
ENDBRANCH  28  31
ENDBRANCH   9  28
BRANCH   5  33
ATOM     33  O   LIG d   1       3.015  -5.782  -8.370  0.00  0.00    -0.386 OA
ATOM     34  H   LIG d   1       2.232  -5.388  -8.779  0.00  0.00     0.210 HD
ENDBRANCH   5  33
BRANCH   7  35
ATOM     35  O   LIG d   1       3.708  -3.355  -9.715  0.00  0.00    -0.387 OA
ATOM     36  H   LIG d   1       2.874  -3.355 -10.203  0.00  0.00     0.210 HD
ENDBRANCH   7  35
TORSDOF 8
ENDMDL
