MODEL 1
REMARK VINA RESULT:      -5.9      0.000      0.000
REMARK  14 active torsions:
REMARK  status: ('A' for Active; 'I' for Inactive)
REMARK    1  A    between atoms: C_1  and  C_2 
REMARK    2  A    between atoms: C_6  and  O_31 
REMARK    3  A    between atoms: C_12  and  C_13 
REMARK    4  A    between atoms: C_13  and  C_14 
REMARK       I    between atoms: C_14  and  N_16 
REMARK    5  A    between atoms: N_19  and  C_22 
REMARK    6  A    between atoms: C_22  and  C_23 
REMARK       I    between atoms: C_23  and  N_25 
REMARK    7  A    between atoms: N_25  and  C_26 
REMARK    8  A    between atoms: C_26  and  C_27 
REMARK    9  A    between atoms: C_27  and  N_28 
REMARK   10  A    between atoms: N_28  and  C_29 
REMARK   11  A    between atoms: N_28  and  C_30 
REMARK   12  A    between atoms: O_31  and  C_32 
REMARK   13  A    between atoms: C_32  and  C_33 
REMARK   14  A    between atoms: C_33  and  C_35 
ROOT
ATOM      1  C   LIG d   1       7.545   2.045  -8.652  0.00  0.00     0.220 C 
ATOM      2  O   LIG d   1       7.576   3.168  -9.107  0.00  0.00    -0.275 OA
ATOM      3  N   LIG d   1       6.445   1.282  -8.814  0.00  0.00    -0.299 N 
ATOM      4  C   LIG d   1       6.384  -0.082  -8.265  0.00  0.00     0.028 C 
ATOM      5  C   LIG d   1       5.096  -0.220  -7.447  0.00  0.00     0.015 C 
ATOM      6  N   LIG d   1       3.948   0.167  -8.278  0.00  0.00    -0.291 N 
ATOM      7  C   LIG d   1       4.029   1.579  -8.675  0.00  0.00     0.015 C 
ATOM      8  C   LIG d   1       5.272   1.794  -9.537  0.00  0.00     0.028 C 
ATOM      9  H   LIG d   1       6.379  -0.805  -9.081  0.00  0.00     0.048 H 
ATOM     10  H   LIG d   1       7.247  -0.256  -7.622  0.00  0.00     0.048 H 
ATOM     11  H   LIG d   1       4.980  -1.255  -7.125  0.00  0.00     0.044 H 
ATOM     12  H   LIG d   1       5.148   0.430  -6.574  0.00  0.00     0.044 H 
ATOM     13  H   LIG d   1       3.139   1.850  -9.243  0.00  0.00     0.044 H 
ATOM     14  H   LIG d   1       4.096   2.203  -7.784  0.00  0.00     0.044 H 
ATOM     15  H   LIG d   1       5.399   2.859  -9.736  0.00  0.00     0.048 H 
ATOM     16  H   LIG d   1       5.158   1.255 -10.478  0.00  0.00     0.048 H 
ENDROOT
BRANCH   1  17
ATOM     17  C   LIG d   1       8.735   1.500  -7.907  0.00  0.00     0.056 C 
ATOM     18  H   LIG d   1       9.596   1.462  -8.574  0.00  0.00     0.041 H 
ATOM     19  H   LIG d   1       8.511   0.496  -7.546  0.00  0.00     0.041 H 
BRANCH  17  20
ATOM     20  C   LIG d   1       9.048   2.396  -6.736  0.00  0.00     0.049 A 
ATOM     21  C   LIG d   1      10.051   3.308  -6.824  0.00  0.00    -0.029 A 
ATOM     22  C   LIG d   1      10.317   4.161  -5.664  0.00  0.00     0.021 A 
ATOM     23  C   LIG d   1       9.530   4.001  -4.507  0.00  0.00     0.143 A 
ATOM     24  C   LIG d   1      11.332   5.124  -5.693  0.00  0.00    -0.047 A 
ATOM     25  C   LIG d   1       9.773   4.804  -3.404  0.00  0.00     0.023 A 
ATOM     26  O   LIG d   1       8.550   3.071  -4.483  0.00  0.00    -0.422 OA
ATOM     27  C   LIG d   1      10.782   5.752  -3.450  0.00  0.00     0.124 A 
ATOM     28  H   LIG d   1       9.177   4.691  -2.510  0.00  0.00     0.069 H 
ATOM     29  C   LIG d   1      11.557   5.906  -4.598  0.00  0.00    -0.019 A 
ATOM     30  H   LIG d   1      12.341   6.648  -4.621  0.00  0.00     0.065 H 
ATOM     31  C   LIG d   1       8.303   2.287  -5.542  0.00  0.00     0.341 A 
ATOM     32  O   LIG d   1       7.410   1.463  -5.475  0.00  0.00    -0.245 OA
ATOM     33  H   LIG d   1      11.935   5.246  -6.580  0.00  0.00     0.063 H 
BRANCH  21  34
ATOM     34  C   LIG d   1      10.866   3.442  -8.085  0.00  0.00    -0.038 C 
ATOM     35  H   LIG d   1      10.653   4.402  -8.555  0.00  0.00     0.028 H 
ATOM     36  H   LIG d   1      11.926   3.384  -7.841  0.00  0.00     0.028 H 
ATOM     37  H   LIG d   1      10.607   2.636  -8.772  0.00  0.00     0.028 H 
ENDBRANCH  21  34
BRANCH  27  38
ATOM     38  O   LIG d   1      11.019   6.537  -2.368  0.00  0.00    -0.488 OA
BRANCH  38  39
ATOM     39  C   LIG d   1      10.393   6.155  -1.141  0.00  0.00     0.110 C 
ATOM     40  H   LIG d   1       9.710   6.941  -0.821  0.00  0.00     0.074 H 
ATOM     41  H   LIG d   1       9.838   5.228  -1.289  0.00  0.00     0.074 H 
BRANCH  39  42
ATOM     42  C   LIG d   1      11.447   5.945  -0.084  0.00  0.00    -0.043 C 
ATOM     43  C   LIG d   1      11.103   5.853   1.176  0.00  0.00    -0.097 C 
ATOM     44  H   LIG d   1      11.857   5.703   1.933  0.00  0.00     0.053 H 
ATOM     45  H   LIG d   1      10.063   5.929   1.459  0.00  0.00     0.053 H 
BRANCH  42  46
ATOM     46  C   LIG d   1      12.898   5.838  -0.478  0.00  0.00    -0.041 C 
ATOM     47  H   LIG d   1      13.271   6.823  -0.758  0.00  0.00     0.028 H 
ATOM     48  H   LIG d   1      13.476   5.456   0.363  0.00  0.00     0.028 H 
ATOM     49  H   LIG d   1      12.995   5.158  -1.324  0.00  0.00     0.028 H 
ENDBRANCH  42  46
ENDBRANCH  39  42
ENDBRANCH  38  39
ENDBRANCH  27  38
ENDBRANCH  17  20
ENDBRANCH   1  17
BRANCH   6  50
ATOM     50  C   LIG d   1       2.681  -0.115  -7.590  0.00  0.00     0.076 C 
ATOM     51  H   LIG d   1       1.877   0.451  -8.061  0.00  0.00     0.052 H 
ATOM     52  H   LIG d   1       2.462  -1.181  -7.656  0.00  0.00     0.052 H 
BRANCH  50  53
ATOM     53  C   LIG d   1       2.795   0.285  -6.142  0.00  0.00     0.227 C 
ATOM     54  O   LIG d   1       2.729   1.454  -5.829  0.00  0.00    -0.274 OA
ATOM     55  N   LIG d   1       2.972  -0.657  -5.195  0.00  0.00    -0.309 N 
ATOM     56  H   LIG d   1       3.025  -1.593  -5.446  0.00  0.00     0.149 HD
BRANCH  55  57
ATOM     57  C   LIG d   1       3.082  -0.269  -3.786  0.00  0.00     0.052 C 
ATOM     58  H   LIG d   1       3.164   0.816  -3.714  0.00  0.00     0.051 H 
ATOM     59  H   LIG d   1       2.196  -0.603  -3.247  0.00  0.00     0.051 H 
BRANCH  57  60
ATOM     60  C   LIG d   1       4.326  -0.916  -3.175  0.00  0.00    -0.017 C 
ATOM     61  H   LIG d   1       4.221  -0.953  -2.091  0.00  0.00     0.083 H 
ATOM     62  H   LIG d   1       4.438  -1.928  -3.563  0.00  0.00     0.083 H 
BRANCH  60  63
ATOM     63  N   LIG d   1       5.512  -0.123  -3.524  0.00  0.00     0.232 N 
ATOM     64  H   LIG d   1       5.493   0.095  -4.509  0.00  0.00     0.203 HD
BRANCH  63  65
ATOM     65  C   LIG d   1       5.515   1.123  -2.746  0.00  0.00    -0.043 C 
ATOM     66  H   LIG d   1       6.491   1.601  -2.829  0.00  0.00     0.078 H 
ATOM     67  H   LIG d   1       4.748   1.794  -3.134  0.00  0.00     0.078 H 
ATOM     68  H   LIG d   1       5.308   0.899  -1.700  0.00  0.00     0.078 H 
ENDBRANCH  63  65
BRANCH  63  69
ATOM     69  C   LIG d   1       6.724  -0.895  -3.218  0.00  0.00    -0.043 C 
ATOM     70  H   LIG d   1       6.834  -1.702  -3.941  0.00  0.00     0.078 H 
ATOM     71  H   LIG d   1       7.595  -0.240  -3.269  0.00  0.00     0.078 H 
ATOM     72  H   LIG d   1       6.644  -1.314  -2.214  0.00  0.00     0.078 H 
ENDBRANCH  63  69
ENDBRANCH  60  63
ENDBRANCH  57  60
ENDBRANCH  55  57
ENDBRANCH  50  53
ENDBRANCH   6  50
TORSDOF 14
ENDMDL
MODEL 2
REMARK VINA RESULT:      -5.8      5.255      9.800
REMARK  14 active torsions:
REMARK  status: ('A' for Active; 'I' for Inactive)
REMARK    1  A    between atoms: C_1  and  C_2 
REMARK    2  A    between atoms: C_6  and  O_31 
REMARK    3  A    between atoms: C_12  and  C_13 
REMARK    4  A    between atoms: C_13  and  C_14 
REMARK       I    between atoms: C_14  and  N_16 
REMARK    5  A    between atoms: N_19  and  C_22 
REMARK    6  A    between atoms: C_22  and  C_23 
REMARK       I    between atoms: C_23  and  N_25 
REMARK    7  A    between atoms: N_25  and  C_26 
REMARK    8  A    between atoms: C_26  and  C_27 
REMARK    9  A    between atoms: C_27  and  N_28 
REMARK   10  A    between atoms: N_28  and  C_29 
REMARK   11  A    between atoms: N_28  and  C_30 
REMARK   12  A    between atoms: O_31  and  C_32 
REMARK   13  A    between atoms: C_32  and  C_33 
REMARK   14  A    between atoms: C_33  and  C_35 
ROOT
ATOM      1  C   LIG d   1      10.013   6.414  -5.616  0.00  0.00     0.220 C 
ATOM      2  O   LIG d   1       9.065   6.747  -4.936  0.00  0.00    -0.275 OA
ATOM      3  N   LIG d   1      10.337   7.125  -6.714  0.00  0.00    -0.299 N 
ATOM      4  C   LIG d   1      11.480   6.735  -7.555  0.00  0.00     0.028 C 
ATOM      5  C   LIG d   1      11.008   6.656  -9.011  0.00  0.00     0.015 C 
ATOM      6  N   LIG d   1      10.365   7.923  -9.384  0.00  0.00    -0.291 N 
ATOM      7  C   LIG d   1       9.161   8.169  -8.578  0.00  0.00     0.015 C 
ATOM      8  C   LIG d   1       9.554   8.305  -7.108  0.00  0.00     0.028 C 
ATOM      9  H   LIG d   1      12.270   7.481  -7.467  0.00  0.00     0.048 H 
ATOM     10  H   LIG d   1      11.853   5.762  -7.237  0.00  0.00     0.048 H 
ATOM     11  H   LIG d   1      11.863   6.477  -9.661  0.00  0.00     0.044 H 
ATOM     12  H   LIG d   1      10.292   5.841  -9.117  0.00  0.00     0.044 H 
ATOM     13  H   LIG d   1       8.678   9.086  -8.914  0.00  0.00     0.044 H 
ATOM     14  H   LIG d   1       8.472   7.332  -8.691  0.00  0.00     0.044 H 
ATOM     15  H   LIG d   1       8.655   8.370  -6.494  0.00  0.00     0.048 H 
ATOM     16  H   LIG d   1      10.156   9.205  -6.975  0.00  0.00     0.048 H 
ENDROOT
BRANCH   1  17
ATOM     17  C   LIG d   1      10.829   5.208  -5.232  0.00  0.00     0.056 C 
ATOM     18  H   LIG d   1      11.443   5.445  -4.363  0.00  0.00     0.041 H 
ATOM     19  H   LIG d   1      11.472   4.923  -6.064  0.00  0.00     0.041 H 
BRANCH  17  20
ATOM     20  C   LIG d   1       9.907   4.063  -4.896  0.00  0.00     0.049 A 
ATOM     21  C   LIG d   1       9.381   3.299  -5.889  0.00  0.00    -0.029 A 
ATOM     22  C   LIG d   1       8.494   2.195  -5.516  0.00  0.00     0.021 A 
ATOM     23  C   LIG d   1       8.218   1.972  -4.154  0.00  0.00     0.143 A 
ATOM     24  C   LIG d   1       7.926   1.366  -6.490  0.00  0.00    -0.047 A 
ATOM     25  C   LIG d   1       7.381   0.929  -3.791  0.00  0.00     0.023 A 
ATOM     26  O   LIG d   1       8.770   2.773  -3.216  0.00  0.00    -0.422 OA
ATOM     27  C   LIG d   1       6.826   0.119  -4.768  0.00  0.00     0.124 A 
ATOM     28  H   LIG d   1       7.161   0.748  -2.749  0.00  0.00     0.069 H 
ATOM     29  C   LIG d   1       7.103   0.344  -6.115  0.00  0.00    -0.019 A 
ATOM     30  H   LIG d   1       6.664  -0.294  -6.867  0.00  0.00     0.065 H 
ATOM     31  C   LIG d   1       9.583   3.786  -3.552  0.00  0.00     0.341 A 
ATOM     32  O   LIG d   1      10.057   4.483  -2.673  0.00  0.00    -0.245 OA
ATOM     33  H   LIG d   1       8.137   1.536  -7.535  0.00  0.00     0.063 H 
BRANCH  21  34
ATOM     34  C   LIG d   1       9.707   3.575  -7.334  0.00  0.00    -0.038 C 
ATOM     35  H   LIG d   1       9.124   2.911  -7.971  0.00  0.00     0.028 H 
ATOM     36  H   LIG d   1       9.464   4.611  -7.570  0.00  0.00     0.028 H 
ATOM     37  H   LIG d   1      10.770   3.403  -7.505  0.00  0.00     0.028 H 
ENDBRANCH  21  34
BRANCH  27  38
ATOM     38  O   LIG d   1       6.005  -0.901  -4.411  0.00  0.00    -0.488 OA
BRANCH  38  39
ATOM     39  C   LIG d   1       6.057  -1.328  -3.048  0.00  0.00     0.110 C 
ATOM     40  H   LIG d   1       6.313  -2.386  -3.008  0.00  0.00     0.074 H 
ATOM     41  H   LIG d   1       6.812  -0.750  -2.515  0.00  0.00     0.074 H 
BRANCH  39  42
ATOM     42  C   LIG d   1       4.712  -1.111  -2.402  0.00  0.00    -0.043 C 
ATOM     43  C   LIG d   1       3.854  -2.098  -2.330  0.00  0.00    -0.097 C 
ATOM     44  H   LIG d   1       2.891  -1.943  -1.868  0.00  0.00     0.053 H 
ATOM     45  H   LIG d   1       4.109  -3.067  -2.734  0.00  0.00     0.053 H 
BRANCH  42  46
ATOM     46  C   LIG d   1       4.356   0.240  -1.838  0.00  0.00    -0.041 C 
ATOM     47  H   LIG d   1       4.725   1.020  -2.505  0.00  0.00     0.028 H 
ATOM     48  H   LIG d   1       3.273   0.321  -1.747  0.00  0.00     0.028 H 
ATOM     49  H   LIG d   1       4.813   0.355  -0.856  0.00  0.00     0.028 H 
ENDBRANCH  42  46
ENDBRANCH  39  42
ENDBRANCH  38  39
ENDBRANCH  27  38
ENDBRANCH  17  20
ENDBRANCH   1  17
BRANCH   6  50
ATOM     50  C   LIG d   1      10.053   7.954 -10.819  0.00  0.00     0.076 C 
ATOM     51  H   LIG d   1      10.137   6.949 -11.231  0.00  0.00     0.052 H 
ATOM     52  H   LIG d   1       9.036   8.321 -10.961  0.00  0.00     0.052 H 
BRANCH  50  53
ATOM     53  C   LIG d   1      11.020   8.868 -11.524  0.00  0.00     0.227 C 
ATOM     54  O   LIG d   1      11.189   9.999 -11.121  0.00  0.00    -0.274 OA
ATOM     55  N   LIG d   1      11.697   8.430 -12.604  0.00  0.00    -0.309 N 
ATOM     56  H   LIG d   1      11.561   7.525 -12.927  0.00  0.00     0.149 HD
BRANCH  55  57
ATOM     57  C   LIG d   1      12.638   9.319 -13.290  0.00  0.00     0.052 C 
ATOM     58  H   LIG d   1      12.909  10.142 -12.628  0.00  0.00     0.051 H 
ATOM     59  H   LIG d   1      13.534   8.760 -13.559  0.00  0.00     0.051 H 
BRANCH  57  60
ATOM     60  C   LIG d   1      11.984   9.875 -14.556  0.00  0.00    -0.017 C 
ATOM     61  H   LIG d   1      12.755  10.252 -15.228  0.00  0.00     0.083 H 
ATOM     62  H   LIG d   1      11.424   9.085 -15.054  0.00  0.00     0.083 H 
BRANCH  60  63
ATOM     63  N   LIG d   1      11.073  10.969 -14.195  0.00  0.00     0.232 N 
ATOM     64  H   LIG d   1      10.959  10.996 -13.194  0.00  0.00     0.203 HD
BRANCH  63  65
ATOM     65  C   LIG d   1      11.632  12.246 -14.658  0.00  0.00    -0.043 C 
ATOM     66  H   LIG d   1      11.265  12.463 -15.660  0.00  0.00     0.078 H 
ATOM     67  H   LIG d   1      11.327  13.043 -13.979  0.00  0.00     0.078 H 
ATOM     68  H   LIG d   1      12.720  12.181 -14.675  0.00  0.00     0.078 H 
ENDBRANCH  63  65
BRANCH  63  69
ATOM     69  C   LIG d   1       9.767  10.748 -14.831  0.00  0.00    -0.043 C 
ATOM     70  H   LIG d   1       9.770  11.182 -15.830  0.00  0.00     0.078 H 
ATOM     71  H   LIG d   1       9.573   9.677 -14.900  0.00  0.00     0.078 H 
ATOM     72  H   LIG d   1       8.986  11.219 -14.231  0.00  0.00     0.078 H 
ENDBRANCH  63  69
ENDBRANCH  60  63
ENDBRANCH  57  60
ENDBRANCH  55  57
ENDBRANCH  50  53
ENDBRANCH   6  50
TORSDOF 14
ENDMDL
MODEL 3
REMARK VINA RESULT:      -5.8      5.067      9.653
REMARK  14 active torsions:
REMARK  status: ('A' for Active; 'I' for Inactive)
REMARK    1  A    between atoms: C_1  and  C_2 
REMARK    2  A    between atoms: C_6  and  O_31 
REMARK    3  A    between atoms: C_12  and  C_13 
REMARK    4  A    between atoms: C_13  and  C_14 
REMARK       I    between atoms: C_14  and  N_16 
REMARK    5  A    between atoms: N_19  and  C_22 
REMARK    6  A    between atoms: C_22  and  C_23 
REMARK       I    between atoms: C_23  and  N_25 
REMARK    7  A    between atoms: N_25  and  C_26 
REMARK    8  A    between atoms: C_26  and  C_27 
REMARK    9  A    between atoms: C_27  and  N_28 
REMARK   10  A    between atoms: N_28  and  C_29 
REMARK   11  A    between atoms: N_28  and  C_30 
REMARK   12  A    between atoms: O_31  and  C_32 
REMARK   13  A    between atoms: C_32  and  C_33 
REMARK   14  A    between atoms: C_33  and  C_35 
ROOT
ATOM      1  C   LIG d   1       9.934   6.392  -5.487  0.00  0.00     0.220 C 
ATOM      2  O   LIG d   1       8.947   6.666  -4.838  0.00  0.00    -0.275 OA
ATOM      3  N   LIG d   1      10.286   7.162  -6.536  0.00  0.00    -0.299 N 
ATOM      4  C   LIG d   1      11.477   6.843  -7.339  0.00  0.00     0.028 C 
ATOM      5  C   LIG d   1      11.075   6.819  -8.818  0.00  0.00     0.015 C 
ATOM      6  N   LIG d   1      10.413   8.084  -9.162  0.00  0.00    -0.291 N 
ATOM      7  C   LIG d   1       9.167   8.259  -8.403  0.00  0.00     0.015 C 
ATOM      8  C   LIG d   1       9.488   8.337  -6.911  0.00  0.00     0.028 C 
ATOM      9  H   LIG d   1      12.241   7.604  -7.180  0.00  0.00     0.048 H 
ATOM     10  H   LIG d   1      11.864   5.866  -7.048  0.00  0.00     0.048 H 
ATOM     11  H   LIG d   1      11.964   6.694  -9.434  0.00  0.00     0.044 H 
ATOM     12  H   LIG d   1      10.389   5.990  -8.994  0.00  0.00     0.044 H 
ATOM     13  H   LIG d   1       8.673   9.177  -8.719  0.00  0.00     0.044 H 
ATOM     14  H   LIG d   1       8.509   7.410  -8.586  0.00  0.00     0.044 H 
ATOM     15  H   LIG d   1       8.560   8.349  -6.338  0.00  0.00     0.048 H 
ATOM     16  H   LIG d   1      10.057   9.246  -6.709  0.00  0.00     0.048 H 
ENDROOT
BRANCH   1  17
ATOM     17  C   LIG d   1      10.766   5.191  -5.120  0.00  0.00     0.056 C 
ATOM     18  H   LIG d   1      11.372   5.422  -4.243  0.00  0.00     0.041 H 
ATOM     19  H   LIG d   1      11.419   4.932  -5.954  0.00  0.00     0.041 H 
BRANCH  17  20
ATOM     20  C   LIG d   1       9.861   4.027  -4.811  0.00  0.00     0.049 A 
ATOM     21  C   LIG d   1       9.349   3.275  -5.821  0.00  0.00    -0.029 A 
ATOM     22  C   LIG d   1       8.477   2.150  -5.474  0.00  0.00     0.021 A 
ATOM     23  C   LIG d   1       8.201   1.896  -4.118  0.00  0.00     0.143 A 
ATOM     24  C   LIG d   1       7.924   1.334  -6.467  0.00  0.00    -0.047 A 
ATOM     25  C   LIG d   1       7.378   0.833  -3.779  0.00  0.00     0.023 A 
ATOM     26  O   LIG d   1       8.738   2.685  -3.162  0.00  0.00    -0.422 OA
ATOM     27  C   LIG d   1       6.838   0.035  -4.775  0.00  0.00     0.124 A 
ATOM     28  H   LIG d   1       7.158   0.628  -2.742  0.00  0.00     0.069 H 
ATOM     29  C   LIG d   1       7.116   0.292  -6.116  0.00  0.00    -0.019 A 
ATOM     30  H   LIG d   1       6.689  -0.337  -6.882  0.00  0.00     0.065 H 
ATOM     31  C   LIG d   1       9.536   3.717  -3.474  0.00  0.00     0.341 A 
ATOM     32  O   LIG d   1       9.998   4.402  -2.579  0.00  0.00    -0.245 OA
ATOM     33  H   LIG d   1       8.136   1.529  -7.508  0.00  0.00     0.063 H 
BRANCH  21  34
ATOM     34  C   LIG d   1       9.675   3.586  -7.259  0.00  0.00    -0.038 C 
ATOM     35  H   LIG d   1      10.365   2.837  -7.646  0.00  0.00     0.028 H 
ATOM     36  H   LIG d   1       8.759   3.576  -7.850  0.00  0.00     0.028 H 
ATOM     37  H   LIG d   1      10.137   4.572  -7.321  0.00  0.00     0.028 H 
ENDBRANCH  21  34
BRANCH  27  38
ATOM     38  O   LIG d   1       6.032  -1.004  -4.441  0.00  0.00    -0.488 OA
BRANCH  38  39
ATOM     39  C   LIG d   1       6.063  -1.437  -3.080  0.00  0.00     0.110 C 
ATOM     40  H   LIG d   1       6.297  -2.501  -3.042  0.00  0.00     0.074 H 
ATOM     41  H   LIG d   1       6.824  -0.877  -2.537  0.00  0.00     0.074 H 
BRANCH  39  42
ATOM     42  C   LIG d   1       4.716  -1.198  -2.446  0.00  0.00    -0.043 C 
ATOM     43  C   LIG d   1       3.849  -2.176  -2.360  0.00  0.00    -0.097 C 
ATOM     44  H   LIG d   1       2.884  -2.004  -1.906  0.00  0.00     0.053 H 
ATOM     45  H   LIG d   1       4.098  -3.154  -2.745  0.00  0.00     0.053 H 
BRANCH  42  46
ATOM     46  C   LIG d   1       4.369   0.167  -1.909  0.00  0.00    -0.041 C 
ATOM     47  H   LIG d   1       3.383   0.135  -1.446  0.00  0.00     0.028 H 
ATOM     48  H   LIG d   1       5.110   0.464  -1.166  0.00  0.00     0.028 H 
ATOM     49  H   LIG d   1       4.365   0.888  -2.725  0.00  0.00     0.028 H 
ENDBRANCH  42  46
ENDBRANCH  39  42
ENDBRANCH  38  39
ENDBRANCH  27  38
ENDBRANCH  17  20
ENDBRANCH   1  17
BRANCH   6  50
ATOM     50  C   LIG d   1      10.166   8.173 -10.607  0.00  0.00     0.076 C 
ATOM     51  H   LIG d   1      10.174   7.173 -11.040  0.00  0.00     0.052 H 
ATOM     52  H   LIG d   1       9.194   8.637 -10.781  0.00  0.00     0.052 H 
BRANCH  50  53
ATOM     53  C   LIG d   1      11.242   9.008 -11.250  0.00  0.00     0.227 C 
ATOM     54  O   LIG d   1      11.944   8.529 -12.115  0.00  0.00    -0.274 OA
ATOM     55  N   LIG d   1      11.425  10.286 -10.864  0.00  0.00    -0.309 N 
ATOM     56  H   LIG d   1      10.864  10.668 -10.172  0.00  0.00     0.149 HD
BRANCH  55  57
ATOM     57  C   LIG d   1      12.472  11.098 -11.490  0.00  0.00     0.052 C 
ATOM     58  H   LIG d   1      13.106  10.461 -12.107  0.00  0.00     0.051 H 
ATOM     59  H   LIG d   1      12.012  11.865 -12.113  0.00  0.00     0.051 H 
BRANCH  57  60
ATOM     60  C   LIG d   1      13.320  11.763 -10.405  0.00  0.00    -0.017 C 
ATOM     61  H   LIG d   1      14.029  11.039 -10.004  0.00  0.00     0.083 H 
ATOM     62  H   LIG d   1      13.863  12.605 -10.832  0.00  0.00     0.083 H 
BRANCH  60  63
ATOM     63  N   LIG d   1      12.446  12.241  -9.325  0.00  0.00     0.232 N 
ATOM     64  H   LIG d   1      11.546  11.792  -9.397  0.00  0.00     0.203 HD
BRANCH  63  65
ATOM     65  C   LIG d   1      13.051  11.920  -8.026  0.00  0.00    -0.043 C 
ATOM     66  H   LIG d   1      12.821  10.888  -7.762  0.00  0.00     0.078 H 
ATOM     67  H   LIG d   1      14.132  12.048  -8.087  0.00  0.00     0.078 H 
ATOM     68  H   LIG d   1      12.650  12.587  -7.263  0.00  0.00     0.078 H 
ENDBRANCH  63  65
BRANCH  63  69
ATOM     69  C   LIG d   1      12.276  13.696  -9.441  0.00  0.00    -0.043 C 
ATOM     70  H   LIG d   1      12.518  14.167  -8.489  0.00  0.00     0.078 H 
ATOM     71  H   LIG d   1      12.941  14.079 -10.215  0.00  0.00     0.078 H 
ATOM     72  H   LIG d   1      11.242  13.921  -9.707  0.00  0.00     0.078 H 
ENDBRANCH  63  69
ENDBRANCH  60  63
ENDBRANCH  57  60
ENDBRANCH  55  57
ENDBRANCH  50  53
ENDBRANCH   6  50
TORSDOF 14
ENDMDL
MODEL 4
REMARK VINA RESULT:      -5.8      7.123     10.314
REMARK  14 active torsions:
REMARK  status: ('A' for Active; 'I' for Inactive)
REMARK    1  A    between atoms: C_1  and  C_2 
REMARK    2  A    between atoms: C_6  and  O_31 
REMARK    3  A    between atoms: C_12  and  C_13 
REMARK    4  A    between atoms: C_13  and  C_14 
REMARK       I    between atoms: C_14  and  N_16 
REMARK    5  A    between atoms: N_19  and  C_22 
REMARK    6  A    between atoms: C_22  and  C_23 
REMARK       I    between atoms: C_23  and  N_25 
REMARK    7  A    between atoms: N_25  and  C_26 
REMARK    8  A    between atoms: C_26  and  C_27 
REMARK    9  A    between atoms: C_27  and  N_28 
REMARK   10  A    between atoms: N_28  and  C_29 
REMARK   11  A    between atoms: N_28  and  C_30 
REMARK   12  A    between atoms: O_31  and  C_32 
REMARK   13  A    between atoms: C_32  and  C_33 
REMARK   14  A    between atoms: C_33  and  C_35 
ROOT
ATOM      1  C   LIG d   1       5.318  -8.513  -5.464  0.00  0.00     0.220 C 
ATOM      2  O   LIG d   1       4.278  -8.252  -4.897  0.00  0.00    -0.275 OA
ATOM      3  N   LIG d   1       6.069  -9.552  -5.048  0.00  0.00    -0.299 N 
ATOM      4  C   LIG d   1       7.337  -9.883  -5.718  0.00  0.00     0.028 C 
ATOM      5  C   LIG d   1       8.433 -10.003  -4.654  0.00  0.00     0.015 C 
ATOM      6  N   LIG d   1       8.007 -10.958  -3.623  0.00  0.00    -0.291 N 
ATOM      7  C   LIG d   1       6.807 -10.486  -2.920  0.00  0.00     0.015 C 
ATOM      8  C   LIG d   1       5.648 -10.381  -3.910  0.00  0.00     0.028 C 
ATOM      9  H   LIG d   1       7.235 -10.830  -6.247  0.00  0.00     0.048 H 
ATOM     10  H   LIG d   1       7.595  -9.092  -6.423  0.00  0.00     0.048 H 
ATOM     11  H   LIG d   1       9.354 -10.354  -5.119  0.00  0.00     0.044 H 
ATOM     12  H   LIG d   1       8.605  -9.028  -4.198  0.00  0.00     0.044 H 
ATOM     13  H   LIG d   1       6.549 -11.187  -2.128  0.00  0.00     0.044 H 
ATOM     14  H   LIG d   1       7.002  -9.504  -2.488  0.00  0.00     0.044 H 
ATOM     15  H   LIG d   1       4.789  -9.921  -3.419  0.00  0.00     0.048 H 
ATOM     16  H   LIG d   1       5.380 -11.378  -4.262  0.00  0.00     0.048 H 
ENDROOT
BRANCH   1  17
ATOM     17  C   LIG d   1       5.770  -7.677  -6.632  0.00  0.00     0.056 C 
ATOM     18  H   LIG d   1       5.178  -7.931  -7.512  0.00  0.00     0.041 H 
ATOM     19  H   LIG d   1       6.823  -7.873  -6.835  0.00  0.00     0.041 H 
BRANCH  17  20
ATOM     20  C   LIG d   1       5.584  -6.217  -6.307  0.00  0.00     0.049 A 
ATOM     21  C   LIG d   1       6.526  -5.555  -5.584  0.00  0.00    -0.029 A 
ATOM     22  C   LIG d   1       6.306  -4.136  -5.296  0.00  0.00     0.021 A 
ATOM     23  C   LIG d   1       5.134  -3.518  -5.771  0.00  0.00     0.143 A 
ATOM     24  C   LIG d   1       7.241  -3.396  -4.563  0.00  0.00    -0.047 A 
ATOM     25  C   LIG d   1       4.918  -2.175  -5.505  0.00  0.00     0.023 A 
ATOM     26  O   LIG d   1       4.235  -4.234  -6.480  0.00  0.00    -0.422 OA
ATOM     27  C   LIG d   1       5.853  -1.457  -4.776  0.00  0.00     0.124 A 
ATOM     28  H   LIG d   1       4.023  -1.688  -5.864  0.00  0.00     0.069 H 
ATOM     29  C   LIG d   1       7.012  -2.075  -4.309  0.00  0.00    -0.019 A 
ATOM     30  H   LIG d   1       7.732  -1.505  -3.742  0.00  0.00     0.065 H 
ATOM     31  C   LIG d   1       4.431  -5.535  -6.747  0.00  0.00     0.341 A 
ATOM     32  O   LIG d   1       3.593  -6.141  -7.390  0.00  0.00    -0.245 OA
ATOM     33  H   LIG d   1       8.139  -3.870  -4.197  0.00  0.00     0.063 H 
BRANCH  21  34
ATOM     34  C   LIG d   1       7.766  -6.261  -5.098  0.00  0.00    -0.038 C 
ATOM     35  H   LIG d   1       7.648  -7.335  -5.231  0.00  0.00     0.028 H 
ATOM     36  H   LIG d   1       8.628  -5.915  -5.668  0.00  0.00     0.028 H 
ATOM     37  H   LIG d   1       7.917  -6.040  -4.041  0.00  0.00     0.028 H 
ENDBRANCH  21  34
BRANCH  27  38
ATOM     38  O   LIG d   1       5.639  -0.143  -4.516  0.00  0.00    -0.488 OA
BRANCH  38  39
ATOM     39  C   LIG d   1       5.912   0.307  -3.187  0.00  0.00     0.110 C 
ATOM     40  H   LIG d   1       6.701  -0.304  -2.751  0.00  0.00     0.074 H 
ATOM     41  H   LIG d   1       6.230   1.349  -3.214  0.00  0.00     0.074 H 
BRANCH  39  42
ATOM     42  C   LIG d   1       4.663   0.186  -2.350  0.00  0.00    -0.043 C 
ATOM     43  C   LIG d   1       4.417  -0.923  -1.698  0.00  0.00    -0.097 C 
ATOM     44  H   LIG d   1       3.523  -1.011  -1.099  0.00  0.00     0.053 H 
ATOM     45  H   LIG d   1       5.108  -1.752  -1.761  0.00  0.00     0.053 H 
BRANCH  42  46
ATOM     46  C   LIG d   1       3.700   1.341  -2.262  0.00  0.00    -0.041 C 
ATOM     47  H   LIG d   1       3.335   1.433  -1.240  0.00  0.00     0.028 H 
ATOM     48  H   LIG d   1       4.210   2.261  -2.551  0.00  0.00     0.028 H 
ATOM     49  H   LIG d   1       2.861   1.166  -2.934  0.00  0.00     0.028 H 
ENDBRANCH  42  46
ENDBRANCH  39  42
ENDBRANCH  38  39
ENDBRANCH  27  38
ENDBRANCH  17  20
ENDBRANCH   1  17
BRANCH   6  50
ATOM     50  C   LIG d   1       9.098 -11.233  -2.677  0.00  0.00     0.076 C 
ATOM     51  H   LIG d   1       8.827 -12.078  -2.045  0.00  0.00     0.052 H 
ATOM     52  H   LIG d   1      10.007 -11.469  -3.231  0.00  0.00     0.052 H 
BRANCH  50  53
ATOM     53  C   LIG d   1       9.335 -10.019  -1.818  0.00  0.00     0.227 C 
ATOM     54  O   LIG d   1       8.745  -9.895  -0.766  0.00  0.00    -0.274 OA
ATOM     55  N   LIG d   1      10.203  -9.069  -2.218  0.00  0.00    -0.309 N 
ATOM     56  H   LIG d   1      10.675  -9.167  -3.060  0.00  0.00     0.149 HD
BRANCH  55  57
ATOM     57  C   LIG d   1      10.435  -7.888  -1.382  0.00  0.00     0.052 C 
ATOM     58  H   LIG d   1      10.080  -8.083  -0.370  0.00  0.00     0.051 H 
ATOM     59  H   LIG d   1      11.501  -7.665  -1.356  0.00  0.00     0.051 H 
BRANCH  57  60
ATOM     60  C   LIG d   1       9.678  -6.693  -1.966  0.00  0.00    -0.017 C 
ATOM     61  H   LIG d   1       9.210  -6.983  -2.906  0.00  0.00     0.083 H 
ATOM     62  H   LIG d   1       8.911  -6.370  -1.262  0.00  0.00     0.083 H 
BRANCH  60  63
ATOM     63  N   LIG d   1      10.618  -5.589  -2.207  0.00  0.00     0.232 N 
ATOM     64  H   LIG d   1      11.283  -5.542  -1.450  0.00  0.00     0.203 HD
BRANCH  63  65
ATOM     65  C   LIG d   1      11.330  -5.819  -3.471  0.00  0.00    -0.043 C 
ATOM     66  H   LIG d   1      10.984  -5.106  -4.218  0.00  0.00     0.078 H 
ATOM     67  H   LIG d   1      12.401  -5.689  -3.312  0.00  0.00     0.078 H 
ATOM     68  H   LIG d   1      11.135  -6.833  -3.818  0.00  0.00     0.078 H 
ENDBRANCH  63  65
BRANCH  63  69
ATOM     69  C   LIG d   1       9.876  -4.324  -2.285  0.00  0.00    -0.043 C 
ATOM     70  H   LIG d   1      10.204  -3.764  -3.161  0.00  0.00     0.078 H 
ATOM     71  H   LIG d   1       8.809  -4.532  -2.365  0.00  0.00     0.078 H 
ATOM     72  H   LIG d   1      10.065  -3.736  -1.385  0.00  0.00     0.078 H 
ENDBRANCH  63  69
ENDBRANCH  60  63
ENDBRANCH  57  60
ENDBRANCH  55  57
ENDBRANCH  50  53
ENDBRANCH   6  50
TORSDOF 14
ENDMDL
MODEL 5
REMARK VINA RESULT:      -5.7      4.266      9.652
REMARK  14 active torsions:
REMARK  status: ('A' for Active; 'I' for Inactive)
REMARK    1  A    between atoms: C_1  and  C_2 
REMARK    2  A    between atoms: C_6  and  O_31 
REMARK    3  A    between atoms: C_12  and  C_13 
REMARK    4  A    between atoms: C_13  and  C_14 
REMARK       I    between atoms: C_14  and  N_16 
REMARK    5  A    between atoms: N_19  and  C_22 
REMARK    6  A    between atoms: C_22  and  C_23 
REMARK       I    between atoms: C_23  and  N_25 
REMARK    7  A    between atoms: N_25  and  C_26 
REMARK    8  A    between atoms: C_26  and  C_27 
REMARK    9  A    between atoms: C_27  and  N_28 
REMARK   10  A    between atoms: N_28  and  C_29 
REMARK   11  A    between atoms: N_28  and  C_30 
REMARK   12  A    between atoms: O_31  and  C_32 
REMARK   13  A    between atoms: C_32  and  C_33 
REMARK   14  A    between atoms: C_33  and  C_35 
ROOT
ATOM      1  C   LIG d   1      11.447   4.210  -5.053  0.00  0.00     0.220 C 
ATOM      2  O   LIG d   1      12.058   3.228  -5.418  0.00  0.00    -0.275 OA
ATOM      3  N   LIG d   1      12.053   5.129  -4.275  0.00  0.00    -0.299 N 
ATOM      4  C   LIG d   1      11.328   6.325  -3.817  0.00  0.00     0.028 C 
ATOM      5  C   LIG d   1      11.495   6.443  -2.298  0.00  0.00     0.015 C 
ATOM      6  N   LIG d   1      12.925   6.415  -1.962  0.00  0.00    -0.291 N 
ATOM      7  C   LIG d   1      13.538   5.135  -2.342  0.00  0.00     0.015 C 
ATOM      8  C   LIG d   1      13.452   4.960  -3.857  0.00  0.00     0.028 C 
ATOM      9  H   LIG d   1      11.741   7.211  -4.300  0.00  0.00     0.048 H 
ATOM     10  H   LIG d   1      10.271   6.229  -4.064  0.00  0.00     0.048 H 
ATOM     11  H   LIG d   1      11.059   7.381  -1.956  0.00  0.00     0.044 H 
ATOM     12  H   LIG d   1      10.991   5.608  -1.812  0.00  0.00     0.044 H 
ATOM     13  H   LIG d   1      14.582   5.125  -2.031  0.00  0.00     0.044 H 
ATOM     14  H   LIG d   1      13.005   4.319  -1.854  0.00  0.00     0.044 H 
ATOM     15  H   LIG d   1      13.799   3.963  -4.130  0.00  0.00     0.048 H 
ATOM     16  H   LIG d   1      14.073   5.712  -4.345  0.00  0.00     0.048 H 
ENDROOT
BRANCH   1  17
ATOM     17  C   LIG d   1      10.012   4.403  -5.469  0.00  0.00     0.056 C 
ATOM     18  H   LIG d   1       9.962   4.536  -6.550  0.00  0.00     0.041 H 
ATOM     19  H   LIG d   1       9.606   5.286  -4.976  0.00  0.00     0.041 H 
BRANCH  17  20
ATOM     20  C   LIG d   1       9.207   3.192  -5.074  0.00  0.00     0.049 A 
ATOM     21  C   LIG d   1       8.723   2.355  -6.029  0.00  0.00    -0.029 A 
ATOM     22  C   LIG d   1       7.950   1.188  -5.599  0.00  0.00     0.021 A 
ATOM     23  C   LIG d   1       7.735   0.981  -4.223  0.00  0.00     0.143 A 
ATOM     24  C   LIG d   1       7.429   0.284  -6.533  0.00  0.00    -0.047 A 
ATOM     25  C   LIG d   1       7.006  -0.121  -3.806  0.00  0.00     0.023 A 
ATOM     26  O   LIG d   1       8.240   1.855  -3.325  0.00  0.00    -0.422 OA
ATOM     27  C   LIG d   1       6.497  -1.005  -4.744  0.00  0.00     0.124 A 
ATOM     28  H   LIG d   1       6.834  -0.290  -2.753  0.00  0.00     0.069 H 
ATOM     29  C   LIG d   1       6.713  -0.796  -6.105  0.00  0.00    -0.019 A 
ATOM     30  H   LIG d   1       6.311  -1.492  -6.825  0.00  0.00     0.065 H 
ATOM     31  C   LIG d   1       8.949   2.926  -3.713  0.00  0.00     0.341 A 
ATOM     32  O   LIG d   1       9.385   3.687  -2.869  0.00  0.00    -0.245 OA
ATOM     33  H   LIG d   1       7.593   0.442  -7.588  0.00  0.00     0.063 H 
BRANCH  21  34
ATOM     34  C   LIG d   1       8.979   2.617  -7.491  0.00  0.00    -0.038 C 
ATOM     35  H   LIG d   1       9.275   1.690  -7.980  0.00  0.00     0.028 H 
ATOM     36  H   LIG d   1       8.072   3.001  -7.956  0.00  0.00     0.028 H 
ATOM     37  H   LIG d   1       9.778   3.352  -7.592  0.00  0.00     0.028 H 
ENDBRANCH  21  34
BRANCH  27  38
ATOM     38  O   LIG d   1       5.783  -2.084  -4.334  0.00  0.00    -0.488 OA
BRANCH  38  39
ATOM     39  C   LIG d   1       4.379  -2.073  -4.605  0.00  0.00     0.110 C 
ATOM     40  H   LIG d   1       4.175  -1.400  -5.438  0.00  0.00     0.074 H 
ATOM     41  H   LIG d   1       4.050  -3.080  -4.860  0.00  0.00     0.074 H 
BRANCH  39  42
ATOM     42  C   LIG d   1       3.636  -1.597  -3.382  0.00  0.00    -0.043 C 
ATOM     43  C   LIG d   1       3.911  -2.107  -2.208  0.00  0.00    -0.097 C 
ATOM     44  H   LIG d   1       3.379  -1.767  -1.333  0.00  0.00     0.053 H 
ATOM     45  H   LIG d   1       4.670  -2.870  -2.115  0.00  0.00     0.053 H 
BRANCH  42  46
ATOM     46  C   LIG d   1       2.577  -0.532  -3.512  0.00  0.00    -0.041 C 
ATOM     47  H   LIG d   1       1.823  -0.856  -4.229  0.00  0.00     0.028 H 
ATOM     48  H   LIG d   1       2.110  -0.365  -2.542  0.00  0.00     0.028 H 
ATOM     49  H   LIG d   1       3.035   0.394  -3.858  0.00  0.00     0.028 H 
ENDBRANCH  42  46
ENDBRANCH  39  42
ENDBRANCH  38  39
ENDBRANCH  27  38
ENDBRANCH  17  20
ENDBRANCH   1  17
BRANCH   6  50
ATOM     50  C   LIG d   1      13.136   6.698  -0.536  0.00  0.00     0.076 C 
ATOM     51  H   LIG d   1      12.506   6.042   0.063  0.00  0.00     0.052 H 
ATOM     52  H   LIG d   1      14.183   6.526  -0.284  0.00  0.00     0.052 H 
BRANCH  50  53
ATOM     53  C   LIG d   1      12.781   8.134  -0.251  0.00  0.00     0.227 C 
ATOM     54  O   LIG d   1      13.289   9.025  -0.898  0.00  0.00    -0.274 OA
ATOM     55  N   LIG d   1      11.898   8.429   0.724  0.00  0.00    -0.309 N 
ATOM     56  H   LIG d   1      11.491   7.716   1.241  0.00  0.00     0.149 HD
BRANCH  55  57
ATOM     57  C   LIG d   1      11.551   9.825   1.001  0.00  0.00     0.052 C 
ATOM     58  H   LIG d   1      11.417   9.960   2.075  0.00  0.00     0.051 H 
ATOM     59  H   LIG d   1      12.353  10.474   0.651  0.00  0.00     0.051 H 
BRANCH  57  60
ATOM     60  C   LIG d   1      10.252  10.182   0.277  0.00  0.00    -0.017 C 
ATOM     61  H   LIG d   1       9.641   9.287   0.163  0.00  0.00     0.083 H 
ATOM     62  H   LIG d   1       9.704  10.924   0.858  0.00  0.00     0.083 H 
BRANCH  60  63
ATOM     63  N   LIG d   1      10.566  10.733  -1.048  0.00  0.00     0.232 N 
ATOM     64  H   LIG d   1      11.469  10.398  -1.346  0.00  0.00     0.203 HD
BRANCH  63  65
ATOM     65  C   LIG d   1       9.543  10.304  -2.012  0.00  0.00    -0.043 C 
ATOM     66  H   LIG d   1       8.880  11.140  -2.234  0.00  0.00     0.078 H 
ATOM     67  H   LIG d   1      10.027   9.970  -2.930  0.00  0.00     0.078 H 
ATOM     68  H   LIG d   1       8.964   9.484  -1.587  0.00  0.00     0.078 H 
ENDBRANCH  63  65
BRANCH  63  69
ATOM     69  C   LIG d   1      10.588  12.200  -0.976  0.00  0.00    -0.043 C 
ATOM     70  H   LIG d   1      10.284  12.519   0.020  0.00  0.00     0.078 H 
ATOM     71  H   LIG d   1      11.596  12.559  -1.182  0.00  0.00     0.078 H 
ATOM     72  H   LIG d   1       9.899  12.610  -1.716  0.00  0.00     0.078 H 
ENDBRANCH  63  69
ENDBRANCH  60  63
ENDBRANCH  57  60
ENDBRANCH  55  57
ENDBRANCH  50  53
ENDBRANCH   6  50
TORSDOF 14
ENDMDL
MODEL 6
REMARK VINA RESULT:      -5.7      7.598     10.623
REMARK  14 active torsions:
REMARK  status: ('A' for Active; 'I' for Inactive)
REMARK    1  A    between atoms: C_1  and  C_2 
REMARK    2  A    between atoms: C_6  and  O_31 
REMARK    3  A    between atoms: C_12  and  C_13 
REMARK    4  A    between atoms: C_13  and  C_14 
REMARK       I    between atoms: C_14  and  N_16 
REMARK    5  A    between atoms: N_19  and  C_22 
REMARK    6  A    between atoms: C_22  and  C_23 
REMARK       I    between atoms: C_23  and  N_25 
REMARK    7  A    between atoms: N_25  and  C_26 
REMARK    8  A    between atoms: C_26  and  C_27 
REMARK    9  A    between atoms: C_27  and  N_28 
REMARK   10  A    between atoms: N_28  and  C_29 
REMARK   11  A    between atoms: N_28  and  C_30 
REMARK   12  A    between atoms: O_31  and  C_32 
REMARK   13  A    between atoms: C_32  and  C_33 
REMARK   14  A    between atoms: C_33  and  C_35 
ROOT
ATOM      1  C   LIG d   1       5.302  -8.332  -5.481  0.00  0.00     0.220 C 
ATOM      2  O   LIG d   1       4.267  -8.047  -4.917  0.00  0.00    -0.275 OA
ATOM      3  N   LIG d   1       6.019  -9.399  -5.076  0.00  0.00    -0.299 N 
ATOM      4  C   LIG d   1       7.279  -9.759  -5.744  0.00  0.00     0.028 C 
ATOM      5  C   LIG d   1       8.366  -9.927  -4.676  0.00  0.00     0.015 C 
ATOM      6  N   LIG d   1       7.905 -10.883  -3.660  0.00  0.00    -0.291 N 
ATOM      7  C   LIG d   1       6.715 -10.384  -2.957  0.00  0.00     0.015 C 
ATOM      8  C   LIG d   1       5.566 -10.230  -3.951  0.00  0.00     0.028 C 
ATOM      9  H   LIG d   1       7.152 -10.696  -6.287  0.00  0.00     0.048 H 
ATOM     10  H   LIG d   1       7.565  -8.967  -6.437  0.00  0.00     0.048 H 
ATOM     11  H   LIG d   1       9.278 -10.300  -5.141  0.00  0.00     0.044 H 
ATOM     12  H   LIG d   1       8.564  -8.964  -4.206  0.00  0.00     0.044 H 
ATOM     13  H   LIG d   1       6.432 -11.088  -2.176  0.00  0.00     0.044 H 
ATOM     14  H   LIG d   1       6.938  -9.415  -2.511  0.00  0.00     0.044 H 
ATOM     15  H   LIG d   1       4.719  -9.751  -3.459  0.00  0.00     0.048 H 
ATOM     16  H   LIG d   1       5.269 -11.213  -4.319  0.00  0.00     0.048 H 
ENDROOT
BRANCH   1  17
ATOM     17  C   LIG d   1       5.785  -7.494  -6.636  0.00  0.00     0.056 C 
ATOM     18  H   LIG d   1       5.204  -7.732  -7.527  0.00  0.00     0.041 H 
ATOM     19  H   LIG d   1       6.839  -7.704  -6.823  0.00  0.00     0.041 H 
BRANCH  17  20
ATOM     20  C   LIG d   1       5.617  -6.034  -6.303  0.00  0.00     0.049 A 
ATOM     21  C   LIG d   1       6.566  -5.386  -5.578  0.00  0.00    -0.029 A 
ATOM     22  C   LIG d   1       6.363  -3.966  -5.282  0.00  0.00     0.021 A 
ATOM     23  C   LIG d   1       5.197  -3.333  -5.752  0.00  0.00     0.143 A 
ATOM     24  C   LIG d   1       7.307  -3.241  -4.546  0.00  0.00    -0.047 A 
ATOM     25  C   LIG d   1       4.996  -1.989  -5.477  0.00  0.00     0.023 A 
ATOM     26  O   LIG d   1       4.289  -4.036  -6.463  0.00  0.00    -0.422 OA
ATOM     27  C   LIG d   1       5.941  -1.286  -4.747  0.00  0.00     0.124 A 
ATOM     28  H   LIG d   1       4.106  -1.491  -5.832  0.00  0.00     0.069 H 
ATOM     29  C   LIG d   1       7.093  -1.919  -4.285  0.00  0.00    -0.019 A 
ATOM     30  H   LIG d   1       7.821  -1.360  -3.717  0.00  0.00     0.065 H 
ATOM     31  C   LIG d   1       4.470  -5.337  -6.737  0.00  0.00     0.341 A 
ATOM     32  O   LIG d   1       3.624  -5.930  -7.381  0.00  0.00    -0.245 OA
ATOM     33  H   LIG d   1       8.201  -3.727  -4.186  0.00  0.00     0.063 H 
BRANCH  21  34
ATOM     34  C   LIG d   1       7.799  -6.108  -5.098  0.00  0.00    -0.038 C 
ATOM     35  H   LIG d   1       8.027  -6.930  -5.776  0.00  0.00     0.028 H 
ATOM     36  H   LIG d   1       8.640  -5.414  -5.072  0.00  0.00     0.028 H 
ATOM     37  H   LIG d   1       7.622  -6.501  -4.096  0.00  0.00     0.028 H 
ENDBRANCH  21  34
BRANCH  27  38
ATOM     38  O   LIG d   1       5.742   0.030  -4.479  0.00  0.00    -0.488 OA
BRANCH  38  39
ATOM     39  C   LIG d   1       5.931   0.451  -3.126  0.00  0.00     0.110 C 
ATOM     40  H   LIG d   1       6.716  -0.148  -2.666  0.00  0.00     0.074 H 
ATOM     41  H   LIG d   1       6.218   1.502  -3.110  0.00  0.00     0.074 H 
BRANCH  39  42
ATOM     42  C   LIG d   1       4.646   0.270  -2.359  0.00  0.00    -0.043 C 
ATOM     43  C   LIG d   1       4.421  -0.846  -1.712  0.00  0.00    -0.097 C 
ATOM     44  H   LIG d   1       3.501  -0.976  -1.162  0.00  0.00     0.053 H 
ATOM     45  H   LIG d   1       5.156  -1.638  -1.729  0.00  0.00     0.053 H 
BRANCH  42  46
ATOM     46  C   LIG d   1       3.621   1.375  -2.335  0.00  0.00    -0.041 C 
ATOM     47  H   LIG d   1       2.936   1.217  -1.503  0.00  0.00     0.028 H 
ATOM     48  H   LIG d   1       4.125   2.334  -2.215  0.00  0.00     0.028 H 
ATOM     49  H   LIG d   1       3.064   1.373  -3.272  0.00  0.00     0.028 H 
ENDBRANCH  42  46
ENDBRANCH  39  42
ENDBRANCH  38  39
ENDBRANCH  27  38
ENDBRANCH  17  20
ENDBRANCH   1  17
BRANCH   6  50
ATOM     50  C   LIG d   1       8.981 -11.203  -2.713  0.00  0.00     0.076 C 
ATOM     51  H   LIG d   1       8.710 -12.090  -2.141  0.00  0.00     0.052 H 
ATOM     52  H   LIG d   1       9.903 -11.393  -3.263  0.00  0.00     0.052 H 
BRANCH  50  53
ATOM     53  C   LIG d   1       9.186 -10.043  -1.774  0.00  0.00     0.227 C 
ATOM     54  O   LIG d   1       8.421  -9.868  -0.851  0.00  0.00    -0.274 OA
ATOM     55  N   LIG d   1      10.221  -9.200  -1.961  0.00  0.00    -0.309 N 
ATOM     56  H   LIG d   1      10.833  -9.340  -2.700  0.00  0.00     0.149 HD
BRANCH  55  57
ATOM     57  C   LIG d   1      10.421  -8.072  -1.048  0.00  0.00     0.052 C 
ATOM     58  H   LIG d   1      10.798  -7.215  -1.607  0.00  0.00     0.051 H 
ATOM     59  H   LIG d   1       9.473  -7.811  -0.579  0.00  0.00     0.051 H 
BRANCH  57  60
ATOM     60  C   LIG d   1      11.433  -8.462   0.031  0.00  0.00    -0.017 C 
ATOM     61  H   LIG d   1      12.082  -9.251  -0.348  0.00  0.00     0.083 H 
ATOM     62  H   LIG d   1      12.035  -7.593   0.296  0.00  0.00     0.083 H 
BRANCH  60  63
ATOM     63  N   LIG d   1      10.719  -8.944   1.220  0.00  0.00     0.232 N 
ATOM     64  H   LIG d   1       9.726  -8.823   1.088  0.00  0.00     0.203 HD
BRANCH  63  65
ATOM     65  C   LIG d   1      11.016 -10.368   1.427  0.00  0.00    -0.043 C 
ATOM     66  H   LIG d   1      11.748 -10.697   0.690  0.00  0.00     0.078 H 
ATOM     67  H   LIG d   1      11.418 -10.514   2.429  0.00  0.00     0.078 H 
ATOM     68  H   LIG d   1      10.101 -10.950   1.314  0.00  0.00     0.078 H 
ENDBRANCH  63  65
BRANCH  63  69
ATOM     69  C   LIG d   1      11.153  -8.178   2.396  0.00  0.00    -0.043 C 
ATOM     70  H   LIG d   1      10.284  -7.739   2.885  0.00  0.00     0.078 H 
ATOM     71  H   LIG d   1      11.667  -8.840   3.093  0.00  0.00     0.078 H 
ATOM     72  H   LIG d   1      11.833  -7.384   2.082  0.00  0.00     0.078 H 
ENDBRANCH  63  69
ENDBRANCH  60  63
ENDBRANCH  57  60
ENDBRANCH  55  57
ENDBRANCH  50  53
ENDBRANCH   6  50
TORSDOF 14
ENDMDL
MODEL 7
REMARK VINA RESULT:      -5.6      7.769     10.804
REMARK  14 active torsions:
REMARK  status: ('A' for Active; 'I' for Inactive)
REMARK    1  A    between atoms: C_1  and  C_2 
REMARK    2  A    between atoms: C_6  and  O_31 
REMARK    3  A    between atoms: C_12  and  C_13 
REMARK    4  A    between atoms: C_13  and  C_14 
REMARK       I    between atoms: C_14  and  N_16 
REMARK    5  A    between atoms: N_19  and  C_22 
REMARK    6  A    between atoms: C_22  and  C_23 
REMARK       I    between atoms: C_23  and  N_25 
REMARK    7  A    between atoms: N_25  and  C_26 
REMARK    8  A    between atoms: C_26  and  C_27 
REMARK    9  A    between atoms: C_27  and  N_28 
REMARK   10  A    between atoms: N_28  and  C_29 
REMARK   11  A    between atoms: N_28  and  C_30 
REMARK   12  A    between atoms: O_31  and  C_32 
REMARK   13  A    between atoms: C_32  and  C_33 
REMARK   14  A    between atoms: C_33  and  C_35 
ROOT
ATOM      1  C   LIG d   1       1.919  -3.828 -10.205  0.00  0.00     0.220 C 
ATOM      2  O   LIG d   1       1.475  -2.728  -9.953  0.00  0.00    -0.275 OA
ATOM      3  N   LIG d   1       1.095  -4.805 -10.635  0.00  0.00    -0.299 N 
ATOM      4  C   LIG d   1       1.613  -6.148 -10.940  0.00  0.00     0.028 C 
ATOM      5  C   LIG d   1       0.759  -7.180 -10.195  0.00  0.00     0.015 C 
ATOM      6  N   LIG d   1      -0.657  -6.969 -10.525  0.00  0.00    -0.291 N 
ATOM      7  C   LIG d   1      -1.121  -5.651 -10.071  0.00  0.00     0.015 C 
ATOM      8  C   LIG d   1      -0.344  -4.559 -10.804  0.00  0.00     0.028 C 
ATOM      9  H   LIG d   1       1.551  -6.329 -12.014  0.00  0.00     0.048 H 
ATOM     10  H   LIG d   1       2.650  -6.224 -10.612  0.00  0.00     0.048 H 
ATOM     11  H   LIG d   1       1.058  -8.183 -10.496  0.00  0.00     0.044 H 
ATOM     12  H   LIG d   1       0.903  -7.063  -9.122  0.00  0.00     0.044 H 
ATOM     13  H   LIG d   1      -2.184  -5.547 -10.281  0.00  0.00     0.044 H 
ATOM     14  H   LIG d   1      -0.950  -5.556  -8.998  0.00  0.00     0.044 H 
ATOM     15  H   LIG d   1      -0.601  -3.584 -10.387  0.00  0.00     0.048 H 
ATOM     16  H   LIG d   1      -0.597  -4.583 -11.865  0.00  0.00     0.048 H 
ENDROOT
BRANCH   1  17
ATOM     17  C   LIG d   1       3.391  -4.103 -10.038  0.00  0.00     0.056 C 
ATOM     18  H   LIG d   1       3.959  -3.467 -10.717  0.00  0.00     0.041 H 
ATOM     19  H   LIG d   1       3.594  -5.150 -10.264  0.00  0.00     0.041 H 
BRANCH  17  20
ATOM     20  C   LIG d   1       3.799  -3.809  -8.617  0.00  0.00     0.049 A 
ATOM     21  C   LIG d   1       4.371  -2.616  -8.306  0.00  0.00    -0.029 A 
ATOM     22  C   LIG d   1       4.747  -2.371  -6.912  0.00  0.00     0.021 A 
ATOM     23  C   LIG d   1       4.507  -3.376  -5.955  0.00  0.00     0.143 A 
ATOM     24  C   LIG d   1       5.333  -1.161  -6.525  0.00  0.00    -0.047 A 
ATOM     25  C   LIG d   1       4.859  -3.154  -4.633  0.00  0.00     0.023 A 
ATOM     26  O   LIG d   1       3.939  -4.542  -6.332  0.00  0.00    -0.422 OA
ATOM     27  C   LIG d   1       5.440  -1.950  -4.267  0.00  0.00     0.124 A 
ATOM     28  H   LIG d   1       4.681  -3.917  -3.889  0.00  0.00     0.069 H 
ATOM     29  C   LIG d   1       5.673  -0.959  -5.219  0.00  0.00    -0.019 A 
ATOM     30  H   LIG d   1       6.127  -0.026  -4.921  0.00  0.00     0.065 H 
ATOM     31  C   LIG d   1       3.594  -4.772  -7.608  0.00  0.00     0.341 A 
ATOM     32  O   LIG d   1       3.084  -5.838  -7.902  0.00  0.00    -0.245 OA
ATOM     33  H   LIG d   1       5.518  -0.390  -7.258  0.00  0.00     0.063 H 
BRANCH  21  34
ATOM     34  C   LIG d   1       4.606  -1.570  -9.365  0.00  0.00    -0.038 C 
ATOM     35  H   LIG d   1       4.349  -1.978 -10.342  0.00  0.00     0.028 H 
ATOM     36  H   LIG d   1       3.985  -0.699  -9.160  0.00  0.00     0.028 H 
ATOM     37  H   LIG d   1       5.656  -1.277  -9.359  0.00  0.00     0.028 H 
ENDBRANCH  21  34
BRANCH  27  38
ATOM     38  O   LIG d   1       5.784  -1.735  -2.972  0.00  0.00    -0.488 OA
BRANCH  38  39
ATOM     39  C   LIG d   1       4.716  -1.622  -2.028  0.00  0.00     0.110 C 
ATOM     40  H   LIG d   1       4.014  -2.443  -2.174  0.00  0.00     0.074 H 
ATOM     41  H   LIG d   1       5.120  -1.664  -1.017  0.00  0.00     0.074 H 
BRANCH  39  42
ATOM     42  C   LIG d   1       4.003  -0.310  -2.231  0.00  0.00    -0.043 C 
ATOM     43  C   LIG d   1       4.522   0.797  -1.762  0.00  0.00    -0.097 C 
ATOM     44  H   LIG d   1       4.011   1.737  -1.907  0.00  0.00     0.053 H 
ATOM     45  H   LIG d   1       5.461   0.770  -1.228  0.00  0.00     0.053 H 
BRANCH  42  46
ATOM     46  C   LIG d   1       2.693  -0.272  -2.975  0.00  0.00    -0.041 C 
ATOM     47  H   LIG d   1       2.158  -1.208  -2.816  0.00  0.00     0.028 H 
ATOM     48  H   LIG d   1       2.090   0.558  -2.606  0.00  0.00     0.028 H 
ATOM     49  H   LIG d   1       2.884  -0.137  -4.039  0.00  0.00     0.028 H 
ENDBRANCH  42  46
ENDBRANCH  39  42
ENDBRANCH  38  39
ENDBRANCH  27  38
ENDBRANCH  17  20
ENDBRANCH   1  17
BRANCH   6  50
ATOM     50  C   LIG d   1      -1.492  -8.042  -9.970  0.00  0.00     0.076 C 
ATOM     51  H   LIG d   1      -0.857  -8.860  -9.632  0.00  0.00     0.052 H 
ATOM     52  H   LIG d   1      -2.066  -7.655  -9.127  0.00  0.00     0.052 H 
BRANCH  50  53
ATOM     53  C   LIG d   1      -2.436  -8.544 -11.031  0.00  0.00     0.227 C 
ATOM     54  O   LIG d   1      -2.171  -8.383 -12.203  0.00  0.00    -0.274 OA
ATOM     55  N   LIG d   1      -3.575  -9.172 -10.678  0.00  0.00    -0.309 N 
ATOM     56  H   LIG d   1      -3.787  -9.300  -9.740  0.00  0.00     0.149 HD
BRANCH  55  57
ATOM     57  C   LIG d   1      -4.493  -9.662 -11.710  0.00  0.00     0.052 C 
ATOM     58  H   LIG d   1      -4.444  -9.007 -12.580  0.00  0.00     0.051 H 
ATOM     59  H   LIG d   1      -4.207 -10.672 -11.999  0.00  0.00     0.051 H 
BRANCH  57  60
ATOM     60  C   LIG d   1      -5.920  -9.673 -11.159  0.00  0.00    -0.017 C 
ATOM     61  H   LIG d   1      -6.069  -8.805 -10.518  0.00  0.00     0.083 H 
ATOM     62  H   LIG d   1      -6.629  -9.639 -11.987  0.00  0.00     0.083 H 
BRANCH  60  63
ATOM     63  N   LIG d   1      -6.135 -10.900 -10.381  0.00  0.00     0.232 N 
ATOM     64  H   LIG d   1      -5.508 -10.911  -9.591  0.00  0.00     0.203 HD
BRANCH  63  65
ATOM     65  C   LIG d   1      -7.524 -10.941  -9.904  0.00  0.00    -0.043 C 
ATOM     66  H   LIG d   1      -7.803  -9.964  -9.510  0.00  0.00     0.078 H 
ATOM     67  H   LIG d   1      -8.184 -11.201 -10.732  0.00  0.00     0.078 H 
ATOM     68  H   LIG d   1      -7.616 -11.689  -9.117  0.00  0.00     0.078 H 
ENDBRANCH  63  65
BRANCH  63  69
ATOM     69  C   LIG d   1      -5.873 -12.070 -11.229  0.00  0.00    -0.043 C 
ATOM     70  H   LIG d   1      -6.334 -11.922 -12.205  0.00  0.00     0.078 H 
ATOM     71  H   LIG d   1      -4.797 -12.198 -11.351  0.00  0.00     0.078 H 
ATOM     72  H   LIG d   1      -6.294 -12.961 -10.759  0.00  0.00     0.078 H 
ENDBRANCH  63  69
ENDBRANCH  60  63
ENDBRANCH  57  60
ENDBRANCH  55  57
ENDBRANCH  50  53
ENDBRANCH   6  50
TORSDOF 14
ENDMDL
MODEL 8
REMARK VINA RESULT:      -5.6      5.005      9.912
REMARK  14 active torsions:
REMARK  status: ('A' for Active; 'I' for Inactive)
REMARK    1  A    between atoms: C_1  and  C_2 
REMARK    2  A    between atoms: C_6  and  O_31 
REMARK    3  A    between atoms: C_12  and  C_13 
REMARK    4  A    between atoms: C_13  and  C_14 
REMARK       I    between atoms: C_14  and  N_16 
REMARK    5  A    between atoms: N_19  and  C_22 
REMARK    6  A    between atoms: C_22  and  C_23 
REMARK       I    between atoms: C_23  and  N_25 
REMARK    7  A    between atoms: N_25  and  C_26 
REMARK    8  A    between atoms: C_26  and  C_27 
REMARK    9  A    between atoms: C_27  and  N_28 
REMARK   10  A    between atoms: N_28  and  C_29 
REMARK   11  A    between atoms: N_28  and  C_30 
REMARK   12  A    between atoms: O_31  and  C_32 
REMARK   13  A    between atoms: C_32  and  C_33 
REMARK   14  A    between atoms: C_33  and  C_35 
ROOT
ATOM      1  C   LIG d   1      11.877   5.600  -4.162  0.00  0.00     0.220 C 
ATOM      2  O   LIG d   1      12.622   4.650  -4.046  0.00  0.00    -0.275 OA
ATOM      3  N   LIG d   1      12.075   6.706  -3.419  0.00  0.00    -0.299 N 
ATOM      4  C   LIG d   1      11.179   7.867  -3.540  0.00  0.00     0.028 C 
ATOM      5  C   LIG d   1      10.707   8.266  -2.137  0.00  0.00     0.015 C 
ATOM      6  N   LIG d   1      11.875   8.470  -1.270  0.00  0.00    -0.291 N 
ATOM      7  C   LIG d   1      12.641   7.227  -1.105  0.00  0.00     0.015 C 
ATOM      8  C   LIG d   1      13.187   6.783  -2.461  0.00  0.00     0.028 C 
ATOM      9  H   LIG d   1      11.717   8.699  -3.995  0.00  0.00     0.048 H 
ATOM     10  H   LIG d   1      10.318   7.603  -4.155  0.00  0.00     0.048 H 
ATOM     11  H   LIG d   1      10.131   9.189  -2.197  0.00  0.00     0.044 H 
ATOM     12  H   LIG d   1      10.082   7.473  -1.726  0.00  0.00     0.044 H 
ATOM     13  H   LIG d   1      13.467   7.397  -0.415  0.00  0.00     0.044 H 
ATOM     14  H   LIG d   1      11.988   6.450  -0.707  0.00  0.00     0.044 H 
ATOM     15  H   LIG d   1      13.655   5.803  -2.363  0.00  0.00     0.048 H 
ATOM     16  H   LIG d   1      13.923   7.509  -2.811  0.00  0.00     0.048 H 
ENDROOT
BRANCH   1  17
ATOM     17  C   LIG d   1      10.730   5.542  -5.137  0.00  0.00     0.056 C 
ATOM     18  H   LIG d   1      11.119   5.443  -6.150  0.00  0.00     0.041 H 
ATOM     19  H   LIG d   1      10.142   6.457  -5.062  0.00  0.00     0.041 H 
BRANCH  17  20
ATOM     20  C   LIG d   1       9.856   4.357  -4.817  0.00  0.00     0.049 A 
ATOM     21  C   LIG d   1       9.467   3.510  -5.806  0.00  0.00    -0.029 A 
ATOM     22  C   LIG d   1       8.622   2.369  -5.448  0.00  0.00     0.021 A 
ATOM     23  C   LIG d   1       8.245   2.196  -4.103  0.00  0.00     0.143 A 
ATOM     24  C   LIG d   1       8.193   1.456  -6.419  0.00  0.00    -0.047 A 
ATOM     25  C   LIG d   1       7.446   1.118  -3.753  0.00  0.00     0.023 A 
ATOM     26  O   LIG d   1       8.662   3.078  -3.168  0.00  0.00    -0.422 OA
ATOM     27  C   LIG d   1       7.030   0.225  -4.727  0.00  0.00     0.124 A 
ATOM     28  H   LIG d   1       7.149   0.975  -2.725  0.00  0.00     0.069 H 
ATOM     29  C   LIG d   1       7.408   0.401  -6.057  0.00  0.00    -0.019 A 
ATOM     30  H   LIG d   1       7.076  -0.302  -6.806  0.00  0.00     0.065 H 
ATOM     31  C   LIG d   1       9.435   4.126  -3.490  0.00  0.00     0.341 A 
ATOM     32  O   LIG d   1       9.788   4.895  -2.615  0.00  0.00    -0.245 OA
ATOM     33  H   LIG d   1       8.482   1.589  -7.450  0.00  0.00     0.063 H 
BRANCH  21  34
ATOM     34  C   LIG d   1       9.898   3.736  -7.232  0.00  0.00    -0.038 C 
ATOM     35  H   LIG d   1      10.986   3.737  -7.287  0.00  0.00     0.028 H 
ATOM     36  H   LIG d   1       9.503   2.939  -7.862  0.00  0.00     0.028 H 
ATOM     37  H   LIG d   1       9.515   4.697  -7.579  0.00  0.00     0.028 H 
ENDBRANCH  21  34
BRANCH  27  38
ATOM     38  O   LIG d   1       6.247  -0.829  -4.383  0.00  0.00    -0.488 OA
BRANCH  38  39
ATOM     39  C   LIG d   1       6.248  -1.215  -3.007  0.00  0.00     0.110 C 
ATOM     40  H   LIG d   1       6.562  -2.255  -2.921  0.00  0.00     0.074 H 
ATOM     41  H   LIG d   1       6.937  -0.580  -2.452  0.00  0.00     0.074 H 
BRANCH  39  42
ATOM     42  C   LIG d   1       4.859  -1.062  -2.442  0.00  0.00    -0.043 C 
ATOM     43  C   LIG d   1       4.498   0.068  -1.886  0.00  0.00    -0.097 C 
ATOM     44  H   LIG d   1       3.504   0.178  -1.482  0.00  0.00     0.053 H 
ATOM     45  H   LIG d   1       5.197   0.890  -1.831  0.00  0.00     0.053 H 
BRANCH  42  46
ATOM     46  C   LIG d   1       3.884  -2.209  -2.519  0.00  0.00    -0.041 C 
ATOM     47  H   LIG d   1       4.232  -2.932  -3.256  0.00  0.00     0.028 H 
ATOM     48  H   LIG d   1       3.811  -2.689  -1.544  0.00  0.00     0.028 H 
ATOM     49  H   LIG d   1       2.904  -1.833  -2.813  0.00  0.00     0.028 H 
ENDBRANCH  42  46
ENDBRANCH  39  42
ENDBRANCH  38  39
ENDBRANCH  27  38
ENDBRANCH  17  20
ENDBRANCH   1  17
BRANCH   6  50
ATOM     50  C   LIG d   1      11.475   9.019   0.032  0.00  0.00     0.076 C 
ATOM     51  H   LIG d   1      10.746   8.357   0.498  0.00  0.00     0.052 H 
ATOM     52  H   LIG d   1      12.352   9.105   0.674  0.00  0.00     0.052 H 
BRANCH  50  53
ATOM     53  C   LIG d   1      10.862  10.381  -0.165  0.00  0.00     0.227 C 
ATOM     54  O   LIG d   1       9.705  10.575   0.141  0.00  0.00    -0.274 OA
ATOM     55  N   LIG d   1      11.600  11.384  -0.680  0.00  0.00    -0.309 N 
ATOM     56  H   LIG d   1      12.525  11.229  -0.925  0.00  0.00     0.149 HD
BRANCH  55  57
ATOM     57  C   LIG d   1      11.004  12.710  -0.871  0.00  0.00     0.052 C 
ATOM     58  H   LIG d   1      10.162  12.831  -0.189  0.00  0.00     0.051 H 
ATOM     59  H   LIG d   1      11.751  13.476  -0.665  0.00  0.00     0.051 H 
BRANCH  57  60
ATOM     60  C   LIG d   1      10.516  12.847  -2.314  0.00  0.00    -0.017 C 
ATOM     61  H   LIG d   1      10.797  13.826  -2.701  0.00  0.00     0.083 H 
ATOM     62  H   LIG d   1      10.971  12.070  -2.927  0.00  0.00     0.083 H 
BRANCH  60  63
ATOM     63  N   LIG d   1       9.054  12.707  -2.352  0.00  0.00     0.232 N 
ATOM     64  H   LIG d   1       8.700  12.623  -1.411  0.00  0.00     0.203 HD
BRANCH  63  65
ATOM     65  C   LIG d   1       8.465  13.890  -2.993  0.00  0.00    -0.043 C 
ATOM     66  H   LIG d   1       7.627  14.249  -2.395  0.00  0.00     0.078 H 
ATOM     67  H   LIG d   1       9.218  14.674  -3.071  0.00  0.00     0.078 H 
ATOM     68  H   LIG d   1       8.112  13.625  -3.990  0.00  0.00     0.078 H 
ENDBRANCH  63  65
BRANCH  63  69
ATOM     69  C   LIG d   1       8.697  11.505  -3.117  0.00  0.00    -0.043 C 
ATOM     70  H   LIG d   1       9.492  10.765  -3.024  0.00  0.00     0.078 H 
ATOM     71  H   LIG d   1       7.766  11.090  -2.730  0.00  0.00     0.078 H 
ATOM     72  H   LIG d   1       8.566  11.769  -4.168  0.00  0.00     0.078 H 
ENDBRANCH  63  69
ENDBRANCH  60  63
ENDBRANCH  57  60
ENDBRANCH  55  57
ENDBRANCH  50  53
ENDBRANCH   6  50
TORSDOF 14
ENDMDL
MODEL 9
REMARK VINA RESULT:      -5.6      4.477      8.888
REMARK  14 active torsions:
REMARK  status: ('A' for Active; 'I' for Inactive)
REMARK    1  A    between atoms: C_1  and  C_2 
REMARK    2  A    between atoms: C_6  and  O_31 
REMARK    3  A    between atoms: C_12  and  C_13 
REMARK    4  A    between atoms: C_13  and  C_14 
REMARK       I    between atoms: C_14  and  N_16 
REMARK    5  A    between atoms: N_19  and  C_22 
REMARK    6  A    between atoms: C_22  and  C_23 
REMARK       I    between atoms: C_23  and  N_25 
REMARK    7  A    between atoms: N_25  and  C_26 
REMARK    8  A    between atoms: C_26  and  C_27 
REMARK    9  A    between atoms: C_27  and  N_28 
REMARK   10  A    between atoms: N_28  and  C_29 
REMARK   11  A    between atoms: N_28  and  C_30 
REMARK   12  A    between atoms: O_31  and  C_32 
REMARK   13  A    between atoms: C_32  and  C_33 
REMARK   14  A    between atoms: C_33  and  C_35 
ROOT
ATOM      1  C   LIG d   1       8.876   3.467  -8.916  0.00  0.00     0.220 C 
ATOM      2  O   LIG d   1       7.836   3.143  -9.448  0.00  0.00    -0.275 OA
ATOM      3  N   LIG d   1       9.266   4.758  -8.928  0.00  0.00    -0.299 N 
ATOM      4  C   LIG d   1      10.527   5.171  -8.293  0.00  0.00     0.028 C 
ATOM      5  C   LIG d   1      11.332   5.997  -9.303  0.00  0.00     0.015 C 
ATOM      6  N   LIG d   1      10.499   7.097  -9.806  0.00  0.00    -0.291 N 
ATOM      7  C   LIG d   1       9.328   6.591 -10.535  0.00  0.00     0.015 C 
ATOM      8  C   LIG d   1       8.445   5.788  -9.581  0.00  0.00     0.028 C 
ATOM      9  H   LIG d   1      10.312   5.778  -7.413  0.00  0.00     0.048 H 
ATOM     10  H   LIG d   1      11.097   4.289  -8.004  0.00  0.00     0.048 H 
ATOM     11  H   LIG d   1      12.217   6.404  -8.816  0.00  0.00     0.044 H 
ATOM     12  H   LIG d   1      11.634   5.360 -10.134  0.00  0.00     0.044 H 
ATOM     13  H   LIG d   1       8.761   7.428 -10.941  0.00  0.00     0.044 H 
ATOM     14  H   LIG d   1       9.659   5.946 -11.349  0.00  0.00     0.044 H 
ATOM     15  H   LIG d   1       7.638   5.313 -10.142  0.00  0.00     0.048 H 
ATOM     16  H   LIG d   1       8.025   6.454  -8.827  0.00  0.00     0.048 H 
ENDROOT
BRANCH   1  17
ATOM     17  C   LIG d   1       9.734   2.428  -8.242  0.00  0.00     0.056 C 
ATOM     18  H   LIG d   1      10.504   2.921  -7.648  0.00  0.00     0.041 H 
ATOM     19  H   LIG d   1      10.205   1.799  -8.997  0.00  0.00     0.041 H 
BRANCH  17  20
ATOM     20  C   LIG d   1       8.876   1.576  -7.342  0.00  0.00     0.049 A 
ATOM     21  C   LIG d   1       8.661   1.949  -6.053  0.00  0.00    -0.029 A 
ATOM     22  C   LIG d   1       7.817   1.093  -5.216  0.00  0.00     0.021 A 
ATOM     23  C   LIG d   1       7.269  -0.078  -5.774  0.00  0.00     0.143 A 
ATOM     24  C   LIG d   1       7.551   1.424  -3.883  0.00  0.00    -0.047 A 
ATOM     25  C   LIG d   1       6.468  -0.894  -4.991  0.00  0.00     0.023 A 
ATOM     26  O   LIG d   1       7.526  -0.393  -7.062  0.00  0.00    -0.422 OA
ATOM     27  C   LIG d   1       6.216  -0.551  -3.672  0.00  0.00     0.124 A 
ATOM     28  H   LIG d   1       6.041  -1.795  -5.407  0.00  0.00     0.069 H 
ATOM     29  C   LIG d   1       6.761   0.609  -3.126  0.00  0.00    -0.019 A 
ATOM     30  H   LIG d   1       6.557   0.865  -2.097  0.00  0.00     0.065 H 
ATOM     31  C   LIG d   1       8.299   0.386  -7.833  0.00  0.00     0.341 A 
ATOM     32  O   LIG d   1       8.504   0.062  -8.989  0.00  0.00    -0.245 OA
ATOM     33  H   LIG d   1       7.972   2.322  -3.455  0.00  0.00     0.063 H 
BRANCH  21  34
ATOM     34  C   LIG d   1       9.269   3.212  -5.501  0.00  0.00    -0.038 C 
ATOM     35  H   LIG d   1       8.724   4.075  -5.882  0.00  0.00     0.028 H 
ATOM     36  H   LIG d   1       9.212   3.197  -4.413  0.00  0.00     0.028 H 
ATOM     37  H   LIG d   1      10.313   3.277  -5.809  0.00  0.00     0.028 H 
ENDBRANCH  21  34
BRANCH  27  38
ATOM     38  O   LIG d   1       5.432  -1.352  -2.907  0.00  0.00    -0.488 OA
BRANCH  38  39
ATOM     39  C   LIG d   1       4.616  -0.711  -1.923  0.00  0.00     0.110 C 
ATOM     40  H   LIG d   1       4.230  -1.457  -1.229  0.00  0.00     0.074 H 
ATOM     41  H   LIG d   1       5.210   0.021  -1.379  0.00  0.00     0.074 H 
BRANCH  39  42
ATOM     42  C   LIG d   1       3.463  -0.016  -2.603  0.00  0.00    -0.043 C 
ATOM     43  C   LIG d   1       2.539  -0.720  -3.209  0.00  0.00    -0.097 C 
ATOM     44  H   LIG d   1       1.714  -0.223  -3.696  0.00  0.00     0.053 H 
ATOM     45  H   LIG d   1       2.603  -1.798  -3.223  0.00  0.00     0.053 H 
BRANCH  42  46
ATOM     46  C   LIG d   1       3.374   1.488  -2.584  0.00  0.00    -0.041 C 
ATOM     47  H   LIG d   1       2.406   1.789  -2.184  0.00  0.00     0.028 H 
ATOM     48  H   LIG d   1       4.168   1.890  -1.955  0.00  0.00     0.028 H 
ATOM     49  H   LIG d   1       3.484   1.871  -3.598  0.00  0.00     0.028 H 
ENDBRANCH  42  46
ENDBRANCH  39  42
ENDBRANCH  38  39
ENDBRANCH  27  38
ENDBRANCH  17  20
ENDBRANCH   1  17
BRANCH   6  50
ATOM     50  C   LIG d   1      11.285   8.013 -10.644  0.00  0.00     0.076 C 
ATOM     51  H   LIG d   1      12.168   7.496 -11.018  0.00  0.00     0.052 H 
ATOM     52  H   LIG d   1      10.676   8.348 -11.484  0.00  0.00     0.052 H 
BRANCH  50  53
ATOM     53  C   LIG d   1      11.709   9.204  -9.825  0.00  0.00     0.227 C 
ATOM     54  O   LIG d   1      12.870   9.551  -9.816  0.00  0.00    -0.274 OA
ATOM     55  N   LIG d   1      10.797   9.883  -9.102  0.00  0.00    -0.309 N 
ATOM     56  H   LIG d   1       9.868   9.606  -9.109  0.00  0.00     0.149 HD
BRANCH  55  57
ATOM     57  C   LIG d   1      11.209  11.043  -8.306  0.00  0.00     0.052 C 
ATOM     58  H   LIG d   1      12.295  11.141  -8.341  0.00  0.00     0.051 H 
ATOM     59  H   LIG d   1      10.750  11.944  -8.712  0.00  0.00     0.051 H 
BRANCH  57  60
ATOM     60  C   LIG d   1      10.761  10.851  -6.855  0.00  0.00    -0.017 C 
ATOM     61  H   LIG d   1      10.575   9.794  -6.669  0.00  0.00     0.083 H 
ATOM     62  H   LIG d   1      11.543  11.206  -6.184  0.00  0.00     0.083 H 
BRANCH  60  63
ATOM     63  N   LIG d   1       9.529  11.614  -6.619  0.00  0.00     0.232 N 
ATOM     64  H   LIG d   1       8.734  11.074  -6.926  0.00  0.00     0.203 HD
BRANCH  63  65
ATOM     65  C   LIG d   1       9.399  11.904  -5.185  0.00  0.00    -0.043 C 
ATOM     66  H   LIG d   1       9.062  11.009  -4.662  0.00  0.00     0.078 H 
ATOM     67  H   LIG d   1      10.366  12.214  -4.788  0.00  0.00     0.078 H 
ATOM     68  H   LIG d   1       8.674  12.704  -5.040  0.00  0.00     0.078 H 
ENDBRANCH  63  65
BRANCH  63  69
ATOM     69  C   LIG d   1       9.582  12.875  -7.371  0.00  0.00    -0.043 C 
ATOM     70  H   LIG d   1      10.503  12.914  -7.951  0.00  0.00     0.078 H 
ATOM     71  H   LIG d   1       8.726  12.934  -8.043  0.00  0.00     0.078 H 
ATOM     72  H   LIG d   1       9.554  13.715  -6.674  0.00  0.00     0.078 H 
ENDBRANCH  63  69
ENDBRANCH  60  63
ENDBRANCH  57  60
ENDBRANCH  55  57
ENDBRANCH  50  53
ENDBRANCH   6  50
TORSDOF 14
ENDMDL
MODEL 10
REMARK VINA RESULT:      -5.5      9.271     12.486
REMARK  14 active torsions:
REMARK  status: ('A' for Active; 'I' for Inactive)
REMARK    1  A    between atoms: C_1  and  C_2 
REMARK    2  A    between atoms: C_6  and  O_31 
REMARK    3  A    between atoms: C_12  and  C_13 
REMARK    4  A    between atoms: C_13  and  C_14 
REMARK       I    between atoms: C_14  and  N_16 
REMARK    5  A    between atoms: N_19  and  C_22 
REMARK    6  A    between atoms: C_22  and  C_23 
REMARK       I    between atoms: C_23  and  N_25 
REMARK    7  A    between atoms: N_25  and  C_26 
REMARK    8  A    between atoms: C_26  and  C_27 
REMARK    9  A    between atoms: C_27  and  N_28 
REMARK   10  A    between atoms: N_28  and  C_29 
REMARK   11  A    between atoms: N_28  and  C_30 
REMARK   12  A    between atoms: O_31  and  C_32 
REMARK   13  A    between atoms: C_32  and  C_33 
REMARK   14  A    between atoms: C_33  and  C_35 
ROOT
ATOM      1  C   LIG d   1       9.349  -8.250  -2.812  0.00  0.00     0.220 C 
ATOM      2  O   LIG d   1       8.154  -8.410  -2.684  0.00  0.00    -0.275 OA
ATOM      3  N   LIG d   1      10.203  -8.823  -1.941  0.00  0.00    -0.299 N 
ATOM      4  C   LIG d   1      11.657  -8.637  -2.075  0.00  0.00     0.028 C 
ATOM      5  C   LIG d   1      12.215  -8.177  -0.724  0.00  0.00     0.015 C 
ATOM      6  N   LIG d   1      11.803  -9.124   0.320  0.00  0.00    -0.291 N 
ATOM      7  C   LIG d   1      10.342  -9.151   0.471  0.00  0.00     0.015 C 
ATOM      8  C   LIG d   1       9.707  -9.645  -0.828  0.00  0.00     0.028 C 
ATOM      9  H   LIG d   1      12.122  -9.580  -2.362  0.00  0.00     0.048 H 
ATOM     10  H   LIG d   1      11.860  -7.880  -2.833  0.00  0.00     0.048 H 
ATOM     11  H   LIG d   1      13.303  -8.140  -0.774  0.00  0.00     0.044 H 
ATOM     12  H   LIG d   1      11.827  -7.186  -0.489  0.00  0.00     0.044 H 
ATOM     13  H   LIG d   1      10.072  -9.820   1.287  0.00  0.00     0.044 H 
ATOM     14  H   LIG d   1       9.981  -8.146   0.689  0.00  0.00     0.044 H 
ATOM     15  H   LIG d   1       8.622  -9.556  -0.761  0.00  0.00     0.048 H 
ATOM     16  H   LIG d   1       9.981 -10.688  -0.993  0.00  0.00     0.048 H 
ENDROOT
BRANCH   1  17
ATOM     17  C   LIG d   1       9.880  -7.410  -3.945  0.00  0.00     0.056 C 
ATOM     18  H   LIG d   1       9.643  -7.890  -4.895  0.00  0.00     0.041 H 
ATOM     19  H   LIG d   1      10.961  -7.310  -3.849  0.00  0.00     0.041 H 
BRANCH  17  20
ATOM     20  C   LIG d   1       9.243  -6.045  -3.901  0.00  0.00     0.049 A 
ATOM     21  C   LIG d   1       8.230  -5.738  -4.754  0.00  0.00    -0.029 A 
ATOM     22  C   LIG d   1       7.638  -4.401  -4.672  0.00  0.00     0.021 A 
ATOM     23  C   LIG d   1       8.139  -3.491  -3.723  0.00  0.00     0.143 A 
ATOM     24  C   LIG d   1       6.587  -4.025  -5.517  0.00  0.00    -0.047 A 
ATOM     25  C   LIG d   1       7.584  -2.223  -3.637  0.00  0.00     0.023 A 
ATOM     26  O   LIG d   1       9.152  -3.858  -2.908  0.00  0.00    -0.422 OA
ATOM     27  C   LIG d   1       6.546  -1.867  -4.482  0.00  0.00     0.124 A 
ATOM     28  H   LIG d   1       7.960  -1.515  -2.913  0.00  0.00     0.069 H 
ATOM     29  C   LIG d   1       6.053  -2.773  -5.419  0.00  0.00    -0.019 A 
ATOM     30  H   LIG d   1       5.244  -2.483  -6.072  0.00  0.00     0.065 H 
ATOM     31  C   LIG d   1       9.699  -5.081  -2.979  0.00  0.00     0.341 A 
ATOM     32  O   LIG d   1      10.610  -5.368  -2.224  0.00  0.00    -0.245 OA
ATOM     33  H   LIG d   1       6.203  -4.723  -6.245  0.00  0.00     0.063 H 
BRANCH  21  34
ATOM     34  C   LIG d   1       7.726  -6.748  -5.753  0.00  0.00    -0.038 C 
ATOM     35  H   LIG d   1       6.920  -7.329  -5.307  0.00  0.00     0.028 H 
ATOM     36  H   LIG d   1       7.355  -6.230  -6.637  0.00  0.00     0.028 H 
ATOM     37  H   LIG d   1       8.541  -7.415  -6.037  0.00  0.00     0.028 H 
ENDBRANCH  21  34
BRANCH  27  38
ATOM     38  O   LIG d   1       6.004  -0.626  -4.397  0.00  0.00    -0.488 OA
BRANCH  38  39
ATOM     39  C   LIG d   1       4.594  -0.547  -4.179  0.00  0.00     0.110 C 
ATOM     40  H   LIG d   1       4.239   0.446  -4.452  0.00  0.00     0.074 H 
ATOM     41  H   LIG d   1       4.090  -1.295  -4.791  0.00  0.00     0.074 H 
BRANCH  39  42
ATOM     42  C   LIG d   1       4.295  -0.805  -2.724  0.00  0.00    -0.043 C 
ATOM     43  C   LIG d   1       4.498   0.137  -1.836  0.00  0.00    -0.097 C 
ATOM     44  H   LIG d   1       4.285  -0.047  -0.795  0.00  0.00     0.053 H 
ATOM     45  H   LIG d   1       4.881   1.098  -2.147  0.00  0.00     0.053 H 
BRANCH  42  46
ATOM     46  C   LIG d   1       3.762  -2.146  -2.291  0.00  0.00    -0.041 C 
ATOM     47  H   LIG d   1       3.547  -2.753  -3.170  0.00  0.00     0.028 H 
ATOM     48  H   LIG d   1       4.506  -2.651  -1.674  0.00  0.00     0.028 H 
ATOM     49  H   LIG d   1       2.849  -2.004  -1.714  0.00  0.00     0.028 H 
ENDBRANCH  42  46
ENDBRANCH  39  42
ENDBRANCH  38  39
ENDBRANCH  27  38
ENDBRANCH  17  20
ENDBRANCH   1  17
BRANCH   6  50
ATOM     50  C   LIG d   1      12.459  -8.817   1.598  0.00  0.00     0.076 C 
ATOM     51  H   LIG d   1      13.540  -8.834   1.466  0.00  0.00     0.052 H 
ATOM     52  H   LIG d   1      12.150  -7.827   1.935  0.00  0.00     0.052 H 
BRANCH  50  53
ATOM     53  C   LIG d   1      12.062  -9.844   2.626  0.00  0.00     0.227 C 
ATOM     54  O   LIG d   1      11.503  -9.498   3.645  0.00  0.00    -0.274 OA
ATOM     55  N   LIG d   1      12.329 -11.148   2.414  0.00  0.00    -0.309 N 
ATOM     56  H   LIG d   1      12.776 -11.425   1.599  0.00  0.00     0.149 HD
BRANCH  55  57
ATOM     57  C   LIG d   1      11.943 -12.147   3.414  0.00  0.00     0.052 C 
ATOM     58  H   LIG d   1      10.997 -11.856   3.873  0.00  0.00     0.051 H 
ATOM     59  H   LIG d   1      11.828 -13.118   2.931  0.00  0.00     0.051 H 
BRANCH  57  60
ATOM     60  C   LIG d   1      13.025 -12.238   4.490  0.00  0.00    -0.017 C 
ATOM     61  H   LIG d   1      13.320 -13.278   4.623  0.00  0.00     0.083 H 
ATOM     62  H   LIG d   1      13.892 -11.651   4.185  0.00  0.00     0.083 H 
BRANCH  60  63
ATOM     63  N   LIG d   1      12.500 -11.712   5.758  0.00  0.00     0.232 N 
ATOM     64  H   LIG d   1      12.238 -10.746   5.638  0.00  0.00     0.203 HD
BRANCH  63  65
ATOM     65  C   LIG d   1      11.323 -12.493   6.162  0.00  0.00    -0.043 C 
ATOM     66  H   LIG d   1      10.577 -12.462   5.369  0.00  0.00     0.078 H 
ATOM     67  H   LIG d   1      11.618 -13.526   6.344  0.00  0.00     0.078 H 
ATOM     68  H   LIG d   1      10.902 -12.070   7.073  0.00  0.00     0.078 H 
ENDBRANCH  63  65
BRANCH  63  69
ATOM     69  C   LIG d   1      13.535 -11.813   6.796  0.00  0.00    -0.043 C 
ATOM     70  H   LIG d   1      13.752 -10.821   7.190  0.00  0.00     0.078 H 
ATOM     71  H   LIG d   1      13.180 -12.456   7.602  0.00  0.00     0.078 H 
ATOM     72  H   LIG d   1      14.442 -12.239   6.364  0.00  0.00     0.078 H 
ENDBRANCH  63  69
ENDBRANCH  60  63
ENDBRANCH  57  60
ENDBRANCH  55  57
ENDBRANCH  50  53
ENDBRANCH   6  50
TORSDOF 14
ENDMDL
