MODEL 1
REMARK VINA RESULT:      -7.6      0.000      0.000
REMARK  4 active torsions:
REMARK  status: ('A' for Active; 'I' for Inactive)
REMARK    1  A    between atoms: C_1  and  C_2 
REMARK    2  A    between atoms: C_2  and  C_3 
REMARK    3  A    between atoms: N_12  and  C_15 
REMARK    4  A    between atoms: N_16  and  C_17 
ROOT
ATOM      1  C   LIG d   1       8.745   2.012  -4.180  0.00  0.00     0.051 C 
ATOM      2  N   LIG d   1       9.574   2.171  -3.178  0.00  0.00    -0.252 NA
ENDROOT
BRANCH   1   3
ATOM      3  C   LIG d   1       8.790   2.958  -5.351  0.00  0.00    -0.022 C 
ATOM      4  H   LIG d   1       9.009   3.966  -4.995  0.00  0.00     0.029 H 
ATOM      5  H   LIG d   1       9.568   2.642  -6.045  0.00  0.00     0.029 H 
ATOM      6  H   LIG d   1       7.825   2.955  -5.859  0.00  0.00     0.029 H 
ENDBRANCH   1   3
BRANCH   1   7
ATOM      7  C   LIG d   1       7.808   0.948  -4.163  0.00  0.00     0.052 C 
ATOM      8  C   LIG d   1       8.085  -0.261  -4.810  0.00  0.00    -0.023 C 
ATOM      9  N   LIG d   1       7.196  -1.281  -4.803  0.00  0.00    -0.356 N 
ATOM     10  O   LIG d   1       9.262  -0.414  -5.448  0.00  0.00    -0.861 OA
ATOM     11  C   LIG d   1       6.117  -1.308  -3.942  0.00  0.00     0.052 A 
ATOM     12  C   LIG d   1       5.736  -0.143  -3.255  0.00  0.00     0.046 A 
ATOM     13  C   LIG d   1       5.392  -2.480  -3.746  0.00  0.00    -0.037 A 
ATOM     14  C   LIG d   1       6.519   1.090  -3.469  0.00  0.00     0.198 C 
ATOM     15  C   LIG d   1       4.641  -0.163  -2.393  0.00  0.00    -0.049 A 
ATOM     16  O   LIG d   1       6.115   2.176  -3.090  0.00  0.00    -0.286 OA
ATOM     17  C   LIG d   1       3.935  -1.334  -2.216  0.00  0.00    -0.061 A 
ATOM     18  H   LIG d   1       4.346   0.733  -1.868  0.00  0.00     0.062 H 
ATOM     19  C   LIG d   1       4.312  -2.486  -2.890  0.00  0.00    -0.060 A 
ATOM     20  H   LIG d   1       3.086  -1.354  -1.550  0.00  0.00     0.062 H 
ATOM     21  H   LIG d   1       3.753  -3.398  -2.743  0.00  0.00     0.062 H 
ATOM     22  H   LIG d   1       5.677  -3.383  -4.265  0.00  0.00     0.064 H 
BRANCH   9  23
ATOM     23  C   LIG d   1       7.383  -2.390  -5.742  0.00  0.00     0.011 C 
ATOM     24  H   LIG d   1       8.186  -2.147  -6.437  0.00  0.00     0.045 H 
ATOM     25  H   LIG d   1       7.640  -3.295  -5.190  0.00  0.00     0.045 H 
ATOM     26  H   LIG d   1       6.460  -2.555  -6.298  0.00  0.00     0.045 H 
ENDBRANCH   9  23
ENDBRANCH   1   7
BRANCH   2  27
ATOM     27  C   LIG d   1      10.384   3.266  -3.131  0.00  0.00     0.065 A 
ATOM     28  C   LIG d   1       9.918   4.458  -2.560  0.00  0.00    -0.025 A 
ATOM     29  C   LIG d   1      10.749   5.568  -2.510  0.00  0.00     0.035 A 
ATOM     30  H   LIG d   1       8.919   4.511  -2.156  0.00  0.00     0.065 H 
ATOM     31  C   LIG d   1      12.052   5.493  -3.043  0.00  0.00     0.033 A 
ATOM     32  C   LIG d   1      10.269   6.828  -1.904  0.00  0.00     0.195 A 
ATOM     33  C   LIG d   1      12.503   4.302  -3.614  0.00  0.00    -0.048 A 
ATOM     34  C   LIG d   1      12.936   6.671  -2.996  0.00  0.00     0.195 A 
ATOM     35  C   LIG d   1      11.678   3.200  -3.658  0.00  0.00    -0.036 A 
ATOM     36  H   LIG d   1      13.502   4.245  -4.022  0.00  0.00     0.062 H 
ATOM     37  H   LIG d   1      12.032   2.281  -4.101  0.00  0.00     0.064 H 
ATOM     38  C   LIG d   1      12.457   7.932  -2.389  0.00  0.00     0.033 A 
ATOM     39  O   LIG d   1      14.060   6.607  -3.455  0.00  0.00    -0.287 OA
ATOM     40  C   LIG d   1      11.158   8.008  -1.857  0.00  0.00     0.033 A 
ATOM     41  C   LIG d   1      13.288   9.047  -2.342  0.00  0.00    -0.050 A 
ATOM     42  C   LIG d   1      10.715   9.199  -1.288  0.00  0.00    -0.050 A 
ATOM     43  C   LIG d   1      11.555  10.298  -1.248  0.00  0.00    -0.061 A 
ATOM     44  H   LIG d   1       9.719   9.265  -0.877  0.00  0.00     0.062 H 
ATOM     45  C   LIG d   1      12.832  10.223  -1.772  0.00  0.00    -0.061 A 
ATOM     46  H   LIG d   1      11.209  11.221  -0.807  0.00  0.00     0.062 H 
ATOM     47  H   LIG d   1      13.478  11.087  -1.736  0.00  0.00     0.062 H 
ATOM     48  H   LIG d   1      14.287   8.995  -2.749  0.00  0.00     0.062 H 
ATOM     49  O   LIG d   1       9.146   6.894  -1.444  0.00  0.00    -0.287 OA
ENDBRANCH   2  27
TORSDOF 4
ENDMDL
MODEL 2
REMARK VINA RESULT:      -7.6      1.679      9.489
REMARK  4 active torsions:
REMARK  status: ('A' for Active; 'I' for Inactive)
REMARK    1  A    between atoms: C_1  and  C_2 
REMARK    2  A    between atoms: C_2  and  C_3 
REMARK    3  A    between atoms: N_12  and  C_15 
REMARK    4  A    between atoms: N_16  and  C_17 
ROOT
ATOM      1  C   LIG d   1      10.186   4.352  -3.546  0.00  0.00     0.051 C 
ATOM      2  N   LIG d   1       9.290   4.098  -4.468  0.00  0.00    -0.252 NA
ENDROOT
BRANCH   1   3
ATOM      3  C   LIG d   1      10.736   3.232  -2.703  0.00  0.00    -0.022 C 
ATOM      4  H   LIG d   1      10.655   2.292  -3.250  0.00  0.00     0.029 H 
ATOM      5  H   LIG d   1      11.782   3.429  -2.474  0.00  0.00     0.029 H 
ATOM      6  H   LIG d   1      10.167   3.162  -1.775  0.00  0.00     0.029 H 
ENDBRANCH   1   3
BRANCH   1   7
ATOM      7  C   LIG d   1      10.638   5.681  -3.345  0.00  0.00     0.052 C 
ATOM      8  C   LIG d   1      11.562   6.263  -4.220  0.00  0.00    -0.023 C 
ATOM      9  N   LIG d   1      12.003   7.529  -4.034  0.00  0.00    -0.356 N 
ATOM     10  O   LIG d   1      12.016   5.551  -5.269  0.00  0.00    -0.861 OA
ATOM     11  C   LIG d   1      11.376   8.405  -3.170  0.00  0.00     0.052 A 
ATOM     12  C   LIG d   1      10.446   7.925  -2.234  0.00  0.00     0.046 A 
ATOM     13  C   LIG d   1      11.659   9.767  -3.211  0.00  0.00    -0.037 A 
ATOM     14  C   LIG d   1      10.153   6.478  -2.209  0.00  0.00     0.198 C 
ATOM     15  C   LIG d   1       9.819   8.805  -1.354  0.00  0.00    -0.049 A 
ATOM     16  O   LIG d   1       9.538   5.968  -1.287  0.00  0.00    -0.286 OA
ATOM     17  C   LIG d   1      10.115  10.150  -1.409  0.00  0.00    -0.061 A 
ATOM     18  H   LIG d   1       9.105   8.435  -0.631  0.00  0.00     0.062 H 
ATOM     19  C   LIG d   1      11.031  10.627  -2.335  0.00  0.00    -0.060 A 
ATOM     20  H   LIG d   1       9.633  10.835  -0.728  0.00  0.00     0.062 H 
ATOM     21  H   LIG d   1      11.255  11.682  -2.371  0.00  0.00     0.062 H 
ATOM     22  H   LIG d   1      12.370  10.150  -3.929  0.00  0.00     0.064 H 
BRANCH   9  23
ATOM     23  C   LIG d   1      13.186   7.981  -4.770  0.00  0.00     0.011 C 
ATOM     24  H   LIG d   1      14.076   7.514  -4.350  0.00  0.00     0.045 H 
ATOM     25  H   LIG d   1      13.090   7.704  -5.820  0.00  0.00     0.045 H 
ATOM     26  H   LIG d   1      13.273   9.065  -4.688  0.00  0.00     0.045 H 
ENDBRANCH   9  23
ENDBRANCH   1   7
BRANCH   2  27
ATOM     27  C   LIG d   1       8.759   2.848  -4.576  0.00  0.00     0.065 A 
ATOM     28  C   LIG d   1       7.681   2.472  -3.762  0.00  0.00    -0.025 A 
ATOM     29  C   LIG d   1       7.140   1.200  -3.879  0.00  0.00     0.035 A 
ATOM     30  H   LIG d   1       7.270   3.171  -3.050  0.00  0.00     0.065 H 
ATOM     31  C   LIG d   1       7.684   0.290  -4.808  0.00  0.00     0.033 A 
ATOM     32  C   LIG d   1       6.000   0.797  -3.029  0.00  0.00     0.195 A 
ATOM     33  C   LIG d   1       8.761   0.673  -5.610  0.00  0.00    -0.048 A 
ATOM     34  C   LIG d   1       7.117  -1.064  -4.933  0.00  0.00     0.195 A 
ATOM     35  C   LIG d   1       9.293   1.939  -5.495  0.00  0.00    -0.036 A 
ATOM     36  H   LIG d   1       9.178  -0.024  -6.321  0.00  0.00     0.062 H 
ATOM     37  H   LIG d   1      10.126   2.230  -6.118  0.00  0.00     0.064 H 
ATOM     38  C   LIG d   1       5.975  -1.468  -4.084  0.00  0.00     0.033 A 
ATOM     39  O   LIG d   1       7.585  -1.849  -5.734  0.00  0.00    -0.287 OA
ATOM     40  C   LIG d   1       5.431  -0.561  -3.157  0.00  0.00     0.033 A 
ATOM     41  C   LIG d   1       5.434  -2.746  -4.198  0.00  0.00    -0.050 A 
ATOM     42  C   LIG d   1       4.357  -0.951  -2.362  0.00  0.00    -0.050 A 
ATOM     43  C   LIG d   1       3.831  -2.224  -2.488  0.00  0.00    -0.061 A 
ATOM     44  H   LIG d   1       3.934  -0.260  -1.648  0.00  0.00     0.062 H 
ATOM     45  C   LIG d   1       4.366  -3.115  -3.400  0.00  0.00    -0.061 A 
ATOM     46  H   LIG d   1       2.998  -2.524  -1.870  0.00  0.00     0.062 H 
ATOM     47  H   LIG d   1       3.948  -4.107  -3.490  0.00  0.00     0.062 H 
ATOM     48  H   LIG d   1       5.848  -3.447  -4.908  0.00  0.00     0.062 H 
ATOM     49  O   LIG d   1       5.530   1.580  -2.229  0.00  0.00    -0.287 OA
ENDBRANCH   2  27
TORSDOF 4
ENDMDL
MODEL 3
REMARK VINA RESULT:      -7.3      5.212      9.683
REMARK  4 active torsions:
REMARK  status: ('A' for Active; 'I' for Inactive)
REMARK    1  A    between atoms: C_1  and  C_2 
REMARK    2  A    between atoms: C_2  and  C_3 
REMARK    3  A    between atoms: N_12  and  C_15 
REMARK    4  A    between atoms: N_16  and  C_17 
ROOT
ATOM      1  C   LIG d   1      11.413   7.609   0.218  0.00  0.00     0.051 C 
ATOM      2  N   LIG d   1      10.235   7.409  -0.321  0.00  0.00    -0.252 NA
ENDROOT
BRANCH   1   3
ATOM      3  C   LIG d   1      12.660   7.401  -0.601  0.00  0.00    -0.022 C 
ATOM      4  H   LIG d   1      12.709   8.156  -1.386  0.00  0.00     0.029 H 
ATOM      5  H   LIG d   1      13.536   7.488   0.042  0.00  0.00     0.029 H 
ATOM      6  H   LIG d   1      12.638   6.409  -1.053  0.00  0.00     0.029 H 
ENDBRANCH   1   3
BRANCH   1   7
ATOM      7  C   LIG d   1      11.512   8.022   1.571  0.00  0.00     0.052 C 
ATOM      8  C   LIG d   1      11.330   7.108   2.614  0.00  0.00    -0.023 C 
ATOM      9  N   LIG d   1      11.418   7.493   3.908  0.00  0.00    -0.356 N 
ATOM     10  O   LIG d   1      11.067   5.819   2.323  0.00  0.00    -0.861 OA
ATOM     11  C   LIG d   1      11.962   8.707   4.277  0.00  0.00     0.052 A 
ATOM     12  C   LIG d   1      12.168   9.707   3.313  0.00  0.00     0.046 A 
ATOM     13  C   LIG d   1      12.308   8.957   5.602  0.00  0.00    -0.037 A 
ATOM     14  C   LIG d   1      11.801   9.423   1.912  0.00  0.00     0.198 C 
ATOM     15  C   LIG d   1      12.708  10.938   3.683  0.00  0.00    -0.049 A 
ATOM     16  O   LIG d   1      11.741  10.309   1.076  0.00  0.00    -0.286 OA
ATOM     17  C   LIG d   1      13.041  11.166   5.001  0.00  0.00    -0.061 A 
ATOM     18  H   LIG d   1      12.863  11.709   2.943  0.00  0.00     0.062 H 
ATOM     19  C   LIG d   1      12.842  10.178   5.954  0.00  0.00    -0.060 A 
ATOM     20  H   LIG d   1      13.459  12.118   5.292  0.00  0.00     0.062 H 
ATOM     21  H   LIG d   1      13.108  10.367   6.983  0.00  0.00     0.062 H 
ATOM     22  H   LIG d   1      12.158   8.195   6.352  0.00  0.00     0.064 H 
BRANCH   9  23
ATOM     23  C   LIG d   1      10.915   6.594   4.950  0.00  0.00     0.011 C 
ATOM     24  H   LIG d   1      11.555   5.715   5.012  0.00  0.00     0.045 H 
ATOM     25  H   LIG d   1      10.915   7.113   5.909  0.00  0.00     0.045 H 
ATOM     26  H   LIG d   1       9.898   6.286   4.704  0.00  0.00     0.045 H 
ENDBRANCH   9  23
ENDBRANCH   1   7
BRANCH   2  27
ATOM     27  C   LIG d   1      10.140   6.889  -1.577  0.00  0.00     0.065 A 
ATOM     28  C   LIG d   1       9.934   7.738  -2.674  0.00  0.00    -0.025 A 
ATOM     29  C   LIG d   1       9.844   7.203  -3.951  0.00  0.00     0.035 A 
ATOM     30  H   LIG d   1       9.852   8.803  -2.525  0.00  0.00     0.065 H 
ATOM     31  C   LIG d   1       9.949   5.810  -4.136  0.00  0.00     0.033 A 
ATOM     32  C   LIG d   1       9.633   8.091  -5.114  0.00  0.00     0.195 A 
ATOM     33  C   LIG d   1      10.148   4.974  -3.036  0.00  0.00    -0.048 A 
ATOM     34  C   LIG d   1       9.848   5.238  -5.490  0.00  0.00     0.195 A 
ATOM     35  C   LIG d   1      10.243   5.507  -1.770  0.00  0.00    -0.036 A 
ATOM     36  H   LIG d   1      10.228   3.906  -3.179  0.00  0.00     0.062 H 
ATOM     37  H   LIG d   1      10.397   4.856  -0.922  0.00  0.00     0.064 H 
ATOM     38  C   LIG d   1       9.638   6.125  -6.655  0.00  0.00     0.033 A 
ATOM     39  O   LIG d   1       9.938   4.036  -5.651  0.00  0.00    -0.287 OA
ATOM     40  C   LIG d   1       9.534   7.515  -6.470  0.00  0.00     0.033 A 
ATOM     41  C   LIG d   1       9.543   5.589  -7.936  0.00  0.00    -0.050 A 
ATOM     42  C   LIG d   1       9.336   8.342  -7.572  0.00  0.00    -0.050 A 
ATOM     43  C   LIG d   1       9.244   7.794  -8.840  0.00  0.00    -0.061 A 
ATOM     44  H   LIG d   1       9.255   9.411  -7.439  0.00  0.00     0.062 H 
ATOM     45  C   LIG d   1       9.347   6.427  -9.020  0.00  0.00    -0.061 A 
ATOM     46  H   LIG d   1       9.090   8.437  -9.693  0.00  0.00     0.062 H 
ATOM     47  H   LIG d   1       9.273   6.009 -10.013  0.00  0.00     0.062 H 
ATOM     48  H   LIG d   1       9.622   4.522  -8.084  0.00  0.00     0.062 H 
ATOM     49  O   LIG d   1       9.543   9.292  -4.955  0.00  0.00    -0.287 OA
ENDBRANCH   2  27
TORSDOF 4
ENDMDL
MODEL 4
REMARK VINA RESULT:      -7.1      1.600      9.750
REMARK  4 active torsions:
REMARK  status: ('A' for Active; 'I' for Inactive)
REMARK    1  A    between atoms: C_1  and  C_2 
REMARK    2  A    between atoms: C_2  and  C_3 
REMARK    3  A    between atoms: N_12  and  C_15 
REMARK    4  A    between atoms: N_16  and  C_17 
ROOT
ATOM      1  C   LIG d   1      10.604   3.981  -3.749  0.00  0.00     0.051 C 
ATOM      2  N   LIG d   1       9.748   3.716  -4.705  0.00  0.00    -0.252 NA
ENDROOT
BRANCH   1   3
ATOM      3  C   LIG d   1      10.994   2.905  -2.768  0.00  0.00    -0.022 C 
ATOM      4  H   LIG d   1      10.842   3.269  -1.751  0.00  0.00     0.029 H 
ATOM      5  H   LIG d   1      10.379   2.022  -2.933  0.00  0.00     0.029 H 
ATOM      6  H   LIG d   1      12.044   2.649  -2.908  0.00  0.00     0.029 H 
ENDBRANCH   1   3
BRANCH   1   7
ATOM      7  C   LIG d   1      11.164   5.279  -3.639  0.00  0.00     0.052 C 
ATOM      8  C   LIG d   1      10.558   6.255  -2.840  0.00  0.00    -0.023 C 
ATOM      9  N   LIG d   1      11.081   7.498  -2.732  0.00  0.00    -0.356 N 
ATOM     10  O   LIG d   1       9.435   5.948  -2.162  0.00  0.00    -0.861 OA
ATOM     11  C   LIG d   1      12.363   7.793  -3.153  0.00  0.00     0.052 A 
ATOM     12  C   LIG d   1      13.057   6.893  -3.977  0.00  0.00     0.046 A 
ATOM     13  C   LIG d   1      12.979   8.982  -2.772  0.00  0.00    -0.037 A 
ATOM     14  C   LIG d   1      12.391   5.635  -4.366  0.00  0.00     0.198 C 
ATOM     15  C   LIG d   1      14.347   7.193  -4.413  0.00  0.00    -0.049 A 
ATOM     16  O   LIG d   1      12.837   4.923  -5.251  0.00  0.00    -0.286 OA
ATOM     17  C   LIG d   1      14.938   8.377  -4.027  0.00  0.00    -0.061 A 
ATOM     18  H   LIG d   1      14.880   6.502  -5.050  0.00  0.00     0.062 H 
ATOM     19  C   LIG d   1      14.255   9.265  -3.209  0.00  0.00    -0.060 A 
ATOM     20  H   LIG d   1      15.936   8.613  -4.362  0.00  0.00     0.062 H 
ATOM     21  H   LIG d   1      14.728  10.189  -2.911  0.00  0.00     0.062 H 
ATOM     22  H   LIG d   1      12.457   9.681  -2.135  0.00  0.00     0.064 H 
BRANCH   9  23
ATOM     23  C   LIG d   1      10.260   8.564  -2.154  0.00  0.00     0.011 C 
ATOM     24  H   LIG d   1      10.131   9.361  -2.885  0.00  0.00     0.045 H 
ATOM     25  H   LIG d   1       9.284   8.163  -1.878  0.00  0.00     0.045 H 
ATOM     26  H   LIG d   1      10.752   8.962  -1.266  0.00  0.00     0.045 H 
ENDBRANCH   9  23
ENDBRANCH   1   7
BRANCH   2  27
ATOM     27  C   LIG d   1       9.112   2.511  -4.735  0.00  0.00     0.065 A 
ATOM     28  C   LIG d   1       7.987   2.293  -3.926  0.00  0.00    -0.025 A 
ATOM     29  C   LIG d   1       7.339   1.067  -3.965  0.00  0.00     0.035 A 
ATOM     30  H   LIG d   1       7.624   3.077  -3.280  0.00  0.00     0.065 H 
ATOM     31  C   LIG d   1       7.821   0.045  -4.807  0.00  0.00     0.033 A 
ATOM     32  C   LIG d   1       6.149   0.830  -3.120  0.00  0.00     0.195 A 
ATOM     33  C   LIG d   1       8.945   0.272  -5.604  0.00  0.00    -0.048 A 
ATOM     34  C   LIG d   1       7.139  -1.260  -4.847  0.00  0.00     0.195 A 
ATOM     35  C   LIG d   1       9.584   1.492  -5.568  0.00  0.00    -0.036 A 
ATOM     36  H   LIG d   1       9.315  -0.511  -6.249  0.00  0.00     0.062 H 
ATOM     37  H   LIG d   1      10.453   1.662  -6.186  0.00  0.00     0.064 H 
ATOM     38  C   LIG d   1       5.948  -1.498  -4.004  0.00  0.00     0.033 A 
ATOM     39  O   LIG d   1       7.555  -2.142  -5.574  0.00  0.00    -0.287 OA
ATOM     40  C   LIG d   1       5.466  -0.480  -3.163  0.00  0.00     0.033 A 
ATOM     41  C   LIG d   1       5.300  -2.729  -4.039  0.00  0.00    -0.050 A 
ATOM     42  C   LIG d   1       4.344  -0.713  -2.372  0.00  0.00    -0.050 A 
ATOM     43  C   LIG d   1       3.711  -1.943  -2.419  0.00  0.00    -0.061 A 
ATOM     44  H   LIG d   1       3.968   0.064  -1.724  0.00  0.00     0.062 H 
ATOM     45  C   LIG d   1       4.185  -2.944  -3.246  0.00  0.00    -0.061 A 
ATOM     46  H   LIG d   1       2.841  -2.122  -1.804  0.00  0.00     0.062 H 
ATOM     47  H   LIG d   1       3.684  -3.899  -3.274  0.00  0.00     0.062 H 
ATOM     48  H   LIG d   1       5.665  -3.516  -4.682  0.00  0.00     0.062 H 
ATOM     49  O   LIG d   1       5.732   1.710  -2.394  0.00  0.00    -0.287 OA
ENDBRANCH   2  27
TORSDOF 4
ENDMDL
MODEL 5
REMARK VINA RESULT:      -6.9      7.155      9.514
REMARK  4 active torsions:
REMARK  status: ('A' for Active; 'I' for Inactive)
REMARK    1  A    between atoms: C_1  and  C_2 
REMARK    2  A    between atoms: C_2  and  C_3 
REMARK    3  A    between atoms: N_12  and  C_15 
REMARK    4  A    between atoms: N_16  and  C_17 
ROOT
ATOM      1  C   LIG d   1      10.168   7.981  -9.890  0.00  0.00     0.051 C 
ATOM      2  N   LIG d   1       9.273   8.528  -9.104  0.00  0.00    -0.252 NA
ENDROOT
BRANCH   1   3
ATOM      3  C   LIG d   1      11.432   7.406  -9.305  0.00  0.00    -0.022 C 
ATOM      4  H   LIG d   1      11.492   6.343  -9.544  0.00  0.00     0.029 H 
ATOM      5  H   LIG d   1      12.294   7.921  -9.725  0.00  0.00     0.029 H 
ATOM      6  H   LIG d   1      11.423   7.533  -8.222  0.00  0.00     0.029 H 
ENDBRANCH   1   3
BRANCH   1   7
ATOM      7  C   LIG d   1       9.946   7.929 -11.289  0.00  0.00     0.052 C 
ATOM      8  C   LIG d   1      10.408   8.950 -12.126  0.00  0.00    -0.023 C 
ATOM      9  N   LIG d   1      10.197   8.912 -13.462  0.00  0.00    -0.356 N 
ATOM     10  O   LIG d   1      11.081   9.988 -11.592  0.00  0.00    -0.861 OA
ATOM     11  C   LIG d   1       9.783   7.764 -14.108  0.00  0.00     0.052 A 
ATOM     12  C   LIG d   1       9.279   6.683 -13.365  0.00  0.00     0.046 A 
ATOM     13  C   LIG d   1       9.854   7.663 -15.494  0.00  0.00    -0.037 A 
ATOM     14  C   LIG d   1       9.218   6.804 -11.896  0.00  0.00     0.198 C 
ATOM     15  C   LIG d   1       8.850   5.526 -14.014  0.00  0.00    -0.049 A 
ATOM     16  O   LIG d   1       8.591   6.009 -11.216  0.00  0.00    -0.286 OA
ATOM     17  C   LIG d   1       8.926   5.448 -15.388  0.00  0.00    -0.061 A 
ATOM     18  H   LIG d   1       8.460   4.696 -13.443  0.00  0.00     0.062 H 
ATOM     19  C   LIG d   1       9.427   6.513 -16.122  0.00  0.00    -0.060 A 
ATOM     20  H   LIG d   1       8.594   4.554 -15.894  0.00  0.00     0.062 H 
ATOM     21  H   LIG d   1       9.483   6.441 -17.198  0.00  0.00     0.062 H 
ATOM     22  H   LIG d   1      10.242   8.486 -16.076  0.00  0.00     0.064 H 
BRANCH   9  23
ATOM     23  C   LIG d   1      10.411  10.130 -14.248  0.00  0.00     0.011 C 
ATOM     24  H   LIG d   1       9.709  10.899 -13.925  0.00  0.00     0.045 H 
ATOM     25  H   LIG d   1      11.432  10.484 -14.099  0.00  0.00     0.045 H 
ATOM     26  H   LIG d   1      10.253   9.914 -15.304  0.00  0.00     0.045 H 
ENDBRANCH   9  23
ENDBRANCH   1   7
BRANCH   2  27
ATOM     27  C   LIG d   1       9.542   8.696  -7.779  0.00  0.00     0.065 A 
ATOM     28  C   LIG d   1       9.480   7.599  -6.908  0.00  0.00    -0.025 A 
ATOM     29  C   LIG d   1       9.759   7.774  -5.560  0.00  0.00     0.035 A 
ATOM     30  H   LIG d   1       9.220   6.622  -7.284  0.00  0.00     0.065 H 
ATOM     31  C   LIG d   1      10.093   9.055  -5.074  0.00  0.00     0.033 A 
ATOM     32  C   LIG d   1       9.702   6.623  -4.635  0.00  0.00     0.195 A 
ATOM     33  C   LIG d   1      10.146  10.140  -5.950  0.00  0.00    -0.048 A 
ATOM     34  C   LIG d   1      10.385   9.246  -3.643  0.00  0.00     0.195 A 
ATOM     35  C   LIG d   1       9.873   9.963  -7.288  0.00  0.00    -0.036 A 
ATOM     36  H   LIG d   1      10.402  11.121  -5.577  0.00  0.00     0.062 H 
ATOM     37  H   LIG d   1       9.916  10.806  -7.962  0.00  0.00     0.064 H 
ATOM     38  C   LIG d   1      10.330   8.095  -2.716  0.00  0.00     0.033 A 
ATOM     39  O   LIG d   1      10.673  10.350  -3.223  0.00  0.00    -0.287 OA
ATOM     40  C   LIG d   1       9.997   6.817  -3.200  0.00  0.00     0.033 A 
ATOM     41  C   LIG d   1      10.606   8.270  -1.363  0.00  0.00    -0.050 A 
ATOM     42  C   LIG d   1       9.947   5.739  -2.320  0.00  0.00    -0.050 A 
ATOM     43  C   LIG d   1      10.225   5.930  -0.978  0.00  0.00    -0.061 A 
ATOM     44  H   LIG d   1       9.692   4.755  -2.684  0.00  0.00     0.062 H 
ATOM     45  C   LIG d   1      10.552   7.187  -0.503  0.00  0.00    -0.061 A 
ATOM     46  H   LIG d   1      10.185   5.093  -0.298  0.00  0.00     0.062 H 
ATOM     47  H   LIG d   1      10.766   7.325   0.546  0.00  0.00     0.062 H 
ATOM     48  H   LIG d   1      10.861   9.248  -0.985  0.00  0.00     0.062 H 
ATOM     49  O   LIG d   1       9.415   5.519  -5.053  0.00  0.00    -0.287 OA
ENDBRANCH   2  27
TORSDOF 4
ENDMDL
MODEL 6
REMARK VINA RESULT:      -6.7      4.086      9.400
REMARK  4 active torsions:
REMARK  status: ('A' for Active; 'I' for Inactive)
REMARK    1  A    between atoms: C_1  and  C_2 
REMARK    2  A    between atoms: C_2  and  C_3 
REMARK    3  A    between atoms: N_12  and  C_15 
REMARK    4  A    between atoms: N_16  and  C_17 
ROOT
ATOM      1  C   LIG d   1      10.927   7.087  -0.244  0.00  0.00     0.051 C 
ATOM      2  N   LIG d   1      11.681   6.251  -0.915  0.00  0.00    -0.252 NA
ENDROOT
BRANCH   1   3
ATOM      3  C   LIG d   1       9.641   7.589  -0.846  0.00  0.00    -0.022 C 
ATOM      4  H   LIG d   1       8.958   6.751  -0.996  0.00  0.00     0.029 H 
ATOM      5  H   LIG d   1       9.183   8.314  -0.174  0.00  0.00     0.029 H 
ATOM      6  H   LIG d   1       9.849   8.063  -1.806  0.00  0.00     0.029 H 
ENDBRANCH   1   3
BRANCH   1   7
ATOM      7  C   LIG d   1      11.321   7.516   1.049  0.00  0.00     0.052 C 
ATOM      8  C   LIG d   1      11.877   8.785   1.243  0.00  0.00    -0.023 C 
ATOM      9  N   LIG d   1      12.260   9.202   2.472  0.00  0.00    -0.356 N 
ATOM     10  O   LIG d   1      12.028   9.609   0.188  0.00  0.00    -0.861 OA
ATOM     11  C   LIG d   1      11.875   8.545   3.624  0.00  0.00     0.052 A 
ATOM     12  C   LIG d   1      11.325   7.254   3.546  0.00  0.00     0.046 A 
ATOM     13  C   LIG d   1      12.030   9.144   4.870  0.00  0.00    -0.037 A 
ATOM     14  C   LIG d   1      11.162   6.636   2.216  0.00  0.00     0.198 C 
ATOM     15  C   LIG d   1      10.945   6.583   4.707  0.00  0.00    -0.049 A 
ATOM     16  O   LIG d   1      10.908   5.450   2.091  0.00  0.00    -0.286 OA
ATOM     17  C   LIG d   1      11.110   7.194   5.932  0.00  0.00    -0.061 A 
ATOM     18  H   LIG d   1      10.525   5.590   4.648  0.00  0.00     0.062 H 
ATOM     19  C   LIG d   1      11.649   8.470   6.010  0.00  0.00    -0.060 A 
ATOM     20  H   LIG d   1      10.817   6.678   6.833  0.00  0.00     0.062 H 
ATOM     21  H   LIG d   1      11.772   8.939   6.974  0.00  0.00     0.062 H 
ATOM     22  H   LIG d   1      12.449  10.137   4.943  0.00  0.00     0.064 H 
BRANCH   9  23
ATOM     23  C   LIG d   1      13.114  10.387   2.583  0.00  0.00     0.011 C 
ATOM     24  H   LIG d   1      13.710  10.322   3.493  0.00  0.00     0.045 H 
ATOM     25  H   LIG d   1      13.776  10.441   1.718  0.00  0.00     0.045 H 
ATOM     26  H   LIG d   1      12.492  11.282   2.619  0.00  0.00     0.045 H 
ENDBRANCH   9  23
ENDBRANCH   1   7
BRANCH   2  27
ATOM     27  C   LIG d   1      11.373   5.940  -2.205  0.00  0.00     0.065 A 
ATOM     28  C   LIG d   1      10.577   4.819  -2.484  0.00  0.00    -0.025 A 
ATOM     29  C   LIG d   1      10.261   4.509  -3.798  0.00  0.00     0.035 A 
ATOM     30  H   LIG d   1      10.208   4.203  -1.678  0.00  0.00     0.065 H 
ATOM     31  C   LIG d   1      10.750   5.316  -4.846  0.00  0.00     0.033 A 
ATOM     32  C   LIG d   1       9.417   3.333  -4.101  0.00  0.00     0.195 A 
ATOM     33  C   LIG d   1      11.546   6.425  -4.557  0.00  0.00    -0.048 A 
ATOM     34  C   LIG d   1      10.420   4.987  -6.243  0.00  0.00     0.195 A 
ATOM     35  C   LIG d   1      11.854   6.734  -3.251  0.00  0.00    -0.036 A 
ATOM     36  H   LIG d   1      11.921   7.043  -5.360  0.00  0.00     0.062 H 
ATOM     37  H   LIG d   1      12.470   7.594  -3.032  0.00  0.00     0.064 H 
ATOM     38  C   LIG d   1       9.576   3.812  -6.548  0.00  0.00     0.033 A 
ATOM     39  O   LIG d   1      10.842   5.682  -7.148  0.00  0.00    -0.287 OA
ATOM     40  C   LIG d   1       9.088   3.006  -5.504  0.00  0.00     0.033 A 
ATOM     41  C   LIG d   1       9.262   3.497  -7.867  0.00  0.00    -0.050 A 
ATOM     42  C   LIG d   1       8.294   1.902  -5.800  0.00  0.00    -0.050 A 
ATOM     43  C   LIG d   1       7.990   1.604  -7.117  0.00  0.00    -0.061 A 
ATOM     44  H   LIG d   1       7.915   1.279  -5.003  0.00  0.00     0.062 H 
ATOM     45  C   LIG d   1       8.471   2.396  -8.143  0.00  0.00    -0.061 A 
ATOM     46  H   LIG d   1       7.374   0.746  -7.344  0.00  0.00     0.062 H 
ATOM     47  H   LIG d   1       8.228   2.153  -9.166  0.00  0.00     0.062 H 
ATOM     48  H   LIG d   1       9.634   4.111  -8.673  0.00  0.00     0.062 H 
ATOM     49  O   LIG d   1       8.995   2.638  -3.199  0.00  0.00    -0.287 OA
ENDBRANCH   2  27
TORSDOF 4
ENDMDL
MODEL 7
REMARK VINA RESULT:      -6.6      4.607      9.080
REMARK  4 active torsions:
REMARK  status: ('A' for Active; 'I' for Inactive)
REMARK    1  A    between atoms: C_1  and  C_2 
REMARK    2  A    between atoms: C_2  and  C_3 
REMARK    3  A    between atoms: N_12  and  C_15 
REMARK    4  A    between atoms: N_16  and  C_17 
ROOT
ATOM      1  C   LIG d   1      10.603   6.846  -0.713  0.00  0.00     0.051 C 
ATOM      2  N   LIG d   1      11.320   6.011  -1.425  0.00  0.00    -0.252 NA
ENDROOT
BRANCH   1   3
ATOM      3  C   LIG d   1       9.239   7.266  -1.194  0.00  0.00    -0.022 C 
ATOM      4  H   LIG d   1       8.958   8.205  -0.715  0.00  0.00     0.029 H 
ATOM      5  H   LIG d   1       9.260   7.402  -2.274  0.00  0.00     0.029 H 
ATOM      6  H   LIG d   1       8.510   6.496  -0.938  0.00  0.00     0.029 H 
ENDBRANCH   1   3
BRANCH   1   7
ATOM      7  C   LIG d   1      11.112   7.351   0.511  0.00  0.00     0.052 C 
ATOM      8  C   LIG d   1      11.696   8.621   0.573  0.00  0.00    -0.023 C 
ATOM      9  N   LIG d   1      12.188   9.110   1.735  0.00  0.00    -0.356 N 
ATOM     10  O   LIG d   1      11.765   9.372  -0.543  0.00  0.00    -0.861 OA
ATOM     11  C   LIG d   1      11.897   8.535   2.956  0.00  0.00     0.052 A 
ATOM     12  C   LIG d   1      11.328   7.252   3.011  0.00  0.00     0.046 A 
ATOM     13  C   LIG d   1      12.165   9.212   4.142  0.00  0.00    -0.037 A 
ATOM     14  C   LIG d   1      11.044   6.551   1.743  0.00  0.00     0.198 C 
ATOM     15  C   LIG d   1      11.041   6.664   4.242  0.00  0.00    -0.049 A 
ATOM     16  O   LIG d   1      10.767   5.364   1.718  0.00  0.00    -0.286 OA
ATOM     17  C   LIG d   1      11.318   7.350   5.404  0.00  0.00    -0.061 A 
ATOM     18  H   LIG d   1      10.607   5.676   4.284  0.00  0.00     0.062 H 
ATOM     19  C   LIG d   1      11.876   8.619   5.352  0.00  0.00    -0.060 A 
ATOM     20  H   LIG d   1      11.098   6.898   6.360  0.00  0.00     0.062 H 
ATOM     21  H   LIG d   1      12.087   9.148   6.269  0.00  0.00     0.062 H 
ATOM     22  H   LIG d   1      12.599  10.200   4.113  0.00  0.00     0.064 H 
BRANCH   9  23
ATOM     23  C   LIG d   1      13.062  10.286   1.694  0.00  0.00     0.011 C 
ATOM     24  H   LIG d   1      12.460  11.180   1.535  0.00  0.00     0.045 H 
ATOM     25  H   LIG d   1      13.600  10.372   2.638  0.00  0.00     0.045 H 
ATOM     26  H   LIG d   1      13.776  10.179   0.877  0.00  0.00     0.045 H 
ENDBRANCH   9  23
ENDBRANCH   1   7
BRANCH   2  27
ATOM     27  C   LIG d   1      10.891   5.627  -2.660  0.00  0.00     0.065 A 
ATOM     28  C   LIG d   1      10.886   6.547  -3.717  0.00  0.00    -0.025 A 
ATOM     29  C   LIG d   1      10.454   6.149  -4.974  0.00  0.00     0.035 A 
ATOM     30  H   LIG d   1      11.222   7.560  -3.556  0.00  0.00     0.065 H 
ATOM     31  C   LIG d   1      10.013   4.826  -5.177  0.00  0.00     0.033 A 
ATOM     32  C   LIG d   1      10.451   7.111  -6.097  0.00  0.00     0.195 A 
ATOM     33  C   LIG d   1      10.017   3.920  -4.116  0.00  0.00    -0.048 A 
ATOM     34  C   LIG d   1       9.548   4.401  -6.509  0.00  0.00     0.195 A 
ATOM     35  C   LIG d   1      10.451   4.315  -2.870  0.00  0.00    -0.036 A 
ATOM     36  H   LIG d   1       9.678   2.906  -4.271  0.00  0.00     0.062 H 
ATOM     37  H   LIG d   1      10.453   3.610  -2.052  0.00  0.00     0.064 H 
ATOM     38  C   LIG d   1       9.545   5.361  -7.633  0.00  0.00     0.033 A 
ATOM     39  O   LIG d   1       9.167   3.260  -6.685  0.00  0.00    -0.287 OA
ATOM     40  C   LIG d   1       9.985   6.682  -7.432  0.00  0.00     0.033 A 
ATOM     41  C   LIG d   1       9.108   4.964  -8.894  0.00  0.00    -0.050 A 
ATOM     42  C   LIG d   1       9.979   7.580  -8.496  0.00  0.00    -0.050 A 
ATOM     43  C   LIG d   1       9.542   7.169  -9.743  0.00  0.00    -0.061 A 
ATOM     44  H   LIG d   1      10.316   8.595  -8.349  0.00  0.00     0.062 H 
ATOM     45  C   LIG d   1       9.109   5.870  -9.940  0.00  0.00    -0.061 A 
ATOM     46  H   LIG d   1       9.537   7.867 -10.566  0.00  0.00     0.062 H 
ATOM     47  H   LIG d   1       8.769   5.561 -10.917  0.00  0.00     0.062 H 
ATOM     48  H   LIG d   1       8.768   3.953  -9.055  0.00  0.00     0.062 H 
ATOM     49  O   LIG d   1      10.831   8.252  -5.923  0.00  0.00    -0.287 OA
ENDBRANCH   2  27
TORSDOF 4
ENDMDL
MODEL 8
REMARK VINA RESULT:      -6.6      7.074      9.353
REMARK  4 active torsions:
REMARK  status: ('A' for Active; 'I' for Inactive)
REMARK    1  A    between atoms: C_1  and  C_2 
REMARK    2  A    between atoms: C_2  and  C_3 
REMARK    3  A    between atoms: N_12  and  C_15 
REMARK    4  A    between atoms: N_16  and  C_17 
ROOT
ATOM      1  C   LIG d   1      10.151   7.500  -9.859  0.00  0.00     0.051 C 
ATOM      2  N   LIG d   1       9.166   7.685  -9.015  0.00  0.00    -0.252 NA
ENDROOT
BRANCH   1   3
ATOM      3  C   LIG d   1      11.526   7.160  -9.347  0.00  0.00    -0.022 C 
ATOM      4  H   LIG d   1      11.613   6.079  -9.232  0.00  0.00     0.029 H 
ATOM      5  H   LIG d   1      12.275   7.510 -10.056  0.00  0.00     0.029 H 
ATOM      6  H   LIG d   1      11.685   7.642  -8.382  0.00  0.00     0.029 H 
ENDBRANCH   1   3
BRANCH   1   7
ATOM      7  C   LIG d   1       9.921   7.620 -11.253  0.00  0.00     0.052 C 
ATOM      8  C   LIG d   1      10.368   8.743 -11.958  0.00  0.00    -0.023 C 
ATOM      9  N   LIG d   1      10.150   8.868 -13.288  0.00  0.00    -0.356 N 
ATOM     10  O   LIG d   1      11.032   9.714 -11.302  0.00  0.00    -0.861 OA
ATOM     11  C   LIG d   1       9.745   7.804 -14.069  0.00  0.00     0.052 A 
ATOM     12  C   LIG d   1       9.258   6.634 -13.465  0.00  0.00     0.046 A 
ATOM     13  C   LIG d   1       9.809   7.877 -15.457  0.00  0.00    -0.037 A 
ATOM     14  C   LIG d   1       9.203   6.571 -11.991  0.00  0.00     0.198 C 
ATOM     15  C   LIG d   1       8.838   5.561 -14.250  0.00  0.00    -0.049 A 
ATOM     16  O   LIG d   1       8.589   5.690 -11.413  0.00  0.00    -0.286 OA
ATOM     17  C   LIG d   1       8.907   5.655 -15.624  0.00  0.00    -0.061 A 
ATOM     18  H   LIG d   1       8.461   4.662 -13.786  0.00  0.00     0.062 H 
ATOM     19  C   LIG d   1       9.392   6.809 -16.222  0.00  0.00    -0.060 A 
ATOM     20  H   LIG d   1       8.583   4.828 -16.236  0.00  0.00     0.062 H 
ATOM     21  H   LIG d   1       9.443   6.872 -17.299  0.00  0.00     0.062 H 
ATOM     22  H   LIG d   1      10.185   8.770 -15.934  0.00  0.00     0.064 H 
BRANCH   9  23
ATOM     23  C   LIG d   1      10.346  10.177 -13.917  0.00  0.00     0.011 C 
ATOM     24  H   LIG d   1       9.407  10.514 -14.355  0.00  0.00     0.045 H 
ATOM     25  H   LIG d   1      10.676  10.896 -13.166  0.00  0.00     0.045 H 
ATOM     26  H   LIG d   1      11.102  10.096 -14.698  0.00  0.00     0.045 H 
ENDBRANCH   9  23
ENDBRANCH   1   7
BRANCH   2  27
ATOM     27  C   LIG d   1       9.410   7.699  -7.674  0.00  0.00     0.065 A 
ATOM     28  C   LIG d   1       9.389   8.912  -6.972  0.00  0.00    -0.025 A 
ATOM     29  C   LIG d   1       9.633   8.921  -5.606  0.00  0.00     0.035 A 
ATOM     30  H   LIG d   1       9.179   9.835  -7.490  0.00  0.00     0.065 H 
ATOM     31  C   LIG d   1       9.912   7.713  -4.936  0.00  0.00     0.033 A 
ATOM     32  C   LIG d   1       9.607  10.195  -4.855  0.00  0.00     0.195 A 
ATOM     33  C   LIG d   1       9.936   6.512  -5.647  0.00  0.00    -0.048 A 
ATOM     34  C   LIG d   1      10.177   7.718  -3.487  0.00  0.00     0.195 A 
ATOM     35  C   LIG d   1       9.688   6.505  -7.002  0.00  0.00    -0.036 A 
ATOM     36  H   LIG d   1      10.149   5.586  -5.133  0.00  0.00     0.062 H 
ATOM     37  H   LIG d   1       9.707   5.573  -7.547  0.00  0.00     0.064 H 
ATOM     38  C   LIG d   1      10.149   8.991  -2.734  0.00  0.00     0.033 A 
ATOM     39  O   LIG d   1      10.417   6.676  -2.908  0.00  0.00    -0.287 OA
ATOM     40  C   LIG d   1       9.872  10.197  -3.402  0.00  0.00     0.033 A 
ATOM     41  C   LIG d   1      10.398   9.002  -1.365  0.00  0.00    -0.050 A 
ATOM     42  C   LIG d   1       9.849  11.391  -2.686  0.00  0.00    -0.050 A 
ATOM     43  C   LIG d   1      10.098  11.384  -1.325  0.00  0.00    -0.061 A 
ATOM     44  H   LIG d   1       9.636  12.321  -3.191  0.00  0.00     0.062 H 
ATOM     45  C   LIG d   1      10.371  10.198  -0.669  0.00  0.00    -0.061 A 
ATOM     46  H   LIG d   1      10.080  12.311  -0.771  0.00  0.00     0.062 H 
ATOM     47  H   LIG d   1      10.564  10.204   0.393  0.00  0.00     0.062 H 
ATOM     48  H   LIG d   1      10.613   8.079  -0.847  0.00  0.00     0.062 H 
ATOM     49  O   LIG d   1       9.367  11.237  -5.432  0.00  0.00    -0.287 OA
ENDBRANCH   2  27
TORSDOF 4
ENDMDL
MODEL 9
REMARK VINA RESULT:      -6.5      7.362      9.792
REMARK  4 active torsions:
REMARK  status: ('A' for Active; 'I' for Inactive)
REMARK    1  A    between atoms: C_1  and  C_2 
REMARK    2  A    between atoms: C_2  and  C_3 
REMARK    3  A    between atoms: N_12  and  C_15 
REMARK    4  A    between atoms: N_16  and  C_17 
ROOT
ATOM      1  C   LIG d   1      10.566   8.137  -9.950  0.00  0.00     0.051 C 
ATOM      2  N   LIG d   1       9.528   8.504  -9.239  0.00  0.00    -0.252 NA
ENDROOT
BRANCH   1   3
ATOM      3  C   LIG d   1      11.887   7.877  -9.274  0.00  0.00    -0.022 C 
ATOM      4  H   LIG d   1      11.814   6.969  -8.674  0.00  0.00     0.029 H 
ATOM      5  H   LIG d   1      12.663   7.752 -10.028  0.00  0.00     0.029 H 
ATOM      6  H   LIG d   1      12.138   8.719  -8.629  0.00  0.00     0.029 H 
ENDBRANCH   1   3
BRANCH   1   7
ATOM      7  C   LIG d   1      10.445   7.985 -11.355  0.00  0.00     0.052 C 
ATOM      8  C   LIG d   1      10.116   6.746 -11.915  0.00  0.00    -0.023 C 
ATOM      9  N   LIG d   1      10.002   6.589 -13.254  0.00  0.00    -0.356 N 
ATOM     10  O   LIG d   1       9.904   5.690 -11.104  0.00  0.00    -0.861 OA
ATOM     11  C   LIG d   1       9.917   7.665 -14.115  0.00  0.00     0.052 A 
ATOM     12  C   LIG d   1      10.246   8.954 -13.663  0.00  0.00     0.046 A 
ATOM     13  C   LIG d   1       9.512   7.489 -15.434  0.00  0.00    -0.037 A 
ATOM     14  C   LIG d   1      10.668   9.123 -12.259  0.00  0.00     0.198 C 
ATOM     15  C   LIG d   1      10.171  10.042 -14.532  0.00  0.00    -0.049 A 
ATOM     16  O   LIG d   1      11.179  10.159 -11.866  0.00  0.00    -0.286 OA
ATOM     17  C   LIG d   1       9.770   9.845 -15.836  0.00  0.00    -0.061 A 
ATOM     18  H   LIG d   1      10.427  11.032 -14.185  0.00  0.00     0.062 H 
ATOM     19  C   LIG d   1       9.441   8.574 -16.282  0.00  0.00    -0.060 A 
ATOM     20  H   LIG d   1       9.712  10.684 -16.512  0.00  0.00     0.062 H 
ATOM     21  H   LIG d   1       9.127   8.431 -17.305  0.00  0.00     0.062 H 
ATOM     22  H   LIG d   1       9.253   6.504 -15.793  0.00  0.00     0.064 H 
BRANCH   9  23
ATOM     23  C   LIG d   1       9.973   5.232 -13.808  0.00  0.00     0.011 C 
ATOM     24  H   LIG d   1      10.690   5.158 -14.625  0.00  0.00     0.045 H 
ATOM     25  H   LIG d   1      10.234   4.516 -13.028  0.00  0.00     0.045 H 
ATOM     26  H   LIG d   1       8.972   5.014 -14.181  0.00  0.00     0.045 H 
ENDBRANCH   9  23
ENDBRANCH   1   7
BRANCH   2  27
ATOM     27  C   LIG d   1       9.673   8.777  -7.913  0.00  0.00     0.065 A 
ATOM     28  C   LIG d   1       9.637   7.735  -6.975  0.00  0.00    -0.025 A 
ATOM     29  C   LIG d   1       9.791   8.017  -5.626  0.00  0.00     0.035 A 
ATOM     30  H   LIG d   1       9.495   6.716  -7.303  0.00  0.00     0.065 H 
ATOM     31  C   LIG d   1       9.971   9.350  -5.204  0.00  0.00     0.033 A 
ATOM     32  C   LIG d   1       9.760   6.924  -4.631  0.00  0.00     0.195 A 
ATOM     33  C   LIG d   1       9.999  10.380  -6.146  0.00  0.00    -0.048 A 
ATOM     34  C   LIG d   1      10.129   9.654  -3.772  0.00  0.00     0.195 A 
ATOM     35  C   LIG d   1       9.852  10.097  -7.486  0.00  0.00    -0.036 A 
ATOM     36  H   LIG d   1      10.137  11.402  -5.823  0.00  0.00     0.062 H 
ATOM     37  H   LIG d   1       9.875  10.898  -8.210  0.00  0.00     0.064 H 
ATOM     38  C   LIG d   1      10.100   8.562  -2.775  0.00  0.00     0.033 A 
ATOM     39  O   LIG d   1      10.284  10.804  -3.408  0.00  0.00    -0.287 OA
ATOM     40  C   LIG d   1       9.920   7.232  -3.195  0.00  0.00     0.033 A 
ATOM     41  C   LIG d   1      10.250   8.845  -1.421  0.00  0.00    -0.050 A 
ATOM     42  C   LIG d   1       9.894   6.210  -2.249  0.00  0.00    -0.050 A 
ATOM     43  C   LIG d   1      10.045   6.508  -0.907  0.00  0.00    -0.061 A 
ATOM     44  H   LIG d   1       9.757   5.186  -2.564  0.00  0.00     0.062 H 
ATOM     45  C   LIG d   1      10.222   7.816  -0.495  0.00  0.00    -0.061 A 
ATOM     46  H   LIG d   1      10.024   5.714  -0.175  0.00  0.00     0.062 H 
ATOM     47  H   LIG d   1      10.338   8.037   0.555  0.00  0.00     0.062 H 
ATOM     48  H   LIG d   1      10.388   9.864  -1.092  0.00  0.00     0.062 H 
ATOM     49  O   LIG d   1       9.605   5.775  -4.993  0.00  0.00    -0.287 OA
ENDBRANCH   2  27
TORSDOF 4
ENDMDL
