MODEL 1
REMARK VINA RESULT:      -6.5      0.000      0.000
REMARK  9 active torsions:
REMARK  status: ('A' for Active; 'I' for Inactive)
REMARK    1  A    between atoms: C_1  and  C_2 
REMARK    2  A    between atoms: C_2  and  C_3 
REMARK    3  A    between atoms: C_2  and  O_4 
REMARK    4  A    between atoms: O_4  and  C_5 
REMARK    5  A    between atoms: C_8  and  C_13 
REMARK    6  A    between atoms: C_10  and  O_11 
REMARK    7  A    between atoms: O_11  and  C_12 
REMARK    8  A    between atoms: N_20  and  C_35 
REMARK    9  A    between atoms: C_23  and  C_34 
ROOT
ATOM      1  C   LIG d   1       6.924  -0.850  -6.537  0.00  0.00     0.028 C 
ATOM      2  H   LIG d   1       7.309  -1.839  -6.288  0.00  0.00     0.041 H 
ATOM      3  C   LIG d   1       7.928  -0.121  -7.437  0.00  0.00     0.027 C 
ATOM      4  N   LIG d   1       9.069   0.325  -6.616  0.00  0.00    -0.280 N 
ATOM      5  C   LIG d   1      10.278  -0.197  -6.840  0.00  0.00     0.234 C 
ATOM      6  O   LIG d   1      10.419  -0.902  -7.817  0.00  0.00    -0.274 OA
ATOM      7  C   LIG d   1      11.468   0.031  -5.966  0.00  0.00     0.092 C 
ATOM      8  N   LIG d   1      11.150   0.855  -4.810  0.00  0.00    -0.287 N 
ATOM      9  C   LIG d   1       9.966   1.434  -4.620  0.00  0.00     0.246 C 
ATOM     10  O   LIG d   1       9.811   2.100  -3.618  0.00  0.00    -0.273 OA
ATOM     11  C   LIG d   1       8.818   1.314  -5.568  0.00  0.00     0.151 C 
ATOM     12  C   LIG d   1       7.565   0.909  -4.830  0.00  0.00     0.054 A 
ATOM     13  C   LIG d   1       6.725  -0.055  -5.272  0.00  0.00    -0.008 A 
ATOM     14  C   LIG d   1       5.649  -0.152  -4.308  0.00  0.00     0.004 A 
ATOM     15  C   LIG d   1       4.510  -0.961  -4.237  0.00  0.00    -0.052 A 
ATOM     16  C   LIG d   1       3.687  -0.780  -3.154  0.00  0.00    -0.061 A 
ATOM     17  C   LIG d   1       3.960   0.156  -2.171  0.00  0.00    -0.060 A 
ATOM     18  C   LIG d   1       5.079   0.970  -2.215  0.00  0.00    -0.038 A 
ATOM     19  C   LIG d   1       5.932   0.809  -3.304  0.00  0.00     0.047 A 
ATOM     20  N   LIG d   1       7.097   1.430  -3.654  0.00  0.00    -0.356 N 
ATOM     21  H   LIG d   1       7.528   2.135  -3.145  0.00  0.00     0.166 HD
ATOM     22  H   LIG d   1       8.280  -0.799  -8.215  0.00  0.00     0.047 H 
ATOM     23  H   LIG d   1       7.448   0.744  -7.894  0.00  0.00     0.047 H 
ATOM     24  H   LIG d   1      12.247   0.524  -6.549  0.00  0.00     0.056 H 
ATOM     25  H   LIG d   1      11.841  -0.934  -5.621  0.00  0.00     0.056 H 
ATOM     26  H   LIG d   1       4.289  -1.694  -5.000  0.00  0.00     0.062 H 
ATOM     27  H   LIG d   1       2.798  -1.387  -3.065  0.00  0.00     0.062 H 
ATOM     28  H   LIG d   1       3.277   0.255  -1.339  0.00  0.00     0.062 H 
ATOM     29  H   LIG d   1       5.280   1.697  -1.441  0.00  0.00     0.064 H 
ENDROOT
BRANCH   1  30
ATOM     30  C   LIG d   1       5.608  -0.988  -7.257  0.00  0.00    -0.035 A 
ATOM     31  C   LIG d   1       5.030  -2.234  -7.406  0.00  0.00    -0.054 A 
ATOM     32  C   LIG d   1       3.823  -2.366  -8.065  0.00  0.00    -0.016 A 
ATOM     33  H   LIG d   1       5.524  -3.109  -7.006  0.00  0.00     0.062 H 
ATOM     34  C   LIG d   1       3.189  -1.246  -8.580  0.00  0.00     0.162 A 
ATOM     35  H   LIG d   1       3.373  -3.341  -8.180  0.00  0.00     0.066 H 
ATOM     36  C   LIG d   1       3.770   0.010  -8.430  0.00  0.00     0.162 A 
ATOM     37  C   LIG d   1       4.984   0.133  -7.773  0.00  0.00    -0.013 A 
ATOM     38  H   LIG d   1       5.440   1.105  -7.660  0.00  0.00     0.066 H 
BRANCH  34  39
ATOM     39  O   LIG d   1       2.001  -1.374  -9.229  0.00  0.00    -0.486 OA
BRANCH  39  40
ATOM     40  C   LIG d   1       2.022  -2.026 -10.500  0.00  0.00     0.095 C 
ATOM     41  H   LIG d   1       3.029  -2.391 -10.705  0.00  0.00     0.073 H 
BRANCH  40  42
ATOM     42  C   LIG d   1       1.044  -3.203 -10.487  0.00  0.00    -0.028 C 
ATOM     43  H   LIG d   1       0.765  -3.456 -11.509  0.00  0.00     0.026 H 
ATOM     44  H   LIG d   1       1.519  -4.064 -10.016  0.00  0.00     0.026 H 
ATOM     45  H   LIG d   1       0.152  -2.927  -9.924  0.00  0.00     0.026 H 
ENDBRANCH  40  42
BRANCH  40  46
ATOM     46  C   LIG d   1       1.609  -1.033 -11.588  0.00  0.00    -0.028 C 
ATOM     47  H   LIG d   1       0.546  -0.810 -11.493  0.00  0.00     0.026 H 
ATOM     48  H   LIG d   1       2.184  -0.113 -11.478  0.00  0.00     0.026 H 
ATOM     49  H   LIG d   1       1.802  -1.467 -12.569  0.00  0.00     0.026 H 
ENDBRANCH  40  46
ENDBRANCH  39  40
ENDBRANCH  34  39
BRANCH  36  50
ATOM     50  O   LIG d   1       3.151   1.111  -8.933  0.00  0.00    -0.491 OA
BRANCH  50  51
ATOM     51  C   LIG d   1       3.758   1.733 -10.068  0.00  0.00     0.079 C 
ATOM     52  H   LIG d   1       4.068   2.745  -9.805  0.00  0.00     0.066 H 
ATOM     53  H   LIG d   1       3.040   1.774 -10.887  0.00  0.00     0.066 H 
ATOM     54  H   LIG d   1       4.630   1.156 -10.377  0.00  0.00     0.066 H 
ENDBRANCH  50  51
ENDBRANCH  36  50
ENDBRANCH   1  30
BRANCH  11  55
ATOM     55  C   LIG d   1       8.583   2.670  -6.235  0.00  0.00    -0.029 C 
ATOM     56  H   LIG d   1       9.439   2.920  -6.863  0.00  0.00     0.026 H 
ATOM     57  H   LIG d   1       7.683   2.622  -6.849  0.00  0.00     0.026 H 
ATOM     58  H   LIG d   1       8.459   3.436  -5.469  0.00  0.00     0.026 H 
ENDBRANCH  11  55
BRANCH   8  59
ATOM     59  C   LIG d   1      12.190   1.057  -3.799  0.00  0.00     0.027 C 
ATOM     60  C   LIG d   1      13.111  -0.174  -3.736  0.00  0.00    -0.034 C 
ATOM     61  C   LIG d   1      14.530   0.319  -4.091  0.00  0.00    -0.051 C 
ATOM     62  H   LIG d   1      13.103  -0.595  -2.731  0.00  0.00     0.028 H 
ATOM     63  H   LIG d   1      12.784  -0.922  -4.457  0.00  0.00     0.028 H 
ATOM     64  C   LIG d   1      14.503   1.829  -3.749  0.00  0.00    -0.051 C 
ATOM     65  H   LIG d   1      15.275  -0.196  -3.484  0.00  0.00     0.027 H 
ATOM     66  H   LIG d   1      14.731   0.171  -5.152  0.00  0.00     0.027 H 
ATOM     67  C   LIG d   1      13.081   2.255  -4.190  0.00  0.00    -0.034 C 
ATOM     68  H   LIG d   1      14.639   1.986  -2.679  0.00  0.00     0.027 H 
ATOM     69  H   LIG d   1      15.262   2.368  -4.319  0.00  0.00     0.027 H 
ATOM     70  H   LIG d   1      13.048   2.419  -5.267  0.00  0.00     0.028 H 
ATOM     71  H   LIG d   1      12.769   3.152  -3.657  0.00  0.00     0.028 H 
ATOM     72  H   LIG d   1      11.734   1.233  -2.825  0.00  0.00     0.050 H 
ENDBRANCH   8  59
TORSDOF 9
ENDMDL
MODEL 2
REMARK VINA RESULT:      -6.5      2.242      2.962
REMARK  9 active torsions:
REMARK  status: ('A' for Active; 'I' for Inactive)
REMARK    1  A    between atoms: C_1  and  C_2 
REMARK    2  A    between atoms: C_2  and  C_3 
REMARK    3  A    between atoms: C_2  and  O_4 
REMARK    4  A    between atoms: O_4  and  C_5 
REMARK    5  A    between atoms: C_8  and  C_13 
REMARK    6  A    between atoms: C_10  and  O_11 
REMARK    7  A    between atoms: O_11  and  C_12 
REMARK    8  A    between atoms: N_20  and  C_35 
REMARK    9  A    between atoms: C_23  and  C_34 
ROOT
ATOM      1  C   LIG d   1       7.966  -1.739  -5.200  0.00  0.00     0.028 C 
ATOM      2  H   LIG d   1       8.673  -2.204  -4.512  0.00  0.00     0.041 H 
ATOM      3  C   LIG d   1       8.714  -1.231  -6.438  0.00  0.00     0.027 C 
ATOM      4  N   LIG d   1       9.456  -0.008  -6.078  0.00  0.00    -0.280 N 
ATOM      5  C   LIG d   1      10.791  -0.021  -6.113  0.00  0.00     0.234 C 
ATOM      6  O   LIG d   1      11.336  -0.993  -6.592  0.00  0.00    -0.274 OA
ATOM      7  C   LIG d   1      11.657   1.083  -5.601  0.00  0.00     0.092 C 
ATOM      8  N   LIG d   1      10.879   2.163  -5.015  0.00  0.00    -0.287 N 
ATOM      9  C   LIG d   1       9.548   2.213  -5.041  0.00  0.00     0.246 C 
ATOM     10  O   LIG d   1       9.002   3.162  -4.519  0.00  0.00    -0.273 OA
ATOM     11  C   LIG d   1       8.688   1.170  -5.676  0.00  0.00     0.151 C 
ATOM     12  C   LIG d   1       7.608   0.723  -4.720  0.00  0.00     0.054 A 
ATOM     13  C   LIG d   1       7.292  -0.576  -4.517  0.00  0.00    -0.008 A 
ATOM     14  C   LIG d   1       6.219  -0.602  -3.546  0.00  0.00     0.004 A 
ATOM     15  C   LIG d   1       5.497  -1.646  -2.959  0.00  0.00    -0.052 A 
ATOM     16  C   LIG d   1       4.526  -1.298  -2.053  0.00  0.00    -0.061 A 
ATOM     17  C   LIG d   1       4.264   0.023  -1.728  0.00  0.00    -0.060 A 
ATOM     18  C   LIG d   1       4.961   1.076  -2.293  0.00  0.00    -0.038 A 
ATOM     19  C   LIG d   1       5.953   0.752  -3.216  0.00  0.00     0.047 A 
ATOM     20  N   LIG d   1       6.812   1.523  -3.946  0.00  0.00    -0.356 N 
ATOM     21  H   LIG d   1       6.852   2.492  -3.919  0.00  0.00     0.166 HD
ATOM     22  H   LIG d   1       9.412  -1.995  -6.782  0.00  0.00     0.047 H 
ATOM     23  H   LIG d   1       7.999  -1.004  -7.228  0.00  0.00     0.047 H 
ATOM     24  H   LIG d   1      12.250   1.481  -6.425  0.00  0.00     0.056 H 
ATOM     25  H   LIG d   1      12.330   0.681  -4.844  0.00  0.00     0.056 H 
ATOM     26  H   LIG d   1       5.695  -2.680  -3.206  0.00  0.00     0.062 H 
ATOM     27  H   LIG d   1       3.949  -2.078  -1.579  0.00  0.00     0.062 H 
ATOM     28  H   LIG d   1       3.488   0.239  -1.007  0.00  0.00     0.062 H 
ATOM     29  H   LIG d   1       4.747   2.102  -2.030  0.00  0.00     0.064 H 
ENDROOT
BRANCH   1  30
ATOM     30  C   LIG d   1       6.929  -2.748  -5.616  0.00  0.00    -0.035 A 
ATOM     31  C   LIG d   1       6.973  -4.033  -5.107  0.00  0.00    -0.054 A 
ATOM     32  C   LIG d   1       6.023  -4.963  -5.485  0.00  0.00    -0.016 A 
ATOM     33  H   LIG d   1       7.752  -4.311  -4.412  0.00  0.00     0.062 H 
ATOM     34  C   LIG d   1       5.023  -4.608  -6.377  0.00  0.00     0.162 A 
ATOM     35  H   LIG d   1       6.060  -5.965  -5.087  0.00  0.00     0.066 H 
ATOM     36  C   LIG d   1       4.977  -3.315  -6.889  0.00  0.00     0.162 A 
ATOM     37  C   LIG d   1       5.937  -2.390  -6.510  0.00  0.00    -0.013 A 
ATOM     38  H   LIG d   1       5.908  -1.388  -6.910  0.00  0.00     0.066 H 
BRANCH  34  39
ATOM     39  O   LIG d   1       4.088  -5.523  -6.750  0.00  0.00    -0.486 OA
BRANCH  39  40
ATOM     40  C   LIG d   1       4.442  -6.421  -7.803  0.00  0.00     0.095 C 
ATOM     41  H   LIG d   1       5.443  -6.183  -8.163  0.00  0.00     0.073 H 
BRANCH  40  42
ATOM     42  C   LIG d   1       4.415  -7.858  -7.278  0.00  0.00    -0.028 C 
ATOM     43  H   LIG d   1       3.412  -8.099  -6.926  0.00  0.00     0.026 H 
ATOM     44  H   LIG d   1       4.694  -8.543  -8.079  0.00  0.00     0.026 H 
ATOM     45  H   LIG d   1       5.123  -7.957  -6.455  0.00  0.00     0.026 H 
ENDBRANCH  40  42
BRANCH  40  46
ATOM     46  C   LIG d   1       3.440  -6.280  -8.951  0.00  0.00    -0.028 C 
ATOM     47  H   LIG d   1       3.853  -5.622  -9.716  0.00  0.00     0.026 H 
ATOM     48  H   LIG d   1       3.244  -7.261  -9.384  0.00  0.00     0.026 H 
ATOM     49  H   LIG d   1       2.510  -5.858  -8.572  0.00  0.00     0.026 H 
ENDBRANCH  40  46
ENDBRANCH  39  40
ENDBRANCH  34  39
BRANCH  36  50
ATOM     50  O   LIG d   1       3.999  -2.963  -7.765  0.00  0.00    -0.491 OA
BRANCH  50  51
ATOM     51  C   LIG d   1       3.885  -1.575  -8.086  0.00  0.00     0.079 C 
ATOM     52  H   LIG d   1       4.384  -1.381  -9.036  0.00  0.00     0.066 H 
ATOM     53  H   LIG d   1       4.354  -0.981  -7.302  0.00  0.00     0.066 H 
ATOM     54  H   LIG d   1       2.833  -1.306  -8.168  0.00  0.00     0.066 H 
ENDBRANCH  50  51
ENDBRANCH  36  50
ENDBRANCH   1  30
BRANCH  11  55
ATOM     55  C   LIG d   1       8.030   1.762  -6.923  0.00  0.00    -0.029 C 
ATOM     56  H   LIG d   1       8.780   2.288  -7.515  0.00  0.00     0.026 H 
ATOM     57  H   LIG d   1       7.594   0.960  -7.520  0.00  0.00     0.026 H 
ATOM     58  H   LIG d   1       7.248   2.460  -6.626  0.00  0.00     0.026 H 
ENDBRANCH  11  55
BRANCH   8  59
ATOM     59  C   LIG d   1      11.600   3.257  -4.359  0.00  0.00     0.027 C 
ATOM     60  C   LIG d   1      12.878   2.720  -3.691  0.00  0.00    -0.034 C 
ATOM     61  C   LIG d   1      14.063   3.451  -4.356  0.00  0.00    -0.051 C 
ATOM     62  H   LIG d   1      12.858   2.935  -2.623  0.00  0.00     0.028 H 
ATOM     63  H   LIG d   1      12.961   1.646  -3.854  0.00  0.00     0.028 H 
ATOM     64  C   LIG d   1      13.442   4.759  -4.905  0.00  0.00    -0.051 C 
ATOM     65  H   LIG d   1      14.834   3.675  -3.620  0.00  0.00     0.027 H 
ATOM     66  H   LIG d   1      14.472   2.853  -5.170  0.00  0.00     0.027 H 
ATOM     67  C   LIG d   1      12.053   4.295  -5.407  0.00  0.00    -0.034 C 
ATOM     68  H   LIG d   1      13.338   5.500  -4.112  0.00  0.00     0.027 H 
ATOM     69  H   LIG d   1      14.038   5.155  -5.728  0.00  0.00     0.027 H 
ATOM     70  H   LIG d   1      12.138   3.832  -6.390  0.00  0.00     0.028 H 
ATOM     71  H   LIG d   1      11.358   5.134  -5.438  0.00  0.00     0.028 H 
ATOM     72  H   LIG d   1      10.960   3.731  -3.615  0.00  0.00     0.050 H 
ENDBRANCH   8  59
TORSDOF 9
ENDMDL
MODEL 3
REMARK VINA RESULT:      -6.3      3.101      4.136
REMARK  9 active torsions:
REMARK  status: ('A' for Active; 'I' for Inactive)
REMARK    1  A    between atoms: C_1  and  C_2 
REMARK    2  A    between atoms: C_2  and  C_3 
REMARK    3  A    between atoms: C_2  and  O_4 
REMARK    4  A    between atoms: O_4  and  C_5 
REMARK    5  A    between atoms: C_8  and  C_13 
REMARK    6  A    between atoms: C_10  and  O_11 
REMARK    7  A    between atoms: O_11  and  C_12 
REMARK    8  A    between atoms: N_20  and  C_35 
REMARK    9  A    between atoms: C_23  and  C_34 
ROOT
ATOM      1  C   LIG d   1       8.246  -1.950  -4.702  0.00  0.00     0.028 C 
ATOM      2  H   LIG d   1       8.792  -2.167  -3.784  0.00  0.00     0.041 H 
ATOM      3  C   LIG d   1       9.187  -1.282  -5.711  0.00  0.00     0.027 C 
ATOM      4  N   LIG d   1       9.417   0.115  -5.296  0.00  0.00    -0.280 N 
ATOM      5  C   LIG d   1      10.644   0.492  -4.928  0.00  0.00     0.234 C 
ATOM      6  O   LIG d   1      11.554  -0.291  -5.100  0.00  0.00    -0.274 OA
ATOM      7  C   LIG d   1      10.970   1.815  -4.316  0.00  0.00     0.092 C 
ATOM      8  N   LIG d   1       9.786   2.638  -4.125  0.00  0.00    -0.287 N 
ATOM      9  C   LIG d   1       8.572   2.295  -4.554  0.00  0.00     0.246 C 
ATOM     10  O   LIG d   1       7.654   3.058  -4.337  0.00  0.00    -0.273 OA
ATOM     11  C   LIG d   1       8.275   1.028  -5.287  0.00  0.00     0.151 C 
ATOM     12  C   LIG d   1       7.107   0.313  -4.651  0.00  0.00     0.054 A 
ATOM     13  C   LIG d   1       7.102  -1.016  -4.397  0.00  0.00    -0.008 A 
ATOM     14  C   LIG d   1       5.823  -1.326  -3.796  0.00  0.00     0.004 A 
ATOM     15  C   LIG d   1       5.259  -2.519  -3.331  0.00  0.00    -0.052 A 
ATOM     16  C   LIG d   1       3.992  -2.443  -2.807  0.00  0.00    -0.061 A 
ATOM     17  C   LIG d   1       3.295  -1.248  -2.736  0.00  0.00    -0.060 A 
ATOM     18  C   LIG d   1       3.828  -0.054  -3.189  0.00  0.00    -0.038 A 
ATOM     19  C   LIG d   1       5.112  -0.101  -3.727  0.00  0.00     0.047 A 
ATOM     20  N   LIG d   1       5.920   0.867  -4.253  0.00  0.00    -0.356 N 
ATOM     21  H   LIG d   1       5.688   1.805  -4.332  0.00  0.00     0.166 HD
ATOM     22  H   LIG d   1      10.136  -1.817  -5.736  0.00  0.00     0.047 H 
ATOM     23  H   LIG d   1       8.731  -1.297  -6.700  0.00  0.00     0.047 H 
ATOM     24  H   LIG d   1      11.666   2.345  -4.967  0.00  0.00     0.056 H 
ATOM     25  H   LIG d   1      11.446   1.650  -3.350  0.00  0.00     0.056 H 
ATOM     26  H   LIG d   1       5.795  -3.456  -3.382  0.00  0.00     0.062 H 
ATOM     27  H   LIG d   1       3.525  -3.344  -2.437  0.00  0.00     0.062 H 
ATOM     28  H   LIG d   1       2.301  -1.248  -2.312  0.00  0.00     0.062 H 
ATOM     29  H   LIG d   1       3.274   0.871  -3.128  0.00  0.00     0.064 H 
ENDROOT
BRANCH   1  30
ATOM     30  C   LIG d   1       7.708  -3.230  -5.285  0.00  0.00    -0.035 A 
ATOM     31  C   LIG d   1       7.976  -4.436  -4.666  0.00  0.00    -0.054 A 
ATOM     32  C   LIG d   1       7.485  -5.614  -5.196  0.00  0.00    -0.016 A 
ATOM     33  H   LIG d   1       8.572  -4.459  -3.765  0.00  0.00     0.062 H 
ATOM     34  C   LIG d   1       6.721  -5.587  -6.353  0.00  0.00     0.162 A 
ATOM     35  H   LIG d   1       7.696  -6.555  -4.711  0.00  0.00     0.066 H 
ATOM     36  C   LIG d   1       6.450  -4.374  -6.977  0.00  0.00     0.162 A 
ATOM     37  C   LIG d   1       6.952  -3.197  -6.442  0.00  0.00    -0.013 A 
ATOM     38  H   LIG d   1       6.748  -2.254  -6.927  0.00  0.00     0.066 H 
BRANCH  34  39
ATOM     39  O   LIG d   1       6.237  -6.746  -6.876  0.00  0.00    -0.486 OA
BRANCH  39  40
ATOM     40  C   LIG d   1       4.900  -7.108  -6.526  0.00  0.00     0.095 C 
ATOM     41  H   LIG d   1       4.378  -6.236  -6.133  0.00  0.00     0.073 H 
BRANCH  40  42
ATOM     42  C   LIG d   1       4.171  -7.625  -7.767  0.00  0.00    -0.028 C 
ATOM     43  H   LIG d   1       3.273  -7.031  -7.936  0.00  0.00     0.026 H 
ATOM     44  H   LIG d   1       4.827  -7.547  -8.634  0.00  0.00     0.026 H 
ATOM     45  H   LIG d   1       3.892  -8.668  -7.617  0.00  0.00     0.026 H 
ENDBRANCH  40  42
BRANCH  40  46
ATOM     46  C   LIG d   1       4.933  -8.206  -5.460  0.00  0.00    -0.028 C 
ATOM     47  H   LIG d   1       5.743  -8.902  -5.679  0.00  0.00     0.026 H 
ATOM     48  H   LIG d   1       5.096  -7.756  -4.481  0.00  0.00     0.026 H 
ATOM     49  H   LIG d   1       3.983  -8.741  -5.460  0.00  0.00     0.026 H 
ENDBRANCH  40  46
ENDBRANCH  39  40
ENDBRANCH  34  39
BRANCH  36  50
ATOM     50  O   LIG d   1       5.702  -4.343  -8.111  0.00  0.00    -0.491 OA
BRANCH  50  51
ATOM     51  C   LIG d   1       4.427  -3.701  -8.030  0.00  0.00     0.079 C 
ATOM     52  H   LIG d   1       3.781  -4.262  -7.354  0.00  0.00     0.066 H 
ATOM     53  H   LIG d   1       3.974  -3.667  -9.020  0.00  0.00     0.066 H 
ATOM     54  H   LIG d   1       4.554  -2.687  -7.652  0.00  0.00     0.066 H 
ENDBRANCH  50  51
ENDBRANCH  36  50
ENDBRANCH   1  30
BRANCH  11  55
ATOM     55  C   LIG d   1       7.919   1.366  -6.735  0.00  0.00    -0.029 C 
ATOM     56  H   LIG d   1       7.674   0.449  -7.273  0.00  0.00     0.026 H 
ATOM     57  H   LIG d   1       7.060   2.037  -6.752  0.00  0.00     0.026 H 
ATOM     58  H   LIG d   1       8.769   1.852  -7.215  0.00  0.00     0.026 H 
ENDBRANCH  11  55
BRANCH   8  59
ATOM     59  C   LIG d   1       9.936   3.912  -3.419  0.00  0.00     0.027 C 
ATOM     60  C   LIG d   1      10.965   3.769  -2.285  0.00  0.00    -0.034 C 
ATOM     61  C   LIG d   1      12.105   4.761  -2.596  0.00  0.00    -0.051 C 
ATOM     62  H   LIG d   1      10.504   4.018  -1.329  0.00  0.00     0.028 H 
ATOM     63  H   LIG d   1      11.352   2.751  -2.258  0.00  0.00     0.028 H 
ATOM     64  C   LIG d   1      11.442   5.829  -3.501  0.00  0.00    -0.051 C 
ATOM     65  H   LIG d   1      12.476   5.217  -1.678  0.00  0.00     0.027 H 
ATOM     66  H   LIG d   1      12.914   4.260  -3.128  0.00  0.00     0.027 H 
ATOM     67  C   LIG d   1      10.486   4.987  -4.380  0.00  0.00    -0.034 C 
ATOM     68  H   LIG d   1      10.883   6.549  -2.903  0.00  0.00     0.027 H 
ATOM     69  H   LIG d   1      12.189   6.333  -4.115  0.00  0.00     0.027 H 
ATOM     70  H   LIG d   1      11.033   4.520  -5.201  0.00  0.00     0.028 H 
ATOM     71  H   LIG d   1       9.676   5.606  -4.765  0.00  0.00     0.028 H 
ATOM     72  H   LIG d   1       8.975   4.230  -3.015  0.00  0.00     0.050 H 
ENDBRANCH   8  59
TORSDOF 9
ENDMDL
MODEL 4
REMARK VINA RESULT:      -6.2      2.230      8.460
REMARK  9 active torsions:
REMARK  status: ('A' for Active; 'I' for Inactive)
REMARK    1  A    between atoms: C_1  and  C_2 
REMARK    2  A    between atoms: C_2  and  C_3 
REMARK    3  A    between atoms: C_2  and  O_4 
REMARK    4  A    between atoms: O_4  and  C_5 
REMARK    5  A    between atoms: C_8  and  C_13 
REMARK    6  A    between atoms: C_10  and  O_11 
REMARK    7  A    between atoms: O_11  and  C_12 
REMARK    8  A    between atoms: N_20  and  C_35 
REMARK    9  A    between atoms: C_23  and  C_34 
ROOT
ATOM      1  C   LIG d   1       6.756   0.369  -6.735  0.00  0.00     0.028 C 
ATOM      2  H   LIG d   1       6.173   1.258  -6.979  0.00  0.00     0.041 H 
ATOM      3  C   LIG d   1       7.260  -0.283  -8.027  0.00  0.00     0.027 C 
ATOM      4  N   LIG d   1       6.133  -0.974  -8.683  0.00  0.00    -0.280 N 
ATOM      5  C   LIG d   1       5.705  -0.539  -9.871  0.00  0.00     0.234 C 
ATOM      6  O   LIG d   1       6.362   0.309 -10.435  0.00  0.00    -0.274 OA
ATOM      7  C   LIG d   1       4.467  -1.030 -10.549  0.00  0.00     0.092 C 
ATOM      8  N   LIG d   1       3.753  -2.010  -9.747  0.00  0.00    -0.287 N 
ATOM      9  C   LIG d   1       4.213  -2.497  -8.595  0.00  0.00     0.246 C 
ATOM     10  O   LIG d   1       3.531  -3.310  -8.007  0.00  0.00    -0.273 OA
ATOM     11  C   LIG d   1       5.518  -2.103  -7.986  0.00  0.00     0.151 C 
ATOM     12  C   LIG d   1       5.329  -1.715  -6.539  0.00  0.00     0.054 A 
ATOM     13  C   LIG d   1       5.887  -0.613  -5.990  0.00  0.00    -0.008 A 
ATOM     14  C   LIG d   1       5.485  -0.584  -4.600  0.00  0.00     0.004 A 
ATOM     15  C   LIG d   1       5.753   0.306  -3.554  0.00  0.00    -0.052 A 
ATOM     16  C   LIG d   1       5.192   0.017  -2.335  0.00  0.00    -0.061 A 
ATOM     17  C   LIG d   1       4.396  -1.099  -2.137  0.00  0.00    -0.060 A 
ATOM     18  C   LIG d   1       4.115  -1.996  -3.152  0.00  0.00    -0.038 A 
ATOM     19  C   LIG d   1       4.671  -1.728  -4.401  0.00  0.00     0.047 A 
ATOM     20  N   LIG d   1       4.600  -2.388  -5.595  0.00  0.00    -0.356 N 
ATOM     21  H   LIG d   1       4.108  -3.208  -5.751  0.00  0.00     0.166 HD
ATOM     22  H   LIG d   1       7.657   0.483  -8.693  0.00  0.00     0.047 H 
ATOM     23  H   LIG d   1       8.041  -1.005  -7.790  0.00  0.00     0.047 H 
ATOM     24  H   LIG d   1       4.742  -1.486 -11.501  0.00  0.00     0.056 H 
ATOM     25  H   LIG d   1       3.810  -0.182 -10.740  0.00  0.00     0.056 H 
ATOM     26  H   LIG d   1       6.373   1.179  -3.699  0.00  0.00     0.062 H 
ATOM     27  H   LIG d   1       5.376   0.682  -1.503  0.00  0.00     0.062 H 
ATOM     28  H   LIG d   1       3.980  -1.275  -1.155  0.00  0.00     0.062 H 
ATOM     29  H   LIG d   1       3.492  -2.863  -2.984  0.00  0.00     0.064 H 
ENDROOT
BRANCH   1  30
ATOM     30  C   LIG d   1       7.930   0.757  -5.874  0.00  0.00    -0.035 A 
ATOM     31  C   LIG d   1       8.921  -0.167  -5.603  0.00  0.00    -0.054 A 
ATOM     32  C   LIG d   1      10.001   0.183  -4.814  0.00  0.00    -0.016 A 
ATOM     33  H   LIG d   1       8.852  -1.167  -6.007  0.00  0.00     0.062 H 
ATOM     34  C   LIG d   1      10.091   1.465  -4.294  0.00  0.00     0.162 A 
ATOM     35  H   LIG d   1      10.773  -0.540  -4.604  0.00  0.00     0.066 H 
ATOM     36  C   LIG d   1       9.094   2.396  -4.567  0.00  0.00     0.162 A 
ATOM     37  C   LIG d   1       8.011   2.034  -5.353  0.00  0.00    -0.013 A 
ATOM     38  H   LIG d   1       7.233   2.753  -5.563  0.00  0.00     0.066 H 
BRANCH  34  39
ATOM     39  O   LIG d   1      11.152   1.811  -3.518  0.00  0.00    -0.486 OA
BRANCH  39  40
ATOM     40  C   LIG d   1      12.405   2.003  -4.178  0.00  0.00     0.095 C 
ATOM     41  H   LIG d   1      12.273   1.875  -5.252  0.00  0.00     0.073 H 
BRANCH  40  42
ATOM     42  C   LIG d   1      12.922   3.414  -3.890  0.00  0.00    -0.028 C 
ATOM     43  H   LIG d   1      12.078   4.090  -3.752  0.00  0.00     0.026 H 
ATOM     44  H   LIG d   1      13.529   3.401  -2.985  0.00  0.00     0.026 H 
ATOM     45  H   LIG d   1      13.528   3.757  -4.729  0.00  0.00     0.026 H 
ENDBRANCH  40  42
BRANCH  40  46
ATOM     46  C   LIG d   1      13.415   0.976  -3.663  0.00  0.00    -0.028 C 
ATOM     47  H   LIG d   1      13.404   0.098  -4.309  0.00  0.00     0.026 H 
ATOM     48  H   LIG d   1      14.413   1.415  -3.665  0.00  0.00     0.026 H 
ATOM     49  H   LIG d   1      13.150   0.683  -2.647  0.00  0.00     0.026 H 
ENDBRANCH  40  46
ENDBRANCH  39  40
ENDBRANCH  34  39
BRANCH  36  50
ATOM     50  O   LIG d   1       9.178   3.653  -4.058  0.00  0.00    -0.491 OA
BRANCH  50  51
ATOM     51  C   LIG d   1       9.515   4.701  -4.971  0.00  0.00     0.079 C 
ATOM     52  H   LIG d   1       9.645   4.284  -5.970  0.00  0.00     0.066 H 
ATOM     53  H   LIG d   1      10.442   5.176  -4.651  0.00  0.00     0.066 H 
ATOM     54  H   LIG d   1       8.714   5.440  -4.988  0.00  0.00     0.066 H 
ENDBRANCH  50  51
ENDBRANCH  36  50
ENDBRANCH   1  30
BRANCH  11  55
ATOM     55  C   LIG d   1       6.477  -3.292  -8.058  0.00  0.00    -0.029 C 
ATOM     56  H   LIG d   1       6.931  -3.334  -9.049  0.00  0.00     0.026 H 
ATOM     57  H   LIG d   1       7.258  -3.175  -7.306  0.00  0.00     0.026 H 
ATOM     58  H   LIG d   1       5.928  -4.215  -7.871  0.00  0.00     0.026 H 
ENDBRANCH  11  55
BRANCH   8  59
ATOM     59  C   LIG d   1       2.455  -2.485 -10.231  0.00  0.00     0.027 C 
ATOM     60  C   LIG d   1       1.438  -1.331 -10.234  0.00  0.00    -0.034 C 
ATOM     61  C   LIG d   1       0.980  -1.152 -11.697  0.00  0.00    -0.051 C 
ATOM     62  H   LIG d   1       0.585  -1.583  -9.604  0.00  0.00     0.028 H 
ATOM     63  H   LIG d   1       1.910  -0.417  -9.876  0.00  0.00     0.028 H 
ATOM     64  C   LIG d   1       1.249  -2.531 -12.350  0.00  0.00    -0.051 C 
ATOM     65  H   LIG d   1      -0.082  -0.912 -11.737  0.00  0.00     0.027 H 
ATOM     66  H   LIG d   1       1.567  -0.377 -12.189  0.00  0.00     0.027 H 
ATOM     67  C   LIG d   1       2.579  -2.968 -11.691  0.00  0.00    -0.034 C 
ATOM     68  H   LIG d   1       0.450  -3.233 -12.111  0.00  0.00     0.027 H 
ATOM     69  H   LIG d   1       1.366  -2.431 -13.429  0.00  0.00     0.027 H 
ATOM     70  H   LIG d   1       3.425  -2.485 -12.181  0.00  0.00     0.028 H 
ATOM     71  H   LIG d   1       2.685  -4.052 -11.727  0.00  0.00     0.028 H 
ATOM     72  H   LIG d   1       2.096  -3.297  -9.598  0.00  0.00     0.050 H 
ENDBRANCH   8  59
TORSDOF 9
ENDMDL
MODEL 5
REMARK VINA RESULT:      -6.0      4.344      7.522
REMARK  9 active torsions:
REMARK  status: ('A' for Active; 'I' for Inactive)
REMARK    1  A    between atoms: C_1  and  C_2 
REMARK    2  A    between atoms: C_2  and  C_3 
REMARK    3  A    between atoms: C_2  and  O_4 
REMARK    4  A    between atoms: O_4  and  C_5 
REMARK    5  A    between atoms: C_8  and  C_13 
REMARK    6  A    between atoms: C_10  and  O_11 
REMARK    7  A    between atoms: O_11  and  C_12 
REMARK    8  A    between atoms: N_20  and  C_35 
REMARK    9  A    between atoms: C_23  and  C_34 
ROOT
ATOM      1  C   LIG d   1       3.549  -4.563  -8.425  0.00  0.00     0.028 C 
ATOM      2  H   LIG d   1       2.736  -4.907  -7.786  0.00  0.00     0.041 H 
ATOM      3  C   LIG d   1       4.859  -4.557  -7.629  0.00  0.00     0.027 C 
ATOM      4  N   LIG d   1       4.849  -3.407  -6.704  0.00  0.00    -0.280 N 
ATOM      5  C   LIG d   1       4.840  -3.630  -5.388  0.00  0.00     0.234 C 
ATOM      6  O   LIG d   1       4.999  -4.769  -5.003  0.00  0.00    -0.274 OA
ATOM      7  C   LIG d   1       4.646  -2.566  -4.356  0.00  0.00     0.092 C 
ATOM      8  N   LIG d   1       4.423  -1.258  -4.951  0.00  0.00    -0.287 N 
ATOM      9  C   LIG d   1       4.501  -1.020  -6.260  0.00  0.00     0.246 C 
ATOM     10  O   LIG d   1       4.295   0.111  -6.647  0.00  0.00    -0.273 OA
ATOM     11  C   LIG d   1       4.830  -2.062  -7.278  0.00  0.00     0.151 C 
ATOM     12  C   LIG d   1       3.817  -2.043  -8.398  0.00  0.00     0.054 A 
ATOM     13  C   LIG d   1       3.254  -3.164  -8.904  0.00  0.00    -0.008 A 
ATOM     14  C   LIG d   1       2.349  -2.744  -9.953  0.00  0.00     0.004 A 
ATOM     15  C   LIG d   1       1.505  -3.451 -10.816  0.00  0.00    -0.052 A 
ATOM     16  C   LIG d   1       0.769  -2.712 -11.708  0.00  0.00    -0.061 A 
ATOM     17  C   LIG d   1       0.850  -1.330 -11.762  0.00  0.00    -0.060 A 
ATOM     18  C   LIG d   1       1.677  -0.605 -10.922  0.00  0.00    -0.038 A 
ATOM     19  C   LIG d   1       2.436  -1.329 -10.006  0.00  0.00     0.047 A 
ATOM     20  N   LIG d   1       3.333  -0.942  -9.051  0.00  0.00    -0.356 N 
ATOM     21  H   LIG d   1       3.589  -0.026  -8.865  0.00  0.00     0.166 HD
ATOM     22  H   LIG d   1       4.945  -5.483  -7.060  0.00  0.00     0.047 H 
ATOM     23  H   LIG d   1       5.702  -4.466  -8.313  0.00  0.00     0.047 H 
ATOM     24  H   LIG d   1       5.533  -2.520  -3.723  0.00  0.00     0.056 H 
ATOM     25  H   LIG d   1       3.785  -2.826  -3.740  0.00  0.00     0.056 H 
ATOM     26  H   LIG d   1       1.435  -4.529 -10.781  0.00  0.00     0.062 H 
ATOM     27  H   LIG d   1       0.106  -3.224 -12.390  0.00  0.00     0.062 H 
ATOM     28  H   LIG d   1       0.247  -0.800 -12.485  0.00  0.00     0.062 H 
ATOM     29  H   LIG d   1       1.731   0.473 -10.974  0.00  0.00     0.064 H 
ENDROOT
BRANCH   1  30
ATOM     30  C   LIG d   1       3.684  -5.483  -9.610  0.00  0.00    -0.035 A 
ATOM     31  C   LIG d   1       4.694  -5.279 -10.531  0.00  0.00    -0.054 A 
ATOM     32  C   LIG d   1       4.822  -6.121 -11.620  0.00  0.00    -0.016 A 
ATOM     33  H   LIG d   1       5.385  -4.459 -10.400  0.00  0.00     0.062 H 
ATOM     34  C   LIG d   1       3.935  -7.172 -11.790  0.00  0.00     0.162 A 
ATOM     35  H   LIG d   1       5.612  -5.959 -12.337  0.00  0.00     0.066 H 
ATOM     36  C   LIG d   1       2.918  -7.379 -10.863  0.00  0.00     0.162 A 
ATOM     37  C   LIG d   1       2.793  -6.526  -9.777  0.00  0.00    -0.013 A 
ATOM     38  H   LIG d   1       2.001  -6.681  -9.059  0.00  0.00     0.066 H 
BRANCH  34  39
ATOM     39  O   LIG d   1       4.060  -8.001 -12.861  0.00  0.00    -0.486 OA
BRANCH  39  40
ATOM     40  C   LIG d   1       3.715  -7.466 -14.140  0.00  0.00     0.095 C 
ATOM     41  H   LIG d   1       3.677  -6.379 -14.081  0.00  0.00     0.073 H 
BRANCH  40  42
ATOM     42  C   LIG d   1       4.766  -7.886 -15.169  0.00  0.00    -0.028 C 
ATOM     43  H   LIG d   1       5.759  -7.820 -14.724  0.00  0.00     0.026 H 
ATOM     44  H   LIG d   1       4.576  -8.912 -15.485  0.00  0.00     0.026 H 
ATOM     45  H   LIG d   1       4.712  -7.225 -16.035  0.00  0.00     0.026 H 
ENDBRANCH  40  42
BRANCH  40  46
ATOM     46  C   LIG d   1       2.346  -8.002 -14.563  0.00  0.00    -0.028 C 
ATOM     47  H   LIG d   1       2.370  -9.092 -14.577  0.00  0.00     0.026 H 
ATOM     48  H   LIG d   1       1.589  -7.665 -13.855  0.00  0.00     0.026 H 
ATOM     49  H   LIG d   1       2.102  -7.632 -15.559  0.00  0.00     0.026 H 
ENDBRANCH  40  46
ENDBRANCH  39  40
ENDBRANCH  34  39
BRANCH  36  50
ATOM     50  O   LIG d   1       2.047  -8.409 -11.027  0.00  0.00    -0.491 OA
BRANCH  50  51
ATOM     51  C   LIG d   1       0.727  -8.230 -10.505  0.00  0.00     0.079 C 
ATOM     52  H   LIG d   1       0.017  -8.786 -11.118  0.00  0.00     0.066 H 
ATOM     53  H   LIG d   1       0.471  -7.171 -10.520  0.00  0.00     0.066 H 
ATOM     54  H   LIG d   1       0.689  -8.600  -9.481  0.00  0.00     0.066 H 
ENDBRANCH  50  51
ENDBRANCH  36  50
ENDBRANCH   1  30
BRANCH  11  55
ATOM     55  C   LIG d   1       6.214  -1.768  -7.858  0.00  0.00    -0.029 C 
ATOM     56  H   LIG d   1       6.164  -0.880  -8.489  0.00  0.00     0.026 H 
ATOM     57  H   LIG d   1       6.921  -1.597  -7.045  0.00  0.00     0.026 H 
ATOM     58  H   LIG d   1       6.547  -2.618  -8.455  0.00  0.00     0.026 H 
ENDBRANCH  11  55
BRANCH   8  59
ATOM     59  C   LIG d   1       4.093  -0.142  -4.063  0.00  0.00     0.027 C 
ATOM     60  C   LIG d   1       3.373  -0.662  -2.807  0.00  0.00    -0.034 C 
ATOM     61  C   LIG d   1       4.253  -0.272  -1.601  0.00  0.00    -0.051 C 
ATOM     62  H   LIG d   1       2.392  -0.197  -2.719  0.00  0.00     0.028 H 
ATOM     63  H   LIG d   1       3.269  -1.746  -2.858  0.00  0.00     0.028 H 
ATOM     64  C   LIG d   1       5.079   0.936  -2.110  0.00  0.00    -0.051 C 
ATOM     65  H   LIG d   1       3.632   0.021  -0.755  0.00  0.00     0.027 H 
ATOM     66  H   LIG d   1       4.912  -1.095  -1.326  0.00  0.00     0.027 H 
ATOM     67  C   LIG d   1       5.385   0.547  -3.577  0.00  0.00    -0.034 C 
ATOM     68  H   LIG d   1       4.491   1.852  -2.068  0.00  0.00     0.027 H 
ATOM     69  H   LIG d   1       6.002   1.042  -1.538  0.00  0.00     0.027 H 
ATOM     70  H   LIG d   1       6.226  -0.145  -3.622  0.00  0.00     0.028 H 
ATOM     71  H   LIG d   1       5.590   1.437  -4.173  0.00  0.00     0.028 H 
ATOM     72  H   LIG d   1       3.461   0.576  -4.586  0.00  0.00     0.050 H 
ENDBRANCH   8  59
TORSDOF 9
ENDMDL
MODEL 6
REMARK VINA RESULT:      -5.9      3.580      8.177
REMARK  9 active torsions:
REMARK  status: ('A' for Active; 'I' for Inactive)
REMARK    1  A    between atoms: C_1  and  C_2 
REMARK    2  A    between atoms: C_2  and  C_3 
REMARK    3  A    between atoms: C_2  and  O_4 
REMARK    4  A    between atoms: O_4  and  C_5 
REMARK    5  A    between atoms: C_8  and  C_13 
REMARK    6  A    between atoms: C_10  and  O_11 
REMARK    7  A    between atoms: O_11  and  C_12 
REMARK    8  A    between atoms: N_20  and  C_35 
REMARK    9  A    between atoms: C_23  and  C_34 
ROOT
ATOM      1  C   LIG d   1       7.471  -1.382  -5.858  0.00  0.00     0.028 C 
ATOM      2  H   LIG d   1       8.121  -1.786  -6.634  0.00  0.00     0.041 H 
ATOM      3  C   LIG d   1       7.528  -2.284  -4.620  0.00  0.00     0.027 C 
ATOM      4  N   LIG d   1       6.756  -3.512  -4.889  0.00  0.00    -0.280 N 
ATOM      5  C   LIG d   1       7.393  -4.685  -4.938  0.00  0.00     0.234 C 
ATOM      6  O   LIG d   1       8.558  -4.713  -4.603  0.00  0.00    -0.274 OA
ATOM      7  C   LIG d   1       6.763  -5.966  -5.379  0.00  0.00     0.092 C 
ATOM      8  N   LIG d   1       5.381  -5.784  -5.794  0.00  0.00    -0.287 N 
ATOM      9  C   LIG d   1       4.722  -4.631  -5.681  0.00  0.00     0.246 C 
ATOM     10  O   LIG d   1       3.571  -4.592  -6.062  0.00  0.00    -0.273 OA
ATOM     11  C   LIG d   1       5.316  -3.385  -5.112  0.00  0.00     0.151 C 
ATOM     12  C   LIG d   1       5.087  -2.218  -6.043  0.00  0.00     0.054 A 
ATOM     13  C   LIG d   1       6.053  -1.329  -6.367  0.00  0.00    -0.008 A 
ATOM     14  C   LIG d   1       5.456  -0.366  -7.267  0.00  0.00     0.004 A 
ATOM     15  C   LIG d   1       5.962   0.763  -7.920  0.00  0.00    -0.052 A 
ATOM     16  C   LIG d   1       5.092   1.460  -8.720  0.00  0.00    -0.061 A 
ATOM     17  C   LIG d   1       3.772   1.074  -8.883  0.00  0.00    -0.060 A 
ATOM     18  C   LIG d   1       3.243  -0.038  -8.250  0.00  0.00    -0.038 A 
ATOM     19  C   LIG d   1       4.104  -0.765  -7.431  0.00  0.00     0.047 A 
ATOM     20  N   LIG d   1       3.918  -1.887  -6.675  0.00  0.00    -0.356 N 
ATOM     21  H   LIG d   1       3.085  -2.377  -6.598  0.00  0.00     0.166 HD
ATOM     22  H   LIG d   1       8.565  -2.544  -4.405  0.00  0.00     0.047 H 
ATOM     23  H   LIG d   1       7.096  -1.762  -3.767  0.00  0.00     0.047 H 
ATOM     24  H   LIG d   1       6.793  -6.679  -4.554  0.00  0.00     0.056 H 
ATOM     25  H   LIG d   1       7.333  -6.370  -6.215  0.00  0.00     0.056 H 
ATOM     26  H   LIG d   1       6.991   1.072  -7.799  0.00  0.00     0.062 H 
ATOM     27  H   LIG d   1       5.448   2.337  -9.240  0.00  0.00     0.062 H 
ATOM     28  H   LIG d   1       3.132   1.660  -9.526  0.00  0.00     0.062 H 
ATOM     29  H   LIG d   1       2.211  -0.328  -8.385  0.00  0.00     0.064 H 
ENDROOT
BRANCH   1  30
ATOM     30  C   LIG d   1       7.926   0.006  -5.491  0.00  0.00    -0.035 A 
ATOM     31  C   LIG d   1       7.334   0.670  -4.433  0.00  0.00    -0.054 A 
ATOM     32  C   LIG d   1       7.748   1.944  -4.093  0.00  0.00    -0.016 A 
ATOM     33  H   LIG d   1       6.544   0.192  -3.871  0.00  0.00     0.062 H 
ATOM     34  C   LIG d   1       8.760   2.559  -4.813  0.00  0.00     0.162 A 
ATOM     35  H   LIG d   1       7.284   2.459  -3.266  0.00  0.00     0.066 H 
ATOM     36  C   LIG d   1       9.357   1.891  -5.878  0.00  0.00     0.162 A 
ATOM     37  C   LIG d   1       8.932   0.617  -6.217  0.00  0.00    -0.013 A 
ATOM     38  H   LIG d   1       9.390   0.098  -7.046  0.00  0.00     0.066 H 
BRANCH  34  39
ATOM     39  O   LIG d   1       9.168   3.812  -4.479  0.00  0.00    -0.486 OA
BRANCH  39  40
ATOM     40  C   LIG d   1       9.623   4.012  -3.139  0.00  0.00     0.095 C 
ATOM     41  H   LIG d   1       8.852   3.686  -2.441  0.00  0.00     0.073 H 
BRANCH  40  42
ATOM     42  C   LIG d   1      10.898   3.199  -2.907  0.00  0.00    -0.028 C 
ATOM     43  H   LIG d   1      10.654   2.283  -2.370  0.00  0.00     0.026 H 
ATOM     44  H   LIG d   1      11.349   2.949  -3.867  0.00  0.00     0.026 H 
ATOM     45  H   LIG d   1      11.602   3.788  -2.319  0.00  0.00     0.026 H 
ENDBRANCH  40  42
BRANCH  40  46
ATOM     46  C   LIG d   1       9.917   5.497  -2.917  0.00  0.00    -0.028 C 
ATOM     47  H   LIG d   1      10.090   5.981  -3.878  0.00  0.00     0.026 H 
ATOM     48  H   LIG d   1       9.067   5.966  -2.422  0.00  0.00     0.026 H 
ATOM     49  H   LIG d   1      10.804   5.602  -2.293  0.00  0.00     0.026 H 
ENDBRANCH  40  46
ENDBRANCH  39  40
ENDBRANCH  34  39
BRANCH  36  50
ATOM     50  O   LIG d   1      10.349   2.491  -6.587  0.00  0.00    -0.491 OA
BRANCH  50  51
ATOM     51  C   LIG d   1      10.665   1.929  -7.863  0.00  0.00     0.079 C 
ATOM     52  H   LIG d   1      11.692   2.182  -8.127  0.00  0.00     0.066 H 
ATOM     53  H   LIG d   1       9.987   2.332  -8.615  0.00  0.00     0.066 H 
ATOM     54  H   LIG d   1      10.558   0.846  -7.820  0.00  0.00     0.066 H 
ENDBRANCH  50  51
ENDBRANCH  36  50
ENDBRANCH   1  30
BRANCH  11  55
ATOM     55  C   LIG d   1       4.647  -3.085  -3.770  0.00  0.00    -0.029 C 
ATOM     56  H   LIG d   1       3.679  -2.615  -3.943  0.00  0.00     0.026 H 
ATOM     57  H   LIG d   1       4.506  -4.016  -3.219  0.00  0.00     0.026 H 
ATOM     58  H   LIG d   1       5.279  -2.413  -3.190  0.00  0.00     0.026 H 
ENDBRANCH  11  55
BRANCH   8  59
ATOM     59  C   LIG d   1       4.675  -6.931  -6.370  0.00  0.00     0.027 C 
ATOM     60  C   LIG d   1       5.209  -7.223  -7.783  0.00  0.00    -0.034 C 
ATOM     61  C   LIG d   1       5.784  -8.655  -7.750  0.00  0.00    -0.051 C 
ATOM     62  H   LIG d   1       4.398  -7.164  -8.508  0.00  0.00     0.028 H 
ATOM     63  H   LIG d   1       5.993  -6.511  -8.041  0.00  0.00     0.028 H 
ATOM     64  C   LIG d   1       5.043  -9.334  -6.571  0.00  0.00    -0.051 C 
ATOM     65  H   LIG d   1       5.570  -9.173  -8.684  0.00  0.00     0.027 H 
ATOM     66  H   LIG d   1       6.857  -8.631  -7.561  0.00  0.00     0.027 H 
ATOM     67  C   LIG d   1       4.944  -8.195  -5.527  0.00  0.00    -0.034 C 
ATOM     68  H   LIG d   1       4.050  -9.663  -6.878  0.00  0.00     0.027 H 
ATOM     69  H   LIG d   1       5.624 -10.169  -6.179  0.00  0.00     0.027 H 
ATOM     70  H   LIG d   1       5.882  -8.096  -4.980  0.00  0.00     0.028 H 
ATOM     71  H   LIG d   1       4.119  -8.377  -4.839  0.00  0.00     0.028 H 
ATOM     72  H   LIG d   1       3.605  -6.728  -6.409  0.00  0.00     0.050 H 
ENDBRANCH   8  59
TORSDOF 9
ENDMDL
MODEL 7
REMARK VINA RESULT:      -5.9      4.357      7.332
REMARK  9 active torsions:
REMARK  status: ('A' for Active; 'I' for Inactive)
REMARK    1  A    between atoms: C_1  and  C_2 
REMARK    2  A    between atoms: C_2  and  C_3 
REMARK    3  A    between atoms: C_2  and  O_4 
REMARK    4  A    between atoms: O_4  and  C_5 
REMARK    5  A    between atoms: C_8  and  C_13 
REMARK    6  A    between atoms: C_10  and  O_11 
REMARK    7  A    between atoms: O_11  and  C_12 
REMARK    8  A    between atoms: N_20  and  C_35 
REMARK    9  A    between atoms: C_23  and  C_34 
ROOT
ATOM      1  C   LIG d   1       3.543  -4.480  -8.416  0.00  0.00     0.028 C 
ATOM      2  H   LIG d   1       2.717  -4.823  -7.793  0.00  0.00     0.041 H 
ATOM      3  C   LIG d   1       4.840  -4.487  -7.599  0.00  0.00     0.027 C 
ATOM      4  N   LIG d   1       4.821  -3.343  -6.667  0.00  0.00    -0.280 N 
ATOM      5  C   LIG d   1       4.790  -3.574  -5.352  0.00  0.00     0.234 C 
ATOM      6  O   LIG d   1       4.935  -4.717  -4.973  0.00  0.00    -0.274 OA
ATOM      7  C   LIG d   1       4.585  -2.516  -4.317  0.00  0.00     0.092 C 
ATOM      8  N   LIG d   1       4.380  -1.203  -4.908  0.00  0.00    -0.287 N 
ATOM      9  C   LIG d   1       4.481  -0.957  -6.213  0.00  0.00     0.246 C 
ATOM     10  O   LIG d   1       4.287   0.178  -6.596  0.00  0.00    -0.273 OA
ATOM     11  C   LIG d   1       4.820  -1.994  -7.232  0.00  0.00     0.151 C 
ATOM     12  C   LIG d   1       3.826  -1.963  -8.368  0.00  0.00     0.054 A 
ATOM     13  C   LIG d   1       3.264  -3.076  -8.891  0.00  0.00    -0.008 A 
ATOM     14  C   LIG d   1       2.379  -2.645  -9.952  0.00  0.00     0.004 A 
ATOM     15  C   LIG d   1       1.545  -3.341 -10.833  0.00  0.00    -0.052 A 
ATOM     16  C   LIG d   1       0.828  -2.592 -11.732  0.00  0.00    -0.061 A 
ATOM     17  C   LIG d   1       0.918  -1.211 -11.776  0.00  0.00    -0.060 A 
ATOM     18  C   LIG d   1       1.735  -0.495 -10.917  0.00  0.00    -0.038 A 
ATOM     19  C   LIG d   1       2.475  -1.230  -9.994  0.00  0.00     0.047 A 
ATOM     20  N   LIG d   1       3.358  -0.855  -9.023  0.00  0.00    -0.356 N 
ATOM     21  H   LIG d   1       3.616   0.059  -8.826  0.00  0.00     0.166 HD
ATOM     22  H   LIG d   1       4.911  -5.417  -7.035  0.00  0.00     0.047 H 
ATOM     23  H   LIG d   1       5.694  -4.397  -8.269  0.00  0.00     0.047 H 
ATOM     24  H   LIG d   1       5.462  -2.479  -3.670  0.00  0.00     0.056 H 
ATOM     25  H   LIG d   1       3.713  -2.774  -3.716  0.00  0.00     0.056 H 
ATOM     26  H   LIG d   1       1.468  -4.419 -10.806  0.00  0.00     0.062 H 
ATOM     27  H   LIG d   1       0.172  -3.095 -12.428  0.00  0.00     0.062 H 
ATOM     28  H   LIG d   1       0.329  -0.672 -12.505  0.00  0.00     0.062 H 
ATOM     29  H   LIG d   1       1.796   0.582 -10.962  0.00  0.00     0.064 H 
ENDROOT
BRANCH   1  30
ATOM     30  C   LIG d   1       3.691  -5.393  -9.605  0.00  0.00    -0.035 A 
ATOM     31  C   LIG d   1       2.782  -6.414  -9.809  0.00  0.00    -0.054 A 
ATOM     32  C   LIG d   1       2.913  -7.254 -10.898  0.00  0.00    -0.016 A 
ATOM     33  H   LIG d   1       1.966  -6.556  -9.114  0.00  0.00     0.062 H 
ATOM     34  C   LIG d   1       3.959  -7.074 -11.789  0.00  0.00     0.162 A 
ATOM     35  H   LIG d   1       2.202  -8.051 -11.055  0.00  0.00     0.066 H 
ATOM     36  C   LIG d   1       4.875  -6.047 -11.585  0.00  0.00     0.162 A 
ATOM     37  C   LIG d   1       4.740  -5.212 -10.487  0.00  0.00    -0.013 A 
ATOM     38  H   LIG d   1       5.452  -4.417 -10.323  0.00  0.00     0.066 H 
BRANCH  34  39
ATOM     39  O   LIG d   1       4.090  -7.901 -12.861  0.00  0.00    -0.486 OA
BRANCH  39  40
ATOM     40  C   LIG d   1       3.130  -7.761 -13.910  0.00  0.00     0.095 C 
ATOM     41  H   LIG d   1       2.308  -7.131 -13.569  0.00  0.00     0.073 H 
BRANCH  40  42
ATOM     42  C   LIG d   1       3.796  -7.118 -15.129  0.00  0.00    -0.028 C 
ATOM     43  H   LIG d   1       4.877  -7.232 -15.055  0.00  0.00     0.026 H 
ATOM     44  H   LIG d   1       3.439  -7.605 -16.036  0.00  0.00     0.026 H 
ATOM     45  H   LIG d   1       3.544  -6.058 -15.163  0.00  0.00     0.026 H 
ENDBRANCH  40  42
BRANCH  40  46
ATOM     46  C   LIG d   1       2.590  -9.140 -14.294  0.00  0.00    -0.028 C 
ATOM     47  H   LIG d   1       3.205  -9.564 -15.088  0.00  0.00     0.026 H 
ATOM     48  H   LIG d   1       2.618  -9.796 -13.423  0.00  0.00     0.026 H 
ATOM     49  H   LIG d   1       1.562  -9.044 -14.642  0.00  0.00     0.026 H 
ENDBRANCH  40  46
ENDBRANCH  39  40
ENDBRANCH  34  39
BRANCH  36  50
ATOM     50  O   LIG d   1       5.903  -5.867 -12.457  0.00  0.00    -0.491 OA
BRANCH  50  51
ATOM     51  C   LIG d   1       5.917  -4.646 -13.199  0.00  0.00     0.079 C 
ATOM     52  H   LIG d   1       6.299  -4.835 -14.203  0.00  0.00     0.066 H 
ATOM     53  H   LIG d   1       6.560  -3.923 -12.697  0.00  0.00     0.066 H 
ATOM     54  H   LIG d   1       4.905  -4.248 -13.266  0.00  0.00     0.066 H 
ENDBRANCH  50  51
ENDBRANCH  36  50
ENDBRANCH   1  30
BRANCH  11  55
ATOM     55  C   LIG d   1       6.215  -1.705  -7.788  0.00  0.00    -0.029 C 
ATOM     56  H   LIG d   1       6.237  -1.936  -8.854  0.00  0.00     0.026 H 
ATOM     57  H   LIG d   1       6.455  -0.652  -7.639  0.00  0.00     0.026 H 
ATOM     58  H   LIG d   1       6.949  -2.321  -7.268  0.00  0.00     0.026 H 
ENDBRANCH  11  55
BRANCH   8  59
ATOM     59  C   LIG d   1       4.042  -0.090  -4.017  0.00  0.00     0.027 C 
ATOM     60  C   LIG d   1       3.386  -0.624  -2.732  0.00  0.00    -0.034 C 
ATOM     61  C   LIG d   1       4.293  -0.191  -1.562  0.00  0.00    -0.051 C 
ATOM     62  H   LIG d   1       2.392  -0.192  -2.614  0.00  0.00     0.028 H 
ATOM     63  H   LIG d   1       3.318  -1.710  -2.771  0.00  0.00     0.028 H 
ATOM     64  C   LIG d   1       5.057   1.040  -2.110  0.00  0.00    -0.051 C 
ATOM     65  H   LIG d   1       3.692   0.088  -0.697  0.00  0.00     0.027 H 
ATOM     66  H   LIG d   1       4.990  -0.988  -1.304  0.00  0.00     0.027 H 
ATOM     67  C   LIG d   1       5.325   0.649  -3.584  0.00  0.00    -0.034 C 
ATOM     68  H   LIG d   1       4.438   1.936  -2.055  0.00  0.00     0.027 H 
ATOM     69  H   LIG d   1       5.995   1.184  -1.572  0.00  0.00     0.027 H 
ATOM     70  H   LIG d   1       6.188  -0.014  -3.652  0.00  0.00     0.028 H 
ATOM     71  H   LIG d   1       5.477   1.539  -4.194  0.00  0.00     0.028 H 
ATOM     72  H   LIG d   1       3.366   0.599  -4.523  0.00  0.00     0.050 H 
ENDBRANCH   8  59
TORSDOF 9
ENDMDL
MODEL 8
REMARK VINA RESULT:      -5.8      3.355      7.752
REMARK  9 active torsions:
REMARK  status: ('A' for Active; 'I' for Inactive)
REMARK    1  A    between atoms: C_1  and  C_2 
REMARK    2  A    between atoms: C_2  and  C_3 
REMARK    3  A    between atoms: C_2  and  O_4 
REMARK    4  A    between atoms: O_4  and  C_5 
REMARK    5  A    between atoms: C_8  and  C_13 
REMARK    6  A    between atoms: C_10  and  O_11 
REMARK    7  A    between atoms: O_11  and  C_12 
REMARK    8  A    between atoms: N_20  and  C_35 
REMARK    9  A    between atoms: C_23  and  C_34 
ROOT
ATOM      1  C   LIG d   1       7.667  -0.982  -6.978  0.00  0.00     0.028 C 
ATOM      2  H   LIG d   1       7.949  -1.483  -7.905  0.00  0.00     0.041 H 
ATOM      3  C   LIG d   1       8.192  -1.785  -5.782  0.00  0.00     0.027 C 
ATOM      4  N   LIG d   1       7.352  -2.985  -5.609  0.00  0.00    -0.280 N 
ATOM      5  C   LIG d   1       7.894  -4.192  -5.791  0.00  0.00     0.234 C 
ATOM      6  O   LIG d   1       9.096  -4.258  -5.939  0.00  0.00    -0.274 OA
ATOM      7  C   LIG d   1       7.115  -5.467  -5.826  0.00  0.00     0.092 C 
ATOM      8  N   LIG d   1       5.686  -5.241  -5.682  0.00  0.00    -0.287 N 
ATOM      9  C   LIG d   1       5.148  -4.048  -5.430  0.00  0.00     0.246 C 
ATOM     10  O   LIG d   1       3.942  -3.976  -5.331  0.00  0.00    -0.273 OA
ATOM     11  C   LIG d   1       5.944  -2.796  -5.261  0.00  0.00     0.151 C 
ATOM     12  C   LIG d   1       5.388  -1.696  -6.134  0.00  0.00     0.054 A 
ATOM     13  C   LIG d   1       6.165  -0.891  -6.894  0.00  0.00    -0.008 A 
ATOM     14  C   LIG d   1       5.280   0.029  -7.575  0.00  0.00     0.004 A 
ATOM     15  C   LIG d   1       5.509   1.073  -8.477  0.00  0.00    -0.052 A 
ATOM     16  C   LIG d   1       4.408   1.752  -8.935  0.00  0.00    -0.061 A 
ATOM     17  C   LIG d   1       3.123   1.428  -8.530  0.00  0.00    -0.060 A 
ATOM     18  C   LIG d   1       2.866   0.401  -7.638  0.00  0.00    -0.038 A 
ATOM     19  C   LIG d   1       3.966  -0.305  -7.156  0.00  0.00     0.047 A 
ATOM     20  N   LIG d   1       4.072  -1.352  -6.286  0.00  0.00    -0.356 N 
ATOM     21  H   LIG d   1       3.327  -1.786  -5.842  0.00  0.00     0.166 HD
ATOM     22  H   LIG d   1       9.224  -2.084  -5.967  0.00  0.00     0.047 H 
ATOM     23  H   LIG d   1       8.143  -1.173  -4.882  0.00  0.00     0.047 H 
ATOM     24  H   LIG d   1       7.455  -6.112  -5.015  0.00  0.00     0.056 H 
ATOM     25  H   LIG d   1       7.301  -5.967  -6.777  0.00  0.00     0.056 H 
ATOM     26  H   LIG d   1       6.508   1.332  -8.800  0.00  0.00     0.062 H 
ATOM     27  H   LIG d   1       4.546   2.563  -9.634  0.00  0.00     0.062 H 
ATOM     28  H   LIG d   1       2.293   1.996  -8.924  0.00  0.00     0.062 H 
ATOM     29  H   LIG d   1       1.859   0.159  -7.330  0.00  0.00     0.064 H 
ENDROOT
BRANCH   1  30
ATOM     30  C   LIG d   1       8.258   0.403  -6.953  0.00  0.00    -0.035 A 
ATOM     31  C   LIG d   1       8.910   0.896  -8.068  0.00  0.00    -0.054 A 
ATOM     32  C   LIG d   1       9.453   2.167  -8.050  0.00  0.00    -0.016 A 
ATOM     33  H   LIG d   1       8.997   0.285  -8.955  0.00  0.00     0.062 H 
ATOM     34  C   LIG d   1       9.344   2.951  -6.913  0.00  0.00     0.162 A 
ATOM     35  H   LIG d   1       9.962   2.548  -8.922  0.00  0.00     0.066 H 
ATOM     36  C   LIG d   1       8.687   2.456  -5.790  0.00  0.00     0.162 A 
ATOM     37  C   LIG d   1       8.151   1.178  -5.814  0.00  0.00    -0.013 A 
ATOM     38  H   LIG d   1       7.645   0.790  -4.942  0.00  0.00     0.066 H 
BRANCH  34  39
ATOM     39  O   LIG d   1       9.878   4.201  -6.894  0.00  0.00    -0.486 OA
BRANCH  39  40
ATOM     40  C   LIG d   1      10.359   4.721  -8.135  0.00  0.00     0.095 C 
ATOM     41  H   LIG d   1      10.316   3.942  -8.897  0.00  0.00     0.073 H 
BRANCH  40  42
ATOM     42  C   LIG d   1       9.489   5.904  -8.564  0.00  0.00    -0.028 C 
ATOM     43  H   LIG d   1       9.047   6.369  -7.684  0.00  0.00     0.026 H 
ATOM     44  H   LIG d   1      10.103   6.634  -9.092  0.00  0.00     0.026 H 
ATOM     45  H   LIG d   1       8.697   5.552  -9.225  0.00  0.00     0.026 H 
ENDBRANCH  40  42
BRANCH  40  46
ATOM     46  C   LIG d   1      11.806   5.188  -7.966  0.00  0.00    -0.028 C 
ATOM     47  H   LIG d   1      12.066   5.870  -8.776  0.00  0.00     0.026 H 
ATOM     48  H   LIG d   1      11.912   5.703  -7.011  0.00  0.00     0.026 H 
ATOM     49  H   LIG d   1      12.472   4.326  -7.989  0.00  0.00     0.026 H 
ENDBRANCH  40  46
ENDBRANCH  39  40
ENDBRANCH  34  39
BRANCH  36  50
ATOM     50  O   LIG d   1       8.578   3.222  -4.672  0.00  0.00    -0.491 OA
BRANCH  50  51
ATOM     51  C   LIG d   1       9.393   2.857  -3.555  0.00  0.00     0.079 C 
ATOM     52  H   LIG d   1       8.754   2.582  -2.715  0.00  0.00     0.066 H 
ATOM     53  H   LIG d   1      10.021   3.702  -3.272  0.00  0.00     0.066 H 
ATOM     54  H   LIG d   1      10.022   2.010  -3.825  0.00  0.00     0.066 H 
ENDBRANCH  50  51
ENDBRANCH  36  50
ENDBRANCH   1  30
BRANCH  11  55
ATOM     55  C   LIG d   1       5.867  -2.354  -3.799  0.00  0.00    -0.029 C 
ATOM     56  H   LIG d   1       4.898  -2.635  -3.384  0.00  0.00     0.026 H 
ATOM     57  H   LIG d   1       6.660  -2.839  -3.230  0.00  0.00     0.026 H 
ATOM     58  H   LIG d   1       5.987  -1.272  -3.739  0.00  0.00     0.026 H 
ENDBRANCH  11  55
BRANCH   8  59
ATOM     59  C   LIG d   1       4.788  -6.389  -5.823  0.00  0.00     0.027 C 
ATOM     60  C   LIG d   1       4.466  -6.628  -7.309  0.00  0.00    -0.034 C 
ATOM     61  C   LIG d   1       4.975  -8.045  -7.647  0.00  0.00    -0.051 C 
ATOM     62  H   LIG d   1       3.390  -6.569  -7.472  0.00  0.00     0.028 H 
ATOM     63  H   LIG d   1       4.978  -5.890  -7.925  0.00  0.00     0.028 H 
ATOM     64  C   LIG d   1       5.000  -8.775  -6.282  0.00  0.00    -0.051 C 
ATOM     65  H   LIG d   1       4.290  -8.542  -8.333  0.00  0.00     0.027 H 
ATOM     66  H   LIG d   1       5.977  -7.999  -8.073  0.00  0.00     0.027 H 
ATOM     67  C   LIG d   1       5.480  -7.669  -5.311  0.00  0.00    -0.034 C 
ATOM     68  H   LIG d   1       4.003  -9.121  -6.010  0.00  0.00     0.027 H 
ATOM     69  H   LIG d   1       5.706  -9.606  -6.301  0.00  0.00     0.027 H 
ATOM     70  H   LIG d   1       6.564  -7.562  -5.360  0.00  0.00     0.028 H 
ATOM     71  H   LIG d   1       5.164  -7.892  -4.292  0.00  0.00     0.028 H 
ATOM     72  H   LIG d   1       3.868  -6.213  -5.266  0.00  0.00     0.050 H 
ENDBRANCH   8  59
TORSDOF 9
ENDMDL
MODEL 9
REMARK VINA RESULT:      -5.8      3.747      7.805
REMARK  9 active torsions:
REMARK  status: ('A' for Active; 'I' for Inactive)
REMARK    1  A    between atoms: C_1  and  C_2 
REMARK    2  A    between atoms: C_2  and  C_3 
REMARK    3  A    between atoms: C_2  and  O_4 
REMARK    4  A    between atoms: O_4  and  C_5 
REMARK    5  A    between atoms: C_8  and  C_13 
REMARK    6  A    between atoms: C_10  and  O_11 
REMARK    7  A    between atoms: O_11  and  C_12 
REMARK    8  A    between atoms: N_20  and  C_35 
REMARK    9  A    between atoms: C_23  and  C_34 
ROOT
ATOM      1  C   LIG d   1       8.394   2.372  -7.763  0.00  0.00     0.028 C 
ATOM      2  H   LIG d   1       7.439   2.853  -7.975  0.00  0.00     0.041 H 
ATOM      3  C   LIG d   1       8.231   0.850  -7.848  0.00  0.00     0.027 C 
ATOM      4  N   LIG d   1       7.514   0.380  -6.649  0.00  0.00    -0.280 N 
ATOM      5  C   LIG d   1       6.301  -0.164  -6.785  0.00  0.00     0.234 C 
ATOM      6  O   LIG d   1       5.905  -0.391  -7.908  0.00  0.00    -0.274 OA
ATOM      7  C   LIG d   1       5.401  -0.509  -5.644  0.00  0.00     0.092 C 
ATOM      8  N   LIG d   1       5.978  -0.145  -4.360  0.00  0.00    -0.287 N 
ATOM      9  C   LIG d   1       7.214   0.332  -4.215  0.00  0.00     0.246 C 
ATOM     10  O   LIG d   1       7.592   0.604  -3.095  0.00  0.00    -0.273 OA
ATOM     11  C   LIG d   1       8.162   0.548  -5.348  0.00  0.00     0.151 C 
ATOM     12  C   LIG d   1       8.743   1.940  -5.291  0.00  0.00     0.054 A 
ATOM     13  C   LIG d   1       8.845   2.745  -6.373  0.00  0.00    -0.008 A 
ATOM     14  C   LIG d   1       9.450   3.981  -5.925  0.00  0.00     0.004 A 
ATOM     15  C   LIG d   1       9.797   5.162  -6.589  0.00  0.00    -0.052 A 
ATOM     16  C   LIG d   1      10.365   6.156  -5.833  0.00  0.00    -0.061 A 
ATOM     17  C   LIG d   1      10.591   6.009  -4.474  0.00  0.00    -0.060 A 
ATOM     18  C   LIG d   1      10.259   4.851  -3.791  0.00  0.00    -0.038 A 
ATOM     19  C   LIG d   1       9.681   3.825  -4.534  0.00  0.00     0.047 A 
ATOM     20  N   LIG d   1       9.241   2.580  -4.187  0.00  0.00    -0.356 N 
ATOM     21  H   LIG d   1       9.276   2.204  -3.294  0.00  0.00     0.166 HD
ATOM     22  H   LIG d   1       7.660   0.594  -8.741  0.00  0.00     0.047 H 
ATOM     23  H   LIG d   1       9.213   0.381  -7.893  0.00  0.00     0.047 H 
ATOM     24  H   LIG d   1       5.211  -1.583  -5.655  0.00  0.00     0.056 H 
ATOM     25  H   LIG d   1       4.455   0.019  -5.769  0.00  0.00     0.056 H 
ATOM     26  H   LIG d   1       9.624   5.286  -7.649  0.00  0.00     0.062 H 
ATOM     27  H   LIG d   1      10.646   7.083  -6.311  0.00  0.00     0.062 H 
ATOM     28  H   LIG d   1      11.041   6.825  -3.928  0.00  0.00     0.062 H 
ATOM     29  H   LIG d   1      10.441   4.749  -2.731  0.00  0.00     0.064 H 
ENDROOT
BRANCH   1  30
ATOM     30  C   LIG d   1       9.422   2.827  -8.765  0.00  0.00    -0.035 A 
ATOM     31  C   LIG d   1      10.731   2.397  -8.654  0.00  0.00    -0.054 A 
ATOM     32  C   LIG d   1      11.678   2.810  -9.571  0.00  0.00    -0.016 A 
ATOM     33  H   LIG d   1      11.015   1.736  -7.848  0.00  0.00     0.062 H 
ATOM     34  C   LIG d   1      11.317   3.659 -10.606  0.00  0.00     0.162 A 
ATOM     35  H   LIG d   1      12.700   2.473  -9.482  0.00  0.00     0.066 H 
ATOM     36  C   LIG d   1       9.999   4.092 -10.718  0.00  0.00     0.162 A 
ATOM     37  C   LIG d   1       9.056   3.678  -9.791  0.00  0.00    -0.013 A 
ATOM     38  H   LIG d   1       8.034   4.016  -9.873  0.00  0.00     0.066 H 
BRANCH  34  39
ATOM     39  O   LIG d   1      12.248   4.067 -11.509  0.00  0.00    -0.486 OA
BRANCH  39  40
ATOM     40  C   LIG d   1      13.147   5.098 -11.094  0.00  0.00     0.095 C 
ATOM     41  H   LIG d   1      12.949   5.356 -10.054  0.00  0.00     0.073 H 
BRANCH  40  42
ATOM     42  C   LIG d   1      14.588   4.604 -11.234  0.00  0.00    -0.028 C 
ATOM     43  H   LIG d   1      14.685   4.015 -12.145  0.00  0.00     0.026 H 
ATOM     44  H   LIG d   1      15.262   5.459 -11.280  0.00  0.00     0.026 H 
ATOM     45  H   LIG d   1      14.845   3.986 -10.373  0.00  0.00     0.026 H 
ENDBRANCH  40  42
BRANCH  40  46
ATOM     46  C   LIG d   1      12.945   6.333 -11.974  0.00  0.00    -0.028 C 
ATOM     47  H   LIG d   1      12.015   6.233 -12.535  0.00  0.00     0.026 H 
ATOM     48  H   LIG d   1      12.894   7.223 -11.345  0.00  0.00     0.026 H 
ATOM     49  H   LIG d   1      13.780   6.426 -12.668  0.00  0.00     0.026 H 
ENDBRANCH  40  46
ENDBRANCH  39  40
ENDBRANCH  34  39
BRANCH  36  50
ATOM     50  O   LIG d   1       9.640   4.925 -11.731  0.00  0.00    -0.491 OA
BRANCH  50  51
ATOM     51  C   LIG d   1       9.196   6.234 -11.367  0.00  0.00     0.079 C 
ATOM     52  H   LIG d   1       8.778   6.209 -10.360  0.00  0.00     0.066 H 
ATOM     53  H   LIG d   1       8.431   6.566 -12.070  0.00  0.00     0.066 H 
ATOM     54  H   LIG d   1      10.038   6.924 -11.393  0.00  0.00     0.066 H 
ENDBRANCH  50  51
ENDBRANCH  36  50
ENDBRANCH   1  30
BRANCH  11  55
ATOM     55  C   LIG d   1       9.299  -0.468  -5.244  0.00  0.00    -0.029 C 
ATOM     56  H   LIG d   1       9.052  -1.215  -4.489  0.00  0.00     0.026 H 
ATOM     57  H   LIG d   1       9.439  -0.958  -6.208  0.00  0.00     0.026 H 
ATOM     58  H   LIG d   1      10.219   0.043  -4.960  0.00  0.00     0.026 H 
ENDBRANCH  11  55
BRANCH   8  59
ATOM     59  C   LIG d   1       5.154  -0.309  -3.160  0.00  0.00     0.027 C 
ATOM     60  C   LIG d   1       3.746   0.261  -3.405  0.00  0.00    -0.034 C 
ATOM     61  C   LIG d   1       2.759  -0.911  -3.230  0.00  0.00    -0.051 C 
ATOM     62  H   LIG d   1       3.530   1.044  -2.678  0.00  0.00     0.028 H 
ATOM     63  H   LIG d   1       3.676   0.662  -4.416  0.00  0.00     0.028 H 
ATOM     64  C   LIG d   1       3.518  -1.915  -2.326  0.00  0.00    -0.051 C 
ATOM     65  H   LIG d   1       1.847  -0.572  -2.739  0.00  0.00     0.027 H 
ATOM     66  H   LIG d   1       2.529  -1.364  -4.194  0.00  0.00     0.027 H 
ATOM     67  C   LIG d   1       4.973  -1.809  -2.845  0.00  0.00    -0.034 C 
ATOM     68  H   LIG d   1       3.458  -1.615  -1.280  0.00  0.00     0.027 H 
ATOM     69  H   LIG d   1       3.132  -2.925  -2.462  0.00  0.00     0.027 H 
ATOM     70  H   LIG d   1       5.101  -2.406  -3.748  0.00  0.00     0.028 H 
ATOM     71  H   LIG d   1       5.677  -2.124  -2.075  0.00  0.00     0.028 H 
ATOM     72  H   LIG d   1       5.621   0.197  -2.315  0.00  0.00     0.050 H 
ENDBRANCH   8  59
TORSDOF 9
ENDMDL
MODEL 10
REMARK VINA RESULT:      -5.8      3.309      7.940
REMARK  9 active torsions:
REMARK  status: ('A' for Active; 'I' for Inactive)
REMARK    1  A    between atoms: C_1  and  C_2 
REMARK    2  A    between atoms: C_2  and  C_3 
REMARK    3  A    between atoms: C_2  and  O_4 
REMARK    4  A    between atoms: O_4  and  C_5 
REMARK    5  A    between atoms: C_8  and  C_13 
REMARK    6  A    between atoms: C_10  and  O_11 
REMARK    7  A    between atoms: O_11  and  C_12 
REMARK    8  A    between atoms: N_20  and  C_35 
REMARK    9  A    between atoms: C_23  and  C_34 
ROOT
ATOM      1  C   LIG d   1       7.106  -0.379  -6.160  0.00  0.00     0.028 C 
ATOM      2  H   LIG d   1       6.416   0.036  -6.896  0.00  0.00     0.041 H 
ATOM      3  C   LIG d   1       7.948  -1.481  -6.812  0.00  0.00     0.027 C 
ATOM      4  N   LIG d   1       7.111  -2.683  -6.981  0.00  0.00    -0.280 N 
ATOM      5  C   LIG d   1       6.827  -3.111  -8.214  0.00  0.00     0.234 C 
ATOM      6  O   LIG d   1       7.399  -2.584  -9.144  0.00  0.00    -0.274 OA
ATOM      7  C   LIG d   1       5.848  -4.197  -8.522  0.00  0.00     0.092 C 
ATOM      8  N   LIG d   1       5.203  -4.711  -7.325  0.00  0.00    -0.287 N 
ATOM      9  C   LIG d   1       5.534  -4.337  -6.089  0.00  0.00     0.246 C 
ATOM     10  O   LIG d   1       4.927  -4.830  -5.162  0.00  0.00    -0.273 OA
ATOM     11  C   LIG d   1       6.609  -3.348  -5.779  0.00  0.00     0.151 C 
ATOM     12  C   LIG d   1       6.094  -2.288  -4.836  0.00  0.00     0.054 A 
ATOM     13  C   LIG d   1       6.323  -0.966  -5.013  0.00  0.00    -0.008 A 
ATOM     14  C   LIG d   1       5.681  -0.276  -3.915  0.00  0.00     0.004 A 
ATOM     15  C   LIG d   1       5.581   1.077  -3.574  0.00  0.00    -0.052 A 
ATOM     16  C   LIG d   1       4.877   1.380  -2.436  0.00  0.00    -0.061 A 
ATOM     17  C   LIG d   1       4.287   0.402  -1.653  0.00  0.00    -0.060 A 
ATOM     18  C   LIG d   1       4.370  -0.944  -1.965  0.00  0.00    -0.038 A 
ATOM     19  C   LIG d   1       5.079  -1.281  -3.115  0.00  0.00     0.047 A 
ATOM     20  N   LIG d   1       5.351  -2.484  -3.704  0.00  0.00    -0.356 N 
ATOM     21  H   LIG d   1       5.061  -3.347  -3.369  0.00  0.00     0.166 HD
ATOM     22  H   LIG d   1       8.303  -1.142  -7.785  0.00  0.00     0.047 H 
ATOM     23  H   LIG d   1       8.799  -1.716  -6.172  0.00  0.00     0.047 H 
ATOM     24  H   LIG d   1       6.371  -5.015  -9.021  0.00  0.00     0.056 H 
ATOM     25  H   LIG d   1       5.085  -3.804  -9.195  0.00  0.00     0.056 H 
ATOM     26  H   LIG d   1       6.037   1.847  -4.179  0.00  0.00     0.062 H 
ATOM     27  H   LIG d   1       4.779   2.415  -2.141  0.00  0.00     0.062 H 
ATOM     28  H   LIG d   1       3.744   0.699  -0.767  0.00  0.00     0.062 H 
ATOM     29  H   LIG d   1       3.905  -1.697  -1.345  0.00  0.00     0.064 H 
ENDROOT
BRANCH   1  30
ATOM     30  C   LIG d   1       8.010   0.710  -5.646  0.00  0.00    -0.035 A 
ATOM     31  C   LIG d   1       8.590   0.594  -4.397  0.00  0.00    -0.054 A 
ATOM     32  C   LIG d   1       9.421   1.590  -3.921  0.00  0.00    -0.016 A 
ATOM     33  H   LIG d   1       8.392  -0.278  -3.790  0.00  0.00     0.062 H 
ATOM     34  C   LIG d   1       9.675   2.710  -4.697  0.00  0.00     0.162 A 
ATOM     35  H   LIG d   1       9.872   1.496  -2.944  0.00  0.00     0.066 H 
ATOM     36  C   LIG d   1       9.093   2.828  -5.955  0.00  0.00     0.162 A 
ATOM     37  C   LIG d   1       8.255   1.827  -6.423  0.00  0.00    -0.013 A 
ATOM     38  H   LIG d   1       7.797   1.919  -7.396  0.00  0.00     0.066 H 
BRANCH  34  39
ATOM     39  O   LIG d   1      10.493   3.691  -4.229  0.00  0.00    -0.486 OA
BRANCH  39  40
ATOM     40  C   LIG d   1      10.014   4.465  -3.128  0.00  0.00     0.095 C 
ATOM     41  H   LIG d   1       9.093   4.025  -2.747  0.00  0.00     0.073 H 
BRANCH  40  42
ATOM     42  C   LIG d   1      11.070   4.484  -2.021  0.00  0.00    -0.028 C 
ATOM     43  H   LIG d   1      11.770   5.300  -2.198  0.00  0.00     0.026 H 
ATOM     44  H   LIG d   1      10.582   4.626  -1.056  0.00  0.00     0.026 H 
ATOM     45  H   LIG d   1      11.609   3.537  -2.017  0.00  0.00     0.026 H 
ENDBRANCH  40  42
BRANCH  40  46
ATOM     46  C   LIG d   1       9.740   5.897  -3.593  0.00  0.00    -0.028 C 
ATOM     47  H   LIG d   1       9.004   5.884  -4.398  0.00  0.00     0.026 H 
ATOM     48  H   LIG d   1       9.354   6.483  -2.758  0.00  0.00     0.026 H 
ATOM     49  H   LIG d   1      10.665   6.346  -3.954  0.00  0.00     0.026 H 
ENDBRANCH  40  46
ENDBRANCH  39  40
ENDBRANCH  34  39
BRANCH  36  50
ATOM     50  O   LIG d   1       9.339   3.925  -6.719  0.00  0.00    -0.491 OA
BRANCH  50  51
ATOM     51  C   LIG d   1       9.331   3.742  -8.137  0.00  0.00     0.079 C 
ATOM     52  H   LIG d   1      10.256   4.135  -8.559  0.00  0.00     0.066 H 
ATOM     53  H   LIG d   1       8.481   4.272  -8.567  0.00  0.00     0.066 H 
ATOM     54  H   LIG d   1       9.251   2.679  -8.366  0.00  0.00     0.066 H 
ENDBRANCH  50  51
ENDBRANCH  36  50
ENDBRANCH   1  30
BRANCH  11  55
ATOM     55  C   LIG d   1       7.776  -4.078  -5.112  0.00  0.00    -0.029 C 
ATOM     56  H   LIG d   1       8.649  -3.425  -5.090  0.00  0.00     0.026 H 
ATOM     57  H   LIG d   1       7.500  -4.349  -4.092  0.00  0.00     0.026 H 
ATOM     58  H   LIG d   1       8.012  -4.980  -5.676  0.00  0.00     0.026 H 
ENDBRANCH  11  55
BRANCH   8  59
ATOM     59  C   LIG d   1       4.128  -5.693  -7.486  0.00  0.00     0.027 C 
ATOM     60  C   LIG d   1       3.297  -5.365  -8.738  0.00  0.00    -0.034 C 
ATOM     61  C   LIG d   1       3.418  -6.582  -9.679  0.00  0.00    -0.051 C 
ATOM     62  H   LIG d   1       2.255  -5.207  -8.463  0.00  0.00     0.028 H 
ATOM     63  H   LIG d   1       3.693  -4.474  -9.226  0.00  0.00     0.028 H 
ATOM     64  C   LIG d   1       3.771  -7.758  -8.735  0.00  0.00    -0.051 C 
ATOM     65  H   LIG d   1       2.470  -6.769 -10.183  0.00  0.00     0.027 H 
ATOM     66  H   LIG d   1       4.215  -6.425 -10.406  0.00  0.00     0.027 H 
ATOM     67  C   LIG d   1       4.725  -7.098  -7.709  0.00  0.00    -0.034 C 
ATOM     68  H   LIG d   1       2.877  -8.138  -8.241  0.00  0.00     0.027 H 
ATOM     69  H   LIG d   1       4.280  -8.553  -9.281  0.00  0.00     0.027 H 
ATOM     70  H   LIG d   1       5.733  -7.024  -8.118  0.00  0.00     0.028 H 
ATOM     71  H   LIG d   1       4.732  -7.662  -6.777  0.00  0.00     0.028 H 
ATOM     72  H   LIG d   1       3.489  -5.694  -6.603  0.00  0.00     0.050 H 
ENDBRANCH   8  59
TORSDOF 9
ENDMDL
