MODEL 1
REMARK VINA RESULT:      -7.6      0.000      0.000
REMARK  5 active torsions:
REMARK  status: ('A' for Active; 'I' for Inactive)
REMARK    1  A    between atoms: C_3  and  N_11 
REMARK    2  A    between atoms: C_4  and  N_8 
REMARK       I    between atoms: N_11  and  C_12 
REMARK    3  A    between atoms: C_12  and  C_14 
REMARK    4  A    between atoms: C_14  and  C_15 
REMARK    5  A    between atoms: C_14  and  C_19 
ROOT
ATOM      1  N   LIG d   1       3.776  -0.712  -5.498  0.00  0.00    -0.279 N 
ATOM      2  C   LIG d   1       3.343   0.111  -4.522  0.00  0.00     0.238 C 
ATOM      3  O   LIG d   1       2.904   1.205  -4.803  0.00  0.00    -0.275 OA
ATOM      4  H   LIG d   1       4.068  -1.611  -5.281  0.00  0.00     0.155 HD
ENDROOT
BRANCH   1   5
ATOM      5  C   LIG d   1       3.802  -0.269  -6.826  0.00  0.00     0.112 A 
ATOM      6  C   LIG d   1       2.618  -0.120  -7.533  0.00  0.00    -0.033 A 
ATOM      7  C   LIG d   1       2.647   0.317  -8.843  0.00  0.00    -0.041 A 
ATOM      8  H   LIG d   1       1.674  -0.347  -7.060  0.00  0.00     0.064 H 
ATOM      9  C   LIG d   1       3.856   0.608  -9.450  0.00  0.00     0.048 A 
ATOM     10  H   LIG d   1       1.726   0.430  -9.395  0.00  0.00     0.063 H 
ATOM     11  C   LIG d   1       5.039   0.460  -8.747  0.00  0.00     0.036 A 
ATOM     12 CL   LIG d   1       3.889   1.158 -11.096  0.00  0.00    -0.083 Cl
ATOM     13  C   LIG d   1       5.016   0.024  -7.437  0.00  0.00     0.295 A 
ATOM     14  H   LIG d   1       5.981   0.688  -9.223  0.00  0.00     0.070 H 
BRANCH  13  15
ATOM     15  N   LIG d   1       6.281  -0.134  -6.686  0.00  0.00     0.082 N 
ATOM     16  O   LIG d   1       7.050  -1.020  -6.977  0.00  0.00     0.042 OA
ATOM     17  O   LIG d   1       6.545   0.624  -5.782  0.00  0.00    -0.576 OA
ENDBRANCH  13  15
ENDBRANCH   1   5
BRANCH   2  18
ATOM     18  C   LIG d   1       3.408  -0.330  -3.082  0.00  0.00     0.224 C 
ATOM     19  H   LIG d   1       2.398  -0.480  -2.702  0.00  0.00     0.057 H 
BRANCH  18  20
ATOM     20  C   LIG d   1       4.191  -1.641  -2.985  0.00  0.00     0.409 C 
ATOM     21  F   LIG d   1       3.996  -2.208  -1.721  0.00  0.00    -0.170 F 
ATOM     22  F   LIG d   1       3.741  -2.527  -3.968  0.00  0.00    -0.170 F 
ATOM     23  F   LIG d   1       5.553  -1.384  -3.176  0.00  0.00    -0.170 F 
ENDBRANCH  18  20
BRANCH  18  24
ATOM     24  C   LIG d   1       4.111   0.746  -2.251  0.00  0.00     0.409 C 
ATOM     25  F   LIG d   1       3.203   1.765  -1.945  0.00  0.00    -0.170 F 
ATOM     26  F   LIG d   1       4.593   0.179  -1.066  0.00  0.00    -0.170 F 
ATOM     27  F   LIG d   1       5.179   1.277  -2.983  0.00  0.00    -0.170 F 
ENDBRANCH  18  24
ENDBRANCH   2  18
TORSDOF 5
ENDMDL
MODEL 2
REMARK VINA RESULT:      -7.5      1.459      1.718
REMARK  5 active torsions:
REMARK  status: ('A' for Active; 'I' for Inactive)
REMARK    1  A    between atoms: C_3  and  N_11 
REMARK    2  A    between atoms: C_4  and  N_8 
REMARK       I    between atoms: N_11  and  C_12 
REMARK    3  A    between atoms: C_12  and  C_14 
REMARK    4  A    between atoms: C_14  and  C_15 
REMARK    5  A    between atoms: C_14  and  C_19 
ROOT
ATOM      1  N   LIG d   1       4.046  -0.156  -5.132  0.00  0.00    -0.279 N 
ATOM      2  C   LIG d   1       3.072  -0.176  -4.201  0.00  0.00     0.238 C 
ATOM      3  O   LIG d   1       1.913  -0.291  -4.541  0.00  0.00    -0.275 OA
ATOM      4  H   LIG d   1       4.977  -0.128  -4.859  0.00  0.00     0.155 HD
ENDROOT
BRANCH   1   5
ATOM      5  C   LIG d   1       3.717  -0.176  -6.492  0.00  0.00     0.112 A 
ATOM      6  C   LIG d   1       3.058   0.903  -7.064  0.00  0.00    -0.033 A 
ATOM      7  C   LIG d   1       2.734   0.881  -8.407  0.00  0.00    -0.041 A 
ATOM      8  H   LIG d   1       2.799   1.760  -6.460  0.00  0.00     0.064 H 
ATOM      9  C   LIG d   1       3.066  -0.217  -9.182  0.00  0.00     0.048 A 
ATOM     10  H   LIG d   1       2.218   1.719  -8.852  0.00  0.00     0.063 H 
ATOM     11  C   LIG d   1       3.723  -1.294  -8.613  0.00  0.00     0.036 A 
ATOM     12 CL   LIG d   1       2.658  -0.242 -10.868  0.00  0.00    -0.083 Cl
ATOM     13  C   LIG d   1       4.049  -1.277  -7.272  0.00  0.00     0.295 A 
ATOM     14  H   LIG d   1       3.981  -2.149  -9.221  0.00  0.00     0.070 H 
BRANCH  13  15
ATOM     15  N   LIG d   1       4.751  -2.430  -6.665  0.00  0.00     0.082 N 
ATOM     16  O   LIG d   1       4.231  -3.521  -6.663  0.00  0.00     0.042 OA
ATOM     17  O   LIG d   1       5.845  -2.280  -6.172  0.00  0.00    -0.576 OA
ENDBRANCH  13  15
ENDBRANCH   1   5
BRANCH   2  18
ATOM     18  C   LIG d   1       3.422  -0.054  -2.741  0.00  0.00     0.224 C 
ATOM     19  H   LIG d   1       2.508   0.028  -2.153  0.00  0.00     0.057 H 
BRANCH  18  20
ATOM     20  C   LIG d   1       4.203  -1.292  -2.298  0.00  0.00     0.409 C 
ATOM     21  F   LIG d   1       3.370  -2.414  -2.353  0.00  0.00    -0.170 F 
ATOM     22  F   LIG d   1       5.297  -1.482  -3.148  0.00  0.00    -0.170 F 
ATOM     23  F   LIG d   1       4.657  -1.112  -0.987  0.00  0.00    -0.170 F 
ENDBRANCH  18  20
BRANCH  18  24
ATOM     24  C   LIG d   1       4.281   1.194  -2.525  0.00  0.00     0.409 C 
ATOM     25  F   LIG d   1       3.656   2.297  -3.116  0.00  0.00    -0.170 F 
ATOM     26  F   LIG d   1       4.434   1.423  -1.153  0.00  0.00    -0.170 F 
ATOM     27  F   LIG d   1       5.537   1.002  -3.110  0.00  0.00    -0.170 F 
ENDBRANCH  18  24
ENDBRANCH   2  18
TORSDOF 5
ENDMDL
MODEL 3
REMARK VINA RESULT:      -7.5      1.582      2.711
REMARK  5 active torsions:
REMARK  status: ('A' for Active; 'I' for Inactive)
REMARK    1  A    between atoms: C_3  and  N_11 
REMARK    2  A    between atoms: C_4  and  N_8 
REMARK       I    between atoms: N_11  and  C_12 
REMARK    3  A    between atoms: C_12  and  C_14 
REMARK    4  A    between atoms: C_14  and  C_15 
REMARK    5  A    between atoms: C_14  and  C_19 
ROOT
ATOM      1  N   LIG d   1       3.660  -0.582  -5.133  0.00  0.00    -0.279 N 
ATOM      2  C   LIG d   1       4.780  -0.145  -4.523  0.00  0.00     0.238 C 
ATOM      3  O   LIG d   1       5.678   0.336  -5.179  0.00  0.00    -0.275 OA
ATOM      4  H   LIG d   1       2.915  -0.908  -4.604  0.00  0.00     0.155 HD
ENDROOT
BRANCH   1   5
ATOM      5  C   LIG d   1       3.571  -0.563  -6.529  0.00  0.00     0.112 A 
ATOM      6  C   LIG d   1       2.951   0.498  -7.173  0.00  0.00    -0.033 A 
ATOM      7  C   LIG d   1       2.866   0.514  -8.551  0.00  0.00    -0.041 A 
ATOM      8  H   LIG d   1       2.535   1.311  -6.596  0.00  0.00     0.064 H 
ATOM      9  C   LIG d   1       3.398  -0.527  -9.292  0.00  0.00     0.048 A 
ATOM     10  H   LIG d   1       2.379   1.338  -9.053  0.00  0.00     0.063 H 
ATOM     11  C   LIG d   1       4.017  -1.587  -8.652  0.00  0.00     0.036 A 
ATOM     12 CL   LIG d   1       3.289  -0.504 -11.023  0.00  0.00    -0.083 Cl
ATOM     13  C   LIG d   1       4.106  -1.608  -7.274  0.00  0.00     0.295 A 
ATOM     14  H   LIG d   1       4.432  -2.398  -9.232  0.00  0.00     0.070 H 
BRANCH  13  15
ATOM     15  N   LIG d   1       4.768  -2.742  -6.591  0.00  0.00     0.082 N 
ATOM     16  O   LIG d   1       4.106  -3.548  -5.979  0.00  0.00     0.042 OA
ATOM     17  O   LIG d   1       5.969  -2.863  -6.647  0.00  0.00    -0.576 OA
ENDBRANCH  13  15
ENDBRANCH   1   5
BRANCH   2  18
ATOM     18  C   LIG d   1       4.914  -0.258  -3.026  0.00  0.00     0.224 C 
ATOM     19  H   LIG d   1       5.960  -0.133  -2.744  0.00  0.00     0.057 H 
BRANCH  18  20
ATOM     20  C   LIG d   1       4.073   0.830  -2.355  0.00  0.00     0.409 C 
ATOM     21  F   LIG d   1       2.747   0.396  -2.250  0.00  0.00    -0.170 F 
ATOM     22  F   LIG d   1       4.581   1.092  -1.079  0.00  0.00    -0.170 F 
ATOM     23  F   LIG d   1       4.122   1.997  -3.125  0.00  0.00    -0.170 F 
ENDBRANCH  18  20
BRANCH  18  24
ATOM     24  C   LIG d   1       4.424  -1.634  -2.572  0.00  0.00     0.409 C 
ATOM     25  F   LIG d   1       3.079  -1.789  -2.926  0.00  0.00    -0.170 F 
ATOM     26  F   LIG d   1       5.187  -2.629  -3.192  0.00  0.00    -0.170 F 
ATOM     27  F   LIG d   1       4.555  -1.741  -1.183  0.00  0.00    -0.170 F 
ENDBRANCH  18  24
ENDBRANCH   2  18
TORSDOF 5
ENDMDL
MODEL 4
REMARK VINA RESULT:      -7.2      0.933      2.232
REMARK  5 active torsions:
REMARK  status: ('A' for Active; 'I' for Inactive)
REMARK    1  A    between atoms: C_3  and  N_11 
REMARK    2  A    between atoms: C_4  and  N_8 
REMARK       I    between atoms: N_11  and  C_12 
REMARK    3  A    between atoms: C_12  and  C_14 
REMARK    4  A    between atoms: C_14  and  C_15 
REMARK    5  A    between atoms: C_14  and  C_19 
ROOT
ATOM      1  N   LIG d   1       4.911  -0.770  -5.614  0.00  0.00    -0.279 N 
ATOM      2  C   LIG d   1       4.320  -0.104  -4.602  0.00  0.00     0.238 C 
ATOM      3  O   LIG d   1       3.500   0.756  -4.842  0.00  0.00    -0.275 OA
ATOM      4  H   LIG d   1       5.520  -1.501  -5.423  0.00  0.00     0.155 HD
ENDROOT
BRANCH   1   5
ATOM      5  C   LIG d   1       4.647  -0.408  -6.940  0.00  0.00     0.112 A 
ATOM      6  C   LIG d   1       3.406  -0.676  -7.500  0.00  0.00    -0.033 A 
ATOM      7  C   LIG d   1       3.148  -0.317  -8.808  0.00  0.00    -0.041 A 
ATOM      8  H   LIG d   1       2.642  -1.166  -6.913  0.00  0.00     0.064 H 
ATOM      9  C   LIG d   1       4.125   0.310  -9.561  0.00  0.00     0.048 A 
ATOM     10  H   LIG d   1       2.183  -0.529  -9.246  0.00  0.00     0.063 H 
ATOM     11  C   LIG d   1       5.363   0.578  -9.005  0.00  0.00     0.036 A 
ATOM     12 CL   LIG d   1       3.797   0.759 -11.205  0.00  0.00    -0.083 Cl
ATOM     13  C   LIG d   1       5.627   0.222  -7.697  0.00  0.00     0.295 A 
ATOM     14  H   LIG d   1       6.124   1.068  -9.594  0.00  0.00     0.070 H 
BRANCH  13  15
ATOM     15  N   LIG d   1       6.952   0.510  -7.103  0.00  0.00     0.082 N 
ATOM     16  O   LIG d   1       7.654  -0.399  -6.724  0.00  0.00     0.042 OA
ATOM     17  O   LIG d   1       7.332   1.652  -6.998  0.00  0.00    -0.576 OA
ENDBRANCH  13  15
ENDBRANCH   1   5
BRANCH   2  18
ATOM     18  C   LIG d   1       4.680  -0.427  -3.175  0.00  0.00     0.224 C 
ATOM     19  H   LIG d   1       5.738  -0.678  -3.115  0.00  0.00     0.057 H 
BRANCH  18  20
ATOM     20  C   LIG d   1       4.391   0.786  -2.289  0.00  0.00     0.409 C 
ATOM     21  F   LIG d   1       3.012   1.018  -2.250  0.00  0.00    -0.170 F 
ATOM     22  F   LIG d   1       4.859   0.541  -0.994  0.00  0.00    -0.170 F 
ATOM     23  F   LIG d   1       5.039   1.910  -2.814  0.00  0.00    -0.170 F 
ENDBRANCH  18  20
BRANCH  18  24
ATOM     24  C   LIG d   1       3.846  -1.617  -2.696  0.00  0.00     0.409 C 
ATOM     25  F   LIG d   1       4.140  -2.738  -3.480  0.00  0.00    -0.170 F 
ATOM     26  F   LIG d   1       4.149  -1.891  -1.358  0.00  0.00    -0.170 F 
ATOM     27  F   LIG d   1       2.485  -1.311  -2.813  0.00  0.00    -0.170 F 
ENDBRANCH  18  24
ENDBRANCH   2  18
TORSDOF 5
ENDMDL
MODEL 5
REMARK VINA RESULT:      -6.7      2.094      3.170
REMARK  5 active torsions:
REMARK  status: ('A' for Active; 'I' for Inactive)
REMARK    1  A    between atoms: C_3  and  N_11 
REMARK    2  A    between atoms: C_4  and  N_8 
REMARK       I    between atoms: N_11  and  C_12 
REMARK    3  A    between atoms: C_12  and  C_14 
REMARK    4  A    between atoms: C_14  and  C_15 
REMARK    5  A    between atoms: C_14  and  C_19 
ROOT
ATOM      1  N   LIG d   1       5.371  -0.124  -5.805  0.00  0.00    -0.279 N 
ATOM      2  C   LIG d   1       4.731  -0.878  -4.888  0.00  0.00     0.238 C 
ATOM      3  O   LIG d   1       4.358  -1.994  -5.177  0.00  0.00    -0.275 OA
ATOM      4  H   LIG d   1       5.726   0.744  -5.557  0.00  0.00     0.155 HD
ENDROOT
BRANCH   1   5
ATOM      5  C   LIG d   1       5.525  -0.595  -7.114  0.00  0.00     0.112 A 
ATOM      6  C   LIG d   1       6.659  -1.313  -7.466  0.00  0.00    -0.033 A 
ATOM      7  C   LIG d   1       6.809  -1.776  -8.758  0.00  0.00    -0.041 A 
ATOM      8  H   LIG d   1       7.425  -1.508  -6.730  0.00  0.00     0.064 H 
ATOM      9  C   LIG d   1       5.828  -1.527  -9.702  0.00  0.00     0.048 A 
ATOM     10  H   LIG d   1       7.693  -2.331  -9.034  0.00  0.00     0.063 H 
ATOM     11  C   LIG d   1       4.695  -0.811  -9.353  0.00  0.00     0.036 A 
ATOM     12 CL   LIG d   1       6.018  -2.111 -11.325  0.00  0.00    -0.083 Cl
ATOM     13  C   LIG d   1       4.541  -0.346  -8.063  0.00  0.00     0.295 A 
ATOM     14  H   LIG d   1       3.931  -0.618 -10.092  0.00  0.00     0.070 H 
BRANCH  13  15
ATOM     15  N   LIG d   1       3.330   0.419  -7.691  0.00  0.00     0.082 N 
ATOM     16  O   LIG d   1       3.386   1.621  -7.576  0.00  0.00     0.042 OA
ATOM     17  O   LIG d   1       2.284  -0.158  -7.503  0.00  0.00    -0.576 OA
ENDBRANCH  13  15
ENDBRANCH   1   5
BRANCH   2  18
ATOM     18  C   LIG d   1       4.477  -0.330  -3.507  0.00  0.00     0.224 C 
ATOM     19  H   LIG d   1       5.168   0.488  -3.308  0.00  0.00     0.057 H 
BRANCH  18  20
ATOM     20  C   LIG d   1       3.039   0.183  -3.418  0.00  0.00     0.409 C 
ATOM     21  F   LIG d   1       2.748   0.956  -4.547  0.00  0.00    -0.170 F 
ATOM     22  F   LIG d   1       2.159  -0.903  -3.357  0.00  0.00    -0.170 F 
ATOM     23  F   LIG d   1       2.894   0.965  -2.267  0.00  0.00    -0.170 F 
ENDBRANCH  18  20
BRANCH  18  24
ATOM     24  C   LIG d   1       4.687  -1.438  -2.474  0.00  0.00     0.409 C 
ATOM     25  F   LIG d   1       4.505  -0.918  -1.188  0.00  0.00    -0.170 F 
ATOM     26  F   LIG d   1       3.764  -2.466  -2.696  0.00  0.00    -0.170 F 
ATOM     27  F   LIG d   1       5.986  -1.946  -2.591  0.00  0.00    -0.170 F 
ENDBRANCH  18  24
ENDBRANCH   2  18
TORSDOF 5
ENDMDL
MODEL 6
REMARK VINA RESULT:      -6.7      4.423      6.207
REMARK  5 active torsions:
REMARK  status: ('A' for Active; 'I' for Inactive)
REMARK    1  A    between atoms: C_3  and  N_11 
REMARK    2  A    between atoms: C_4  and  N_8 
REMARK       I    between atoms: N_11  and  C_12 
REMARK    3  A    between atoms: C_12  and  C_14 
REMARK    4  A    between atoms: C_14  and  C_15 
REMARK    5  A    between atoms: C_14  and  C_19 
ROOT
ATOM      1  N   LIG d   1       3.783   0.625  -7.157  0.00  0.00    -0.279 N 
ATOM      2  C   LIG d   1       2.970   0.270  -8.173  0.00  0.00     0.238 C 
ATOM      3  O   LIG d   1       2.160  -0.618  -8.018  0.00  0.00    -0.275 OA
ATOM      4  H   LIG d   1       4.387   1.377  -7.259  0.00  0.00     0.155 HD
ENDROOT
BRANCH   1   5
ATOM      5  C   LIG d   1       3.753  -0.091  -5.955  0.00  0.00     0.112 A 
ATOM      6  C   LIG d   1       2.854   0.259  -4.958  0.00  0.00    -0.033 A 
ATOM      7  C   LIG d   1       2.826  -0.448  -3.773  0.00  0.00    -0.041 A 
ATOM      8  H   LIG d   1       2.175   1.087  -5.109  0.00  0.00     0.064 H 
ATOM      9  C   LIG d   1       3.695  -1.508  -3.578  0.00  0.00     0.048 A 
ATOM     10  H   LIG d   1       2.129  -0.173  -2.995  0.00  0.00     0.063 H 
ATOM     11  C   LIG d   1       4.594  -1.859  -4.570  0.00  0.00     0.036 A 
ATOM     12 CL   LIG d   1       3.659  -2.396  -2.087  0.00  0.00    -0.083 Cl
ATOM     13  C   LIG d   1       4.625  -1.155  -5.757  0.00  0.00     0.295 A 
ATOM     14  H   LIG d   1       5.271  -2.687  -4.416  0.00  0.00     0.070 H 
BRANCH  13  15
ATOM     15  N   LIG d   1       5.586  -1.532  -6.818  0.00  0.00     0.082 N 
ATOM     16  O   LIG d   1       6.672  -1.002  -6.865  0.00  0.00     0.042 OA
ATOM     17  O   LIG d   1       5.286  -2.370  -7.635  0.00  0.00    -0.576 OA
ENDBRANCH  13  15
ENDBRANCH   1   5
BRANCH   2  18
ATOM     18  C   LIG d   1       3.072   0.976  -9.500  0.00  0.00     0.224 C 
ATOM     19  H   LIG d   1       2.093   0.994  -9.978  0.00  0.00     0.057 H 
BRANCH  18  20
ATOM     20  C   LIG d   1       3.559   2.409  -9.280  0.00  0.00     0.409 C 
ATOM     21  F   LIG d   1       4.942   2.406  -9.075  0.00  0.00    -0.170 F 
ATOM     22  F   LIG d   1       3.255   3.184 -10.404  0.00  0.00    -0.170 F 
ATOM     23  F   LIG d   1       2.923   2.949  -8.156  0.00  0.00    -0.170 F 
ENDBRANCH  18  20
BRANCH  18  24
ATOM     24  C   LIG d   1       4.064   0.234 -10.398  0.00  0.00     0.409 C 
ATOM     25  F   LIG d   1       4.331   1.004 -11.535  0.00  0.00    -0.170 F 
ATOM     26  F   LIG d   1       5.254   0.012  -9.695  0.00  0.00    -0.170 F 
ATOM     27  F   LIG d   1       3.515  -0.994 -10.785  0.00  0.00    -0.170 F 
ENDBRANCH  18  24
ENDBRANCH   2  18
TORSDOF 5
ENDMDL
MODEL 7
REMARK VINA RESULT:      -6.6      1.613      2.245
REMARK  5 active torsions:
REMARK  status: ('A' for Active; 'I' for Inactive)
REMARK    1  A    between atoms: C_3  and  N_11 
REMARK    2  A    between atoms: C_4  and  N_8 
REMARK       I    between atoms: N_11  and  C_12 
REMARK    3  A    between atoms: C_12  and  C_14 
REMARK    4  A    between atoms: C_14  and  C_15 
REMARK    5  A    between atoms: C_14  and  C_19 
ROOT
ATOM      1  N   LIG d   1       4.158   0.288  -6.055  0.00  0.00    -0.279 N 
ATOM      2  C   LIG d   1       4.412  -0.752  -5.236  0.00  0.00     0.238 C 
ATOM      3  O   LIG d   1       4.415  -1.882  -5.676  0.00  0.00    -0.275 OA
ATOM      4  H   LIG d   1       4.217   1.196  -5.719  0.00  0.00     0.155 HD
ENDROOT
BRANCH   1   5
ATOM      5  C   LIG d   1       3.811   0.058  -7.391  0.00  0.00     0.112 A 
ATOM      6  C   LIG d   1       2.485  -0.160  -7.738  0.00  0.00    -0.033 A 
ATOM      7  C   LIG d   1       2.145  -0.386  -9.057  0.00  0.00    -0.041 A 
ATOM      8  H   LIG d   1       1.719  -0.154  -6.976  0.00  0.00     0.064 H 
ATOM      9  C   LIG d   1       3.125  -0.393 -10.035  0.00  0.00     0.048 A 
ATOM     10  H   LIG d   1       1.114  -0.560  -9.327  0.00  0.00     0.063 H 
ATOM     11  C   LIG d   1       4.448  -0.176  -9.691  0.00  0.00     0.036 A 
ATOM     12 CL   LIG d   1       2.695  -0.677 -11.692  0.00  0.00    -0.083 Cl
ATOM     13  C   LIG d   1       4.794   0.051  -8.374  0.00  0.00     0.295 A 
ATOM     14  H   LIG d   1       5.211  -0.182 -10.456  0.00  0.00     0.070 H 
BRANCH  13  15
ATOM     15  N   LIG d   1       6.209   0.283  -8.008  0.00  0.00     0.082 N 
ATOM     16  O   LIG d   1       6.551   1.356  -7.568  0.00  0.00     0.042 OA
ATOM     17  O   LIG d   1       7.022  -0.600  -8.148  0.00  0.00    -0.576 OA
ENDBRANCH  13  15
ENDBRANCH   1   5
BRANCH   2  18
ATOM     18  C   LIG d   1       4.688  -0.511  -3.775  0.00  0.00     0.224 C 
ATOM     19  H   LIG d   1       4.407   0.510  -3.515  0.00  0.00     0.057 H 
BRANCH  18  20
ATOM     20  C   LIG d   1       3.873  -1.494  -2.932  0.00  0.00     0.409 C 
ATOM     21  F   LIG d   1       2.510  -1.296  -3.171  0.00  0.00    -0.170 F 
ATOM     22  F   LIG d   1       4.222  -2.804  -3.277  0.00  0.00    -0.170 F 
ATOM     23  F   LIG d   1       4.145  -1.281  -1.576  0.00  0.00    -0.170 F 
ENDBRANCH  18  20
BRANCH  18  24
ATOM     24  C   LIG d   1       6.178  -0.716  -3.497  0.00  0.00     0.409 C 
ATOM     25  F   LIG d   1       6.374  -1.968  -2.906  0.00  0.00    -0.170 F 
ATOM     26  F   LIG d   1       6.890  -0.651  -4.700  0.00  0.00    -0.170 F 
ATOM     27  F   LIG d   1       6.634   0.285  -2.631  0.00  0.00    -0.170 F 
ENDBRANCH  18  24
ENDBRANCH   2  18
TORSDOF 5
ENDMDL
MODEL 8
REMARK VINA RESULT:      -6.6      3.522      4.256
REMARK  5 active torsions:
REMARK  status: ('A' for Active; 'I' for Inactive)
REMARK    1  A    between atoms: C_3  and  N_11 
REMARK    2  A    between atoms: C_4  and  N_8 
REMARK       I    between atoms: N_11  and  C_12 
REMARK    3  A    between atoms: C_12  and  C_14 
REMARK    4  A    between atoms: C_14  and  C_15 
REMARK    5  A    between atoms: C_14  and  C_19 
ROOT
ATOM      1  N   LIG d   1       6.388  -0.268  -3.631  0.00  0.00    -0.279 N 
ATOM      2  C   LIG d   1       5.247  -0.364  -4.342  0.00  0.00     0.238 C 
ATOM      3  O   LIG d   1       5.179   0.132  -5.447  0.00  0.00    -0.275 OA
ATOM      4  H   LIG d   1       6.465  -0.718  -2.774  0.00  0.00     0.155 HD
ENDROOT
BRANCH   1   5
ATOM      5  C   LIG d   1       7.462   0.479  -4.127  0.00  0.00     0.112 A 
ATOM      6  C   LIG d   1       7.563   1.832  -3.833  0.00  0.00    -0.033 A 
ATOM      7  C   LIG d   1       8.624   2.567  -4.324  0.00  0.00    -0.041 A 
ATOM      8  H   LIG d   1       6.811   2.310  -3.222  0.00  0.00     0.064 H 
ATOM      9  C   LIG d   1       9.588   1.956  -5.107  0.00  0.00     0.048 A 
ATOM     10  H   LIG d   1       8.701   3.621  -4.099  0.00  0.00     0.063 H 
ATOM     11  C   LIG d   1       9.489   0.607  -5.402  0.00  0.00     0.036 A 
ATOM     12 CL   LIG d   1      10.920   2.882  -5.723  0.00  0.00    -0.083 Cl
ATOM     13  C   LIG d   1       8.430  -0.133  -4.914  0.00  0.00     0.295 A 
ATOM     14  H   LIG d   1      10.242   0.133  -6.013  0.00  0.00     0.070 H 
BRANCH  13  15
ATOM     15  N   LIG d   1       8.326  -1.575  -5.229  0.00  0.00     0.082 N 
ATOM     16  O   LIG d   1       8.764  -2.395  -4.456  0.00  0.00     0.042 OA
ATOM     17  O   LIG d   1       7.802  -1.932  -6.258  0.00  0.00    -0.576 OA
ENDBRANCH  13  15
ENDBRANCH   1   5
BRANCH   2  18
ATOM     18  C   LIG d   1       4.057  -1.085  -3.764  0.00  0.00     0.224 C 
ATOM     19  H   LIG d   1       3.729  -1.859  -4.457  0.00  0.00     0.057 H 
BRANCH  18  20
ATOM     20  C   LIG d   1       4.446  -1.725  -2.431  0.00  0.00     0.409 C 
ATOM     21  F   LIG d   1       3.532  -2.734  -2.112  0.00  0.00    -0.170 F 
ATOM     22  F   LIG d   1       5.729  -2.272  -2.532  0.00  0.00    -0.170 F 
ATOM     23  F   LIG d   1       4.434  -0.750  -1.426  0.00  0.00    -0.170 F 
ENDBRANCH  18  20
BRANCH  18  24
ATOM     24  C   LIG d   1       2.918  -0.088  -3.538  0.00  0.00     0.409 C 
ATOM     25  F   LIG d   1       2.259   0.150  -4.748  0.00  0.00    -0.170 F 
ATOM     26  F   LIG d   1       2.014  -0.616  -2.610  0.00  0.00    -0.170 F 
ATOM     27  F   LIG d   1       3.441   1.114  -3.048  0.00  0.00    -0.170 F 
ENDBRANCH  18  24
ENDBRANCH   2  18
TORSDOF 5
ENDMDL
MODEL 9
REMARK VINA RESULT:      -6.6      3.657      4.772
REMARK  5 active torsions:
REMARK  status: ('A' for Active; 'I' for Inactive)
REMARK    1  A    between atoms: C_3  and  N_11 
REMARK    2  A    between atoms: C_4  and  N_8 
REMARK       I    between atoms: N_11  and  C_12 
REMARK    3  A    between atoms: C_12  and  C_14 
REMARK    4  A    between atoms: C_14  and  C_15 
REMARK    5  A    between atoms: C_14  and  C_19 
ROOT
ATOM      1  N   LIG d   1       7.747   0.156  -3.870  0.00  0.00    -0.279 N 
ATOM      2  C   LIG d   1       6.452   0.156  -3.497  0.00  0.00     0.238 C 
ATOM      3  O   LIG d   1       5.764   1.135  -3.696  0.00  0.00    -0.275 OA
ATOM      4  H   LIG d   1       8.281  -0.647  -3.768  0.00  0.00     0.155 HD
ENDROOT
BRANCH   1   5
ATOM      5  C   LIG d   1       8.321   1.315  -4.404  0.00  0.00     0.112 A 
ATOM      6  C   LIG d   1       8.968   2.219  -3.573  0.00  0.00    -0.033 A 
ATOM      7  C   LIG d   1       9.534   3.361  -4.103  0.00  0.00    -0.041 A 
ATOM      8  H   LIG d   1       9.028   2.029  -2.511  0.00  0.00     0.064 H 
ATOM      9  C   LIG d   1       9.458   3.606  -5.464  0.00  0.00     0.048 A 
ATOM     10  H   LIG d   1      10.034   4.067  -3.456  0.00  0.00     0.063 H 
ATOM     11  C   LIG d   1       8.813   2.706  -6.295  0.00  0.00     0.036 A 
ATOM     12 CL   LIG d   1      10.170   5.043  -6.127  0.00  0.00    -0.083 Cl
ATOM     13  C   LIG d   1       8.246   1.563  -5.770  0.00  0.00     0.295 A 
ATOM     14  H   LIG d   1       8.756   2.900  -7.356  0.00  0.00     0.070 H 
BRANCH  13  15
ATOM     15  N   LIG d   1       7.557   0.602  -6.660  0.00  0.00     0.082 N 
ATOM     16  O   LIG d   1       8.031  -0.495  -6.848  0.00  0.00     0.042 OA
ATOM     17  O   LIG d   1       6.520   0.912  -7.197  0.00  0.00    -0.576 OA
ENDBRANCH  13  15
ENDBRANCH   1   5
BRANCH   2  18
ATOM     18  C   LIG d   1       5.860  -1.059  -2.830  0.00  0.00     0.224 C 
ATOM     19  H   LIG d   1       6.563  -1.449  -2.095  0.00  0.00     0.057 H 
BRANCH  18  20
ATOM     20  C   LIG d   1       4.555  -0.672  -2.132  0.00  0.00     0.409 C 
ATOM     21  F   LIG d   1       4.131  -1.727  -1.317  0.00  0.00    -0.170 F 
ATOM     22  F   LIG d   1       4.764   0.468  -1.349  0.00  0.00    -0.170 F 
ATOM     23  F   LIG d   1       3.574  -0.404  -3.094  0.00  0.00    -0.170 F 
ENDBRANCH  18  20
BRANCH  18  24
ATOM     24  C   LIG d   1       5.576  -2.131  -3.884  0.00  0.00     0.409 C 
ATOM     25  F   LIG d   1       4.500  -2.922  -3.466  0.00  0.00    -0.170 F 
ATOM     26  F   LIG d   1       5.257  -1.516  -5.100  0.00  0.00    -0.170 F 
ATOM     27  F   LIG d   1       6.709  -2.935  -4.049  0.00  0.00    -0.170 F 
ENDBRANCH  18  24
ENDBRANCH   2  18
TORSDOF 5
ENDMDL
