MODEL 1
REMARK VINA RESULT:      -6.0      0.000      0.000
REMARK  12 active torsions:
REMARK  status: ('A' for Active; 'I' for Inactive)
REMARK    1  A    between atoms: C_1  and  C_2 
REMARK    2  A    between atoms: C_2  and  O_3 
REMARK    3  A    between atoms: O_3  and  C_4 
REMARK    4  A    between atoms: C_6  and  C_12 
REMARK    5  A    between atoms: C_9  and  O_10 
REMARK    6  A    between atoms: O_10  and  C_11 
REMARK    7  A    between atoms: C_12  and  C_14 
REMARK    8  A    between atoms: C_12  and  N_19 
REMARK    9  A    between atoms: C_14  and  S_15 
REMARK   10  A    between atoms: S_15  and  C_18 
REMARK   11  A    between atoms: C_26  and  N_30 
REMARK       I    between atoms: N_30  and  C_31 
REMARK   12  A    between atoms: C_31  and  C_33 
ROOT
ATOM      1  C   LIG d   1       9.420   0.799  -5.445  0.00  0.00     0.079 C 
ATOM      2  H   LIG d   1       9.796  -0.153  -5.846  0.00  0.00     0.057 H 
ENDROOT
BRANCH   1   3
ATOM      3  C   LIG d   1       9.072   1.729  -6.579  0.00  0.00    -0.021 A 
ATOM      4  C   LIG d   1       8.110   1.361  -7.502  0.00  0.00    -0.011 A 
ATOM      5  C   LIG d   1       7.784   2.217  -8.541  0.00  0.00     0.162 A 
ATOM      6  H   LIG d   1       7.610   0.409  -7.409  0.00  0.00     0.066 H 
ATOM      7  C   LIG d   1       8.434   3.441  -8.660  0.00  0.00     0.162 A 
ATOM      8  C   LIG d   1       9.401   3.802  -7.735  0.00  0.00    -0.016 A 
ATOM      9  C   LIG d   1       9.717   2.945  -6.697  0.00  0.00    -0.053 A 
ATOM     10  H   LIG d   1       9.907   4.752  -7.825  0.00  0.00     0.066 H 
ATOM     11  H   LIG d   1      10.471   3.228  -5.976  0.00  0.00     0.062 H 
BRANCH   5  12
ATOM     12  O   LIG d   1       6.834   1.859  -9.447  0.00  0.00    -0.489 OA
BRANCH  12  13
ATOM     13  C   LIG d   1       5.556   1.481  -8.930  0.00  0.00     0.087 C 
ATOM     14  H   LIG d   1       5.623   1.360  -7.839  0.00  0.00     0.069 H 
ATOM     15  H   LIG d   1       5.242   0.531  -9.387  0.00  0.00     0.069 H 
BRANCH  13  16
ATOM     16  C   LIG d   1       4.531   2.569  -9.260  0.00  0.00    -0.031 C 
ATOM     17  H   LIG d   1       5.051   3.458  -9.646  0.00  0.00     0.026 H 
ATOM     18  H   LIG d   1       3.975   2.837  -8.349  0.00  0.00     0.026 H 
ATOM     19  H   LIG d   1       3.830   2.194 -10.019  0.00  0.00     0.026 H 
ENDBRANCH  13  16
ENDBRANCH  12  13
ENDBRANCH   5  12
BRANCH   7  20
ATOM     20  O   LIG d   1       8.122   4.282  -9.683  0.00  0.00    -0.491 OA
BRANCH  20  21
ATOM     21  C   LIG d   1       8.751   5.566  -9.683  0.00  0.00     0.079 C 
ATOM     22  H   LIG d   1       9.561   5.577  -8.939  0.00  0.00     0.066 H 
ATOM     23  H   LIG d   1       8.010   6.338  -9.431  0.00  0.00     0.066 H 
ATOM     24  H   LIG d   1       9.168   5.769 -10.681  0.00  0.00     0.066 H 
ENDBRANCH  20  21
ENDBRANCH   7  20
ENDBRANCH   1   3
BRANCH   1  25
ATOM     25  C   LIG d   1      10.459   1.464  -4.540  0.00  0.00     0.088 C 
ATOM     26  H   LIG d   1      10.564   2.523  -4.819  0.00  0.00     0.052 H 
ATOM     27  H   LIG d   1      10.131   1.393  -3.492  0.00  0.00     0.052 H 
BRANCH  25  28
ATOM     28  S   LIG d   1      12.056   0.626  -4.734  0.00  0.00    -0.032 S 
ATOM     29  O   LIG d   1      12.645   1.061  -5.952  0.00  0.00    -0.174 OA
ATOM     30  O   LIG d   1      12.786   0.767  -3.523  0.00  0.00    -0.174 OA
BRANCH  28  31
ATOM     31  C   LIG d   1      11.577  -1.113  -4.917  0.00  0.00     0.054 C 
ATOM     32  H   LIG d   1      12.425  -1.758  -4.647  0.00  0.00     0.046 H 
ATOM     33  H   LIG d   1      11.287  -1.306  -5.960  0.00  0.00     0.046 H 
ATOM     34  H   LIG d   1      10.725  -1.331  -4.255  0.00  0.00     0.046 H 
ENDBRANCH  28  31
ENDBRANCH  25  28
ENDBRANCH   1  25
BRANCH   1  35
ATOM     35  N   LIG d   1       8.213   0.504  -4.668  0.00  0.00    -0.225 N 
ATOM     36  C   LIG d   1       7.616  -0.700  -4.617  0.00  0.00     0.256 A 
ATOM     37  C   LIG d   1       6.441  -0.606  -3.733  0.00  0.00     0.071 A 
ATOM     38  O   LIG d   1       7.984  -1.698  -5.202  0.00  0.00    -0.269 OA
ATOM     39  C   LIG d   1       6.403   0.729  -3.279  0.00  0.00     0.051 A 
ATOM     40  C   LIG d   1       5.466  -1.507  -3.309  0.00  0.00     0.046 A 
ATOM     41  C   LIG d   1       7.560   1.402  -3.907  0.00  0.00     0.255 A 
ATOM     42  C   LIG d   1       5.398   1.137  -2.418  0.00  0.00    -0.049 A 
ATOM     43  O   LIG d   1       7.869   2.567  -3.760  0.00  0.00    -0.270 OA
ATOM     44  C   LIG d   1       4.432   0.231  -2.003  0.00  0.00    -0.059 A 
ATOM     45  H   LIG d   1       5.367   2.159  -2.069  0.00  0.00     0.062 H 
ATOM     46  C   LIG d   1       4.462  -1.077  -2.441  0.00  0.00    -0.040 A 
ATOM     47  H   LIG d   1       3.650   0.553  -1.332  0.00  0.00     0.062 H 
ATOM     48  H   LIG d   1       3.704  -1.771  -2.110  0.00  0.00     0.064 H 
BRANCH  40  49
ATOM     49  N   LIG d   1       5.492  -2.826  -3.750  0.00  0.00    -0.285 N 
ATOM     50  C   LIG d   1       4.877  -3.166  -4.899  0.00  0.00     0.214 C 
ATOM     51  O   LIG d   1       4.388  -2.306  -5.601  0.00  0.00    -0.276 OA
ATOM     52  H   LIG d   1       6.016  -3.593  -3.160  0.00  0.00     0.155 HD
BRANCH  50  53
ATOM     53  C   LIG d   1       4.797  -4.613  -5.313  0.00  0.00     0.013 C 
ATOM     54  H   LIG d   1       3.772  -4.845  -5.635  0.00  0.00     0.032 H 
ATOM     55  H   LIG d   1       5.068  -5.253  -4.461  0.00  0.00     0.032 H 
ATOM     56  H   LIG d   1       5.494  -4.796  -6.144  0.00  0.00     0.032 H 
ENDBRANCH  50  53
ENDBRANCH  40  49
ENDBRANCH   1  35
TORSDOF 12
ENDMDL
MODEL 2
REMARK VINA RESULT:      -5.9      3.524      7.969
REMARK  12 active torsions:
REMARK  status: ('A' for Active; 'I' for Inactive)
REMARK    1  A    between atoms: C_1  and  C_2 
REMARK    2  A    between atoms: C_2  and  O_3 
REMARK    3  A    between atoms: O_3  and  C_4 
REMARK    4  A    between atoms: C_6  and  C_12 
REMARK    5  A    between atoms: C_9  and  O_10 
REMARK    6  A    between atoms: O_10  and  C_11 
REMARK    7  A    between atoms: C_12  and  C_14 
REMARK    8  A    between atoms: C_12  and  N_19 
REMARK    9  A    between atoms: C_14  and  S_15 
REMARK   10  A    between atoms: S_15  and  C_18 
REMARK   11  A    between atoms: C_26  and  N_30 
REMARK       I    between atoms: N_30  and  C_31 
REMARK   12  A    between atoms: C_31  and  C_33 
ROOT
ATOM      1  C   LIG d   1       5.737  -3.496  -6.376  0.00  0.00     0.079 C 
ATOM      2  H   LIG d   1       6.313  -2.985  -7.161  0.00  0.00     0.057 H 
ENDROOT
BRANCH   1   3
ATOM      3  C   LIG d   1       6.520  -4.671  -5.849  0.00  0.00    -0.021 A 
ATOM      4  C   LIG d   1       7.743  -4.464  -5.238  0.00  0.00    -0.011 A 
ATOM      5  C   LIG d   1       8.463  -5.542  -4.747  0.00  0.00     0.162 A 
ATOM      6  H   LIG d   1       8.135  -3.463  -5.139  0.00  0.00     0.066 H 
ATOM      7  C   LIG d   1       7.957  -6.831  -4.881  0.00  0.00     0.162 A 
ATOM      8  C   LIG d   1       6.733  -7.031  -5.500  0.00  0.00    -0.016 A 
ATOM      9  C   LIG d   1       6.018  -5.951  -5.981  0.00  0.00    -0.053 A 
ATOM     10  H   LIG d   1       6.338  -8.031  -5.605  0.00  0.00     0.066 H 
ATOM     11  H   LIG d   1       5.063  -6.108  -6.463  0.00  0.00     0.062 H 
BRANCH   5  12
ATOM     12  O   LIG d   1       9.663  -5.341  -4.141  0.00  0.00    -0.489 OA
BRANCH  12  13
ATOM     13  C   LIG d   1       9.646  -4.682  -2.872  0.00  0.00     0.087 C 
ATOM     14  H   LIG d   1       8.717  -4.102  -2.773  0.00  0.00     0.069 H 
ATOM     15  H   LIG d   1      10.511  -4.007  -2.797  0.00  0.00     0.069 H 
BRANCH  13  16
ATOM     16  C   LIG d   1       9.716  -5.726  -1.755  0.00  0.00    -0.031 C 
ATOM     17  H   LIG d   1       8.699  -5.966  -1.413  0.00  0.00     0.026 H 
ATOM     18  H   LIG d   1      10.300  -5.324  -0.913  0.00  0.00     0.026 H 
ATOM     19  H   LIG d   1      10.201  -6.637  -2.135  0.00  0.00     0.026 H 
ENDBRANCH  13  16
ENDBRANCH  12  13
ENDBRANCH   5  12
BRANCH   7  20
ATOM     20  O   LIG d   1       8.663  -7.893  -4.407  0.00  0.00    -0.491 OA
BRANCH  20  21
ATOM     21  C   LIG d   1       7.960  -8.821  -3.577  0.00  0.00     0.079 C 
ATOM     22  H   LIG d   1       8.546  -9.745  -3.483  0.00  0.00     0.066 H 
ATOM     23  H   LIG d   1       6.983  -9.049  -4.029  0.00  0.00     0.066 H 
ATOM     24  H   LIG d   1       7.808  -8.379  -2.581  0.00  0.00     0.066 H 
ENDBRANCH  20  21
ENDBRANCH   7  20
ENDBRANCH   1   3
BRANCH   1  25
ATOM     25  C   LIG d   1       4.388  -3.981  -6.912  0.00  0.00     0.088 C 
ATOM     26  H   LIG d   1       4.463  -5.044  -7.183  0.00  0.00     0.052 H 
ATOM     27  H   LIG d   1       3.618  -3.854  -6.137  0.00  0.00     0.052 H 
BRANCH  25  28
ATOM     28  S   LIG d   1       3.936  -3.014  -8.378  0.00  0.00    -0.032 S 
ATOM     29  O   LIG d   1       3.027  -3.779  -9.158  0.00  0.00    -0.174 OA
ATOM     30  O   LIG d   1       3.559  -1.710  -7.957  0.00  0.00    -0.174 OA
BRANCH  28  31
ATOM     31  C   LIG d   1       5.505  -2.895  -9.280  0.00  0.00     0.054 C 
ATOM     32  H   LIG d   1       6.242  -2.361  -8.665  0.00  0.00     0.046 H 
ATOM     33  H   LIG d   1       5.347  -2.348 -10.221  0.00  0.00     0.046 H 
ATOM     34  H   LIG d   1       5.877  -3.907  -9.503  0.00  0.00     0.046 H 
ENDBRANCH  28  31
ENDBRANCH  25  28
ENDBRANCH   1  25
BRANCH   1  35
ATOM     35  N   LIG d   1       5.514  -2.533  -5.294  0.00  0.00    -0.225 N 
ATOM     36  C   LIG d   1       5.978  -1.271  -5.290  0.00  0.00     0.256 A 
ATOM     37  C   LIG d   1       5.547  -0.614  -4.044  0.00  0.00     0.071 A 
ATOM     38  O   LIG d   1       6.641  -0.758  -6.169  0.00  0.00    -0.269 OA
ATOM     39  C   LIG d   1       4.805  -1.580  -3.333  0.00  0.00     0.051 A 
ATOM     40  C   LIG d   1       5.723   0.658  -3.502  0.00  0.00     0.046 A 
ATOM     41  C   LIG d   1       4.813  -2.795  -4.176  0.00  0.00     0.255 A 
ATOM     42  C   LIG d   1       4.258  -1.261  -2.101  0.00  0.00    -0.049 A 
ATOM     43  O   LIG d   1       4.276  -3.850  -3.904  0.00  0.00    -0.270 OA
ATOM     44  C   LIG d   1       4.439   0.009  -1.572  0.00  0.00    -0.059 A 
ATOM     45  H   LIG d   1       3.690  -1.999  -1.555  0.00  0.00     0.062 H 
ATOM     46  C   LIG d   1       5.163   0.960  -2.261  0.00  0.00    -0.040 A 
ATOM     47  H   LIG d   1       4.011   0.254  -0.611  0.00  0.00     0.062 H 
ATOM     48  H   LIG d   1       5.295   1.944  -1.837  0.00  0.00     0.064 H 
BRANCH  40  49
ATOM     49  N   LIG d   1       6.452   1.620  -4.194  0.00  0.00    -0.285 N 
ATOM     50  C   LIG d   1       7.797   1.638  -4.106  0.00  0.00     0.214 C 
ATOM     51  O   LIG d   1       8.377   0.758  -3.508  0.00  0.00    -0.276 OA
ATOM     52  H   LIG d   1       5.931   2.365  -4.813  0.00  0.00     0.155 HD
BRANCH  50  53
ATOM     53  C   LIG d   1       8.578   2.754  -4.752  0.00  0.00     0.013 C 
ATOM     54  H   LIG d   1       7.968   3.220  -5.540  0.00  0.00     0.032 H 
ATOM     55  H   LIG d   1       9.500   2.348  -5.193  0.00  0.00     0.032 H 
ATOM     56  H   LIG d   1       8.836   3.507  -3.993  0.00  0.00     0.032 H 
ENDBRANCH  50  53
ENDBRANCH  40  49
ENDBRANCH   1  35
TORSDOF 12
ENDMDL
MODEL 3
REMARK VINA RESULT:      -5.8      3.877      8.573
REMARK  12 active torsions:
REMARK  status: ('A' for Active; 'I' for Inactive)
REMARK    1  A    between atoms: C_1  and  C_2 
REMARK    2  A    between atoms: C_2  and  O_3 
REMARK    3  A    between atoms: O_3  and  C_4 
REMARK    4  A    between atoms: C_6  and  C_12 
REMARK    5  A    between atoms: C_9  and  O_10 
REMARK    6  A    between atoms: O_10  and  C_11 
REMARK    7  A    between atoms: C_12  and  C_14 
REMARK    8  A    between atoms: C_12  and  N_19 
REMARK    9  A    between atoms: C_14  and  S_15 
REMARK   10  A    between atoms: S_15  and  C_18 
REMARK   11  A    between atoms: C_26  and  N_30 
REMARK       I    between atoms: N_30  and  C_31 
REMARK   12  A    between atoms: C_31  and  C_33 
ROOT
ATOM      1  C   LIG d   1       6.771  -4.770  -6.210  0.00  0.00     0.079 C 
ATOM      2  H   LIG d   1       7.659  -4.331  -6.688  0.00  0.00     0.057 H 
ENDROOT
BRANCH   1   3
ATOM      3  C   LIG d   1       7.157  -6.029  -5.477  0.00  0.00    -0.021 A 
ATOM      4  C   LIG d   1       6.358  -7.154  -5.573  0.00  0.00    -0.011 A 
ATOM      5  C   LIG d   1       6.714  -8.314  -4.905  0.00  0.00     0.162 A 
ATOM      6  H   LIG d   1       5.461  -7.129  -6.173  0.00  0.00     0.066 H 
ATOM      7  C   LIG d   1       7.868  -8.341  -4.129  0.00  0.00     0.162 A 
ATOM      8  C   LIG d   1       8.661  -7.209  -4.033  0.00  0.00    -0.016 A 
ATOM      9  C   LIG d   1       8.303  -6.056  -4.707  0.00  0.00    -0.053 A 
ATOM     10  H   LIG d   1       9.557  -7.227  -3.431  0.00  0.00     0.066 H 
ATOM     11  H   LIG d   1       8.923  -5.174  -4.631  0.00  0.00     0.062 H 
BRANCH   5  12
ATOM     12  O   LIG d   1       5.933  -9.424  -5.003  0.00  0.00    -0.489 OA
BRANCH  12  13
ATOM     13  C   LIG d   1       4.585  -9.311  -4.538  0.00  0.00     0.087 C 
ATOM     14  H   LIG d   1       3.897  -9.655  -5.322  0.00  0.00     0.069 H 
ATOM     15  H   LIG d   1       4.368  -8.261  -4.293  0.00  0.00     0.069 H 
BRANCH  13  16
ATOM     16  C   LIG d   1       4.404 -10.175  -3.287  0.00  0.00    -0.031 C 
ATOM     17  H   LIG d   1       3.391 -10.031  -2.886  0.00  0.00     0.026 H 
ATOM     18  H   LIG d   1       5.144  -9.880  -2.528  0.00  0.00     0.026 H 
ATOM     19  H   LIG d   1       4.550 -11.233  -3.548  0.00  0.00     0.026 H 
ENDBRANCH  13  16
ENDBRANCH  12  13
ENDBRANCH   5  12
BRANCH   7  20
ATOM     20  O   LIG d   1       8.217  -9.477  -3.466  0.00  0.00    -0.491 OA
BRANCH  20  21
ATOM     21  C   LIG d   1       7.935  -9.523  -2.066  0.00  0.00     0.079 C 
ATOM     22  H   LIG d   1       8.359 -10.443  -1.637  0.00  0.00     0.066 H 
ATOM     23  H   LIG d   1       6.846  -9.512  -1.910  0.00  0.00     0.066 H 
ATOM     24  H   LIG d   1       8.384  -8.648  -1.572  0.00  0.00     0.066 H 
ENDBRANCH  20  21
ENDBRANCH   7  20
ENDBRANCH   1   3
BRANCH   1  25
ATOM     25  C   LIG d   1       5.690  -5.090  -7.244  0.00  0.00     0.088 C 
ATOM     26  H   LIG d   1       5.860  -6.098  -7.650  0.00  0.00     0.052 H 
ATOM     27  H   LIG d   1       4.701  -5.051  -6.764  0.00  0.00     0.052 H 
BRANCH  25  28
ATOM     28  S   LIG d   1       5.761  -3.877  -8.590  0.00  0.00    -0.032 S 
ATOM     29  O   LIG d   1       6.975  -3.147  -8.473  0.00  0.00    -0.174 OA
ATOM     30  O   LIG d   1       5.468  -4.543  -9.810  0.00  0.00    -0.174 OA
BRANCH  28  31
ATOM     31  C   LIG d   1       4.383  -2.764  -8.198  0.00  0.00     0.054 C 
ATOM     32  H   LIG d   1       3.940  -2.386  -9.131  0.00  0.00     0.046 H 
ATOM     33  H   LIG d   1       4.753  -1.919  -7.599  0.00  0.00     0.046 H 
ATOM     34  H   LIG d   1       3.620  -3.312  -7.625  0.00  0.00     0.046 H 
ENDBRANCH  28  31
ENDBRANCH  25  28
ENDBRANCH   1  25
BRANCH   1  35
ATOM     35  N   LIG d   1       6.255  -3.787  -5.252  0.00  0.00    -0.225 N 
ATOM     36  C   LIG d   1       6.940  -2.714  -4.819  0.00  0.00     0.256 A 
ATOM     37  C   LIG d   1       6.093  -1.964  -3.875  0.00  0.00     0.071 A 
ATOM     38  O   LIG d   1       8.068  -2.413  -5.151  0.00  0.00    -0.269 OA
ATOM     39  C   LIG d   1       4.877  -2.676  -3.795  0.00  0.00     0.051 A 
ATOM     40  C   LIG d   1       6.261  -0.800  -3.128  0.00  0.00     0.046 A 
ATOM     41  C   LIG d   1       5.031  -3.838  -4.696  0.00  0.00     0.255 A 
ATOM     42  C   LIG d   1       3.860  -2.215  -2.975  0.00  0.00    -0.049 A 
ATOM     43  O   LIG d   1       4.192  -4.692  -4.901  0.00  0.00    -0.270 OA
ATOM     44  C   LIG d   1       4.040  -1.055  -2.236  0.00  0.00    -0.059 A 
ATOM     45  H   LIG d   1       2.930  -2.759  -2.913  0.00  0.00     0.062 H 
ATOM     46  C   LIG d   1       5.225  -0.352  -2.309  0.00  0.00    -0.040 A 
ATOM     47  H   LIG d   1       3.245  -0.699  -1.598  0.00  0.00     0.062 H 
ATOM     48  H   LIG d   1       5.350   0.550  -1.729  0.00  0.00     0.064 H 
BRANCH  40  49
ATOM     49  N   LIG d   1       7.455  -0.089  -3.199  0.00  0.00    -0.285 N 
ATOM     50  C   LIG d   1       7.615   0.869  -4.134  0.00  0.00     0.214 C 
ATOM     51  O   LIG d   1       6.685   1.181  -4.847  0.00  0.00    -0.276 OA
ATOM     52  H   LIG d   1       8.268  -0.307  -2.491  0.00  0.00     0.155 HD
BRANCH  50  53
ATOM     53  C   LIG d   1       8.950   1.551  -4.293  0.00  0.00     0.013 C 
ATOM     54  H   LIG d   1       9.134   1.750  -5.359  0.00  0.00     0.032 H 
ATOM     55  H   LIG d   1       9.743   0.900  -3.898  0.00  0.00     0.032 H 
ATOM     56  H   LIG d   1       8.945   2.500  -3.737  0.00  0.00     0.032 H 
ENDBRANCH  50  53
ENDBRANCH  40  49
ENDBRANCH   1  35
TORSDOF 12
ENDMDL
MODEL 4
REMARK VINA RESULT:      -5.8      3.377      7.474
REMARK  12 active torsions:
REMARK  status: ('A' for Active; 'I' for Inactive)
REMARK    1  A    between atoms: C_1  and  C_2 
REMARK    2  A    between atoms: C_2  and  O_3 
REMARK    3  A    between atoms: O_3  and  C_4 
REMARK    4  A    between atoms: C_6  and  C_12 
REMARK    5  A    between atoms: C_9  and  O_10 
REMARK    6  A    between atoms: O_10  and  C_11 
REMARK    7  A    between atoms: C_12  and  C_14 
REMARK    8  A    between atoms: C_12  and  N_19 
REMARK    9  A    between atoms: C_14  and  S_15 
REMARK   10  A    between atoms: S_15  and  C_18 
REMARK   11  A    between atoms: C_26  and  N_30 
REMARK       I    between atoms: N_30  and  C_31 
REMARK   12  A    between atoms: C_31  and  C_33 
ROOT
ATOM      1  C   LIG d   1       4.842  -0.854  -4.649  0.00  0.00     0.079 C 
ATOM      2  H   LIG d   1       3.861  -1.151  -4.252  0.00  0.00     0.057 H 
ENDROOT
BRANCH   1   3
ATOM      3  C   LIG d   1       5.768  -2.043  -4.665  0.00  0.00    -0.021 A 
ATOM      4  C   LIG d   1       5.417  -3.181  -5.368  0.00  0.00    -0.011 A 
ATOM      5  C   LIG d   1       6.270  -4.272  -5.388  0.00  0.00     0.162 A 
ATOM      6  H   LIG d   1       4.481  -3.216  -5.904  0.00  0.00     0.066 H 
ATOM      7  C   LIG d   1       7.473  -4.225  -4.692  0.00  0.00     0.162 A 
ATOM      8  C   LIG d   1       7.816  -3.083  -3.985  0.00  0.00    -0.016 A 
ATOM      9  C   LIG d   1       6.964  -1.995  -3.974  0.00  0.00    -0.053 A 
ATOM     10  H   LIG d   1       8.750  -3.043  -3.444  0.00  0.00     0.066 H 
ATOM     11  H   LIG d   1       7.233  -1.105  -3.423  0.00  0.00     0.062 H 
BRANCH   5  12
ATOM     12  O   LIG d   1       5.929  -5.390  -6.084  0.00  0.00    -0.489 OA
BRANCH  12  13
ATOM     13  C   LIG d   1       4.725  -6.055  -5.693  0.00  0.00     0.087 C 
ATOM     14  H   LIG d   1       4.012  -6.045  -6.530  0.00  0.00     0.069 H 
ATOM     15  H   LIG d   1       4.284  -5.538  -4.828  0.00  0.00     0.069 H 
BRANCH  13  16
ATOM     16  C   LIG d   1       5.043  -7.503  -5.312  0.00  0.00    -0.031 C 
ATOM     17  H   LIG d   1       6.112  -7.699  -5.477  0.00  0.00     0.026 H 
ATOM     18  H   LIG d   1       4.445  -8.186  -5.934  0.00  0.00     0.026 H 
ATOM     19  H   LIG d   1       4.799  -7.666  -4.252  0.00  0.00     0.026 H 
ENDBRANCH  13  16
ENDBRANCH  12  13
ENDBRANCH   5  12
BRANCH   7  20
ATOM     20  O   LIG d   1       8.311  -5.296  -4.704  0.00  0.00    -0.491 OA
BRANCH  20  21
ATOM     21  C   LIG d   1       9.169  -5.463  -3.573  0.00  0.00     0.079 C 
ATOM     22  H   LIG d   1       9.527  -4.479  -3.237  0.00  0.00     0.066 H 
ATOM     23  H   LIG d   1      10.027  -6.092  -3.853  0.00  0.00     0.066 H 
ATOM     24  H   LIG d   1       8.609  -5.948  -2.758  0.00  0.00     0.066 H 
ENDBRANCH  20  21
ENDBRANCH   7  20
ENDBRANCH   1   3
BRANCH   1  25
ATOM     25  C   LIG d   1       5.460   0.265  -3.808  0.00  0.00     0.088 C 
ATOM     26  H   LIG d   1       6.259  -0.151  -3.177  0.00  0.00     0.052 H 
ATOM     27  H   LIG d   1       5.883   1.033  -4.473  0.00  0.00     0.052 H 
BRANCH  25  28
ATOM     28  S   LIG d   1       4.184   1.009  -2.757  0.00  0.00    -0.032 S 
ATOM     29  O   LIG d   1       4.721   1.182  -1.453  0.00  0.00    -0.174 OA
ATOM     30  O   LIG d   1       3.641   2.133  -3.437  0.00  0.00    -0.174 OA
BRANCH  28  31
ATOM     31  C   LIG d   1       2.916  -0.287  -2.687  0.00  0.00     0.054 C 
ATOM     32  H   LIG d   1       2.448  -0.395  -3.675  0.00  0.00     0.046 H 
ATOM     33  H   LIG d   1       2.151  -0.012  -1.946  0.00  0.00     0.046 H 
ATOM     34  H   LIG d   1       3.383  -1.240  -2.395  0.00  0.00     0.046 H 
ENDBRANCH  28  31
ENDBRANCH  25  28
ENDBRANCH   1  25
BRANCH   1  35
ATOM     35  N   LIG d   1       4.637  -0.378  -6.020  0.00  0.00    -0.225 N 
ATOM     36  C   LIG d   1       5.618  -0.222  -6.927  0.00  0.00     0.256 A 
ATOM     37  C   LIG d   1       5.024   0.266  -8.184  0.00  0.00     0.071 A 
ATOM     38  O   LIG d   1       6.797  -0.447  -6.740  0.00  0.00    -0.269 OA
ATOM     39  C   LIG d   1       3.639   0.379  -7.941  0.00  0.00     0.051 A 
ATOM     40  C   LIG d   1       5.534   0.598  -9.438  0.00  0.00     0.046 A 
ATOM     41  C   LIG d   1       3.441  -0.045  -6.538  0.00  0.00     0.255 A 
ATOM     42  C   LIG d   1       2.796   0.820  -8.947  0.00  0.00    -0.049 A 
ATOM     43  O   LIG d   1       2.377  -0.086  -5.954  0.00  0.00    -0.270 OA
ATOM     44  C   LIG d   1       3.315   1.148 -10.191  0.00  0.00    -0.059 A 
ATOM     45  H   LIG d   1       1.736   0.908  -8.762  0.00  0.00     0.062 H 
ATOM     46  C   LIG d   1       4.668   1.040 -10.438  0.00  0.00    -0.040 A 
ATOM     47  H   LIG d   1       2.654   1.492 -10.972  0.00  0.00     0.062 H 
ATOM     48  H   LIG d   1       5.058   1.298 -11.411  0.00  0.00     0.064 H 
BRANCH  40  49
ATOM     49  N   LIG d   1       6.898   0.490  -9.690  0.00  0.00    -0.285 N 
ATOM     50  C   LIG d   1       7.701   1.560  -9.526  0.00  0.00     0.214 C 
ATOM     51  O   LIG d   1       7.254   2.587  -9.062  0.00  0.00    -0.276 OA
ATOM     52  H   LIG d   1       7.322  -0.469 -10.024  0.00  0.00     0.155 HD
BRANCH  50  53
ATOM     53  C   LIG d   1       9.154   1.479  -9.919  0.00  0.00     0.013 C 
ATOM     54  H   LIG d   1       9.376   0.469 -10.294  0.00  0.00     0.032 H 
ATOM     55  H   LIG d   1       9.783   1.693  -9.043  0.00  0.00     0.032 H 
ATOM     56  H   LIG d   1       9.361   2.217 -10.708  0.00  0.00     0.032 H 
ENDBRANCH  50  53
ENDBRANCH  40  49
ENDBRANCH   1  35
TORSDOF 12
ENDMDL
MODEL 5
REMARK VINA RESULT:      -5.6      3.710      6.042
REMARK  12 active torsions:
REMARK  status: ('A' for Active; 'I' for Inactive)
REMARK    1  A    between atoms: C_1  and  C_2 
REMARK    2  A    between atoms: C_2  and  O_3 
REMARK    3  A    between atoms: O_3  and  C_4 
REMARK    4  A    between atoms: C_6  and  C_12 
REMARK    5  A    between atoms: C_9  and  O_10 
REMARK    6  A    between atoms: O_10  and  C_11 
REMARK    7  A    between atoms: C_12  and  C_14 
REMARK    8  A    between atoms: C_12  and  N_19 
REMARK    9  A    between atoms: C_14  and  S_15 
REMARK   10  A    between atoms: S_15  and  C_18 
REMARK   11  A    between atoms: C_26  and  N_30 
REMARK       I    between atoms: N_30  and  C_31 
REMARK   12  A    between atoms: C_31  and  C_33 
ROOT
ATOM      1  C   LIG d   1       5.146  -0.131  -8.748  0.00  0.00     0.079 C 
ATOM      2  H   LIG d   1       6.109  -0.652  -8.849  0.00  0.00     0.057 H 
ENDROOT
BRANCH   1   3
ATOM      3  C   LIG d   1       4.146  -0.712  -9.715  0.00  0.00    -0.021 A 
ATOM      4  C   LIG d   1       3.607  -1.963  -9.479  0.00  0.00    -0.011 A 
ATOM      5  C   LIG d   1       2.684  -2.497 -10.364  0.00  0.00     0.162 A 
ATOM      6  H   LIG d   1       3.901  -2.522  -8.603  0.00  0.00     0.066 H 
ATOM      7  C   LIG d   1       2.310  -1.777 -11.493  0.00  0.00     0.162 A 
ATOM      8  C   LIG d   1       2.859  -0.525 -11.726  0.00  0.00    -0.016 A 
ATOM      9  C   LIG d   1       3.775   0.004 -10.837  0.00  0.00    -0.053 A 
ATOM     10  H   LIG d   1       2.571   0.036 -12.603  0.00  0.00     0.066 H 
ATOM     11  H   LIG d   1       4.202   0.979 -11.019  0.00  0.00     0.062 H 
BRANCH   5  12
ATOM     12  O   LIG d   1       2.147  -3.725 -10.130  0.00  0.00    -0.489 OA
BRANCH  12  13
ATOM     13  C   LIG d   1       2.984  -4.856 -10.383  0.00  0.00     0.087 C 
ATOM     14  H   LIG d   1       3.958  -4.515 -10.762  0.00  0.00     0.069 H 
ATOM     15  H   LIG d   1       2.507  -5.507 -11.130  0.00  0.00     0.069 H 
BRANCH  13  16
ATOM     16  C   LIG d   1       3.190  -5.638  -9.083  0.00  0.00    -0.031 C 
ATOM     17  H   LIG d   1       2.432  -6.431  -9.009  0.00  0.00     0.026 H 
ATOM     18  H   LIG d   1       3.091  -4.956  -8.225  0.00  0.00     0.026 H 
ATOM     19  H   LIG d   1       4.194  -6.086  -9.080  0.00  0.00     0.026 H 
ENDBRANCH  13  16
ENDBRANCH  12  13
ENDBRANCH   5  12
BRANCH   7  20
ATOM     20  O   LIG d   1       1.409  -2.299 -12.368  0.00  0.00    -0.491 OA
BRANCH  20  21
ATOM     21  C   LIG d   1       0.147  -1.637 -12.472  0.00  0.00     0.079 C 
ATOM     22  H   LIG d   1      -0.652  -2.316 -12.140  0.00  0.00     0.066 H 
ATOM     23  H   LIG d   1      -0.030  -1.345 -13.518  0.00  0.00     0.066 H 
ATOM     24  H   LIG d   1       0.151  -0.738 -11.837  0.00  0.00     0.066 H 
ENDBRANCH  20  21
ENDBRANCH   7  20
ENDBRANCH   1   3
BRANCH   1  25
ATOM     25  C   LIG d   1       5.301   1.368  -9.013  0.00  0.00     0.088 C 
ATOM     26  H   LIG d   1       5.043   1.583 -10.060  0.00  0.00     0.052 H 
ATOM     27  H   LIG d   1       4.628   1.930  -8.348  0.00  0.00     0.052 H 
BRANCH  25  28
ATOM     28  S   LIG d   1       7.016   1.865  -8.698  0.00  0.00    -0.032 S 
ATOM     29  O   LIG d   1       7.247   3.113  -9.337  0.00  0.00    -0.174 OA
ATOM     30  O   LIG d   1       7.270   1.744  -7.305  0.00  0.00    -0.174 OA
BRANCH  28  31
ATOM     31  C   LIG d   1       7.969   0.590  -9.568  0.00  0.00     0.054 C 
ATOM     32  H   LIG d   1       9.029   0.882  -9.600  0.00  0.00     0.046 H 
ATOM     33  H   LIG d   1       7.587   0.483 -10.594  0.00  0.00     0.046 H 
ATOM     34  H   LIG d   1       7.868  -0.369  -9.038  0.00  0.00     0.046 H 
ENDBRANCH  28  31
ENDBRANCH  25  28
ENDBRANCH   1  25
BRANCH   1  35
ATOM     35  N   LIG d   1       4.674  -0.338  -7.376  0.00  0.00    -0.225 N 
ATOM     36  C   LIG d   1       5.265  -1.149  -6.481  0.00  0.00     0.256 A 
ATOM     37  C   LIG d   1       4.509  -1.090  -5.218  0.00  0.00     0.071 A 
ATOM     38  O   LIG d   1       6.257  -1.821  -6.682  0.00  0.00    -0.269 OA
ATOM     39  C   LIG d   1       3.446  -0.190  -5.445  0.00  0.00     0.051 A 
ATOM     40  C   LIG d   1       4.645  -1.698  -3.972  0.00  0.00     0.046 A 
ATOM     41  C   LIG d   1       3.595   0.265  -6.844  0.00  0.00     0.255 A 
ATOM     42  C   LIG d   1       2.544   0.082  -4.430  0.00  0.00    -0.049 A 
ATOM     43  O   LIG d   1       2.866   1.051  -7.414  0.00  0.00    -0.270 OA
ATOM     44  C   LIG d   1       2.690  -0.530  -3.193  0.00  0.00    -0.059 A 
ATOM     45  H   LIG d   1       1.730   0.770  -4.601  0.00  0.00     0.062 H 
ATOM     46  C   LIG d   1       3.726  -1.410  -2.962  0.00  0.00    -0.040 A 
ATOM     47  H   LIG d   1       1.984  -0.315  -2.404  0.00  0.00     0.062 H 
ATOM     48  H   LIG d   1       3.827  -1.879  -1.995  0.00  0.00     0.064 H 
BRANCH  40  49
ATOM     49  N   LIG d   1       5.689  -2.587  -3.736  0.00  0.00    -0.285 N 
ATOM     50  C   LIG d   1       6.911  -2.121  -3.411  0.00  0.00     0.214 C 
ATOM     51  O   LIG d   1       7.076  -0.934  -3.224  0.00  0.00    -0.276 OA
ATOM     52  H   LIG d   1       5.517  -3.670  -3.815  0.00  0.00     0.155 HD
BRANCH  50  53
ATOM     53  C   LIG d   1       8.071  -3.074  -3.280  0.00  0.00     0.013 C 
ATOM     54  H   LIG d   1       7.819  -4.027  -3.769  0.00  0.00     0.032 H 
ATOM     55  H   LIG d   1       8.279  -3.253  -2.215  0.00  0.00     0.032 H 
ATOM     56  H   LIG d   1       8.959  -2.639  -3.760  0.00  0.00     0.032 H 
ENDBRANCH  50  53
ENDBRANCH  40  49
ENDBRANCH   1  35
TORSDOF 12
ENDMDL
MODEL 6
REMARK VINA RESULT:      -5.5      3.390      7.696
REMARK  12 active torsions:
REMARK  status: ('A' for Active; 'I' for Inactive)
REMARK    1  A    between atoms: C_1  and  C_2 
REMARK    2  A    between atoms: C_2  and  O_3 
REMARK    3  A    between atoms: O_3  and  C_4 
REMARK    4  A    between atoms: C_6  and  C_12 
REMARK    5  A    between atoms: C_9  and  O_10 
REMARK    6  A    between atoms: O_10  and  C_11 
REMARK    7  A    between atoms: C_12  and  C_14 
REMARK    8  A    between atoms: C_12  and  N_19 
REMARK    9  A    between atoms: C_14  and  S_15 
REMARK   10  A    between atoms: S_15  and  C_18 
REMARK   11  A    between atoms: C_26  and  N_30 
REMARK       I    between atoms: N_30  and  C_31 
REMARK   12  A    between atoms: C_31  and  C_33 
ROOT
ATOM      1  C   LIG d   1       4.784  -1.181  -5.056  0.00  0.00     0.079 C 
ATOM      2  H   LIG d   1       3.808  -1.197  -4.551  0.00  0.00     0.057 H 
ENDROOT
BRANCH   1   3
ATOM      3  C   LIG d   1       5.306  -2.588  -5.205  0.00  0.00    -0.021 A 
ATOM      4  C   LIG d   1       6.547  -2.920  -4.694  0.00  0.00    -0.011 A 
ATOM      5  C   LIG d   1       7.026  -4.213  -4.824  0.00  0.00     0.162 A 
ATOM      6  H   LIG d   1       7.141  -2.172  -4.190  0.00  0.00     0.066 H 
ATOM      7  C   LIG d   1       6.260  -5.172  -5.479  0.00  0.00     0.162 A 
ATOM      8  C   LIG d   1       5.019  -4.831  -5.993  0.00  0.00    -0.016 A 
ATOM      9  C   LIG d   1       4.545  -3.541  -5.854  0.00  0.00    -0.053 A 
ATOM     10  H   LIG d   1       4.422  -5.575  -6.501  0.00  0.00     0.066 H 
ATOM     11  H   LIG d   1       3.577  -3.276  -6.255  0.00  0.00     0.062 H 
BRANCH   5  12
ATOM     12  O   LIG d   1       8.244  -4.543  -4.318  0.00  0.00    -0.489 OA
BRANCH  12  13
ATOM     13  C   LIG d   1       8.887  -3.571  -3.489  0.00  0.00     0.087 C 
ATOM     14  H   LIG d   1       8.130  -2.904  -3.053  0.00  0.00     0.069 H 
ATOM     15  H   LIG d   1       9.592  -2.982  -4.094  0.00  0.00     0.069 H 
BRANCH  13  16
ATOM     16  C   LIG d   1       9.647  -4.282  -2.367  0.00  0.00    -0.031 C 
ATOM     17  H   LIG d   1      10.593  -3.755  -2.174  0.00  0.00     0.026 H 
ATOM     18  H   LIG d   1       9.859  -5.319  -2.667  0.00  0.00     0.026 H 
ATOM     19  H   LIG d   1       9.035  -4.284  -1.453  0.00  0.00     0.026 H 
ENDBRANCH  13  16
ENDBRANCH  12  13
ENDBRANCH   5  12
BRANCH   7  20
ATOM     20  O   LIG d   1       6.729  -6.442  -5.614  0.00  0.00    -0.491 OA
BRANCH  20  21
ATOM     21  C   LIG d   1       5.786  -7.503  -5.444  0.00  0.00     0.079 C 
ATOM     22  H   LIG d   1       6.207  -8.262  -4.769  0.00  0.00     0.066 H 
ATOM     23  H   LIG d   1       5.567  -7.960  -6.421  0.00  0.00     0.066 H 
ATOM     24  H   LIG d   1       4.857  -7.102  -5.011  0.00  0.00     0.066 H 
ENDBRANCH  20  21
ENDBRANCH   7  20
ENDBRANCH   1   3
BRANCH   1  25
ATOM     25  C   LIG d   1       5.796  -0.341  -4.274  0.00  0.00     0.088 C 
ATOM     26  H   LIG d   1       6.526  -1.005  -3.790  0.00  0.00     0.052 H 
ATOM     27  H   LIG d   1       6.319   0.338  -4.963  0.00  0.00     0.052 H 
BRANCH  25  28
ATOM     28  S   LIG d   1       4.929   0.629  -3.010  0.00  0.00    -0.032 S 
ATOM     29  O   LIG d   1       5.878   1.454  -2.349  0.00  0.00    -0.174 OA
ATOM     30  O   LIG d   1       3.788   1.228  -3.608  0.00  0.00    -0.174 OA
BRANCH  28  31
ATOM     31  C   LIG d   1       4.365  -0.643  -1.846  0.00  0.00     0.054 C 
ATOM     32  H   LIG d   1       3.743  -0.178  -1.068  0.00  0.00     0.046 H 
ATOM     33  H   LIG d   1       5.236  -1.126  -1.380  0.00  0.00     0.046 H 
ATOM     34  H   LIG d   1       3.773  -1.397  -2.386  0.00  0.00     0.046 H 
ENDBRANCH  28  31
ENDBRANCH  25  28
ENDBRANCH   1  25
BRANCH   1  35
ATOM     35  N   LIG d   1       4.584  -0.593  -6.384  0.00  0.00    -0.225 N 
ATOM     36  C   LIG d   1       5.536  -0.507  -7.330  0.00  0.00     0.256 A 
ATOM     37  C   LIG d   1       4.958   0.136  -8.523  0.00  0.00     0.071 A 
ATOM     38  O   LIG d   1       6.682  -0.893  -7.219  0.00  0.00    -0.269 OA
ATOM     39  C   LIG d   1       3.612   0.411  -8.202  0.00  0.00     0.051 A 
ATOM     40  C   LIG d   1       5.452   0.481  -9.780  0.00  0.00     0.046 A 
ATOM     41  C   LIG d   1       3.421  -0.075  -6.818  0.00  0.00     0.255 A 
ATOM     42  C   LIG d   1       2.791   1.023  -9.134  0.00  0.00    -0.049 A 
ATOM     43  O   LIG d   1       2.388  -0.016  -6.183  0.00  0.00    -0.270 OA
ATOM     44  C   LIG d   1       3.294   1.362 -10.382  0.00  0.00    -0.059 A 
ATOM     45  H   LIG d   1       1.761   1.235  -8.890  0.00  0.00     0.062 H 
ATOM     46  C   LIG d   1       4.609   1.096 -10.705  0.00  0.00    -0.040 A 
ATOM     47  H   LIG d   1       2.651   1.840 -11.106  0.00  0.00     0.062 H 
ATOM     48  H   LIG d   1       4.986   1.365 -11.680  0.00  0.00     0.064 H 
BRANCH  40  49
ATOM     49  N   LIG d   1       6.777   0.214 -10.109  0.00  0.00    -0.285 N 
ATOM     50  C   LIG d   1       7.729   1.140  -9.876  0.00  0.00     0.214 C 
ATOM     51  O   LIG d   1       7.448   2.163  -9.288  0.00  0.00    -0.276 OA
ATOM     52  H   LIG d   1       7.049  -0.752 -10.559  0.00  0.00     0.155 HD
BRANCH  50  53
ATOM     53  C   LIG d   1       9.141   0.903 -10.347  0.00  0.00     0.013 C 
ATOM     54  H   LIG d   1       9.840   1.104  -9.521  0.00  0.00     0.032 H 
ATOM     55  H   LIG d   1       9.364   1.574 -11.188  0.00  0.00     0.032 H 
ATOM     56  H   LIG d   1       9.249  -0.142 -10.672  0.00  0.00     0.032 H 
ENDBRANCH  50  53
ENDBRANCH  40  49
ENDBRANCH   1  35
TORSDOF 12
ENDMDL
MODEL 7
REMARK VINA RESULT:      -5.5      4.251      7.249
REMARK  12 active torsions:
REMARK  status: ('A' for Active; 'I' for Inactive)
REMARK    1  A    between atoms: C_1  and  C_2 
REMARK    2  A    between atoms: C_2  and  O_3 
REMARK    3  A    between atoms: O_3  and  C_4 
REMARK    4  A    between atoms: C_6  and  C_12 
REMARK    5  A    between atoms: C_9  and  O_10 
REMARK    6  A    between atoms: O_10  and  C_11 
REMARK    7  A    between atoms: C_12  and  C_14 
REMARK    8  A    between atoms: C_12  and  N_19 
REMARK    9  A    between atoms: C_14  and  S_15 
REMARK   10  A    between atoms: S_15  and  C_18 
REMARK   11  A    between atoms: C_26  and  N_30 
REMARK       I    between atoms: N_30  and  C_31 
REMARK   12  A    between atoms: C_31  and  C_33 
ROOT
ATOM      1  C   LIG d   1       6.561  -4.148  -6.088  0.00  0.00     0.079 C 
ATOM      2  H   LIG d   1       6.664  -4.590  -7.089  0.00  0.00     0.057 H 
ENDROOT
BRANCH   1   3
ATOM      3  C   LIG d   1       7.903  -3.661  -5.604  0.00  0.00    -0.021 A 
ATOM      4  C   LIG d   1       8.428  -4.148  -4.421  0.00  0.00    -0.011 A 
ATOM      5  C   LIG d   1       9.664  -3.706  -3.978  0.00  0.00     0.162 A 
ATOM      6  H   LIG d   1       7.876  -4.876  -3.845  0.00  0.00     0.066 H 
ATOM      7  C   LIG d   1      10.370  -2.765  -4.720  0.00  0.00     0.162 A 
ATOM      8  C   LIG d   1       9.836  -2.277  -5.902  0.00  0.00    -0.016 A 
ATOM      9  C   LIG d   1       8.605  -2.727  -6.341  0.00  0.00    -0.053 A 
ATOM     10  H   LIG d   1      10.382  -1.546  -6.480  0.00  0.00     0.066 H 
ATOM     11  H   LIG d   1       8.190  -2.346  -7.264  0.00  0.00     0.062 H 
BRANCH   5  12
ATOM     12  O   LIG d   1      10.184  -4.188  -2.818  0.00  0.00    -0.489 OA
BRANCH  12  13
ATOM     13  C   LIG d   1       9.606  -5.388  -2.297  0.00  0.00     0.087 C 
ATOM     14  H   LIG d   1       8.783  -5.712  -2.950  0.00  0.00     0.069 H 
ATOM     15  H   LIG d   1       9.220  -5.200  -1.285  0.00  0.00     0.069 H 
BRANCH  13  16
ATOM     16  C   LIG d   1      10.673  -6.485  -2.241  0.00  0.00    -0.031 C 
ATOM     17  H   LIG d   1      10.186  -7.470  -2.260  0.00  0.00     0.026 H 
ATOM     18  H   LIG d   1      11.256  -6.381  -1.313  0.00  0.00     0.026 H 
ATOM     19  H   LIG d   1      11.343  -6.388  -3.107  0.00  0.00     0.026 H 
ENDBRANCH  13  16
ENDBRANCH  12  13
ENDBRANCH   5  12
BRANCH   7  20
ATOM     20  O   LIG d   1      11.581  -2.324  -4.286  0.00  0.00    -0.491 OA
BRANCH  20  21
ATOM     21  C   LIG d   1      12.403  -1.644  -5.237  0.00  0.00     0.079 C 
ATOM     22  H   LIG d   1      12.786  -0.715  -4.793  0.00  0.00     0.066 H 
ATOM     23  H   LIG d   1      11.809  -1.407  -6.132  0.00  0.00     0.066 H 
ATOM     24  H   LIG d   1      13.248  -2.292  -5.520  0.00  0.00     0.066 H 
ENDBRANCH  20  21
ENDBRANCH   7  20
ENDBRANCH   1   3
BRANCH   1  25
ATOM     25  C   LIG d   1       5.997  -5.164  -5.092  0.00  0.00     0.088 C 
ATOM     26  H   LIG d   1       6.807  -5.818  -4.738  0.00  0.00     0.052 H 
ATOM     27  H   LIG d   1       5.556  -4.632  -4.236  0.00  0.00     0.052 H 
BRANCH  25  28
ATOM     28  S   LIG d   1       4.723  -6.165  -5.906  0.00  0.00    -0.032 S 
ATOM     29  O   LIG d   1       4.664  -7.429  -5.258  0.00  0.00    -0.174 OA
ATOM     30  O   LIG d   1       3.539  -5.387  -6.011  0.00  0.00    -0.174 OA
BRANCH  28  31
ATOM     31  C   LIG d   1       5.403  -6.405  -7.570  0.00  0.00     0.054 C 
ATOM     32  H   LIG d   1       6.491  -6.252  -7.547  0.00  0.00     0.046 H 
ATOM     33  H   LIG d   1       4.945  -5.683  -8.261  0.00  0.00     0.046 H 
ATOM     34  H   LIG d   1       5.184  -7.429  -7.911  0.00  0.00     0.046 H 
ENDBRANCH  28  31
ENDBRANCH  25  28
ENDBRANCH   1  25
BRANCH   1  35
ATOM     35  N   LIG d   1       5.642  -3.011  -6.199  0.00  0.00    -0.225 N 
ATOM     36  C   LIG d   1       5.179  -2.302  -5.155  0.00  0.00     0.256 A 
ATOM     37  C   LIG d   1       4.290  -1.242  -5.662  0.00  0.00     0.071 A 
ATOM     38  O   LIG d   1       5.448  -2.502  -3.988  0.00  0.00    -0.269 OA
ATOM     39  C   LIG d   1       4.274  -1.389  -7.065  0.00  0.00     0.051 A 
ATOM     40  C   LIG d   1       3.543  -0.228  -5.066  0.00  0.00     0.046 A 
ATOM     41  C   LIG d   1       5.157  -2.537  -7.361  0.00  0.00     0.255 A 
ATOM     42  C   LIG d   1       3.517  -0.526  -7.841  0.00  0.00    -0.049 A 
ATOM     43  O   LIG d   1       5.402  -2.977  -8.466  0.00  0.00    -0.270 OA
ATOM     44  C   LIG d   1       2.777   0.480  -7.235  0.00  0.00    -0.059 A 
ATOM     45  H   LIG d   1       3.503  -0.636  -8.915  0.00  0.00     0.062 H 
ATOM     46  C   LIG d   1       2.787   0.630  -5.864  0.00  0.00    -0.040 A 
ATOM     47  H   LIG d   1       2.188   1.150  -7.843  0.00  0.00     0.062 H 
ATOM     48  H   LIG d   1       2.207   1.418  -5.407  0.00  0.00     0.064 H 
BRANCH  40  49
ATOM     49  N   LIG d   1       3.550  -0.074  -3.683  0.00  0.00    -0.285 N 
ATOM     50  C   LIG d   1       4.521   0.650  -3.091  0.00  0.00     0.214 C 
ATOM     51  O   LIG d   1       5.328   1.250  -3.768  0.00  0.00    -0.276 OA
ATOM     52  H   LIG d   1       2.764  -0.542  -3.073  0.00  0.00     0.155 HD
BRANCH  50  53
ATOM     53  C   LIG d   1       4.602   0.713  -1.587  0.00  0.00     0.013 C 
ATOM     54  H   LIG d   1       5.533   1.219  -1.292  0.00  0.00     0.032 H 
ATOM     55  H   LIG d   1       4.593  -0.306  -1.176  0.00  0.00     0.032 H 
ATOM     56  H   LIG d   1       3.740   1.274  -1.197  0.00  0.00     0.032 H 
ENDBRANCH  50  53
ENDBRANCH  40  49
ENDBRANCH   1  35
TORSDOF 12
ENDMDL
MODEL 8
REMARK VINA RESULT:      -5.4      3.181      7.550
REMARK  12 active torsions:
REMARK  status: ('A' for Active; 'I' for Inactive)
REMARK    1  A    between atoms: C_1  and  C_2 
REMARK    2  A    between atoms: C_2  and  O_3 
REMARK    3  A    between atoms: O_3  and  C_4 
REMARK    4  A    between atoms: C_6  and  C_12 
REMARK    5  A    between atoms: C_9  and  O_10 
REMARK    6  A    between atoms: O_10  and  C_11 
REMARK    7  A    between atoms: C_12  and  C_14 
REMARK    8  A    between atoms: C_12  and  N_19 
REMARK    9  A    between atoms: C_14  and  S_15 
REMARK   10  A    between atoms: S_15  and  C_18 
REMARK   11  A    between atoms: C_26  and  N_30 
REMARK       I    between atoms: N_30  and  C_31 
REMARK   12  A    between atoms: C_31  and  C_33 
ROOT
ATOM      1  C   LIG d   1       5.951  -1.398  -4.586  0.00  0.00     0.079 C 
ATOM      2  H   LIG d   1       4.889  -1.515  -4.848  0.00  0.00     0.057 H 
ENDROOT
BRANCH   1   3
ATOM      3  C   LIG d   1       6.657  -2.724  -4.711  0.00  0.00    -0.021 A 
ATOM      4  C   LIG d   1       7.875  -2.917  -4.087  0.00  0.00    -0.011 A 
ATOM      5  C   LIG d   1       8.523  -4.137  -4.196  0.00  0.00     0.162 A 
ATOM      6  H   LIG d   1       8.319  -2.119  -3.511  0.00  0.00     0.066 H 
ATOM      7  C   LIG d   1       7.950  -5.161  -4.942  0.00  0.00     0.162 A 
ATOM      8  C   LIG d   1       6.731  -4.959  -5.569  0.00  0.00    -0.016 A 
ATOM      9  C   LIG d   1       6.087  -3.742  -5.451  0.00  0.00    -0.053 A 
ATOM     10  H   LIG d   1       6.284  -5.753  -6.149  0.00  0.00     0.066 H 
ATOM     11  H   LIG d   1       5.136  -3.585  -5.941  0.00  0.00     0.062 H 
BRANCH   5  12
ATOM     12  O   LIG d   1       9.719  -4.331  -3.578  0.00  0.00    -0.489 OA
BRANCH  12  13
ATOM     13  C   LIG d   1       9.718  -4.333  -2.148  0.00  0.00     0.087 C 
ATOM     14  H   LIG d   1       8.821  -3.813  -1.782  0.00  0.00     0.069 H 
ATOM     15  H   LIG d   1      10.617  -3.818  -1.780  0.00  0.00     0.069 H 
BRANCH  13  16
ATOM     16  C   LIG d   1       9.713  -5.777  -1.641  0.00  0.00    -0.031 C 
ATOM     17  H   LIG d   1      10.734  -6.070  -1.358  0.00  0.00     0.026 H 
ATOM     18  H   LIG d   1       9.347  -6.444  -2.436  0.00  0.00     0.026 H 
ATOM     19  H   LIG d   1       9.052  -5.855  -0.766  0.00  0.00     0.026 H 
ENDBRANCH  13  16
ENDBRANCH  12  13
ENDBRANCH   5  12
BRANCH   7  20
ATOM     20  O   LIG d   1       8.585  -6.359  -5.057  0.00  0.00    -0.491 OA
BRANCH  20  21
ATOM     21  C   LIG d   1       7.789  -7.534  -4.894  0.00  0.00     0.079 C 
ATOM     22  H   LIG d   1       7.788  -8.109  -5.831  0.00  0.00     0.066 H 
ATOM     23  H   LIG d   1       6.758  -7.247  -4.638  0.00  0.00     0.066 H 
ATOM     24  H   LIG d   1       8.208  -8.152  -4.085  0.00  0.00     0.066 H 
ENDBRANCH  20  21
ENDBRANCH   7  20
ENDBRANCH   1   3
BRANCH   1  25
ATOM     25  C   LIG d   1       6.110  -0.867  -3.160  0.00  0.00     0.088 C 
ATOM     26  H   LIG d   1       6.721  -1.568  -2.574  0.00  0.00     0.052 H 
ATOM     27  H   LIG d   1       6.605   0.115  -3.187  0.00  0.00     0.052 H 
BRANCH  25  28
ATOM     28  S   LIG d   1       4.476  -0.701  -2.389  0.00  0.00    -0.032 S 
ATOM     29  O   LIG d   1       4.033  -1.992  -1.993  0.00  0.00    -0.174 OA
ATOM     30  O   LIG d   1       4.541   0.336  -1.420  0.00  0.00    -0.174 OA
BRANCH  28  31
ATOM     31  C   LIG d   1       3.439  -0.137  -3.766  0.00  0.00     0.054 C 
ATOM     32  H   LIG d   1       2.484   0.243  -3.374  0.00  0.00     0.046 H 
ATOM     33  H   LIG d   1       3.247  -0.977  -4.449  0.00  0.00     0.046 H 
ATOM     34  H   LIG d   1       3.958   0.667  -4.310  0.00  0.00     0.046 H 
ENDBRANCH  28  31
ENDBRANCH  25  28
ENDBRANCH   1  25
BRANCH   1  35
ATOM     35  N   LIG d   1       6.536  -0.443  -5.531  0.00  0.00    -0.225 N 
ATOM     36  C   LIG d   1       6.085  -0.234  -6.780  0.00  0.00     0.256 A 
ATOM     37  C   LIG d   1       6.921   0.798  -7.417  0.00  0.00     0.071 A 
ATOM     38  O   LIG d   1       5.145  -0.803  -7.298  0.00  0.00    -0.269 OA
ATOM     39  C   LIG d   1       7.881   1.170  -6.452  0.00  0.00     0.051 A 
ATOM     40  C   LIG d   1       6.930   1.409  -8.670  0.00  0.00     0.046 A 
ATOM     41  C   LIG d   1       7.592   0.345  -5.259  0.00  0.00     0.255 A 
ATOM     42  C   LIG d   1       8.825   2.136  -6.754  0.00  0.00    -0.049 A 
ATOM     43  O   LIG d   1       8.205   0.376  -4.211  0.00  0.00    -0.270 OA
ATOM     44  C   LIG d   1       8.824   2.737  -8.005  0.00  0.00    -0.059 A 
ATOM     45  H   LIG d   1       9.560   2.422  -6.017  0.00  0.00     0.062 H 
ATOM     46  C   LIG d   1       7.889   2.380  -8.954  0.00  0.00    -0.040 A 
ATOM     47  H   LIG d   1       9.562   3.490  -8.237  0.00  0.00     0.062 H 
ATOM     48  H   LIG d   1       7.900   2.857  -9.923  0.00  0.00     0.064 H 
BRANCH  40  49
ATOM     49  N   LIG d   1       5.989   1.051  -9.630  0.00  0.00    -0.285 N 
ATOM     50  C   LIG d   1       4.815   1.709  -9.702  0.00  0.00     0.214 C 
ATOM     51  O   LIG d   1       4.620   2.678  -8.998  0.00  0.00    -0.276 OA
ATOM     52  H   LIG d   1       6.203   0.231 -10.331  0.00  0.00     0.155 HD
BRANCH  50  53
ATOM     53  C   LIG d   1       3.746   1.242 -10.656  0.00  0.00     0.013 C 
ATOM     54  H   LIG d   1       4.164   0.478 -11.328  0.00  0.00     0.032 H 
ATOM     55  H   LIG d   1       3.386   2.094 -11.248  0.00  0.00     0.032 H 
ATOM     56  H   LIG d   1       2.909   0.811 -10.086  0.00  0.00     0.032 H 
ENDBRANCH  50  53
ENDBRANCH  40  49
ENDBRANCH   1  35
TORSDOF 12
ENDMDL
MODEL 9
REMARK VINA RESULT:      -5.4      3.066      6.193
REMARK  12 active torsions:
REMARK  status: ('A' for Active; 'I' for Inactive)
REMARK    1  A    between atoms: C_1  and  C_2 
REMARK    2  A    between atoms: C_2  and  O_3 
REMARK    3  A    between atoms: O_3  and  C_4 
REMARK    4  A    between atoms: C_6  and  C_12 
REMARK    5  A    between atoms: C_9  and  O_10 
REMARK    6  A    between atoms: O_10  and  C_11 
REMARK    7  A    between atoms: C_12  and  C_14 
REMARK    8  A    between atoms: C_12  and  N_19 
REMARK    9  A    between atoms: C_14  and  S_15 
REMARK   10  A    between atoms: S_15  and  C_18 
REMARK   11  A    between atoms: C_26  and  N_30 
REMARK       I    between atoms: N_30  and  C_31 
REMARK   12  A    between atoms: C_31  and  C_33 
ROOT
ATOM      1  C   LIG d   1       6.251  -0.788  -4.114  0.00  0.00     0.079 C 
ATOM      2  H   LIG d   1       6.271  -1.556  -3.327  0.00  0.00     0.057 H 
ENDROOT
BRANCH   1   3
ATOM      3  C   LIG d   1       7.659  -0.372  -4.458  0.00  0.00    -0.021 A 
ATOM      4  C   LIG d   1       8.065   0.931  -4.238  0.00  0.00    -0.011 A 
ATOM      5  C   LIG d   1       9.360   1.314  -4.548  0.00  0.00     0.162 A 
ATOM      6  H   LIG d   1       7.375   1.649  -3.821  0.00  0.00     0.066 H 
ATOM      7  C   LIG d   1      10.245   0.388  -5.091  0.00  0.00     0.162 A 
ATOM      8  C   LIG d   1       9.829  -0.915  -5.313  0.00  0.00    -0.016 A 
ATOM      9  C   LIG d   1       8.538  -1.292  -4.996  0.00  0.00    -0.053 A 
ATOM     10  H   LIG d   1      10.515  -1.636  -5.734  0.00  0.00     0.066 H 
ATOM     11  H   LIG d   1       8.215  -2.309  -5.169  0.00  0.00     0.062 H 
BRANCH   5  12
ATOM     12  O   LIG d   1       9.764   2.594  -4.328  0.00  0.00    -0.489 OA
BRANCH  12  13
ATOM     13  C   LIG d   1      10.243   2.906  -3.017  0.00  0.00     0.087 C 
ATOM     14  H   LIG d   1      11.320   2.691  -2.960  0.00  0.00     0.069 H 
ATOM     15  H   LIG d   1       9.706   2.296  -2.276  0.00  0.00     0.069 H 
BRANCH  13  16
ATOM     16  C   LIG d   1      10.003   4.389  -2.727  0.00  0.00    -0.031 C 
ATOM     17  H   LIG d   1      10.037   4.957  -3.668  0.00  0.00     0.026 H 
ATOM     18  H   LIG d   1      10.784   4.761  -2.046  0.00  0.00     0.026 H 
ATOM     19  H   LIG d   1       9.017   4.516  -2.256  0.00  0.00     0.026 H 
ENDBRANCH  13  16
ENDBRANCH  12  13
ENDBRANCH   5  12
BRANCH   7  20
ATOM     20  O   LIG d   1      11.516   0.761  -5.402  0.00  0.00    -0.491 OA
BRANCH  20  21
ATOM     21  C   LIG d   1      11.804   0.991  -6.783  0.00  0.00     0.079 C 
ATOM     22  H   LIG d   1      12.493   1.842  -6.876  0.00  0.00     0.066 H 
ATOM     23  H   LIG d   1      10.871   1.212  -7.321  0.00  0.00     0.066 H 
ATOM     24  H   LIG d   1      12.271   0.092  -7.214  0.00  0.00     0.066 H 
ENDBRANCH  20  21
ENDBRANCH   7  20
ENDBRANCH   1   3
BRANCH   1  25
ATOM     25  C   LIG d   1       5.451   0.437  -3.668  0.00  0.00     0.088 C 
ATOM     26  H   LIG d   1       6.131   1.173  -3.213  0.00  0.00     0.052 H 
ATOM     27  H   LIG d   1       4.954   0.888  -4.539  0.00  0.00     0.052 H 
BRANCH  25  28
ATOM     28  S   LIG d   1       4.203  -0.065  -2.451  0.00  0.00    -0.032 S 
ATOM     29  O   LIG d   1       4.630  -1.277  -1.845  0.00  0.00    -0.174 OA
ATOM     30  O   LIG d   1       3.906   1.053  -1.626  0.00  0.00    -0.174 OA
BRANCH  28  31
ATOM     31  C   LIG d   1       2.755  -0.419  -3.484  0.00  0.00     0.054 C 
ATOM     32  H   LIG d   1       2.967  -1.283  -4.129  0.00  0.00     0.046 H 
ATOM     33  H   LIG d   1       2.526   0.458  -4.107  0.00  0.00     0.046 H 
ATOM     34  H   LIG d   1       1.892  -0.645  -2.839  0.00  0.00     0.046 H 
ENDBRANCH  28  31
ENDBRANCH  25  28
ENDBRANCH   1  25
BRANCH   1  35
ATOM     35  N   LIG d   1       5.617  -1.382  -5.294  0.00  0.00    -0.225 N 
ATOM     36  C   LIG d   1       5.422  -0.739  -6.459  0.00  0.00     0.256 A 
ATOM     37  C   LIG d   1       4.765  -1.661  -7.402  0.00  0.00     0.071 A 
ATOM     38  O   LIG d   1       5.737   0.410  -6.694  0.00  0.00    -0.269 OA
ATOM     39  C   LIG d   1       4.596  -2.875  -6.703  0.00  0.00     0.051 A 
ATOM     40  C   LIG d   1       4.329  -1.557  -8.722  0.00  0.00     0.046 A 
ATOM     41  C   LIG d   1       5.158  -2.645  -5.355  0.00  0.00     0.255 A 
ATOM     42  C   LIG d   1       3.997  -3.954  -7.331  0.00  0.00    -0.049 A 
ATOM     43  O   LIG d   1       5.198  -3.461  -4.456  0.00  0.00    -0.270 OA
ATOM     44  C   LIG d   1       3.567  -3.839  -8.646  0.00  0.00    -0.059 A 
ATOM     45  H   LIG d   1       3.867  -4.884  -6.798  0.00  0.00     0.062 H 
ATOM     46  C   LIG d   1       3.729  -2.656  -9.336  0.00  0.00    -0.040 A 
ATOM     47  H   LIG d   1       3.101  -4.683  -9.131  0.00  0.00     0.062 H 
ATOM     48  H   LIG d   1       3.390  -2.582 -10.359  0.00  0.00     0.064 H 
BRANCH  40  49
ATOM     49  N   LIG d   1       4.491  -0.365  -9.421  0.00  0.00    -0.285 N 
ATOM     50  C   LIG d   1       3.521   0.569  -9.394  0.00  0.00     0.214 C 
ATOM     51  O   LIG d   1       2.552   0.417  -8.680  0.00  0.00    -0.276 OA
ATOM     52  H   LIG d   1       5.411  -0.186  -9.997  0.00  0.00     0.155 HD
BRANCH  50  53
ATOM     53  C   LIG d   1       3.639   1.803 -10.251  0.00  0.00     0.013 C 
ATOM     54  H   LIG d   1       3.441   1.540 -11.301  0.00  0.00     0.032 H 
ATOM     55  H   LIG d   1       4.653   2.217 -10.160  0.00  0.00     0.032 H 
ATOM     56  H   LIG d   1       2.906   2.553  -9.917  0.00  0.00     0.032 H 
ENDBRANCH  50  53
ENDBRANCH  40  49
ENDBRANCH   1  35
TORSDOF 12
ENDMDL
MODEL 10
REMARK VINA RESULT:      -5.4      4.021      6.918
REMARK  12 active torsions:
REMARK  status: ('A' for Active; 'I' for Inactive)
REMARK    1  A    between atoms: C_1  and  C_2 
REMARK    2  A    between atoms: C_2  and  O_3 
REMARK    3  A    between atoms: O_3  and  C_4 
REMARK    4  A    between atoms: C_6  and  C_12 
REMARK    5  A    between atoms: C_9  and  O_10 
REMARK    6  A    between atoms: O_10  and  C_11 
REMARK    7  A    between atoms: C_12  and  C_14 
REMARK    8  A    between atoms: C_12  and  N_19 
REMARK    9  A    between atoms: C_14  and  S_15 
REMARK   10  A    between atoms: S_15  and  C_18 
REMARK   11  A    between atoms: C_26  and  N_30 
REMARK       I    between atoms: N_30  and  C_31 
REMARK   12  A    between atoms: C_31  and  C_33 
ROOT
ATOM      1  C   LIG d   1       4.206  -3.882  -7.246  0.00  0.00     0.079 C 
ATOM      2  H   LIG d   1       3.416  -4.003  -6.490  0.00  0.00     0.057 H 
ENDROOT
BRANCH   1   3
ATOM      3  C   LIG d   1       3.633  -3.244  -8.486  0.00  0.00    -0.021 A 
ATOM      4  C   LIG d   1       3.296  -1.903  -8.478  0.00  0.00    -0.011 A 
ATOM      5  C   LIG d   1       2.775  -1.314  -9.618  0.00  0.00     0.162 A 
ATOM      6  H   LIG d   1       3.443  -1.315  -7.584  0.00  0.00     0.066 H 
ATOM      7  C   LIG d   1       2.582  -2.076 -10.765  0.00  0.00     0.162 A 
ATOM      8  C   LIG d   1       2.917  -3.421 -10.765  0.00  0.00    -0.016 A 
ATOM      9  C   LIG d   1       3.442  -4.001  -9.625  0.00  0.00    -0.053 A 
ATOM     10  H   LIG d   1       2.768  -4.015 -11.654  0.00  0.00     0.066 H 
ATOM     11  H   LIG d   1       3.703  -5.050  -9.626  0.00  0.00     0.062 H 
BRANCH   5  12
ATOM     12  O   LIG d   1       2.448   0.006  -9.614  0.00  0.00    -0.489 OA
BRANCH  12  13
ATOM     13  C   LIG d   1       3.485   0.930  -9.275  0.00  0.00     0.087 C 
ATOM     14  H   LIG d   1       3.963   1.299 -10.194  0.00  0.00     0.069 H 
ATOM     15  H   LIG d   1       4.235   0.426  -8.648  0.00  0.00     0.069 H 
BRANCH  13  16
ATOM     16  C   LIG d   1       2.886   2.109  -8.505  0.00  0.00    -0.031 C 
ATOM     17  H   LIG d   1       3.585   2.957  -8.530  0.00  0.00     0.026 H 
ATOM     18  H   LIG d   1       2.708   1.812  -7.460  0.00  0.00     0.026 H 
ATOM     19  H   LIG d   1       1.933   2.403  -8.968  0.00  0.00     0.026 H 
ENDBRANCH  13  16
ENDBRANCH  12  13
ENDBRANCH   5  12
BRANCH   7  20
ATOM     20  O   LIG d   1       2.065  -1.503 -11.885  0.00  0.00    -0.491 OA
BRANCH  20  21
ATOM     21  C   LIG d   1       0.707  -1.813 -12.205  0.00  0.00     0.079 C 
ATOM     22  H   LIG d   1       0.607  -1.942 -13.292  0.00  0.00     0.066 H 
ATOM     23  H   LIG d   1       0.054  -0.993 -11.871  0.00  0.00     0.066 H 
ATOM     24  H   LIG d   1       0.414  -2.745 -11.697  0.00  0.00     0.066 H 
ENDBRANCH  20  21
ENDBRANCH   7  20
ENDBRANCH   1   3
BRANCH   1  25
ATOM     25  C   LIG d   1       4.832  -5.230  -7.607  0.00  0.00     0.088 C 
ATOM     26  H   LIG d   1       4.350  -5.626  -8.513  0.00  0.00     0.052 H 
ATOM     27  H   LIG d   1       5.908  -5.097  -7.794  0.00  0.00     0.052 H 
BRANCH  25  28
ATOM     28  S   LIG d   1       4.594  -6.396  -6.238  0.00  0.00    -0.032 S 
ATOM     29  O   LIG d   1       3.945  -5.712  -5.175  0.00  0.00    -0.174 OA
ATOM     30  O   LIG d   1       4.010  -7.583  -6.756  0.00  0.00    -0.174 OA
BRANCH  28  31
ATOM     31  C   LIG d   1       6.294  -6.767  -5.727  0.00  0.00     0.054 C 
ATOM     32  H   LIG d   1       6.989  -6.483  -6.531  0.00  0.00     0.046 H 
ATOM     33  H   LIG d   1       6.389  -7.843  -5.523  0.00  0.00     0.046 H 
ATOM     34  H   LIG d   1       6.536  -6.199  -4.816  0.00  0.00     0.046 H 
ENDBRANCH  28  31
ENDBRANCH  25  28
ENDBRANCH   1  25
BRANCH   1  35
ATOM     35  N   LIG d   1       5.232  -3.005  -6.676  0.00  0.00    -0.225 N 
ATOM     36  C   LIG d   1       5.155  -2.432  -5.461  0.00  0.00     0.256 A 
ATOM     37  C   LIG d   1       6.372  -1.631  -5.239  0.00  0.00     0.071 A 
ATOM     38  O   LIG d   1       4.236  -2.556  -4.677  0.00  0.00    -0.269 OA
ATOM     39  C   LIG d   1       7.152  -1.781  -6.405  0.00  0.00     0.051 A 
ATOM     40  C   LIG d   1       6.839  -0.837  -4.194  0.00  0.00     0.046 A 
ATOM     41  C   LIG d   1       6.378  -2.671  -7.297  0.00  0.00     0.255 A 
ATOM     42  C   LIG d   1       8.375  -1.139  -6.504  0.00  0.00    -0.049 A 
ATOM     43  O   LIG d   1       6.720  -3.039  -8.402  0.00  0.00    -0.270 OA
ATOM     44  C   LIG d   1       8.830  -0.351  -5.456  0.00  0.00    -0.059 A 
ATOM     45  H   LIG d   1       8.974  -1.252  -7.396  0.00  0.00     0.062 H 
ATOM     46  C   LIG d   1       8.073  -0.199  -4.313  0.00  0.00    -0.040 A 
ATOM     47  H   LIG d   1       9.783   0.149  -5.538  0.00  0.00     0.062 H 
ATOM     48  H   LIG d   1       8.440   0.417  -3.505  0.00  0.00     0.064 H 
BRANCH  40  49
ATOM     49  N   LIG d   1       6.078  -0.681  -3.039  0.00  0.00    -0.285 N 
ATOM     50  C   LIG d   1       5.240   0.367  -2.920  0.00  0.00     0.214 C 
ATOM     51  O   LIG d   1       5.072   1.118  -3.858  0.00  0.00    -0.276 OA
ATOM     52  H   LIG d   1       6.161  -1.414  -2.223  0.00  0.00     0.155 HD
BRANCH  50  53
ATOM     53  C   LIG d   1       4.512   0.606  -1.622  0.00  0.00     0.013 C 
ATOM     54  H   LIG d   1       5.030   0.077  -0.809  0.00  0.00     0.032 H 
ATOM     55  H   LIG d   1       3.482   0.231  -1.706  0.00  0.00     0.032 H 
ATOM     56  H   LIG d   1       4.493   1.685  -1.406  0.00  0.00     0.032 H 
ENDBRANCH  50  53
ENDBRANCH  40  49
ENDBRANCH   1  35
TORSDOF 12
ENDMDL
