MODEL 1
REMARK VINA RESULT:      -7.1      0.000      0.000
REMARK  9 active torsions:
REMARK  status: ('A' for Active; 'I' for Inactive)
REMARK    1  A    between atoms: C_1  and  C_2 
REMARK    2  A    between atoms: C_5  and  O_34 
REMARK    3  A    between atoms: C_7  and  C_31 
REMARK    4  A    between atoms: C_7  and  C_32 
REMARK    5  A    between atoms: C_12  and  O_30 
REMARK    6  A    between atoms: C_14  and  C_16 
REMARK    7  A    between atoms: C_16  and  C_17 
REMARK       I    between atoms: C_17  and  N_19 
REMARK    8  A    between atoms: N_19  and  C_20 
REMARK    9  A    between atoms: C_32  and  O_33 
ROOT
ATOM      1  C   LIG d   1       9.906   3.439  -4.979  0.00  0.00    -0.023 C 
ATOM      2  C   LIG d   1       9.386   3.285  -3.548  0.00  0.00    -0.045 C 
ATOM      3  C   LIG d   1      10.025   4.351  -2.656  0.00  0.00    -0.026 C 
ATOM      4  C   LIG d   1       9.663   5.742  -3.183  0.00  0.00     0.063 C 
ATOM      5  H   LIG d   1       8.580   5.862  -3.174  0.00  0.00     0.060 H 
ATOM      6  C   LIG d   1      10.182   5.895  -4.614  0.00  0.00     0.020 C 
ATOM      7  C   LIG d   1       9.544   4.829  -5.506  0.00  0.00    -0.025 C 
ATOM      8  H   LIG d   1       8.461   4.949  -5.497  0.00  0.00     0.031 H 
ATOM      9  C   LIG d   1      10.063   4.983  -6.937  0.00  0.00    -0.047 C 
ATOM     10  C   LIG d   1       9.425   3.917  -7.829  0.00  0.00    -0.026 C 
ATOM     11  C   LIG d   1       9.787   2.527  -7.301  0.00  0.00     0.059 C 
ATOM     12  H   LIG d   1       9.332   1.767  -7.937  0.00  0.00     0.060 H 
ATOM     13  C   LIG d   1       9.267   2.372  -5.871  0.00  0.00    -0.001 C 
ATOM     14  H   LIG d   1       8.184   2.493  -5.862  0.00  0.00     0.034 H 
ATOM     15  H   LIG d   1       9.645   2.295  -3.172  0.00  0.00     0.027 H 
ATOM     16  H   LIG d   1       8.303   3.405  -3.539  0.00  0.00     0.027 H 
ATOM     17  H   LIG d   1      11.108   4.231  -2.664  0.00  0.00     0.029 H 
ATOM     18  H   LIG d   1       9.655   4.242  -1.636  0.00  0.00     0.029 H 
ATOM     19  H   LIG d   1      11.146   4.862  -6.944  0.00  0.00     0.027 H 
ATOM     20  H   LIG d   1       9.805   5.973  -7.312  0.00  0.00     0.027 H 
ATOM     21  H   LIG d   1       9.795   4.026  -8.848  0.00  0.00     0.029 H 
ATOM     22  H   LIG d   1       8.342   4.037  -7.820  0.00  0.00     0.029 H 
ENDROOT
BRANCH  13  23
ATOM     23  C   LIG d   1       9.630   0.983  -5.343  0.00  0.00     0.030 C 
ATOM     24  H   LIG d   1      10.085   1.076  -4.357  0.00  0.00     0.036 H 
ATOM     25  H   LIG d   1      10.336   0.508  -6.025  0.00  0.00     0.036 H 
BRANCH  23  26
ATOM     26  C   LIG d   1       8.383   0.142  -5.244  0.00  0.00     0.218 C 
ATOM     27  O   LIG d   1       7.638   0.049  -6.196  0.00  0.00    -0.276 OA
ATOM     28  N   LIG d   1       8.096  -0.505  -4.097  0.00  0.00    -0.285 N 
ATOM     29  H   LIG d   1       8.731  -0.496  -3.363  0.00  0.00     0.155 HD
BRANCH  28  30
ATOM     30  C   LIG d   1       6.887  -1.189  -3.966  0.00  0.00     0.041 A 
ATOM     31  C   LIG d   1       5.769  -0.553  -3.383  0.00  0.00     0.003 A 
ATOM     32  C   LIG d   1       4.551  -1.267  -3.260  0.00  0.00    -0.016 A 
ATOM     33  C   LIG d   1       5.842   0.772  -2.924  0.00  0.00    -0.052 A 
ATOM     34  C   LIG d   1       4.477  -2.593  -3.719  0.00  0.00    -0.054 A 
ATOM     35  C   LIG d   1       3.438  -0.632  -2.681  0.00  0.00    -0.054 A 
ATOM     36  C   LIG d   1       5.571  -3.181  -4.277  0.00  0.00    -0.059 A 
ATOM     37  H   LIG d   1       3.553  -3.144  -3.630  0.00  0.00     0.062 H 
ATOM     38  C   LIG d   1       6.771  -2.489  -4.408  0.00  0.00    -0.040 A 
ATOM     39  H   LIG d   1       5.505  -4.200  -4.626  0.00  0.00     0.062 H 
ATOM     40  H   LIG d   1       7.623  -2.977  -4.857  0.00  0.00     0.064 H 
ATOM     41  C   LIG d   1       3.546   0.652  -2.247  0.00  0.00    -0.061 A 
ATOM     42  H   LIG d   1       2.503  -1.163  -2.581  0.00  0.00     0.062 H 
ATOM     43  C   LIG d   1       4.744   1.354  -2.368  0.00  0.00    -0.061 A 
ATOM     44  H   LIG d   1       2.689   1.137  -1.801  0.00  0.00     0.062 H 
ATOM     45  H   LIG d   1       4.803   2.372  -2.016  0.00  0.00     0.062 H 
ATOM     46  H   LIG d   1       6.765   1.326  -3.011  0.00  0.00     0.062 H 
ENDBRANCH  28  30
ENDBRANCH  23  26
ENDBRANCH  13  23
BRANCH   1  47
ATOM     47  C   LIG d   1      11.426   3.270  -4.990  0.00  0.00    -0.059 C 
ATOM     48  H   LIG d   1      11.901   4.247  -4.905  0.00  0.00     0.024 H 
ATOM     49  H   LIG d   1      11.729   2.644  -4.151  0.00  0.00     0.024 H 
ATOM     50  H   LIG d   1      11.733   2.798  -5.924  0.00  0.00     0.024 H 
ENDBRANCH   1  47
BRANCH  11  51
ATOM     51  O   LIG d   1      11.207   2.369  -7.312  0.00  0.00    -0.392 OA
ATOM     52  H   LIG d   1      11.500   1.448  -7.347  0.00  0.00     0.210 HD
ENDBRANCH  11  51
BRANCH   6  53
ATOM     53  C   LIG d   1       9.820   7.285  -5.141  0.00  0.00    -0.055 C 
ATOM     54  H   LIG d   1      10.355   8.042  -4.567  0.00  0.00     0.024 H 
ATOM     55  H   LIG d   1      10.102   7.360  -6.192  0.00  0.00     0.024 H 
ATOM     56  H   LIG d   1       8.747   7.444  -5.040  0.00  0.00     0.024 H 
ENDBRANCH   6  53
BRANCH   6  57
ATOM     57  C   LIG d   1      11.703   5.726  -4.625  0.00  0.00     0.052 C 
ATOM     58  H   LIG d   1      11.996   5.019  -3.848  0.00  0.00     0.056 H 
ATOM     59  H   LIG d   1      12.019   5.349  -5.598  0.00  0.00     0.056 H 
BRANCH  57  60
ATOM     60  O   LIG d   1      12.325   6.990  -4.380  0.00  0.00    -0.394 OA
ATOM     61  H   LIG d   1      12.933   7.270  -5.078  0.00  0.00     0.209 HD
ENDBRANCH  57  60
ENDBRANCH   6  57
BRANCH   4  62
ATOM     62  O   LIG d   1      10.259   6.738  -2.349  0.00  0.00    -0.391 OA
ATOM     63  H   LIG d   1      10.089   6.614  -1.406  0.00  0.00     0.210 HD
ENDBRANCH   4  62
TORSDOF 9
ENDMDL
MODEL 2
REMARK VINA RESULT:      -6.8      0.852      2.111
REMARK  9 active torsions:
REMARK  status: ('A' for Active; 'I' for Inactive)
REMARK    1  A    between atoms: C_1  and  C_2 
REMARK    2  A    between atoms: C_5  and  O_34 
REMARK    3  A    between atoms: C_7  and  C_31 
REMARK    4  A    between atoms: C_7  and  C_32 
REMARK    5  A    between atoms: C_12  and  O_30 
REMARK    6  A    between atoms: C_14  and  C_16 
REMARK    7  A    between atoms: C_16  and  C_17 
REMARK       I    between atoms: C_17  and  N_19 
REMARK    8  A    between atoms: N_19  and  C_20 
REMARK    9  A    between atoms: C_32  and  O_33 
ROOT
ATOM      1  C   LIG d   1      10.083   4.060  -4.628  0.00  0.00    -0.023 C 
ATOM      2  C   LIG d   1       9.556   3.919  -3.199  0.00  0.00    -0.045 C 
ATOM      3  C   LIG d   1      10.403   4.775  -2.256  0.00  0.00    -0.026 C 
ATOM      4  C   LIG d   1      10.324   6.241  -2.687  0.00  0.00     0.063 C 
ATOM      5  H   LIG d   1       9.287   6.575  -2.647  0.00  0.00     0.060 H 
ATOM      6  C   LIG d   1      10.851   6.382  -4.116  0.00  0.00     0.020 C 
ATOM      7  C   LIG d   1      10.003   5.525  -5.060  0.00  0.00    -0.025 C 
ATOM      8  H   LIG d   1       8.966   5.859  -5.019  0.00  0.00     0.031 H 
ATOM      9  C   LIG d   1      10.530   5.666  -6.489  0.00  0.00    -0.047 C 
ATOM     10  C   LIG d   1       9.682   4.810  -7.432  0.00  0.00    -0.026 C 
ATOM     11  C   LIG d   1       9.762   3.345  -7.000  0.00  0.00     0.059 C 
ATOM     12  H   LIG d   1       9.159   2.735  -7.672  0.00  0.00     0.060 H 
ATOM     13  C   LIG d   1       9.235   3.203  -5.571  0.00  0.00    -0.001 C 
ATOM     14  H   LIG d   1       8.198   3.537  -5.531  0.00  0.00     0.034 H 
ATOM     15  H   LIG d   1       9.614   2.875  -2.892  0.00  0.00     0.027 H 
ATOM     16  H   LIG d   1       8.519   4.253  -3.159  0.00  0.00     0.027 H 
ATOM     17  H   LIG d   1      11.441   4.441  -2.295  0.00  0.00     0.029 H 
ATOM     18  H   LIG d   1      10.029   4.675  -1.237  0.00  0.00     0.029 H 
ATOM     19  H   LIG d   1      11.566   5.332  -6.528  0.00  0.00     0.027 H 
ATOM     20  H   LIG d   1      10.472   6.711  -6.796  0.00  0.00     0.027 H 
ATOM     21  H   LIG d   1      10.058   4.910  -8.450  0.00  0.00     0.029 H 
ATOM     22  H   LIG d   1       8.646   5.144  -7.391  0.00  0.00     0.029 H 
ENDROOT
BRANCH  13  23
ATOM     23  C   LIG d   1       9.316   1.737  -5.140  0.00  0.00     0.030 C 
ATOM     24  H   LIG d   1       9.966   1.650  -4.269  0.00  0.00     0.036 H 
ATOM     25  H   LIG d   1       9.722   1.140  -5.956  0.00  0.00     0.036 H 
BRANCH  23  26
ATOM     26  C   LIG d   1       7.937   1.241  -4.789  0.00  0.00     0.218 C 
ATOM     27  O   LIG d   1       7.038   1.329  -5.597  0.00  0.00    -0.276 OA
ATOM     28  N   LIG d   1       7.704   0.700  -3.576  0.00  0.00    -0.285 N 
ATOM     29  H   LIG d   1       8.439   0.557  -2.960  0.00  0.00     0.155 HD
BRANCH  28  30
ATOM     30  C   LIG d   1       6.405   0.346  -3.209  0.00  0.00     0.041 A 
ATOM     31  C   LIG d   1       5.901  -0.935  -3.523  0.00  0.00     0.003 A 
ATOM     32  C   LIG d   1       4.579  -1.273  -3.140  0.00  0.00    -0.016 A 
ATOM     33  C   LIG d   1       6.684  -1.878  -4.207  0.00  0.00    -0.052 A 
ATOM     34  C   LIG d   1       3.794  -0.330  -2.456  0.00  0.00    -0.054 A 
ATOM     35  C   LIG d   1       4.078  -2.549  -3.452  0.00  0.00    -0.054 A 
ATOM     36  C   LIG d   1       4.307   0.898  -2.166  0.00  0.00    -0.059 A 
ATOM     37  H   LIG d   1       2.786  -0.579  -2.159  0.00  0.00     0.062 H 
ATOM     38  C   LIG d   1       5.604   1.240  -2.531  0.00  0.00    -0.040 A 
ATOM     39  H   LIG d   1       3.696   1.617  -1.639  0.00  0.00     0.062 H 
ATOM     40  H   LIG d   1       5.988   2.219  -2.287  0.00  0.00     0.064 H 
ATOM     41  C   LIG d   1       4.865  -3.438  -4.117  0.00  0.00    -0.061 A 
ATOM     42  H   LIG d   1       3.073  -2.822  -3.166  0.00  0.00     0.062 H 
ATOM     43  C   LIG d   1       6.165  -3.104  -4.493  0.00  0.00    -0.061 A 
ATOM     44  H   LIG d   1       4.477  -4.417  -4.356  0.00  0.00     0.062 H 
ATOM     45  H   LIG d   1       6.769  -3.828  -5.019  0.00  0.00     0.062 H 
ATOM     46  H   LIG d   1       7.692  -1.633  -4.505  0.00  0.00     0.062 H 
ENDBRANCH  28  30
ENDBRANCH  23  26
ENDBRANCH  13  23
BRANCH   1  47
ATOM     47  C   LIG d   1      11.538   3.592  -4.683  0.00  0.00    -0.059 C 
ATOM     48  H   LIG d   1      11.610   2.579  -4.289  0.00  0.00     0.024 H 
ATOM     49  H   LIG d   1      11.886   3.605  -5.717  0.00  0.00     0.024 H 
ATOM     50  H   LIG d   1      12.158   4.259  -4.084  0.00  0.00     0.024 H 
ENDBRANCH   1  47
BRANCH  11  51
ATOM     51  O   LIG d   1      11.122   2.907  -7.052  0.00  0.00    -0.392 OA
ATOM     52  H   LIG d   1      11.691   3.311  -6.384  0.00  0.00     0.210 HD
ENDBRANCH  11  51
BRANCH   6  53
ATOM     53  C   LIG d   1      10.771   7.847  -4.548  0.00  0.00    -0.055 C 
ATOM     54  H   LIG d   1      10.896   7.915  -5.629  0.00  0.00     0.024 H 
ATOM     55  H   LIG d   1       9.799   8.255  -4.270  0.00  0.00     0.024 H 
ATOM     56  H   LIG d   1      11.558   8.416  -4.054  0.00  0.00     0.024 H 
ENDBRANCH   6  53
BRANCH   6  57
ATOM     57  C   LIG d   1      12.306   5.913  -4.172  0.00  0.00     0.052 C 
ATOM     58  H   LIG d   1      12.457   5.110  -3.450  0.00  0.00     0.056 H 
ATOM     59  H   LIG d   1      12.532   5.548  -5.174  0.00  0.00     0.056 H 
BRANCH  57  60
ATOM     60  O   LIG d   1      13.171   7.006  -3.857  0.00  0.00    -0.394 OA
ATOM     61  H   LIG d   1      12.745   7.711  -3.350  0.00  0.00     0.209 HD
ENDBRANCH  57  60
ENDBRANCH   6  57
BRANCH   4  62
ATOM     62  O   LIG d   1      11.115   7.041  -1.806  0.00  0.00    -0.391 OA
ATOM     63  H   LIG d   1      11.684   6.530  -1.214  0.00  0.00     0.210 HD
ENDBRANCH   4  62
TORSDOF 9
ENDMDL
MODEL 3
REMARK VINA RESULT:      -6.5      4.105      7.897
REMARK  9 active torsions:
REMARK  status: ('A' for Active; 'I' for Inactive)
REMARK    1  A    between atoms: C_1  and  C_2 
REMARK    2  A    between atoms: C_5  and  O_34 
REMARK    3  A    between atoms: C_7  and  C_31 
REMARK    4  A    between atoms: C_7  and  C_32 
REMARK    5  A    between atoms: C_12  and  O_30 
REMARK    6  A    between atoms: C_14  and  C_16 
REMARK    7  A    between atoms: C_16  and  C_17 
REMARK       I    between atoms: C_17  and  N_19 
REMARK    8  A    between atoms: N_19  and  C_20 
REMARK    9  A    between atoms: C_32  and  O_33 
ROOT
ATOM      1  C   LIG d   1       6.725  -0.601  -4.311  0.00  0.00    -0.023 C 
ATOM      2  C   LIG d   1       6.954   0.670  -3.492  0.00  0.00    -0.045 C 
ATOM      3  C   LIG d   1       5.604   1.262  -3.081  0.00  0.00    -0.026 C 
ATOM      4  C   LIG d   1       4.836   0.243  -2.237  0.00  0.00     0.063 C 
ATOM      5  H   LIG d   1       5.414   0.002  -1.345  0.00  0.00     0.060 H 
ATOM      6  C   LIG d   1       4.608  -1.029  -3.055  0.00  0.00     0.020 C 
ATOM      7  C   LIG d   1       5.958  -1.620  -3.467  0.00  0.00    -0.025 C 
ATOM      8  H   LIG d   1       6.536  -1.861  -2.575  0.00  0.00     0.031 H 
ATOM      9  C   LIG d   1       5.729  -2.892  -4.286  0.00  0.00    -0.047 C 
ATOM     10  C   LIG d   1       7.078  -3.484  -4.697  0.00  0.00    -0.026 C 
ATOM     11  C   LIG d   1       7.846  -2.465  -5.541  0.00  0.00     0.059 C 
ATOM     12  H   LIG d   1       8.807  -2.885  -5.834  0.00  0.00     0.060 H 
ATOM     13  C   LIG d   1       8.075  -1.193  -4.723  0.00  0.00    -0.001 C 
ATOM     14  H   LIG d   1       8.653  -1.433  -3.831  0.00  0.00     0.034 H 
ATOM     15  H   LIG d   1       7.500   1.397  -4.095  0.00  0.00     0.027 H 
ATOM     16  H   LIG d   1       7.532   0.430  -2.600  0.00  0.00     0.027 H 
ATOM     17  H   LIG d   1       5.026   1.504  -3.974  0.00  0.00     0.029 H 
ATOM     18  H   LIG d   1       5.766   2.169  -2.498  0.00  0.00     0.029 H 
ATOM     19  H   LIG d   1       5.151  -2.651  -5.177  0.00  0.00     0.027 H 
ATOM     20  H   LIG d   1       5.183  -3.619  -3.684  0.00  0.00     0.027 H 
ATOM     21  H   LIG d   1       6.916  -4.389  -5.281  0.00  0.00     0.029 H 
ATOM     22  H   LIG d   1       7.656  -3.724  -3.805  0.00  0.00     0.029 H 
ENDROOT
BRANCH  13  23
ATOM     23  C   LIG d   1       8.842  -0.173  -5.568  0.00  0.00     0.030 C 
ATOM     24  H   LIG d   1       8.708   0.823  -5.146  0.00  0.00     0.036 H 
ATOM     25  H   LIG d   1       8.462  -0.188  -6.589  0.00  0.00     0.036 H 
BRANCH  23  26
ATOM     26  C   LIG d   1      10.307  -0.525  -5.571  0.00  0.00     0.218 C 
ATOM     27  O   LIG d   1      10.858  -0.817  -6.610  0.00  0.00    -0.276 OA
ATOM     28  N   LIG d   1      11.005  -0.515  -4.416  0.00  0.00    -0.285 N 
ATOM     29  H   LIG d   1      10.585  -0.205  -3.599  0.00  0.00     0.155 HD
BRANCH  28  30
ATOM     30  C   LIG d   1      12.330  -0.951  -4.399  0.00  0.00     0.041 A 
ATOM     31  C   LIG d   1      12.634  -2.297  -4.101  0.00  0.00     0.003 A 
ATOM     32  C   LIG d   1      13.987  -2.717  -4.090  0.00  0.00    -0.016 A 
ATOM     33  C   LIG d   1      11.620  -3.226  -3.817  0.00  0.00    -0.052 A 
ATOM     34  C   LIG d   1      15.002  -1.788  -4.374  0.00  0.00    -0.054 A 
ATOM     35  C   LIG d   1      14.288  -4.058  -3.794  0.00  0.00    -0.054 A 
ATOM     36  C   LIG d   1      14.680  -0.496  -4.658  0.00  0.00    -0.059 A 
ATOM     37  H   LIG d   1      16.036  -2.099  -4.368  0.00  0.00     0.062 H 
ATOM     38  C   LIG d   1      13.355  -0.072  -4.678  0.00  0.00    -0.040 A 
ATOM     39  H   LIG d   1      15.467   0.212  -4.875  0.00  0.00     0.062 H 
ATOM     40  H   LIG d   1      13.126   0.957  -4.910  0.00  0.00     0.064 H 
ATOM     41  C   LIG d   1      13.280  -4.930  -3.522  0.00  0.00    -0.061 A 
ATOM     42  H   LIG d   1      15.315  -4.393  -3.782  0.00  0.00     0.062 H 
ATOM     43  C   LIG d   1      11.949  -4.516  -3.534  0.00  0.00    -0.061 A 
ATOM     44  H   LIG d   1      13.515  -5.960  -3.294  0.00  0.00     0.062 H 
ATOM     45  H   LIG d   1      11.169  -5.229  -3.315  0.00  0.00     0.062 H 
ATOM     46  H   LIG d   1      10.585  -2.918  -3.822  0.00  0.00     0.062 H 
ENDBRANCH  28  30
ENDBRANCH  23  26
ENDBRANCH  13  23
BRANCH   1  47
ATOM     47  C   LIG d   1       5.913  -0.263  -5.563  0.00  0.00    -0.059 C 
ATOM     48  H   LIG d   1       6.580   0.113  -6.339  0.00  0.00     0.024 H 
ATOM     49  H   LIG d   1       5.407  -1.159  -5.921  0.00  0.00     0.024 H 
ATOM     50  H   LIG d   1       5.173   0.500  -5.321  0.00  0.00     0.024 H 
ENDBRANCH   1  47
BRANCH  11  51
ATOM     51  O   LIG d   1       7.088  -2.148  -6.711  0.00  0.00    -0.392 OA
ATOM     52  H   LIG d   1       7.214  -2.769  -7.441  0.00  0.00     0.210 HD
ENDBRANCH  11  51
BRANCH   6  53
ATOM     53  C   LIG d   1       3.840  -2.048  -2.211  0.00  0.00    -0.055 C 
ATOM     54  H   LIG d   1       3.852  -1.736  -1.166  0.00  0.00     0.024 H 
ATOM     55  H   LIG d   1       2.809  -2.107  -2.561  0.00  0.00     0.024 H 
ATOM     56  H   LIG d   1       4.312  -3.026  -2.303  0.00  0.00     0.024 H 
ENDBRANCH   6  53
BRANCH   6  57
ATOM     57  C   LIG d   1       3.797  -0.690  -4.308  0.00  0.00     0.052 C 
ATOM     58  H   LIG d   1       4.005   0.337  -4.609  0.00  0.00     0.056 H 
ATOM     59  H   LIG d   1       4.073  -1.370  -5.115  0.00  0.00     0.056 H 
BRANCH  57  60
ATOM     60  O   LIG d   1       2.402  -0.831  -4.025  0.00  0.00    -0.394 OA
ATOM     61  H   LIG d   1       2.002  -0.047  -3.624  0.00  0.00     0.209 HD
ENDBRANCH  57  60
ENDBRANCH   6  57
BRANCH   4  62
ATOM     62  O   LIG d   1       3.576   0.796  -1.852  0.00  0.00    -0.391 OA
ATOM     63  H   LIG d   1       3.601   1.745  -1.670  0.00  0.00     0.210 HD
ENDBRANCH   4  62
TORSDOF 9
ENDMDL
MODEL 4
REMARK VINA RESULT:      -6.4      4.839      7.820
REMARK  9 active torsions:
REMARK  status: ('A' for Active; 'I' for Inactive)
REMARK    1  A    between atoms: C_1  and  C_2 
REMARK    2  A    between atoms: C_5  and  O_34 
REMARK    3  A    between atoms: C_7  and  C_31 
REMARK    4  A    between atoms: C_7  and  C_32 
REMARK    5  A    between atoms: C_12  and  O_30 
REMARK    6  A    between atoms: C_14  and  C_16 
REMARK    7  A    between atoms: C_16  and  C_17 
REMARK       I    between atoms: C_17  and  N_19 
REMARK    8  A    between atoms: N_19  and  C_20 
REMARK    9  A    between atoms: C_32  and  O_33 
ROOT
ATOM      1  C   LIG d   1       6.325  -1.087  -4.215  0.00  0.00    -0.023 C 
ATOM      2  C   LIG d   1       6.889  -0.027  -3.268  0.00  0.00    -0.045 C 
ATOM      3  C   LIG d   1       5.820   1.033  -2.994  0.00  0.00    -0.026 C 
ATOM      4  C   LIG d   1       4.599   0.371  -2.350  0.00  0.00     0.063 C 
ATOM      5  H   LIG d   1       4.894  -0.099  -1.412  0.00  0.00     0.060 H 
ATOM      6  C   LIG d   1       4.035  -0.690  -3.297  0.00  0.00     0.020 C 
ATOM      7  C   LIG d   1       5.105  -1.749  -3.571  0.00  0.00    -0.025 C 
ATOM      8  H   LIG d   1       5.400  -2.219  -2.633  0.00  0.00     0.031 H 
ATOM      9  C   LIG d   1       4.542  -2.810  -4.518  0.00  0.00    -0.047 C 
ATOM     10  C   LIG d   1       5.611  -3.869  -4.793  0.00  0.00    -0.026 C 
ATOM     11  C   LIG d   1       6.831  -3.207  -5.436  0.00  0.00     0.059 C 
ATOM     12  H   LIG d   1       7.593  -3.961  -5.632  0.00  0.00     0.060 H 
ATOM     13  C   LIG d   1       7.395  -2.147  -4.489  0.00  0.00    -0.001 C 
ATOM     14  H   LIG d   1       7.690  -2.616  -3.551  0.00  0.00     0.034 H 
ATOM     15  H   LIG d   1       7.758   0.445  -3.727  0.00  0.00     0.027 H 
ATOM     16  H   LIG d   1       7.184  -0.496  -2.330  0.00  0.00     0.027 H 
ATOM     17  H   LIG d   1       5.525   1.503  -3.932  0.00  0.00     0.029 H 
ATOM     18  H   LIG d   1       6.221   1.789  -2.319  0.00  0.00     0.029 H 
ATOM     19  H   LIG d   1       4.247  -2.340  -5.456  0.00  0.00     0.027 H 
ATOM     20  H   LIG d   1       3.672  -3.282  -4.059  0.00  0.00     0.027 H 
ATOM     21  H   LIG d   1       5.210  -4.625  -5.468  0.00  0.00     0.029 H 
ATOM     22  H   LIG d   1       5.906  -4.339  -3.855  0.00  0.00     0.029 H 
ENDROOT
BRANCH  13  23
ATOM     23  C   LIG d   1       8.615  -1.484  -5.134  0.00  0.00     0.030 C 
ATOM     24  H   LIG d   1       8.844  -0.556  -4.609  0.00  0.00     0.036 H 
ATOM     25  H   LIG d   1       8.400  -1.266  -6.179  0.00  0.00     0.036 H 
BRANCH  23  26
ATOM     26  C   LIG d   1       9.796  -2.415  -5.046  0.00  0.00     0.218 C 
ATOM     27  O   LIG d   1      10.232  -2.938  -6.049  0.00  0.00    -0.276 OA
ATOM     28  N   LIG d   1      10.368  -2.668  -3.851  0.00  0.00    -0.285 N 
ATOM     29  H   LIG d   1      10.071  -2.190  -3.061  0.00  0.00     0.155 HD
BRANCH  28  30
ATOM     30  C   LIG d   1      11.386  -3.617  -3.752  0.00  0.00     0.041 A 
ATOM     31  C   LIG d   1      11.117  -4.897  -3.223  0.00  0.00     0.003 A 
ATOM     32  C   LIG d   1      12.167  -5.845  -3.131  0.00  0.00    -0.016 A 
ATOM     33  C   LIG d   1       9.830  -5.249  -2.785  0.00  0.00    -0.052 A 
ATOM     34  C   LIG d   1      13.456  -5.494  -3.568  0.00  0.00    -0.054 A 
ATOM     35  C   LIG d   1      11.898  -7.121  -2.605  0.00  0.00    -0.054 A 
ATOM     36  C   LIG d   1      13.686  -4.251  -4.074  0.00  0.00    -0.059 A 
ATOM     37  H   LIG d   1      14.262  -6.209  -3.503  0.00  0.00     0.062 H 
ATOM     38  C   LIG d   1      12.663  -3.314  -4.174  0.00  0.00    -0.040 A 
ATOM     39  H   LIG d   1      14.680  -3.990  -4.408  0.00  0.00     0.062 H 
ATOM     40  H   LIG d   1      12.871  -2.336  -4.583  0.00  0.00     0.064 H 
ATOM     41  C   LIG d   1      10.639  -7.426  -2.191  0.00  0.00    -0.061 A 
ATOM     42  H   LIG d   1      12.688  -7.854  -2.530  0.00  0.00     0.062 H 
ATOM     43  C   LIG d   1       9.607  -6.494  -2.281  0.00  0.00    -0.061 A 
ATOM     44  H   LIG d   1      10.435  -8.407  -1.786  0.00  0.00     0.062 H 
ATOM     45  H   LIG d   1       8.617  -6.762  -1.945  0.00  0.00     0.062 H 
ATOM     46  H   LIG d   1       9.022  -4.536  -2.849  0.00  0.00     0.062 H 
ENDBRANCH  28  30
ENDBRANCH  23  26
ENDBRANCH  13  23
BRANCH   1  47
ATOM     47  C   LIG d   1       5.911  -0.427  -5.531  0.00  0.00    -0.059 C 
ATOM     48  H   LIG d   1       5.050  -0.950  -5.946  0.00  0.00     0.024 H 
ATOM     49  H   LIG d   1       5.651   0.616  -5.349  0.00  0.00     0.024 H 
ATOM     50  H   LIG d   1       6.740  -0.476  -6.239  0.00  0.00     0.024 H 
ENDBRANCH   1  47
BRANCH  11  51
ATOM     51  O   LIG d   1       6.445  -2.591  -6.666  0.00  0.00    -0.392 OA
ATOM     52  H   LIG d   1       6.160  -1.672  -6.573  0.00  0.00     0.210 HD
ENDBRANCH  11  51
BRANCH   6  53
ATOM     53  C   LIG d   1       2.816  -1.352  -2.653  0.00  0.00    -0.055 C 
ATOM     54  H   LIG d   1       2.775  -1.088  -1.596  0.00  0.00     0.024 H 
ATOM     55  H   LIG d   1       1.909  -1.004  -3.150  0.00  0.00     0.024 H 
ATOM     56  H   LIG d   1       2.893  -2.434  -2.754  0.00  0.00     0.024 H 
ENDBRANCH   6  53
BRANCH   6  57
ATOM     57  C   LIG d   1       3.622  -0.030  -4.614  0.00  0.00     0.052 C 
ATOM     58  H   LIG d   1       4.023   0.983  -4.654  0.00  0.00     0.056 H 
ATOM     59  H   LIG d   1       4.015  -0.610  -5.450  0.00  0.00     0.056 H 
BRANCH  57  60
ATOM     60  O   LIG d   1       2.196   0.017  -4.696  0.00  0.00    -0.394 OA
ATOM     61  H   LIG d   1       1.832   0.913  -4.708  0.00  0.00     0.209 HD
ENDBRANCH  57  60
ENDBRANCH   6  57
BRANCH   4  62
ATOM     62  O   LIG d   1       3.600   1.360  -2.093  0.00  0.00    -0.391 OA
ATOM     63  H   LIG d   1       2.989   1.503  -2.829  0.00  0.00     0.210 HD
ENDBRANCH   4  62
TORSDOF 9
ENDMDL
MODEL 5
REMARK VINA RESULT:      -6.4      5.882      9.158
REMARK  9 active torsions:
REMARK  status: ('A' for Active; 'I' for Inactive)
REMARK    1  A    between atoms: C_1  and  C_2 
REMARK    2  A    between atoms: C_5  and  O_34 
REMARK    3  A    between atoms: C_7  and  C_31 
REMARK    4  A    between atoms: C_7  and  C_32 
REMARK    5  A    between atoms: C_12  and  O_30 
REMARK    6  A    between atoms: C_14  and  C_16 
REMARK    7  A    between atoms: C_16  and  C_17 
REMARK       I    between atoms: C_17  and  N_19 
REMARK    8  A    between atoms: N_19  and  C_20 
REMARK    9  A    between atoms: C_32  and  O_33 
ROOT
ATOM      1  C   LIG d   1       3.213  -1.325 -10.266  0.00  0.00    -0.023 C 
ATOM      2  C   LIG d   1       2.441  -2.565  -9.812  0.00  0.00    -0.045 C 
ATOM      3  C   LIG d   1       2.004  -3.371 -11.037  0.00  0.00    -0.026 C 
ATOM      4  C   LIG d   1       3.239  -3.801 -11.832  0.00  0.00     0.063 C 
ATOM      5  H   LIG d   1       3.879  -4.417 -11.201  0.00  0.00     0.060 H 
ATOM      6  C   LIG d   1       4.011  -2.561 -12.285  0.00  0.00     0.020 C 
ATOM      7  C   LIG d   1       4.448  -1.755 -11.060  0.00  0.00    -0.025 C 
ATOM      8  H   LIG d   1       5.088  -2.371 -10.429  0.00  0.00     0.031 H 
ATOM      9  C   LIG d   1       5.219  -0.514 -11.514  0.00  0.00    -0.047 C 
ATOM     10  C   LIG d   1       5.656   0.291 -10.289  0.00  0.00    -0.026 C 
ATOM     11  C   LIG d   1       4.421   0.721  -9.495  0.00  0.00     0.059 C 
ATOM     12  H   LIG d   1       4.732   1.295  -8.622  0.00  0.00     0.060 H 
ATOM     13  C   LIG d   1       3.649  -0.519  -9.040  0.00  0.00    -0.001 C 
ATOM     14  H   LIG d   1       4.289  -1.135  -8.410  0.00  0.00     0.034 H 
ATOM     15  H   LIG d   1       1.561  -2.258  -9.246  0.00  0.00     0.027 H 
ATOM     16  H   LIG d   1       3.081  -3.181  -9.181  0.00  0.00     0.027 H 
ATOM     17  H   LIG d   1       1.363  -2.755 -11.668  0.00  0.00     0.029 H 
ATOM     18  H   LIG d   1       1.453  -4.255 -10.714  0.00  0.00     0.029 H 
ATOM     19  H   LIG d   1       4.579   0.101 -12.144  0.00  0.00     0.027 H 
ATOM     20  H   LIG d   1       6.100  -0.821 -12.080  0.00  0.00     0.027 H 
ATOM     21  H   LIG d   1       6.205   1.175 -10.612  0.00  0.00     0.029 H 
ATOM     22  H   LIG d   1       6.296  -0.325  -9.659  0.00  0.00     0.029 H 
ENDROOT
BRANCH  13  23
ATOM     23  C   LIG d   1       2.414  -0.088  -8.247  0.00  0.00     0.030 C 
ATOM     24  H   LIG d   1       1.697  -0.908  -8.218  0.00  0.00     0.036 H 
ATOM     25  H   LIG d   1       1.956   0.777  -8.727  0.00  0.00     0.036 H 
BRANCH  23  26
ATOM     26  C   LIG d   1       2.821   0.272  -6.841  0.00  0.00     0.218 C 
ATOM     27  O   LIG d   1       2.793   1.429  -6.481  0.00  0.00    -0.276 OA
ATOM     28  N   LIG d   1       3.218  -0.692  -5.986  0.00  0.00    -0.285 N 
ATOM     29  H   LIG d   1       3.164  -1.624  -6.249  0.00  0.00     0.155 HD
BRANCH  28  30
ATOM     30  C   LIG d   1       3.703  -0.348  -4.724  0.00  0.00     0.041 A 
ATOM     31  C   LIG d   1       5.078  -0.085  -4.537  0.00  0.00     0.003 A 
ATOM     32  C   LIG d   1       5.549   0.262  -3.247  0.00  0.00    -0.016 A 
ATOM     33  C   LIG d   1       5.986  -0.163  -5.606  0.00  0.00    -0.052 A 
ATOM     34  C   LIG d   1       4.641   0.340  -2.177  0.00  0.00    -0.054 A 
ATOM     35  C   LIG d   1       6.918   0.524  -3.062  0.00  0.00    -0.054 A 
ATOM     36  C   LIG d   1       3.321   0.082  -2.386  0.00  0.00    -0.059 A 
ATOM     37  H   LIG d   1       4.990   0.604  -1.191  0.00  0.00     0.062 H 
ATOM     38  C   LIG d   1       2.845  -0.255  -3.650  0.00  0.00    -0.040 A 
ATOM     39  H   LIG d   1       2.630   0.144  -1.558  0.00  0.00     0.062 H 
ATOM     40  H   LIG d   1       1.793  -0.452  -3.790  0.00  0.00     0.064 H 
ATOM     41  C   LIG d   1       7.768   0.439  -4.120  0.00  0.00    -0.061 A 
ATOM     42  H   LIG d   1       7.291   0.791  -2.084  0.00  0.00     0.062 H 
ATOM     43  C   LIG d   1       7.304   0.097  -5.389  0.00  0.00    -0.061 A 
ATOM     44  H   LIG d   1       8.820   0.639  -3.975  0.00  0.00     0.062 H 
ATOM     45  H   LIG d   1       8.001   0.036  -6.212  0.00  0.00     0.062 H 
ATOM     46  H   LIG d   1       5.640  -0.428  -6.594  0.00  0.00     0.062 H 
ENDBRANCH  28  30
ENDBRANCH  23  26
ENDBRANCH  13  23
BRANCH   1  47
ATOM     47  C   LIG d   1       2.313  -0.460 -11.151  0.00  0.00    -0.059 C 
ATOM     48  H   LIG d   1       2.779  -0.331 -12.127  0.00  0.00     0.024 H 
ATOM     49  H   LIG d   1       1.345  -0.947 -11.272  0.00  0.00     0.024 H 
ATOM     50  H   LIG d   1       2.173   0.516 -10.685  0.00  0.00     0.024 H 
ENDBRANCH   1  47
BRANCH  11  51
ATOM     51  O   LIG d   1       3.581   1.529 -10.322  0.00  0.00    -0.392 OA
ATOM     52  H   LIG d   1       3.678   1.357 -11.268  0.00  0.00     0.210 HD
ENDBRANCH  11  51
BRANCH   6  53
ATOM     53  C   LIG d   1       5.246  -2.990 -13.079  0.00  0.00    -0.055 C 
ATOM     54  H   LIG d   1       4.944  -3.301 -14.080  0.00  0.00     0.024 H 
ATOM     55  H   LIG d   1       5.940  -2.153 -13.154  0.00  0.00     0.024 H 
ATOM     56  H   LIG d   1       5.733  -3.823 -12.573  0.00  0.00     0.024 H 
ENDBRANCH   6  53
BRANCH   6  57
ATOM     57  C   LIG d   1       3.111  -1.696 -13.170  0.00  0.00     0.052 C 
ATOM     58  H   LIG d   1       2.073  -1.815 -12.860  0.00  0.00     0.056 H 
ATOM     59  H   LIG d   1       3.402  -0.649 -13.072  0.00  0.00     0.056 H 
BRANCH  57  60
ATOM     60  O   LIG d   1       3.252  -2.102 -14.534  0.00  0.00    -0.394 OA
ATOM     61  H   LIG d   1       2.562  -1.759 -15.119  0.00  0.00     0.209 HD
ENDBRANCH  57  60
ENDBRANCH   6  57
BRANCH   4  62
ATOM     62  O   LIG d   1       2.831  -4.554 -12.976  0.00  0.00    -0.391 OA
ATOM     63  H   LIG d   1       3.481  -5.207 -13.270  0.00  0.00     0.210 HD
ENDBRANCH   4  62
TORSDOF 9
ENDMDL
MODEL 6
REMARK VINA RESULT:      -6.4      6.353      9.520
REMARK  9 active torsions:
REMARK  status: ('A' for Active; 'I' for Inactive)
REMARK    1  A    between atoms: C_1  and  C_2 
REMARK    2  A    between atoms: C_5  and  O_34 
REMARK    3  A    between atoms: C_7  and  C_31 
REMARK    4  A    between atoms: C_7  and  C_32 
REMARK    5  A    between atoms: C_12  and  O_30 
REMARK    6  A    between atoms: C_14  and  C_16 
REMARK    7  A    between atoms: C_16  and  C_17 
REMARK       I    between atoms: C_17  and  N_19 
REMARK    8  A    between atoms: N_19  and  C_20 
REMARK    9  A    between atoms: C_32  and  O_33 
ROOT
ATOM      1  C   LIG d   1       2.809  -1.531 -10.813  0.00  0.00    -0.023 C 
ATOM      2  C   LIG d   1       1.307  -1.294 -10.640  0.00  0.00    -0.045 C 
ATOM      3  C   LIG d   1       0.648  -1.172 -12.014  0.00  0.00    -0.026 C 
ATOM      4  C   LIG d   1       0.872  -2.464 -12.804  0.00  0.00     0.063 C 
ATOM      5  H   LIG d   1       0.432  -3.301 -12.263  0.00  0.00     0.060 H 
ATOM      6  C   LIG d   1       2.373  -2.701 -12.978  0.00  0.00     0.020 C 
ATOM      7  C   LIG d   1       3.033  -2.822 -11.602  0.00  0.00    -0.025 C 
ATOM      8  H   LIG d   1       2.593  -3.659 -11.061  0.00  0.00     0.031 H 
ATOM      9  C   LIG d   1       4.534  -3.059 -11.776  0.00  0.00    -0.047 C 
ATOM     10  C   LIG d   1       5.194  -3.181 -10.401  0.00  0.00    -0.026 C 
ATOM     11  C   LIG d   1       4.969  -1.890  -9.612  0.00  0.00     0.059 C 
ATOM     12  H   LIG d   1       5.439  -1.976  -8.632  0.00  0.00     0.060 H 
ATOM     13  C   LIG d   1       3.468  -1.652  -9.438  0.00  0.00    -0.001 C 
ATOM     14  H   LIG d   1       3.028  -2.489  -8.896  0.00  0.00     0.034 H 
ATOM     15  H   LIG d   1       1.148  -0.373 -10.077  0.00  0.00     0.027 H 
ATOM     16  H   LIG d   1       0.867  -2.131 -10.098  0.00  0.00     0.027 H 
ATOM     17  H   LIG d   1       1.087  -0.334 -12.556  0.00  0.00     0.029 H 
ATOM     18  H   LIG d   1      -0.423  -1.003 -11.891  0.00  0.00     0.029 H 
ATOM     19  H   LIG d   1       4.974  -2.222 -12.317  0.00  0.00     0.027 H 
ATOM     20  H   LIG d   1       4.694  -3.980 -12.338  0.00  0.00     0.027 H 
ATOM     21  H   LIG d   1       6.264  -3.349 -10.524  0.00  0.00     0.029 H 
ATOM     22  H   LIG d   1       4.754  -4.018  -9.860  0.00  0.00     0.029 H 
ENDROOT
BRANCH  13  23
ATOM     23  C   LIG d   1       3.244  -0.360  -8.649  0.00  0.00     0.030 C 
ATOM     24  H   LIG d   1       2.186  -0.261  -8.407  0.00  0.00     0.036 H 
ATOM     25  H   LIG d   1       3.559   0.492  -9.250  0.00  0.00     0.036 H 
BRANCH  23  26
ATOM     26  C   LIG d   1       4.049  -0.404  -7.376  0.00  0.00     0.218 C 
ATOM     27  O   LIG d   1       5.031   0.296  -7.255  0.00  0.00    -0.276 OA
ATOM     28  N   LIG d   1       3.677  -1.222  -6.371  0.00  0.00    -0.285 N 
ATOM     29  H   LIG d   1       2.848  -1.723  -6.435  0.00  0.00     0.155 HD
BRANCH  28  30
ATOM     30  C   LIG d   1       4.484  -1.349  -5.239  0.00  0.00     0.041 A 
ATOM     31  C   LIG d   1       4.308  -0.481  -4.140  0.00  0.00     0.003 A 
ATOM     32  C   LIG d   1       5.139  -0.627  -3.001  0.00  0.00    -0.016 A 
ATOM     33  C   LIG d   1       3.328   0.525  -4.155  0.00  0.00    -0.052 A 
ATOM     34  C   LIG d   1       6.120  -1.632  -2.986  0.00  0.00    -0.054 A 
ATOM     35  C   LIG d   1       4.964   0.238  -1.906  0.00  0.00    -0.054 A 
ATOM     36  C   LIG d   1       6.267  -2.456  -4.060  0.00  0.00    -0.059 A 
ATOM     37  H   LIG d   1       6.758  -1.752  -2.122  0.00  0.00     0.062 H 
ATOM     38  C   LIG d   1       5.454  -2.326  -5.182  0.00  0.00    -0.040 A 
ATOM     39  H   LIG d   1       7.024  -3.225  -4.039  0.00  0.00     0.062 H 
ATOM     40  H   LIG d   1       5.588  -2.993  -6.019  0.00  0.00     0.064 H 
ATOM     41  C   LIG d   1       4.004   1.200  -1.956  0.00  0.00    -0.061 A 
ATOM     42  H   LIG d   1       5.588   0.138  -1.031  0.00  0.00     0.062 H 
ATOM     43  C   LIG d   1       3.187   1.344  -3.076  0.00  0.00    -0.061 A 
ATOM     44  H   LIG d   1       3.872   1.864  -1.113  0.00  0.00     0.062 H 
ATOM     45  H   LIG d   1       2.433   2.116  -3.090  0.00  0.00     0.062 H 
ATOM     46  H   LIG d   1       2.690   0.647  -5.016  0.00  0.00     0.062 H 
ENDBRANCH  28  30
ENDBRANCH  23  26
ENDBRANCH  13  23
BRANCH   1  47
ATOM     47  C   LIG d   1       3.426  -0.355 -11.573  0.00  0.00    -0.059 C 
ATOM     48  H   LIG d   1       2.987   0.577 -11.220  0.00  0.00     0.024 H 
ATOM     49  H   LIG d   1       4.503  -0.338 -11.403  0.00  0.00     0.024 H 
ATOM     50  H   LIG d   1       3.229  -0.468 -12.640  0.00  0.00     0.024 H 
ENDBRANCH   1  47
BRANCH  11  51
ATOM     51  O   LIG d   1       5.546  -0.791 -10.321  0.00  0.00    -0.392 OA
ATOM     52  H   LIG d   1       5.891  -1.024 -11.193  0.00  0.00     0.210 HD
ENDBRANCH  11  51
BRANCH   6  53
ATOM     53  C   LIG d   1       2.598  -3.992 -13.767  0.00  0.00    -0.055 C 
ATOM     54  H   LIG d   1       3.465  -3.873 -14.417  0.00  0.00     0.024 H 
ATOM     55  H   LIG d   1       2.774  -4.815 -13.074  0.00  0.00     0.024 H 
ATOM     56  H   LIG d   1       1.718  -4.207 -14.371  0.00  0.00     0.024 H 
ENDBRANCH   6  53
BRANCH   6  57
ATOM     57  C   LIG d   1       2.991  -1.525 -13.737  0.00  0.00     0.052 C 
ATOM     58  H   LIG d   1       2.470  -0.605 -13.469  0.00  0.00     0.056 H 
ATOM     59  H   LIG d   1       4.045  -1.436 -13.474  0.00  0.00     0.056 H 
BRANCH  57  60
ATOM     60  O   LIG d   1       2.869  -1.750 -15.144  0.00  0.00    -0.394 OA
ATOM     61  H   LIG d   1       3.144  -2.633 -15.425  0.00  0.00     0.209 HD
ENDBRANCH  57  60
ENDBRANCH   6  57
BRANCH   4  62
ATOM     62  O   LIG d   1       0.255  -2.350 -14.089  0.00  0.00    -0.391 OA
ATOM     63  H   LIG d   1      -0.314  -1.575 -14.184  0.00  0.00     0.210 HD
ENDBRANCH   4  62
TORSDOF 9
ENDMDL
MODEL 7
REMARK VINA RESULT:      -6.2      5.772      9.285
REMARK  9 active torsions:
REMARK  status: ('A' for Active; 'I' for Inactive)
REMARK    1  A    between atoms: C_1  and  C_2 
REMARK    2  A    between atoms: C_5  and  O_34 
REMARK    3  A    between atoms: C_7  and  C_31 
REMARK    4  A    between atoms: C_7  and  C_32 
REMARK    5  A    between atoms: C_12  and  O_30 
REMARK    6  A    between atoms: C_14  and  C_16 
REMARK    7  A    between atoms: C_16  and  C_17 
REMARK       I    between atoms: C_17  and  N_19 
REMARK    8  A    between atoms: N_19  and  C_20 
REMARK    9  A    between atoms: C_32  and  O_33 
ROOT
ATOM      1  C   LIG d   1       8.722  -5.741  -4.625  0.00  0.00    -0.023 C 
ATOM      2  C   LIG d   1       7.518  -6.029  -5.522  0.00  0.00    -0.045 C 
ATOM      3  C   LIG d   1       7.717  -7.371  -6.228  0.00  0.00    -0.026 C 
ATOM      4  C   LIG d   1       7.853  -8.482  -5.184  0.00  0.00     0.063 C 
ATOM      5  H   LIG d   1       6.948  -8.521  -4.578  0.00  0.00     0.060 H 
ATOM      6  C   LIG d   1       9.057  -8.193  -4.287  0.00  0.00     0.020 C 
ATOM      7  C   LIG d   1       8.858  -6.850  -3.581  0.00  0.00    -0.025 C 
ATOM      8  H   LIG d   1       7.953  -6.890  -2.974  0.00  0.00     0.031 H 
ATOM      9  C   LIG d   1      10.063  -6.562  -2.683  0.00  0.00    -0.047 C 
ATOM     10  C   LIG d   1       9.863  -5.220  -1.977  0.00  0.00    -0.026 C 
ATOM     11  C   LIG d   1       9.728  -4.110  -3.021  0.00  0.00     0.059 C 
ATOM     12  H   LIG d   1       9.585  -3.153  -2.519  0.00  0.00     0.060 H 
ATOM     13  C   LIG d   1       8.523  -4.397  -3.919  0.00  0.00    -0.001 C 
ATOM     14  H   LIG d   1       7.618  -4.437  -3.312  0.00  0.00     0.034 H 
ATOM     15  H   LIG d   1       7.421  -5.238  -6.267  0.00  0.00     0.027 H 
ATOM     16  H   LIG d   1       6.613  -6.069  -4.916  0.00  0.00     0.027 H 
ATOM     17  H   LIG d   1       8.621  -7.332  -6.836  0.00  0.00     0.029 H 
ATOM     18  H   LIG d   1       6.859  -7.577  -6.869  0.00  0.00     0.029 H 
ATOM     19  H   LIG d   1      10.966  -6.522  -3.290  0.00  0.00     0.027 H 
ATOM     20  H   LIG d   1      10.159  -7.353  -1.939  0.00  0.00     0.027 H 
ATOM     21  H   LIG d   1      10.721  -5.014  -1.338  0.00  0.00     0.029 H 
ATOM     22  H   LIG d   1       8.959  -5.260  -1.371  0.00  0.00     0.029 H 
ENDROOT
BRANCH  13  23
ATOM     23  C   LIG d   1       8.388  -3.288  -4.964  0.00  0.00     0.030 C 
ATOM     24  H   LIG d   1       8.081  -3.720  -5.916  0.00  0.00     0.036 H 
ATOM     25  H   LIG d   1       9.347  -2.785  -5.086  0.00  0.00     0.036 H 
BRANCH  23  26
ATOM     26  C   LIG d   1       7.352  -2.292  -4.507  0.00  0.00     0.218 C 
ATOM     27  O   LIG d   1       7.674  -1.147  -4.274  0.00  0.00    -0.276 OA
ATOM     28  N   LIG d   1       6.069  -2.676  -4.356  0.00  0.00    -0.285 N 
ATOM     29  H   LIG d   1       5.796  -3.569  -4.618  0.00  0.00     0.155 HD
BRANCH  28  30
ATOM     30  C   LIG d   1       5.133  -1.788  -3.825  0.00  0.00     0.041 A 
ATOM     31  C   LIG d   1       4.304  -1.031  -4.681  0.00  0.00     0.003 A 
ATOM     32  C   LIG d   1       3.361  -0.135  -4.119  0.00  0.00    -0.016 A 
ATOM     33  C   LIG d   1       4.398  -1.149  -6.077  0.00  0.00    -0.052 A 
ATOM     34  C   LIG d   1       3.266  -0.016  -2.723  0.00  0.00    -0.054 A 
ATOM     35  C   LIG d   1       2.535   0.618  -4.973  0.00  0.00    -0.054 A 
ATOM     36  C   LIG d   1       4.078  -0.759  -1.921  0.00  0.00    -0.059 A 
ATOM     37  H   LIG d   1       2.550   0.663  -2.286  0.00  0.00     0.062 H 
ATOM     38  C   LIG d   1       5.005  -1.646  -2.460  0.00  0.00    -0.040 A 
ATOM     39  H   LIG d   1       3.999  -0.661  -0.848  0.00  0.00     0.062 H 
ATOM     40  H   LIG d   1       5.635  -2.226  -1.802  0.00  0.00     0.064 H 
ATOM     41  C   LIG d   1       2.654   0.478  -6.320  0.00  0.00    -0.061 A 
ATOM     42  H   LIG d   1       1.810   1.304  -4.559  0.00  0.00     0.062 H 
ATOM     43  C   LIG d   1       3.582  -0.403  -6.872  0.00  0.00    -0.061 A 
ATOM     44  H   LIG d   1       2.019   1.059  -6.974  0.00  0.00     0.062 H 
ATOM     45  H   LIG d   1       3.656  -0.495  -7.945  0.00  0.00     0.062 H 
ATOM     46  H   LIG d   1       5.113  -1.827  -6.517  0.00  0.00     0.062 H 
ENDBRANCH  28  30
ENDBRANCH  23  26
ENDBRANCH  13  23
BRANCH   1  47
ATOM     47  C   LIG d   1       9.992  -5.685  -5.477  0.00  0.00    -0.059 C 
ATOM     48  H   LIG d   1      10.525  -6.632  -5.397  0.00  0.00     0.024 H 
ATOM     49  H   LIG d   1       9.723  -5.506  -6.518  0.00  0.00     0.024 H 
ATOM     50  H   LIG d   1      10.632  -4.877  -5.124  0.00  0.00     0.024 H 
ENDBRANCH   1  47
BRANCH  11  51
ATOM     51  O   LIG d   1      10.913  -4.057  -3.817  0.00  0.00    -0.392 OA
ATOM     52  H   LIG d   1      11.705  -4.379  -3.365  0.00  0.00     0.210 HD
ENDBRANCH  11  51
BRANCH   6  53
ATOM     53  C   LIG d   1       9.193  -9.303  -3.243  0.00  0.00    -0.055 C 
ATOM     54  H   LIG d   1      10.065  -9.108  -2.617  0.00  0.00     0.024 H 
ATOM     55  H   LIG d   1       8.298  -9.328  -2.620  0.00  0.00     0.024 H 
ATOM     56  H   LIG d   1       9.313 -10.263  -3.745  0.00  0.00     0.024 H 
ENDBRANCH   6  53
BRANCH   6  57
ATOM     57  C   LIG d   1      10.327  -8.137  -5.139  0.00  0.00     0.052 C 
ATOM     58  H   LIG d   1      10.078  -7.782  -6.140  0.00  0.00     0.056 H 
ATOM     59  H   LIG d   1      11.044  -7.456  -4.679  0.00  0.00     0.056 H 
BRANCH  57  60
ATOM     60  O   LIG d   1      10.900  -9.444  -5.226  0.00  0.00    -0.394 OA
ATOM     61  H   LIG d   1      10.874  -9.940  -4.396  0.00  0.00     0.209 HD
ENDBRANCH  57  60
ENDBRANCH   6  57
BRANCH   4  62
ATOM     62  O   LIG d   1       8.039  -9.736  -5.844  0.00  0.00    -0.391 OA
ATOM     63  H   LIG d   1       7.380  -9.923  -6.526  0.00  0.00     0.210 HD
ENDBRANCH   4  62
TORSDOF 9
ENDMDL
MODEL 8
REMARK VINA RESULT:      -6.1      1.855      3.476
REMARK  9 active torsions:
REMARK  status: ('A' for Active; 'I' for Inactive)
REMARK    1  A    between atoms: C_1  and  C_2 
REMARK    2  A    between atoms: C_5  and  O_34 
REMARK    3  A    between atoms: C_7  and  C_31 
REMARK    4  A    between atoms: C_7  and  C_32 
REMARK    5  A    between atoms: C_12  and  O_30 
REMARK    6  A    between atoms: C_14  and  C_16 
REMARK    7  A    between atoms: C_16  and  C_17 
REMARK       I    between atoms: C_17  and  N_19 
REMARK    8  A    between atoms: N_19  and  C_20 
REMARK    9  A    between atoms: C_32  and  O_33 
ROOT
ATOM      1  C   LIG d   1      11.251   3.189  -4.596  0.00  0.00    -0.023 C 
ATOM      2  C   LIG d   1      11.437   1.948  -5.471  0.00  0.00    -0.045 C 
ATOM      3  C   LIG d   1      12.823   1.984  -6.119  0.00  0.00    -0.026 C 
ATOM      4  C   LIG d   1      13.896   2.004  -5.028  0.00  0.00     0.063 C 
ATOM      5  H   LIG d   1      13.805   1.108  -4.414  0.00  0.00     0.060 H 
ATOM      6  C   LIG d   1      13.710   3.245  -4.153  0.00  0.00     0.020 C 
ATOM      7  C   LIG d   1      12.324   3.209  -3.505  0.00  0.00    -0.025 C 
ATOM      8  H   LIG d   1      12.233   2.314  -2.891  0.00  0.00     0.031 H 
ATOM      9  C   LIG d   1      12.138   4.450  -2.630  0.00  0.00    -0.047 C 
ATOM     10  C   LIG d   1      10.752   4.415  -1.982  0.00  0.00    -0.026 C 
ATOM     11  C   LIG d   1       9.680   4.395  -3.073  0.00  0.00     0.059 C 
ATOM     12  H   LIG d   1       8.693   4.369  -2.613  0.00  0.00     0.060 H 
ATOM     13  C   LIG d   1       9.865   3.154  -3.949  0.00  0.00    -0.001 C 
ATOM     14  H   LIG d   1       9.774   2.258  -3.334  0.00  0.00     0.034 H 
ATOM     15  H   LIG d   1      10.673   1.934  -6.249  0.00  0.00     0.027 H 
ATOM     16  H   LIG d   1      11.347   1.053  -4.857  0.00  0.00     0.027 H 
ATOM     17  H   LIG d   1      12.914   2.879  -6.735  0.00  0.00     0.029 H 
ATOM     18  H   LIG d   1      12.956   1.100  -6.743  0.00  0.00     0.029 H 
ATOM     19  H   LIG d   1      12.228   5.345  -3.245  0.00  0.00     0.027 H 
ATOM     20  H   LIG d   1      12.902   4.464  -1.852  0.00  0.00     0.027 H 
ATOM     21  H   LIG d   1      10.619   5.299  -1.360  0.00  0.00     0.029 H 
ATOM     22  H   LIG d   1      10.661   3.519  -1.368  0.00  0.00     0.029 H 
ENDROOT
BRANCH  13  23
ATOM     23  C   LIG d   1       8.793   3.134  -5.040  0.00  0.00     0.030 C 
ATOM     24  H   LIG d   1       9.268   3.221  -6.018  0.00  0.00     0.036 H 
ATOM     25  H   LIG d   1       8.110   3.970  -4.894  0.00  0.00     0.036 H 
BRANCH  23  26
ATOM     26  C   LIG d   1       8.027   1.838  -4.967  0.00  0.00     0.218 C 
ATOM     27  O   LIG d   1       7.458   1.415  -5.950  0.00  0.00    -0.276 OA
ATOM     28  N   LIG d   1       7.975   1.151  -3.809  0.00  0.00    -0.285 N 
ATOM     29  H   LIG d   1       8.495   1.447  -3.045  0.00  0.00     0.155 HD
BRANCH  28  30
ATOM     30  C   LIG d   1       7.173   0.013  -3.709  0.00  0.00     0.041 A 
ATOM     31  C   LIG d   1       5.847   0.115  -3.235  0.00  0.00     0.003 A 
ATOM     32  C   LIG d   1       5.052  -1.053  -3.142  0.00  0.00    -0.016 A 
ATOM     33  C   LIG d   1       5.303   1.353  -2.855  0.00  0.00    -0.052 A 
ATOM     34  C   LIG d   1       5.595  -2.292  -3.522  0.00  0.00    -0.054 A 
ATOM     35  C   LIG d   1       3.730  -0.950  -2.671  0.00  0.00    -0.054 A 
ATOM     36  C   LIG d   1       6.877  -2.362  -3.975  0.00  0.00    -0.059 A 
ATOM     37  H   LIG d   1       4.996  -3.188  -3.454  0.00  0.00     0.062 H 
ATOM     38  C   LIG d   1       7.667  -1.221  -4.076  0.00  0.00    -0.040 A 
ATOM     39  H   LIG d   1       7.287  -3.318  -4.264  0.00  0.00     0.062 H 
ATOM     40  H   LIG d   1       8.679  -1.302  -4.442  0.00  0.00     0.064 H 
ATOM     41  C   LIG d   1       3.237   0.265  -2.312  0.00  0.00    -0.061 A 
ATOM     42  H   LIG d   1       3.112  -1.832  -2.596  0.00  0.00     0.062 H 
ATOM     43  C   LIG d   1       4.020   1.415  -2.404  0.00  0.00    -0.061 A 
ATOM     44  H   LIG d   1       2.222   0.342  -1.950  0.00  0.00     0.062 H 
ATOM     45  H   LIG d   1       3.604   2.367  -2.112  0.00  0.00     0.062 H 
ATOM     46  H   LIG d   1       5.899   2.251  -2.921  0.00  0.00     0.062 H 
ENDBRANCH  28  30
ENDBRANCH  23  26
ENDBRANCH  13  23
BRANCH   1  47
ATOM     47  C   LIG d   1      11.379   4.446  -5.460  0.00  0.00    -0.059 C 
ATOM     48  H   LIG d   1      11.200   4.190  -6.503  0.00  0.00     0.024 H 
ATOM     49  H   LIG d   1      10.647   5.186  -5.135  0.00  0.00     0.024 H 
ATOM     50  H   LIG d   1      12.383   4.859  -5.355  0.00  0.00     0.024 H 
ENDBRANCH   1  47
BRANCH  11  51
ATOM     51  O   LIG d   1       9.799   5.569  -3.880  0.00  0.00    -0.392 OA
ATOM     52  H   LIG d   1      10.695   5.738  -4.198  0.00  0.00     0.210 HD
ENDBRANCH  11  51
BRANCH   6  53
ATOM     53  C   LIG d   1      14.782   3.265  -3.062  0.00  0.00    -0.055 C 
ATOM     54  H   LIG d   1      14.483   2.605  -2.247  0.00  0.00     0.024 H 
ATOM     55  H   LIG d   1      15.730   2.922  -3.477  0.00  0.00     0.024 H 
ATOM     56  H   LIG d   1      14.897   4.280  -2.683  0.00  0.00     0.024 H 
ENDBRANCH   6  53
BRANCH   6  57
ATOM     57  C   LIG d   1      13.837   4.501  -5.016  0.00  0.00     0.052 C 
ATOM     58  H   LIG d   1      13.505   4.281  -6.031  0.00  0.00     0.056 H 
ATOM     59  H   LIG d   1      13.219   5.295  -4.596  0.00  0.00     0.056 H 
BRANCH  57  60
ATOM     60  O   LIG d   1      15.202   4.925  -5.043  0.00  0.00    -0.394 OA
ATOM     61  H   LIG d   1      15.381   5.633  -5.677  0.00  0.00     0.209 HD
ENDBRANCH  57  60
ENDBRANCH   6  57
BRANCH   4  62
ATOM     62  O   LIG d   1      15.190   2.037  -5.633  0.00  0.00    -0.391 OA
ATOM     63  H   LIG d   1      15.172   2.063  -6.599  0.00  0.00     0.210 HD
ENDBRANCH   4  62
TORSDOF 9
ENDMDL
MODEL 9
REMARK VINA RESULT:      -6.1      7.012     10.589
REMARK  9 active torsions:
REMARK  status: ('A' for Active; 'I' for Inactive)
REMARK    1  A    between atoms: C_1  and  C_2 
REMARK    2  A    between atoms: C_5  and  O_34 
REMARK    3  A    between atoms: C_7  and  C_31 
REMARK    4  A    between atoms: C_7  and  C_32 
REMARK    5  A    between atoms: C_12  and  O_30 
REMARK    6  A    between atoms: C_14  and  C_16 
REMARK    7  A    between atoms: C_16  and  C_17 
REMARK       I    between atoms: C_17  and  N_19 
REMARK    8  A    between atoms: N_19  and  C_20 
REMARK    9  A    between atoms: C_32  and  O_33 
ROOT
ATOM      1  C   LIG d   1       6.459  -7.480  -5.518  0.00  0.00    -0.023 C 
ATOM      2  C   LIG d   1       4.979  -7.861  -5.443  0.00  0.00    -0.045 C 
ATOM      3  C   LIG d   1       4.848  -9.383  -5.367  0.00  0.00    -0.026 C 
ATOM      4  C   LIG d   1       5.571  -9.896  -4.119  0.00  0.00     0.063 C 
ATOM      5  H   LIG d   1       5.124  -9.448  -3.232  0.00  0.00     0.060 H 
ATOM      6  C   LIG d   1       7.050  -9.514  -4.194  0.00  0.00     0.020 C 
ATOM      7  C   LIG d   1       7.181  -7.991  -4.270  0.00  0.00    -0.025 C 
ATOM      8  H   LIG d   1       6.734  -7.543  -3.383  0.00  0.00     0.031 H 
ATOM      9  C   LIG d   1       8.661  -7.610  -4.345  0.00  0.00    -0.047 C 
ATOM     10  C   LIG d   1       8.792  -6.088  -4.422  0.00  0.00    -0.026 C 
ATOM     11  C   LIG d   1       8.069  -5.576  -5.669  0.00  0.00     0.059 C 
ATOM     12  H   LIG d   1       8.162  -4.491  -5.724  0.00  0.00     0.060 H 
ATOM     13  C   LIG d   1       6.590  -5.957  -5.595  0.00  0.00    -0.001 C 
ATOM     14  H   LIG d   1       6.143  -5.509  -4.708  0.00  0.00     0.034 H 
ATOM     15  H   LIG d   1       4.465  -7.497  -6.333  0.00  0.00     0.027 H 
ATOM     16  H   LIG d   1       4.532  -7.413  -4.556  0.00  0.00     0.027 H 
ATOM     17  H   LIG d   1       5.294  -9.832  -6.255  0.00  0.00     0.029 H 
ATOM     18  H   LIG d   1       3.794  -9.656  -5.314  0.00  0.00     0.029 H 
ATOM     19  H   LIG d   1       9.107  -8.058  -5.233  0.00  0.00     0.027 H 
ATOM     20  H   LIG d   1       9.176  -7.974  -3.456  0.00  0.00     0.027 H 
ATOM     21  H   LIG d   1       9.846  -5.815  -4.476  0.00  0.00     0.029 H 
ATOM     22  H   LIG d   1       8.345  -5.640  -3.534  0.00  0.00     0.029 H 
ENDROOT
BRANCH  13  23
ATOM     23  C   LIG d   1       5.867  -5.445  -6.843  0.00  0.00     0.030 C 
ATOM     24  H   LIG d   1       5.265  -6.248  -7.269  0.00  0.00     0.036 H 
ATOM     25  H   LIG d   1       6.601  -5.114  -7.578  0.00  0.00     0.036 H 
BRANCH  23  26
ATOM     26  C   LIG d   1       4.974  -4.291  -6.468  0.00  0.00     0.218 C 
ATOM     27  O   LIG d   1       3.782  -4.467  -6.330  0.00  0.00    -0.276 OA
ATOM     28  N   LIG d   1       5.500  -3.063  -6.287  0.00  0.00    -0.285 N 
ATOM     29  H   LIG d   1       6.461  -2.938  -6.319  0.00  0.00     0.155 HD
BRANCH  28  30
ATOM     30  C   LIG d   1       4.661  -1.973  -6.052  0.00  0.00     0.041 A 
ATOM     31  C   LIG d   1       4.380  -1.562  -4.731  0.00  0.00     0.003 A 
ATOM     32  C   LIG d   1       3.525  -0.452  -4.517  0.00  0.00    -0.016 A 
ATOM     33  C   LIG d   1       4.930  -2.233  -3.627  0.00  0.00    -0.052 A 
ATOM     34  C   LIG d   1       2.974   0.220  -5.621  0.00  0.00    -0.054 A 
ATOM     35  C   LIG d   1       3.246  -0.044  -3.201  0.00  0.00    -0.054 A 
ATOM     36  C   LIG d   1       3.263  -0.198  -6.884  0.00  0.00    -0.059 A 
ATOM     37  H   LIG d   1       2.322   1.067  -5.467  0.00  0.00     0.062 H 
ATOM     38  C   LIG d   1       4.104  -1.283  -7.108  0.00  0.00    -0.040 A 
ATOM     39  H   LIG d   1       2.834   0.324  -7.727  0.00  0.00     0.062 H 
ATOM     40  H   LIG d   1       4.320  -1.592  -8.120  0.00  0.00     0.064 H 
ATOM     41  C   LIG d   1       3.797  -0.718  -2.155  0.00  0.00    -0.061 A 
ATOM     42  H   LIG d   1       2.598   0.801  -3.021  0.00  0.00     0.062 H 
ATOM     43  C   LIG d   1       4.637  -1.809  -2.367  0.00  0.00    -0.061 A 
ATOM     44  H   LIG d   1       3.580  -0.402  -1.145  0.00  0.00     0.062 H 
ATOM     45  H   LIG d   1       5.061  -2.327  -1.520  0.00  0.00     0.062 H 
ATOM     46  H   LIG d   1       5.582  -3.081  -3.777  0.00  0.00     0.062 H 
ENDBRANCH  28  30
ENDBRANCH  23  26
ENDBRANCH  13  23
BRANCH   1  47
ATOM     47  C   LIG d   1       7.085  -8.109  -6.764  0.00  0.00    -0.059 C 
ATOM     48  H   LIG d   1       7.896  -8.774  -6.467  0.00  0.00     0.024 H 
ATOM     49  H   LIG d   1       6.328  -8.677  -7.304  0.00  0.00     0.024 H 
ATOM     50  H   LIG d   1       7.479  -7.323  -7.410  0.00  0.00     0.024 H 
ENDBRANCH   1  47
BRANCH  11  51
ATOM     51  O   LIG d   1       8.655  -6.163  -6.833  0.00  0.00    -0.392 OA
ATOM     52  H   LIG d   1       8.308  -7.039  -7.048  0.00  0.00     0.210 HD
ENDBRANCH  11  51
BRANCH   6  53
ATOM     53  C   LIG d   1       7.773 -10.026  -2.946  0.00  0.00    -0.055 C 
ATOM     54  H   LIG d   1       8.778 -10.353  -3.217  0.00  0.00     0.024 H 
ATOM     55  H   LIG d   1       7.839  -9.224  -2.210  0.00  0.00     0.024 H 
ATOM     56  H   LIG d   1       7.220 -10.864  -2.523  0.00  0.00     0.024 H 
ENDBRANCH   6  53
BRANCH   6  57
ATOM     57  C   LIG d   1       7.677 -10.143  -5.440  0.00  0.00     0.052 C 
ATOM     58  H   LIG d   1       6.928 -10.210  -6.229  0.00  0.00     0.056 H 
ATOM     59  H   LIG d   1       8.509  -9.525  -5.779  0.00  0.00     0.056 H 
BRANCH  57  60
ATOM     60  O   LIG d   1       8.155 -11.452  -5.124  0.00  0.00    -0.394 OA
ATOM     61  H   LIG d   1       9.014 -11.662  -5.516  0.00  0.00     0.209 HD
ENDBRANCH  57  60
ENDBRANCH   6  57
BRANCH   4  62
ATOM     62  O   LIG d   1       5.448 -11.318  -4.047  0.00  0.00    -0.391 OA
ATOM     63  H   LIG d   1       6.114 -11.743  -3.490  0.00  0.00     0.210 HD
ENDBRANCH   4  62
TORSDOF 9
ENDMDL
