MODEL 1
REMARK VINA RESULT:      -6.4      0.000      0.000
REMARK  6 active torsions:
REMARK  status: ('A' for Active; 'I' for Inactive)
REMARK    1  A    between atoms: C_1  and  O_2 
REMARK    2  A    between atoms: O_2  and  C_3 
REMARK    3  A    between atoms: C_6  and  C_9 
REMARK    4  A    between atoms: C_16  and  C_24 
REMARK    5  A    between atoms: C_19  and  C_20 
REMARK    6  A    between atoms: C_24  and  N_25 
ROOT
ATOM      1  C   LIG d   1       4.490  -0.899  -8.571  0.00  0.00     0.076 A 
ATOM      2  C   LIG d   1       5.811  -1.534  -8.705  0.00  0.00     0.201 A 
ATOM      3  O   LIG d   1       6.073  -2.274  -9.637  0.00  0.00    -0.286 OA
ATOM      4  C   LIG d   1       6.803  -1.231  -7.657  0.00  0.00     0.065 A 
ATOM      5  C   LIG d   1       8.084  -1.782  -7.692  0.00  0.00    -0.048 A 
ATOM      6  C   LIG d   1       8.979  -1.480  -6.706  0.00  0.00    -0.068 A 
ATOM      7  C   LIG d   1       8.618  -0.625  -5.666  0.00  0.00    -0.097 A 
ATOM      8  C   LIG d   1       7.351  -0.071  -5.618  0.00  0.00     0.032 A 
ATOM      9  C   LIG d   1       6.428  -0.368  -6.613  0.00  0.00     0.147 A 
ATOM     10  O   LIG d   1       5.190   0.164  -6.581  0.00  0.00    -0.449 OA
ATOM     11  C   LIG d   1       4.262  -0.084  -7.509  0.00  0.00     0.220 A 
ATOM     12  O   LIG d   1       9.518  -0.333  -4.693  0.00  0.00    -0.873 OA
ATOM     13  H   LIG d   1       8.368  -2.445  -8.496  0.00  0.00     0.063 H 
ATOM     14  H   LIG d   1       9.971  -1.906  -6.731  0.00  0.00     0.061 H 
ENDROOT
BRANCH   8  15
ATOM     15  C   LIG d   1       6.971   0.847  -4.484  0.00  0.00    -0.003 C 
ATOM     16  H   LIG d   1       7.771   0.847  -3.729  0.00  0.00     0.087 H 
ATOM     17  H   LIG d   1       6.830   1.868  -4.870  0.00  0.00     0.087 H 
BRANCH  15  18
ATOM     18  N   LIG d   1       5.719   0.377  -3.873  0.00  0.00     0.239 N 
ATOM     19  C   LIG d   1       5.195   1.371  -2.912  0.00  0.00    -0.031 C 
ATOM     20  C   LIG d   1       4.521   0.585  -1.772  0.00  0.00    -0.008 C 
ATOM     21  H   LIG d   1       6.024   1.981  -2.524  0.00  0.00     0.081 H 
ATOM     22  H   LIG d   1       4.467   2.022  -3.418  0.00  0.00     0.081 H 
ATOM     23  C   LIG d   1       4.725  -0.905  -2.133  0.00  0.00    -0.008 C 
ATOM     24  H   LIG d   1       3.444   0.803  -1.711  0.00  0.00     0.032 H 
ATOM     25  H   LIG d   1       4.992   0.794  -0.800  0.00  0.00     0.032 H 
ATOM     26  C   LIG d   1       5.943  -0.865  -3.090  0.00  0.00    -0.031 C 
ATOM     27  H   LIG d   1       3.860  -1.335  -2.659  0.00  0.00     0.032 H 
ATOM     28  H   LIG d   1       4.967  -1.524  -1.258  0.00  0.00     0.032 H 
ATOM     29  H   LIG d   1       5.971  -1.728  -3.772  0.00  0.00     0.081 H 
ATOM     30  H   LIG d   1       6.899  -0.792  -2.552  0.00  0.00     0.081 H 
ATOM     31  H   LIG d   1       5.022   0.216  -4.707  0.00  0.00     0.204 HD
ENDBRANCH  15  18
ENDBRANCH   8  15
BRANCH  11  32
ATOM     32  C   LIG d   1       2.910   0.566  -7.371  0.00  0.00     0.451 C 
ATOM     33  F   LIG d   1       2.735   1.006  -6.055  0.00  0.00    -0.163 F 
ATOM     34  F   LIG d   1       2.826   1.658  -8.243  0.00  0.00    -0.163 F 
ATOM     35  F   LIG d   1       1.911  -0.361  -7.688  0.00  0.00    -0.163 F 
ENDBRANCH  11  32
BRANCH   1  36
ATOM     36  C   LIG d   1       3.428  -1.145  -9.576  0.00  0.00    -0.011 A 
ATOM     37  C   LIG d   1       3.283  -0.287 -10.665  0.00  0.00    -0.050 A 
ATOM     38  C   LIG d   1       2.295  -0.518 -11.598  0.00  0.00    -0.019 A 
ATOM     39  H   LIG d   1       3.945   0.559 -10.778  0.00  0.00     0.062 H 
ATOM     40  C   LIG d   1       1.444  -1.606 -11.455  0.00  0.00     0.120 A 
ATOM     41  H   LIG d   1       2.183   0.146 -12.442  0.00  0.00     0.065 H 
ATOM     42  C   LIG d   1       1.585  -2.463 -10.372  0.00  0.00    -0.019 A 
ATOM     43  C   LIG d   1       2.573  -2.239  -9.437  0.00  0.00    -0.050 A 
ATOM     44  H   LIG d   1       0.921  -3.308 -10.263  0.00  0.00     0.065 H 
ATOM     45  H   LIG d   1       2.685  -2.908  -8.597  0.00  0.00     0.062 H 
BRANCH  40  46
ATOM     46  O   LIG d   1       0.471  -1.832 -12.377  0.00  0.00    -0.495 OA
BRANCH  46  47
ATOM     47  C   LIG d   1       0.877  -2.411 -13.618  0.00  0.00     0.079 C 
ATOM     48  H   LIG d   1       1.295  -3.412 -13.436  0.00  0.00     0.066 H 
ATOM     49  H   LIG d   1       1.641  -1.774 -14.088  0.00  0.00     0.066 H 
ATOM     50  H   LIG d   1       0.007  -2.493 -14.287  0.00  0.00     0.066 H 
ENDBRANCH  46  47
ENDBRANCH  40  46
ENDBRANCH   1  36
TORSDOF 6
ENDMDL
MODEL 2
REMARK VINA RESULT:      -6.4      1.977      2.384
REMARK  6 active torsions:
REMARK  status: ('A' for Active; 'I' for Inactive)
REMARK    1  A    between atoms: C_1  and  O_2 
REMARK    2  A    between atoms: O_2  and  C_3 
REMARK    3  A    between atoms: C_6  and  C_9 
REMARK    4  A    between atoms: C_16  and  C_24 
REMARK    5  A    between atoms: C_19  and  C_20 
REMARK    6  A    between atoms: C_24  and  N_25 
ROOT
ATOM      1  C   LIG d   1       3.374  -2.005  -9.141  0.00  0.00     0.076 A 
ATOM      2  C   LIG d   1       3.935  -3.219  -8.526  0.00  0.00     0.201 A 
ATOM      3  O   LIG d   1       3.803  -4.316  -9.041  0.00  0.00    -0.286 OA
ATOM      4  C   LIG d   1       4.664  -3.045  -7.256  0.00  0.00     0.065 A 
ATOM      5  C   LIG d   1       5.234  -4.132  -6.593  0.00  0.00    -0.048 A 
ATOM      6  C   LIG d   1       5.903  -3.935  -5.420  0.00  0.00    -0.068 A 
ATOM      7  C   LIG d   1       6.019  -2.654  -4.882  0.00  0.00    -0.097 A 
ATOM      8  C   LIG d   1       5.459  -1.566  -5.529  0.00  0.00     0.032 A 
ATOM      9  C   LIG d   1       4.775  -1.749  -6.723  0.00  0.00     0.147 A 
ATOM     10  O   LIG d   1       4.225  -0.699  -7.365  0.00  0.00    -0.449 OA
ATOM     11  C   LIG d   1       3.556  -0.813  -8.516  0.00  0.00     0.220 A 
ATOM     12  O   LIG d   1       6.688  -2.473  -3.715  0.00  0.00    -0.873 OA
ATOM     13  H   LIG d   1       5.146  -5.126  -7.007  0.00  0.00     0.063 H 
ATOM     14  H   LIG d   1       6.344  -4.776  -4.905  0.00  0.00     0.061 H 
ENDROOT
BRANCH   8  15
ATOM     15  C   LIG d   1       5.586  -0.187  -4.933  0.00  0.00    -0.003 C 
ATOM     16  H   LIG d   1       6.651   0.080  -4.850  0.00  0.00     0.087 H 
ATOM     17  H   LIG d   1       5.075   0.541  -5.580  0.00  0.00     0.087 H 
BRANCH  15  18
ATOM     18  N   LIG d   1       4.972  -0.172  -3.599  0.00  0.00     0.239 N 
ATOM     19  C   LIG d   1       3.587   0.342  -3.660  0.00  0.00    -0.031 C 
ATOM     20  C   LIG d   1       3.335   1.119  -2.354  0.00  0.00    -0.008 C 
ATOM     21  H   LIG d   1       3.479   1.004  -4.532  0.00  0.00     0.081 H 
ATOM     22  H   LIG d   1       2.887  -0.501  -3.751  0.00  0.00     0.081 H 
ATOM     23  C   LIG d   1       4.667   1.037  -1.573  0.00  0.00    -0.008 C 
ATOM     24  H   LIG d   1       2.532   0.660  -1.759  0.00  0.00     0.032 H 
ATOM     25  H   LIG d   1       3.089   2.173  -2.550  0.00  0.00     0.032 H 
ATOM     26  C   LIG d   1       5.704   0.743  -2.686  0.00  0.00    -0.031 C 
ATOM     27  H   LIG d   1       4.677   0.219  -0.837  0.00  0.00     0.032 H 
ATOM     28  H   LIG d   1       4.923   1.982  -1.073  0.00  0.00     0.032 H 
ATOM     29  H   LIG d   1       6.601   0.236  -2.302  0.00  0.00     0.081 H 
ATOM     30  H   LIG d   1       6.001   1.649  -3.234  0.00  0.00     0.081 H 
ATOM     31  H   LIG d   1       5.000  -1.212  -3.245  0.00  0.00     0.204 HD
ENDBRANCH  15  18
ENDBRANCH   8  15
BRANCH  11  32
ATOM     32  C   LIG d   1       2.982   0.430  -9.146  0.00  0.00     0.451 C 
ATOM     33  F   LIG d   1       3.695   0.735 -10.310  0.00  0.00    -0.163 F 
ATOM     34  F   LIG d   1       1.637   0.214  -9.465  0.00  0.00    -0.163 F 
ATOM     35  F   LIG d   1       3.082   1.497  -8.246  0.00  0.00    -0.163 F 
ENDBRANCH  11  32
BRANCH   1  36
ATOM     36  C   LIG d   1       2.624  -2.082 -10.418  0.00  0.00    -0.011 A 
ATOM     37  C   LIG d   1       3.260  -1.781 -11.621  0.00  0.00    -0.050 A 
ATOM     38  C   LIG d   1       2.560  -1.854 -12.807  0.00  0.00    -0.019 A 
ATOM     39  H   LIG d   1       4.300  -1.492 -11.625  0.00  0.00     0.062 H 
ATOM     40  C   LIG d   1       1.223  -2.228 -12.804  0.00  0.00     0.120 A 
ATOM     41  H   LIG d   1       3.053  -1.622 -13.740  0.00  0.00     0.065 H 
ATOM     42  C   LIG d   1       0.586  -2.528 -11.607  0.00  0.00    -0.019 A 
ATOM     43  C   LIG d   1       1.282  -2.460 -10.419  0.00  0.00    -0.050 A 
ATOM     44  H   LIG d   1      -0.454  -2.817 -11.608  0.00  0.00     0.065 H 
ATOM     45  H   LIG d   1       0.787  -2.697  -9.488  0.00  0.00     0.062 H 
BRANCH  40  46
ATOM     46  O   LIG d   1       0.536  -2.299 -13.974  0.00  0.00    -0.495 OA
BRANCH  46  47
ATOM     47  C   LIG d   1      -0.890  -2.266 -13.892  0.00  0.00     0.079 C 
ATOM     48  H   LIG d   1      -1.193  -1.671 -13.018  0.00  0.00     0.066 H 
ATOM     49  H   LIG d   1      -1.276  -3.292 -13.789  0.00  0.00     0.066 H 
ATOM     50  H   LIG d   1      -1.300  -1.812 -14.806  0.00  0.00     0.066 H 
ENDBRANCH  46  47
ENDBRANCH  40  46
ENDBRANCH   1  36
TORSDOF 6
ENDMDL
MODEL 3
REMARK VINA RESULT:      -6.1      5.601      7.541
REMARK  6 active torsions:
REMARK  status: ('A' for Active; 'I' for Inactive)
REMARK    1  A    between atoms: C_1  and  O_2 
REMARK    2  A    between atoms: O_2  and  C_3 
REMARK    3  A    between atoms: C_6  and  C_9 
REMARK    4  A    between atoms: C_16  and  C_24 
REMARK    5  A    between atoms: C_19  and  C_20 
REMARK    6  A    between atoms: C_24  and  N_25 
ROOT
ATOM      1  C   LIG d   1       5.579  -3.991  -5.039  0.00  0.00     0.076 A 
ATOM      2  C   LIG d   1       4.813  -5.143  -5.542  0.00  0.00     0.201 A 
ATOM      3  O   LIG d   1       3.616  -5.069  -5.760  0.00  0.00    -0.286 OA
ATOM      4  C   LIG d   1       5.564  -6.391  -5.769  0.00  0.00     0.065 A 
ATOM      5  C   LIG d   1       4.931  -7.540  -6.244  0.00  0.00    -0.048 A 
ATOM      6  C   LIG d   1       5.656  -8.680  -6.444  0.00  0.00    -0.068 A 
ATOM      7  C   LIG d   1       7.024  -8.699  -6.176  0.00  0.00    -0.097 A 
ATOM      8  C   LIG d   1       7.665  -7.567  -5.704  0.00  0.00     0.032 A 
ATOM      9  C   LIG d   1       6.943  -6.400  -5.495  0.00  0.00     0.147 A 
ATOM     10  O   LIG d   1       7.553  -5.289  -5.036  0.00  0.00    -0.449 OA
ATOM     11  C   LIG d   1       6.910  -4.138  -4.816  0.00  0.00     0.220 A 
ATOM     12  O   LIG d   1       7.733  -9.839  -6.381  0.00  0.00    -0.873 OA
ATOM     13  H   LIG d   1       3.872  -7.529  -6.453  0.00  0.00     0.063 H 
ATOM     14  H   LIG d   1       5.168  -9.570  -6.812  0.00  0.00     0.061 H 
ENDROOT
BRANCH   8  15
ATOM     15  C   LIG d   1       9.144  -7.604  -5.412  0.00  0.00    -0.003 C 
ATOM     16  H   LIG d   1       9.517  -8.632  -5.537  0.00  0.00     0.087 H 
ATOM     17  H   LIG d   1       9.672  -6.935  -6.107  0.00  0.00     0.087 H 
BRANCH  15  18
ATOM     18  N   LIG d   1       9.380  -7.161  -4.031  0.00  0.00     0.239 N 
ATOM     19  C   LIG d   1      10.776  -6.707  -3.853  0.00  0.00    -0.031 C 
ATOM     20  C   LIG d   1      11.195  -7.086  -2.420  0.00  0.00    -0.008 C 
ATOM     21  H   LIG d   1      11.422  -7.205  -4.591  0.00  0.00     0.081 H 
ATOM     22  H   LIG d   1      10.828  -5.617  -3.997  0.00  0.00     0.081 H 
ATOM     23  C   LIG d   1       9.967  -7.806  -1.817  0.00  0.00    -0.008 C 
ATOM     24  H   LIG d   1      11.430  -6.196  -1.818  0.00  0.00     0.032 H 
ATOM     25  H   LIG d   1      12.058  -7.769  -2.417  0.00  0.00     0.032 H 
ATOM     26  C   LIG d   1       9.194  -8.281  -3.073  0.00  0.00    -0.031 C 
ATOM     27  H   LIG d   1       9.329  -7.133  -1.227  0.00  0.00     0.032 H 
ATOM     28  H   LIG d   1      10.245  -8.677  -1.207  0.00  0.00     0.032 H 
ATOM     29  H   LIG d   1       8.120  -8.422  -2.878  0.00  0.00     0.081 H 
ATOM     30  H   LIG d   1       9.612  -9.204  -3.502  0.00  0.00     0.081 H 
ATOM     31  H   LIG d   1       8.665  -6.346  -3.852  0.00  0.00     0.204 HD
ENDBRANCH  15  18
ENDBRANCH   8  15
BRANCH  11  32
ATOM     32  C   LIG d   1       7.695  -2.959  -4.302  0.00  0.00     0.451 C 
ATOM     33  F   LIG d   1       8.993  -3.368  -3.980  0.00  0.00    -0.163 F 
ATOM     34  F   LIG d   1       7.748  -1.968  -5.289  0.00  0.00    -0.163 F 
ATOM     35  F   LIG d   1       7.071  -2.446  -3.159  0.00  0.00    -0.163 F 
ENDBRANCH  11  32
BRANCH   1  36
ATOM     36  C   LIG d   1       4.909  -2.693  -4.780  0.00  0.00    -0.011 A 
ATOM     37  C   LIG d   1       4.863  -1.719  -5.776  0.00  0.00    -0.050 A 
ATOM     38  C   LIG d   1       4.239  -0.514  -5.532  0.00  0.00    -0.019 A 
ATOM     39  H   LIG d   1       5.315  -1.908  -6.738  0.00  0.00     0.062 H 
ATOM     40  C   LIG d   1       3.656  -0.269  -4.296  0.00  0.00     0.120 A 
ATOM     41  H   LIG d   1       4.203   0.241  -6.304  0.00  0.00     0.065 H 
ATOM     42  C   LIG d   1       3.700  -1.237  -3.302  0.00  0.00    -0.019 A 
ATOM     43  C   LIG d   1       4.320  -2.446  -3.540  0.00  0.00    -0.050 A 
ATOM     44  H   LIG d   1       3.247  -1.044  -2.341  0.00  0.00     0.065 H 
ATOM     45  H   LIG d   1       4.351  -3.200  -2.768  0.00  0.00     0.062 H 
BRANCH  40  46
ATOM     46  O   LIG d   1       3.041   0.919  -4.059  0.00  0.00    -0.495 OA
BRANCH  46  47
ATOM     47  C   LIG d   1       3.537   1.699  -2.969  0.00  0.00     0.079 C 
ATOM     48  H   LIG d   1       4.380   1.174  -2.496  0.00  0.00     0.066 H 
ATOM     49  H   LIG d   1       2.736   1.848  -2.230  0.00  0.00     0.066 H 
ATOM     50  H   LIG d   1       3.877   2.676  -3.343  0.00  0.00     0.066 H 
ENDBRANCH  46  47
ENDBRANCH  40  46
ENDBRANCH   1  36
TORSDOF 6
ENDMDL
MODEL 4
REMARK VINA RESULT:      -6.0      4.075      5.515
REMARK  6 active torsions:
REMARK  status: ('A' for Active; 'I' for Inactive)
REMARK    1  A    between atoms: C_1  and  O_2 
REMARK    2  A    between atoms: O_2  and  C_3 
REMARK    3  A    between atoms: C_6  and  C_9 
REMARK    4  A    between atoms: C_16  and  C_24 
REMARK    5  A    between atoms: C_19  and  C_20 
REMARK    6  A    between atoms: C_24  and  N_25 
ROOT
ATOM      1  C   LIG d   1       3.549  -4.396  -9.170  0.00  0.00     0.076 A 
ATOM      2  C   LIG d   1       2.852  -3.314  -9.887  0.00  0.00     0.201 A 
ATOM      3  O   LIG d   1       2.276  -3.515 -10.941  0.00  0.00    -0.286 OA
ATOM      4  C   LIG d   1       2.885  -1.978  -9.266  0.00  0.00     0.065 A 
ATOM      5  C   LIG d   1       2.256  -0.886  -9.864  0.00  0.00    -0.048 A 
ATOM      6  C   LIG d   1       2.306   0.339  -9.263  0.00  0.00    -0.068 A 
ATOM      7  C   LIG d   1       2.982   0.502  -8.054  0.00  0.00    -0.097 A 
ATOM      8  C   LIG d   1       3.611  -0.572  -7.449  0.00  0.00     0.032 A 
ATOM      9  C   LIG d   1       3.571  -1.825  -8.048  0.00  0.00     0.147 A 
ATOM     10  O   LIG d   1       4.178  -2.880  -7.471  0.00  0.00    -0.449 OA
ATOM     11  C   LIG d   1       4.173  -4.107  -7.999  0.00  0.00     0.220 A 
ATOM     12  O   LIG d   1       3.022   1.725  -7.467  0.00  0.00    -0.873 OA
ATOM     13  H   LIG d   1       1.732  -1.009 -10.800  0.00  0.00     0.063 H 
ATOM     14  H   LIG d   1       1.819   1.185  -9.724  0.00  0.00     0.061 H 
ENDROOT
BRANCH   8  15
ATOM     15  C   LIG d   1       4.344  -0.380  -6.146  0.00  0.00    -0.003 C 
ATOM     16  H   LIG d   1       5.355  -0.807  -6.228  0.00  0.00     0.087 H 
ATOM     17  H   LIG d   1       4.417   0.694  -5.920  0.00  0.00     0.087 H 
BRANCH  15  18
ATOM     18  N   LIG d   1       3.612  -1.059  -5.068  0.00  0.00     0.239 N 
ATOM     19  C   LIG d   1       2.855  -0.087  -4.250  0.00  0.00    -0.031 C 
ATOM     20  C   LIG d   1       2.865  -0.611  -2.801  0.00  0.00    -0.008 C 
ATOM     21  H   LIG d   1       3.340   0.899  -4.308  0.00  0.00     0.081 H 
ATOM     22  H   LIG d   1       1.825  -0.012  -4.628  0.00  0.00     0.081 H 
ATOM     23  C   LIG d   1       3.696  -1.915  -2.850  0.00  0.00    -0.008 C 
ATOM     24  H   LIG d   1       1.849  -0.838  -2.446  0.00  0.00     0.032 H 
ATOM     25  H   LIG d   1       3.344   0.102  -2.114  0.00  0.00     0.032 H 
ATOM     26  C   LIG d   1       4.546  -1.735  -4.133  0.00  0.00    -0.031 C 
ATOM     27  H   LIG d   1       3.069  -2.813  -2.948  0.00  0.00     0.032 H 
ATOM     28  H   LIG d   1       4.362  -2.025  -1.982  0.00  0.00     0.032 H 
ATOM     29  H   LIG d   1       4.865  -2.696  -4.564  0.00  0.00     0.081 H 
ATOM     30  H   LIG d   1       5.427  -1.098  -3.969  0.00  0.00     0.081 H 
ATOM     31  H   LIG d   1       2.942  -1.773  -5.566  0.00  0.00     0.204 HD
ENDBRANCH  15  18
ENDBRANCH   8  15
BRANCH  11  32
ATOM     32  C   LIG d   1       4.885  -5.214  -7.265  0.00  0.00     0.451 C 
ATOM     33  F   LIG d   1       5.299  -4.751  -6.012  0.00  0.00    -0.163 F 
ATOM     34  F   LIG d   1       4.017  -6.298  -7.099  0.00  0.00    -0.163 F 
ATOM     35  F   LIG d   1       6.002  -5.619  -8.004  0.00  0.00    -0.163 F 
ENDBRANCH  11  32
BRANCH   1  36
ATOM     36  C   LIG d   1       3.570  -5.774  -9.718  0.00  0.00    -0.011 A 
ATOM     37  C   LIG d   1       2.494  -6.632  -9.493  0.00  0.00    -0.050 A 
ATOM     38  C   LIG d   1       2.517  -7.913 -10.004  0.00  0.00    -0.019 A 
ATOM     39  H   LIG d   1       1.644  -6.294  -8.920  0.00  0.00     0.062 H 
ATOM     40  C   LIG d   1       3.609  -8.348 -10.742  0.00  0.00     0.120 A 
ATOM     41  H   LIG d   1       1.684  -8.577  -9.831  0.00  0.00     0.065 H 
ATOM     42  C   LIG d   1       4.682  -7.497 -10.968  0.00  0.00    -0.019 A 
ATOM     43  C   LIG d   1       4.664  -6.214 -10.462  0.00  0.00    -0.050 A 
ATOM     44  H   LIG d   1       5.530  -7.838 -11.541  0.00  0.00     0.065 H 
ATOM     45  H   LIG d   1       5.497  -5.550 -10.641  0.00  0.00     0.062 H 
BRANCH  40  46
ATOM     46  O   LIG d   1       3.628  -9.611 -11.245  0.00  0.00    -0.495 OA
BRANCH  46  47
ATOM     47  C   LIG d   1       2.677 -10.535 -10.712  0.00  0.00     0.079 C 
ATOM     48  H   LIG d   1       1.720 -10.019 -10.543  0.00  0.00     0.066 H 
ATOM     49  H   LIG d   1       3.051 -10.936  -9.758  0.00  0.00     0.066 H 
ATOM     50  H   LIG d   1       2.529 -11.360 -11.424  0.00  0.00     0.066 H 
ENDBRANCH  46  47
ENDBRANCH  40  46
ENDBRANCH   1  36
TORSDOF 6
ENDMDL
MODEL 5
REMARK VINA RESULT:      -6.0      5.307      8.384
REMARK  6 active torsions:
REMARK  status: ('A' for Active; 'I' for Inactive)
REMARK    1  A    between atoms: C_1  and  O_2 
REMARK    2  A    between atoms: O_2  and  C_3 
REMARK    3  A    between atoms: C_6  and  C_9 
REMARK    4  A    between atoms: C_16  and  C_24 
REMARK    5  A    between atoms: C_19  and  C_20 
REMARK    6  A    between atoms: C_24  and  N_25 
ROOT
ATOM      1  C   LIG d   1       8.160   1.062  -4.288  0.00  0.00     0.076 A 
ATOM      2  C   LIG d   1       6.833   0.857  -3.686  0.00  0.00     0.201 A 
ATOM      3  O   LIG d   1       6.284   1.731  -3.037  0.00  0.00    -0.286 OA
ATOM      4  C   LIG d   1       6.199  -0.456  -3.905  0.00  0.00     0.065 A 
ATOM      5  C   LIG d   1       4.943  -0.750  -3.376  0.00  0.00    -0.048 A 
ATOM      6  C   LIG d   1       4.384  -1.976  -3.598  0.00  0.00    -0.068 A 
ATOM      7  C   LIG d   1       5.064  -2.933  -4.350  0.00  0.00    -0.097 A 
ATOM      8  C   LIG d   1       6.311  -2.655  -4.881  0.00  0.00     0.032 A 
ATOM      9  C   LIG d   1       6.894  -1.413  -4.664  0.00  0.00     0.147 A 
ATOM     10  O   LIG d   1       8.108  -1.127  -5.175  0.00  0.00    -0.449 OA
ATOM     11  C   LIG d   1       8.718   0.049  -5.000  0.00  0.00     0.220 A 
ATOM     12  O   LIG d   1       4.496  -4.147  -4.564  0.00  0.00    -0.873 OA
ATOM     13  H   LIG d   1       4.413  -0.012  -2.793  0.00  0.00     0.063 H 
ATOM     14  H   LIG d   1       3.411  -2.206  -3.190  0.00  0.00     0.061 H 
ENDROOT
BRANCH   8  15
ATOM     15  C   LIG d   1       7.039  -3.701  -5.687  0.00  0.00    -0.003 C 
ATOM     16  H   LIG d   1       6.396  -4.040  -6.513  0.00  0.00     0.087 H 
ATOM     17  H   LIG d   1       7.966  -3.272  -6.095  0.00  0.00     0.087 H 
BRANCH  15  18
ATOM     18  N   LIG d   1       7.367  -4.843  -4.822  0.00  0.00     0.239 N 
ATOM     19  C   LIG d   1       8.694  -4.666  -4.194  0.00  0.00    -0.031 C 
ATOM     20  C   LIG d   1       9.327  -6.065  -4.073  0.00  0.00    -0.008 C 
ATOM     21  H   LIG d   1       9.315  -4.013  -4.824  0.00  0.00     0.081 H 
ATOM     22  H   LIG d   1       8.571  -4.209  -3.201  0.00  0.00     0.081 H 
ATOM     23  C   LIG d   1       8.294  -7.031  -4.698  0.00  0.00    -0.008 C 
ATOM     24  H   LIG d   1       9.499  -6.343  -3.023  0.00  0.00     0.032 H 
ATOM     25  H   LIG d   1      10.274  -6.132  -4.630  0.00  0.00     0.032 H 
ATOM     26  C   LIG d   1       7.456  -6.099  -5.610  0.00  0.00    -0.031 C 
ATOM     27  H   LIG d   1       7.638  -7.494  -3.946  0.00  0.00     0.032 H 
ATOM     28  H   LIG d   1       8.763  -7.816  -5.308  0.00  0.00     0.032 H 
ATOM     29  H   LIG d   1       6.444  -6.489  -5.794  0.00  0.00     0.081 H 
ATOM     30  H   LIG d   1       7.951  -5.895  -6.571  0.00  0.00     0.081 H 
ATOM     31  H   LIG d   1       6.568  -4.888  -4.069  0.00  0.00     0.204 HD
ENDBRANCH  15  18
ENDBRANCH   8  15
BRANCH  11  32
ATOM     32  C   LIG d   1      10.076   0.258  -5.617  0.00  0.00     0.451 C 
ATOM     33  F   LIG d   1      10.445  -0.887  -6.331  0.00  0.00    -0.163 F 
ATOM     34  F   LIG d   1      10.030   1.354  -6.486  0.00  0.00    -0.163 F 
ATOM     35  F   LIG d   1      11.015   0.501  -4.609  0.00  0.00    -0.163 F 
ENDBRANCH  11  32
BRANCH   1  36
ATOM     36  C   LIG d   1       8.876   2.351  -4.122  0.00  0.00    -0.011 A 
ATOM     37  C   LIG d   1       8.667   3.389  -5.028  0.00  0.00    -0.050 A 
ATOM     38  C   LIG d   1       9.333   4.585  -4.869  0.00  0.00    -0.019 A 
ATOM     39  H   LIG d   1       7.983   3.256  -5.853  0.00  0.00     0.062 H 
ATOM     40  C   LIG d   1      10.212   4.758  -3.808  0.00  0.00     0.120 A 
ATOM     41  H   LIG d   1       9.171   5.390  -5.571  0.00  0.00     0.065 H 
ATOM     42  C   LIG d   1      10.422   3.726  -2.904  0.00  0.00    -0.019 A 
ATOM     43  C   LIG d   1       9.756   2.528  -3.054  0.00  0.00    -0.050 A 
ATOM     44  H   LIG d   1      11.106   3.863  -2.079  0.00  0.00     0.065 H 
ATOM     45  H   LIG d   1       9.917   1.727  -2.348  0.00  0.00     0.062 H 
BRANCH  40  46
ATOM     46  O   LIG d   1      10.866   5.939  -3.654  0.00  0.00    -0.495 OA
BRANCH  46  47
ATOM     47  C   LIG d   1      10.125   7.022  -3.090  0.00  0.00     0.079 C 
ATOM     48  H   LIG d   1       9.774   6.742  -2.086  0.00  0.00     0.066 H 
ATOM     49  H   LIG d   1       9.259   7.248  -3.731  0.00  0.00     0.066 H 
ATOM     50  H   LIG d   1      10.770   7.910  -3.019  0.00  0.00     0.066 H 
ENDBRANCH  46  47
ENDBRANCH  40  46
ENDBRANCH   1  36
TORSDOF 6
ENDMDL
MODEL 6
REMARK VINA RESULT:      -5.9      8.535     11.901
REMARK  6 active torsions:
REMARK  status: ('A' for Active; 'I' for Inactive)
REMARK    1  A    between atoms: C_1  and  O_2 
REMARK    2  A    between atoms: O_2  and  C_3 
REMARK    3  A    between atoms: C_6  and  C_9 
REMARK    4  A    between atoms: C_16  and  C_24 
REMARK    5  A    between atoms: C_19  and  C_20 
REMARK    6  A    between atoms: C_24  and  N_25 
ROOT
ATOM      1  C   LIG d   1      10.643   5.820  -2.517  0.00  0.00     0.076 A 
ATOM      2  C   LIG d   1      11.090   6.154  -1.155  0.00  0.00     0.201 A 
ATOM      3  O   LIG d   1      11.631   5.328  -0.440  0.00  0.00    -0.286 OA
ATOM      4  C   LIG d   1      10.852   7.535  -0.697  0.00  0.00     0.065 A 
ATOM      5  C   LIG d   1      11.238   7.952   0.577  0.00  0.00    -0.048 A 
ATOM      6  C   LIG d   1      11.003   9.238   0.969  0.00  0.00    -0.068 A 
ATOM      7  C   LIG d   1      10.380  10.135   0.103  0.00  0.00    -0.097 A 
ATOM      8  C   LIG d   1       9.992   9.736  -1.164  0.00  0.00     0.032 A 
ATOM      9  C   LIG d   1      10.223   8.430  -1.579  0.00  0.00     0.147 A 
ATOM     10  O   LIG d   1       9.851   8.026  -2.809  0.00  0.00    -0.449 OA
ATOM     11  C   LIG d   1      10.047   6.785  -3.263  0.00  0.00     0.220 A 
ATOM     12  O   LIG d   1      10.154  11.411   0.506  0.00  0.00    -0.873 OA
ATOM     13  H   LIG d   1      11.721   7.260   1.251  0.00  0.00     0.063 H 
ATOM     14  H   LIG d   1      11.302   9.563   1.955  0.00  0.00     0.061 H 
ENDROOT
BRANCH   8  15
ATOM     15  C   LIG d   1       9.313  10.714  -2.088  0.00  0.00    -0.003 C 
ATOM     16  H   LIG d   1       8.278  10.388  -2.271  0.00  0.00     0.087 H 
ATOM     17  H   LIG d   1       9.307  11.712  -1.627  0.00  0.00     0.087 H 
BRANCH  15  18
ATOM     18  N   LIG d   1      10.041  10.768  -3.364  0.00  0.00     0.239 N 
ATOM     19  C   LIG d   1      11.038  11.860  -3.357  0.00  0.00    -0.031 C 
ATOM     20  C   LIG d   1      11.107  12.417  -4.792  0.00  0.00    -0.008 C 
ATOM     21  H   LIG d   1      10.720  12.643  -2.653  0.00  0.00     0.081 H 
ATOM     22  H   LIG d   1      12.015  11.463  -3.048  0.00  0.00     0.081 H 
ATOM     23  C   LIG d   1      10.071  11.595  -5.594  0.00  0.00    -0.008 C 
ATOM     24  H   LIG d   1      12.105  12.277  -5.233  0.00  0.00     0.032 H 
ATOM     25  H   LIG d   1      10.836  13.482  -4.828  0.00  0.00     0.032 H 
ATOM     26  C   LIG d   1       9.121  11.065  -4.490  0.00  0.00    -0.031 C 
ATOM     27  H   LIG d   1      10.524  10.746  -6.126  0.00  0.00     0.032 H 
ATOM     28  H   LIG d   1       9.500  12.211  -6.304  0.00  0.00     0.032 H 
ATOM     29  H   LIG d   1       8.599  10.144  -4.791  0.00  0.00     0.081 H 
ATOM     30  H   LIG d   1       8.383  11.817  -4.173  0.00  0.00     0.081 H 
ATOM     31  H   LIG d   1      10.521   9.785  -3.475  0.00  0.00     0.204 HD
ENDBRANCH  15  18
ENDBRANCH   8  15
BRANCH  11  32
ATOM     32  C   LIG d   1       9.590   6.445  -4.658  0.00  0.00     0.451 C 
ATOM     33  F   LIG d   1      10.689   6.042  -5.424  0.00  0.00    -0.163 F 
ATOM     34  F   LIG d   1       8.654   5.405  -4.602  0.00  0.00    -0.163 F 
ATOM     35  F   LIG d   1       9.001   7.570  -5.244  0.00  0.00    -0.163 F 
ENDBRANCH  11  32
BRANCH   1  36
ATOM     36  C   LIG d   1      10.840   4.456  -3.064  0.00  0.00    -0.011 A 
ATOM     37  C   LIG d   1      12.052   4.108  -3.658  0.00  0.00    -0.050 A 
ATOM     38  C   LIG d   1      12.231   2.838  -4.165  0.00  0.00    -0.019 A 
ATOM     39  H   LIG d   1      12.851   4.832  -3.719  0.00  0.00     0.062 H 
ATOM     40  C   LIG d   1      11.206   1.906  -4.085  0.00  0.00     0.120 A 
ATOM     41  H   LIG d   1      13.171   2.569  -4.624  0.00  0.00     0.065 H 
ATOM     42  C   LIG d   1       9.997   2.248  -3.495  0.00  0.00    -0.019 A 
ATOM     43  C   LIG d   1       9.813   3.515  -2.982  0.00  0.00    -0.050 A 
ATOM     44  H   LIG d   1       9.202   1.521  -3.434  0.00  0.00     0.065 H 
ATOM     45  H   LIG d   1       8.873   3.780  -2.520  0.00  0.00     0.062 H 
BRANCH  40  46
ATOM     46  O   LIG d   1      11.386   0.655  -4.585  0.00  0.00    -0.495 OA
BRANCH  46  47
ATOM     47  C   LIG d   1      12.554  -0.051  -4.161  0.00  0.00     0.079 C 
ATOM     48  H   LIG d   1      13.431   0.332  -4.702  0.00  0.00     0.066 H 
ATOM     49  H   LIG d   1      12.432  -1.124  -4.372  0.00  0.00     0.066 H 
ATOM     50  H   LIG d   1      12.698   0.095  -3.080  0.00  0.00     0.066 H 
ENDBRANCH  46  47
ENDBRANCH  40  46
ENDBRANCH   1  36
TORSDOF 6
ENDMDL
MODEL 7
REMARK VINA RESULT:      -5.8      4.531      7.532
REMARK  6 active torsions:
REMARK  status: ('A' for Active; 'I' for Inactive)
REMARK    1  A    between atoms: C_1  and  O_2 
REMARK    2  A    between atoms: O_2  and  C_3 
REMARK    3  A    between atoms: C_6  and  C_9 
REMARK    4  A    between atoms: C_16  and  C_24 
REMARK    5  A    between atoms: C_19  and  C_20 
REMARK    6  A    between atoms: C_24  and  N_25 
ROOT
ATOM      1  C   LIG d   1       8.777   2.529  -7.112  0.00  0.00     0.076 A 
ATOM      2  C   LIG d   1       7.999   2.082  -8.279  0.00  0.00     0.201 A 
ATOM      3  O   LIG d   1       8.227   2.504  -9.400  0.00  0.00    -0.286 OA
ATOM      4  C   LIG d   1       6.931   1.097  -8.028  0.00  0.00     0.065 A 
ATOM      5  C   LIG d   1       6.137   0.609  -9.066  0.00  0.00    -0.048 A 
ATOM      6  C   LIG d   1       5.157  -0.303  -8.798  0.00  0.00    -0.068 A 
ATOM      7  C   LIG d   1       4.947  -0.748  -7.494  0.00  0.00    -0.097 A 
ATOM      8  C   LIG d   1       5.727  -0.272  -6.454  0.00  0.00     0.032 A 
ATOM      9  C   LIG d   1       6.728   0.656  -6.708  0.00  0.00     0.147 A 
ATOM     10  O   LIG d   1       7.496   1.127  -5.707  0.00  0.00    -0.449 OA
ATOM     11  C   LIG d   1       8.473   2.020  -5.891  0.00  0.00     0.220 A 
ATOM     12  O   LIG d   1       3.970  -1.655  -7.243  0.00  0.00    -0.873 OA
ATOM     13  H   LIG d   1       6.297   0.952 -10.077  0.00  0.00     0.063 H 
ATOM     14  H   LIG d   1       4.541  -0.681  -9.600  0.00  0.00     0.061 H 
ENDROOT
BRANCH   8  15
ATOM     15  C   LIG d   1       5.485  -0.757  -5.047  0.00  0.00    -0.003 C 
ATOM     16  H   LIG d   1       4.692  -1.520  -5.053  0.00  0.00     0.087 H 
ATOM     17  H   LIG d   1       6.411  -1.193  -4.644  0.00  0.00     0.087 H 
BRANCH  15  18
ATOM     18  N   LIG d   1       5.070   0.374  -4.205  0.00  0.00     0.239 N 
ATOM     19  C   LIG d   1       5.714   0.308  -2.876  0.00  0.00    -0.031 C 
ATOM     20  C   LIG d   1       4.705   0.867  -1.856  0.00  0.00    -0.008 C 
ATOM     21  H   LIG d   1       5.965  -0.737  -2.640  0.00  0.00     0.081 H 
ATOM     22  H   LIG d   1       6.633   0.913  -2.884  0.00  0.00     0.081 H 
ATOM     23  C   LIG d   1       3.448   1.220  -2.685  0.00  0.00    -0.008 C 
ATOM     24  H   LIG d   1       5.086   1.774  -1.364  0.00  0.00     0.032 H 
ATOM     25  H   LIG d   1       4.442   0.120  -1.093  0.00  0.00     0.032 H 
ATOM     26  C   LIG d   1       3.608   0.338  -3.949  0.00  0.00    -0.031 C 
ATOM     27  H   LIG d   1       3.418   2.280  -2.979  0.00  0.00     0.032 H 
ATOM     28  H   LIG d   1       2.513   0.957  -2.170  0.00  0.00     0.032 H 
ATOM     29  H   LIG d   1       3.073   0.748  -4.818  0.00  0.00     0.081 H 
ATOM     30  H   LIG d   1       3.290  -0.701  -3.780  0.00  0.00     0.081 H 
ATOM     31  H   LIG d   1       5.368   1.279  -4.753  0.00  0.00     0.204 HD
ENDBRANCH  15  18
ENDBRANCH   8  15
BRANCH  11  32
ATOM     32  C   LIG d   1       9.269   2.478  -4.696  0.00  0.00     0.451 C 
ATOM     33  F   LIG d   1       9.132   3.861  -4.546  0.00  0.00    -0.163 F 
ATOM     34  F   LIG d   1       8.797   1.834  -3.547  0.00  0.00    -0.163 F 
ATOM     35  F   LIG d   1      10.619   2.162  -4.886  0.00  0.00    -0.163 F 
ENDBRANCH  11  32
BRANCH   1  36
ATOM     36  C   LIG d   1       9.871   3.519  -7.268  0.00  0.00    -0.011 A 
ATOM     37  C   LIG d   1      11.171   3.088  -7.528  0.00  0.00    -0.050 A 
ATOM     38  C   LIG d   1      12.186   4.010  -7.672  0.00  0.00    -0.019 A 
ATOM     39  H   LIG d   1      11.383   2.033  -7.617  0.00  0.00     0.062 H 
ATOM     40  C   LIG d   1      11.914   5.367  -7.559  0.00  0.00     0.120 A 
ATOM     41  H   LIG d   1      13.193   3.677  -7.874  0.00  0.00     0.065 H 
ATOM     42  C   LIG d   1      10.621   5.800  -7.300  0.00  0.00    -0.019 A 
ATOM     43  C   LIG d   1       9.601   4.882  -7.158  0.00  0.00    -0.050 A 
ATOM     44  H   LIG d   1      10.413   6.855  -7.212  0.00  0.00     0.065 H 
ATOM     45  H   LIG d   1       8.594   5.220  -6.960  0.00  0.00     0.062 H 
BRANCH  40  46
ATOM     46  O   LIG d   1      12.917   6.274  -7.703  0.00  0.00    -0.495 OA
BRANCH  46  47
ATOM     47  C   LIG d   1      13.266   6.649  -9.036  0.00  0.00     0.079 C 
ATOM     48  H   LIG d   1      13.233   5.762  -9.687  0.00  0.00     0.066 H 
ATOM     49  H   LIG d   1      14.281   7.072  -9.045  0.00  0.00     0.066 H 
ATOM     50  H   LIG d   1      12.553   7.400  -9.405  0.00  0.00     0.066 H 
ENDBRANCH  46  47
ENDBRANCH  40  46
ENDBRANCH   1  36
TORSDOF 6
ENDMDL
MODEL 8
REMARK VINA RESULT:      -5.8      3.733      7.814
REMARK  6 active torsions:
REMARK  status: ('A' for Active; 'I' for Inactive)
REMARK    1  A    between atoms: C_1  and  O_2 
REMARK    2  A    between atoms: O_2  and  C_3 
REMARK    3  A    between atoms: C_6  and  C_9 
REMARK    4  A    between atoms: C_16  and  C_24 
REMARK    5  A    between atoms: C_19  and  C_20 
REMARK    6  A    between atoms: C_24  and  N_25 
ROOT
ATOM      1  C   LIG d   1       7.301  -2.621  -4.766  0.00  0.00     0.076 A 
ATOM      2  C   LIG d   1       6.599  -1.992  -3.635  0.00  0.00     0.201 A 
ATOM      3  O   LIG d   1       6.993  -2.118  -2.488  0.00  0.00    -0.286 OA
ATOM      4  C   LIG d   1       5.397  -1.202  -3.956  0.00  0.00     0.065 A 
ATOM      5  C   LIG d   1       4.661  -0.566  -2.957  0.00  0.00    -0.048 A 
ATOM      6  C   LIG d   1       3.552   0.159  -3.289  0.00  0.00    -0.068 A 
ATOM      7  C   LIG d   1       3.154   0.266  -4.621  0.00  0.00    -0.097 A 
ATOM      8  C   LIG d   1       3.875  -0.360  -5.623  0.00  0.00     0.032 A 
ATOM      9  C   LIG d   1       5.005  -1.102  -5.302  0.00  0.00     0.147 A 
ATOM     10  O   LIG d   1       5.717  -1.717  -6.267  0.00  0.00    -0.449 OA
ATOM     11  C   LIG d   1       6.811  -2.443  -6.019  0.00  0.00     0.220 A 
ATOM     12  O   LIG d   1       2.051   0.990  -4.936  0.00  0.00    -0.873 OA
ATOM     13  H   LIG d   1       4.966  -0.646  -1.924  0.00  0.00     0.063 H 
ATOM     14  H   LIG d   1       2.981   0.652  -2.516  0.00  0.00     0.061 H 
ENDROOT
BRANCH   8  15
ATOM     15  C   LIG d   1       3.430  -0.243  -7.058  0.00  0.00    -0.003 C 
ATOM     16  H   LIG d   1       3.856  -1.071  -7.643  0.00  0.00     0.087 H 
ATOM     17  H   LIG d   1       2.332  -0.287  -7.107  0.00  0.00     0.087 H 
BRANCH  15  18
ATOM     18  N   LIG d   1       3.894   1.037  -7.611  0.00  0.00     0.239 N 
ATOM     19  C   LIG d   1       2.808   1.719  -8.348  0.00  0.00    -0.031 C 
ATOM     20  C   LIG d   1       3.461   2.466  -9.526  0.00  0.00    -0.008 C 
ATOM     21  H   LIG d   1       2.087   0.974  -8.713  0.00  0.00     0.081 H 
ATOM     22  H   LIG d   1       2.297   2.425  -7.677  0.00  0.00     0.081 H 
ATOM     23  C   LIG d   1       4.969   2.137  -9.426  0.00  0.00    -0.008 C 
ATOM     24  H   LIG d   1       3.318   3.553  -9.446  0.00  0.00     0.032 H 
ATOM     25  H   LIG d   1       3.074   2.115 -10.494  0.00  0.00     0.032 H 
ATOM     26  C   LIG d   1       4.983   0.827  -8.598  0.00  0.00    -0.031 C 
ATOM     27  H   LIG d   1       5.537   2.913  -8.893  0.00  0.00     0.032 H 
ATOM     28  H   LIG d   1       5.429   1.955 -10.407  0.00  0.00     0.032 H 
ATOM     29  H   LIG d   1       5.935   0.676  -8.067  0.00  0.00     0.081 H 
ATOM     30  H   LIG d   1       4.760  -0.060  -9.209  0.00  0.00     0.081 H 
ATOM     31  H   LIG d   1       4.230   1.630  -6.749  0.00  0.00     0.204 HD
ENDBRANCH  15  18
ENDBRANCH   8  15
BRANCH  11  32
ATOM     32  C   LIG d   1       7.530  -3.086  -7.177  0.00  0.00     0.451 C 
ATOM     33  F   LIG d   1       6.849  -2.799  -8.365  0.00  0.00    -0.163 F 
ATOM     34  F   LIG d   1       8.834  -2.584  -7.254  0.00  0.00    -0.163 F 
ATOM     35  F   LIG d   1       7.573  -4.471  -6.988  0.00  0.00    -0.163 F 
ENDBRANCH  11  32
BRANCH   1  36
ATOM     36  C   LIG d   1       8.520  -3.436  -4.540  0.00  0.00    -0.011 A 
ATOM     37  C   LIG d   1       8.413  -4.807  -4.313  0.00  0.00    -0.050 A 
ATOM     38  C   LIG d   1       9.549  -5.561  -4.104  0.00  0.00    -0.019 A 
ATOM     39  H   LIG d   1       7.442  -5.278  -4.301  0.00  0.00     0.062 H 
ATOM     40  C   LIG d   1      10.799  -4.956  -4.121  0.00  0.00     0.120 A 
ATOM     41  H   LIG d   1       9.466  -6.623  -3.929  0.00  0.00     0.065 H 
ATOM     42  C   LIG d   1      10.909  -3.591  -4.346  0.00  0.00    -0.019 A 
ATOM     43  C   LIG d   1       9.777  -2.832  -4.559  0.00  0.00    -0.050 A 
ATOM     44  H   LIG d   1      11.882  -3.123  -4.358  0.00  0.00     0.065 H 
ATOM     45  H   LIG d   1       9.864  -1.770  -4.739  0.00  0.00     0.062 H 
BRANCH  40  46
ATOM     46  O   LIG d   1      11.916  -5.702  -3.915  0.00  0.00    -0.495 OA
BRANCH  46  47
ATOM     47  C   LIG d   1      11.780  -6.858  -3.086  0.00  0.00     0.079 C 
ATOM     48  H   LIG d   1      12.665  -6.951  -2.439  0.00  0.00     0.066 H 
ATOM     49  H   LIG d   1      11.691  -7.755  -3.717  0.00  0.00     0.066 H 
ATOM     50  H   LIG d   1      10.879  -6.759  -2.463  0.00  0.00     0.066 H 
ENDBRANCH  46  47
ENDBRANCH  40  46
ENDBRANCH   1  36
TORSDOF 6
ENDMDL
MODEL 9
REMARK VINA RESULT:      -5.8     10.685     11.973
REMARK  6 active torsions:
REMARK  status: ('A' for Active; 'I' for Inactive)
REMARK    1  A    between atoms: C_1  and  O_2 
REMARK    2  A    between atoms: O_2  and  C_3 
REMARK    3  A    between atoms: C_6  and  C_9 
REMARK    4  A    between atoms: C_16  and  C_24 
REMARK    5  A    between atoms: C_19  and  C_20 
REMARK    6  A    between atoms: C_24  and  N_25 
ROOT
ATOM      1  C   LIG d   1       7.679 -10.038  -2.709  0.00  0.00     0.076 A 
ATOM      2  C   LIG d   1       8.398  -8.889  -3.284  0.00  0.00     0.201 A 
ATOM      3  O   LIG d   1       7.944  -8.254  -4.221  0.00  0.00    -0.286 OA
ATOM      4  C   LIG d   1       9.693  -8.541  -2.672  0.00  0.00     0.065 A 
ATOM      5  C   LIG d   1      10.453  -7.470  -3.142  0.00  0.00    -0.048 A 
ATOM      6  C   LIG d   1      11.648  -7.175  -2.552  0.00  0.00    -0.068 A 
ATOM      7  C   LIG d   1      12.112  -7.940  -1.482  0.00  0.00    -0.097 A 
ATOM      8  C   LIG d   1      11.369  -9.006  -1.005  0.00  0.00     0.032 A 
ATOM      9  C   LIG d   1      10.151  -9.320  -1.594  0.00  0.00     0.147 A 
ATOM     10  O   LIG d   1       9.416 -10.354  -1.140  0.00  0.00    -0.449 OA
ATOM     11  C   LIG d   1       8.239 -10.703  -1.666  0.00  0.00     0.220 A 
ATOM     12  O   LIG d   1      13.301  -7.635  -0.905  0.00  0.00    -0.873 OA
ATOM     13  H   LIG d   1      10.096  -6.876  -3.971  0.00  0.00     0.063 H 
ATOM     14  H   LIG d   1      12.237  -6.346  -2.915  0.00  0.00     0.061 H 
ENDROOT
BRANCH   8  15
ATOM     15  C   LIG d   1      11.885  -9.828   0.148  0.00  0.00    -0.003 C 
ATOM     16  H   LIG d   1      11.130 -10.577   0.432  0.00  0.00     0.087 H 
ATOM     17  H   LIG d   1      12.813 -10.339  -0.151  0.00  0.00     0.087 H 
BRANCH  15  18
ATOM     18  N   LIG d   1      12.158  -8.949   1.293  0.00  0.00     0.239 N 
ATOM     19  C   LIG d   1      13.198  -9.529   2.170  0.00  0.00    -0.031 C 
ATOM     20  C   LIG d   1      12.845  -9.130   3.615  0.00  0.00    -0.008 C 
ATOM     21  H   LIG d   1      13.202 -10.624   2.060  0.00  0.00     0.081 H 
ATOM     22  H   LIG d   1      14.182  -9.128   1.886  0.00  0.00     0.081 H 
ATOM     23  C   LIG d   1      11.532  -8.320   3.501  0.00  0.00    -0.008 C 
ATOM     24  H   LIG d   1      13.626  -8.499   4.063  0.00  0.00     0.032 H 
ATOM     25  H   LIG d   1      12.677 -10.012   4.250  0.00  0.00     0.032 H 
ATOM     26  C   LIG d   1      10.951  -8.794   2.144  0.00  0.00    -0.031 C 
ATOM     27  H   LIG d   1      11.705  -7.235   3.466  0.00  0.00     0.032 H 
ATOM     28  H   LIG d   1      10.820  -8.553   4.305  0.00  0.00     0.032 H 
ATOM     29  H   LIG d   1      10.277  -8.050   1.693  0.00  0.00     0.081 H 
ATOM     30  H   LIG d   1      10.430  -9.759   2.223  0.00  0.00     0.081 H 
ATOM     31  H   LIG d   1      12.483  -7.991   0.863  0.00  0.00     0.204 HD
ENDBRANCH  15  18
ENDBRANCH   8  15
BRANCH  11  32
ATOM     32  C   LIG d   1       7.503 -11.878  -1.077  0.00  0.00     0.451 C 
ATOM     33  F   LIG d   1       7.163 -12.774  -2.097  0.00  0.00    -0.163 F 
ATOM     34  F   LIG d   1       8.324 -12.522  -0.145  0.00  0.00    -0.163 F 
ATOM     35  F   LIG d   1       6.339 -11.431  -0.443  0.00  0.00    -0.163 F 
ENDBRANCH  11  32
BRANCH   1  36
ATOM     36  C   LIG d   1       6.369 -10.462  -3.260  0.00  0.00    -0.011 A 
ATOM     37  C   LIG d   1       5.186 -10.000  -2.684  0.00  0.00    -0.050 A 
ATOM     38  C   LIG d   1       3.970 -10.396  -3.199  0.00  0.00    -0.019 A 
ATOM     39  H   LIG d   1       5.223  -9.332  -1.837  0.00  0.00     0.062 H 
ATOM     40  C   LIG d   1       3.921 -11.253  -4.290  0.00  0.00     0.120 A 
ATOM     41  H   LIG d   1       3.054 -10.037  -2.754  0.00  0.00     0.065 H 
ATOM     42  C   LIG d   1       5.097 -11.715  -4.865  0.00  0.00    -0.019 A 
ATOM     43  C   LIG d   1       6.317 -11.320  -4.358  0.00  0.00    -0.050 A 
ATOM     44  H   LIG d   1       5.056 -12.382  -5.713  0.00  0.00     0.065 H 
ATOM     45  H   LIG d   1       7.231 -11.677  -4.808  0.00  0.00     0.062 H 
BRANCH  40  46
ATOM     46  O   LIG d   1       2.721 -11.641  -4.795  0.00  0.00    -0.495 OA
BRANCH  46  47
ATOM     47  C   LIG d   1       2.744 -12.515  -5.925  0.00  0.00     0.079 C 
ATOM     48  H   LIG d   1       3.506 -13.293  -5.770  0.00  0.00     0.066 H 
ATOM     49  H   LIG d   1       2.987 -11.938  -6.830  0.00  0.00     0.066 H 
ATOM     50  H   LIG d   1       1.758 -12.986  -6.045  0.00  0.00     0.066 H 
ENDBRANCH  46  47
ENDBRANCH  40  46
ENDBRANCH   1  36
TORSDOF 6
ENDMDL
MODEL 10
REMARK VINA RESULT:      -5.8      5.459      8.440
REMARK  6 active torsions:
REMARK  status: ('A' for Active; 'I' for Inactive)
REMARK    1  A    between atoms: C_1  and  O_2 
REMARK    2  A    between atoms: O_2  and  C_3 
REMARK    3  A    between atoms: C_6  and  C_9 
REMARK    4  A    between atoms: C_16  and  C_24 
REMARK    5  A    between atoms: C_19  and  C_20 
REMARK    6  A    between atoms: C_24  and  N_25 
ROOT
ATOM      1  C   LIG d   1       9.622   3.979  -6.244  0.00  0.00     0.076 A 
ATOM      2  C   LIG d   1       9.115   3.187  -7.376  0.00  0.00     0.201 A 
ATOM      3  O   LIG d   1       9.298   3.531  -8.531  0.00  0.00    -0.286 OA
ATOM      4  C   LIG d   1       8.373   1.956  -7.046  0.00  0.00     0.065 A 
ATOM      5  C   LIG d   1       7.851   1.135  -8.046  0.00  0.00    -0.048 A 
ATOM      6  C   LIG d   1       7.170   0.002  -7.705  0.00  0.00    -0.068 A 
ATOM      7  C   LIG d   1       6.995  -0.338  -6.364  0.00  0.00    -0.097 A 
ATOM      8  C   LIG d   1       7.507   0.467  -5.362  0.00  0.00     0.032 A 
ATOM      9  C   LIG d   1       8.202   1.624  -5.691  0.00  0.00     0.147 A 
ATOM     10  O   LIG d   1       8.708   2.418  -4.726  0.00  0.00    -0.449 OA
ATOM     11  C   LIG d   1       9.384   3.541  -4.981  0.00  0.00     0.220 A 
ATOM     12  O   LIG d   1       6.317  -1.468  -6.041  0.00  0.00    -0.873 OA
ATOM     13  H   LIG d   1       7.985   1.395  -9.085  0.00  0.00     0.063 H 
ATOM     14  H   LIG d   1       6.766  -0.635  -8.478  0.00  0.00     0.061 H 
ENDROOT
BRANCH   8  15
ATOM     15  C   LIG d   1       7.305   0.092  -3.916  0.00  0.00    -0.003 C 
ATOM     16  H   LIG d   1       7.704  -0.918  -3.740  0.00  0.00     0.087 H 
ATOM     17  H   LIG d   1       7.832   0.812  -3.273  0.00  0.00     0.087 H 
BRANCH  15  18
ATOM     18  N   LIG d   1       5.869   0.114  -3.602  0.00  0.00     0.239 N 
ATOM     19  C   LIG d   1       5.525   1.298  -2.785  0.00  0.00    -0.031 C 
ATOM     20  C   LIG d   1       4.398   0.873  -1.825  0.00  0.00    -0.008 C 
ATOM     21  H   LIG d   1       6.411   1.626  -2.222  0.00  0.00     0.081 H 
ATOM     22  H   LIG d   1       5.187   2.112  -3.443  0.00  0.00     0.081 H 
ATOM     23  C   LIG d   1       4.154  -0.624  -2.128  0.00  0.00    -0.008 C 
ATOM     24  H   LIG d   1       3.474   1.440  -2.009  0.00  0.00     0.032 H 
ATOM     25  H   LIG d   1       4.697   0.989  -0.772  0.00  0.00     0.032 H 
ATOM     26  C   LIG d   1       5.485  -1.066  -2.786  0.00  0.00    -0.031 C 
ATOM     27  H   LIG d   1       3.326  -0.783  -2.834  0.00  0.00     0.032 H 
ATOM     28  H   LIG d   1       3.979  -1.217  -1.219  0.00  0.00     0.032 H 
ATOM     29  H   LIG d   1       5.360  -1.940  -3.442  0.00  0.00     0.081 H 
ATOM     30  H   LIG d   1       6.272  -1.273  -2.046  0.00  0.00     0.081 H 
ATOM     31  H   LIG d   1       5.352   0.129  -4.571  0.00  0.00     0.204 HD
ENDBRANCH  15  18
ENDBRANCH   8  15
BRANCH  11  32
ATOM     32  C   LIG d   1       9.904   4.351  -3.823  0.00  0.00     0.451 C 
ATOM     33  F   LIG d   1       9.586   3.706  -2.623  0.00  0.00    -0.163 F 
ATOM     34  F   LIG d   1      11.294   4.480  -3.929  0.00  0.00    -0.163 F 
ATOM     35  F   LIG d   1       9.315   5.620  -3.839  0.00  0.00    -0.163 F 
ENDBRANCH  11  32
BRANCH   1  36
ATOM     36  C   LIG d   1      10.379   5.233  -6.479  0.00  0.00    -0.011 A 
ATOM     37  C   LIG d   1      11.763   5.194  -6.643  0.00  0.00    -0.050 A 
ATOM     38  C   LIG d   1      12.463   6.362  -6.861  0.00  0.00    -0.019 A 
ATOM     39  H   LIG d   1      12.286   4.250  -6.601  0.00  0.00     0.062 H 
ATOM     40  C   LIG d   1      11.792   7.576  -6.918  0.00  0.00     0.120 A 
ATOM     41  H   LIG d   1      13.535   6.332  -6.989  0.00  0.00     0.065 H 
ATOM     42  C   LIG d   1      10.415   7.618  -6.754  0.00  0.00    -0.019 A 
ATOM     43  C   LIG d   1       9.708   6.454  -6.540  0.00  0.00    -0.050 A 
ATOM     44  H   LIG d   1       9.895   8.564  -6.798  0.00  0.00     0.065 H 
ATOM     45  H   LIG d   1       8.635   6.487  -6.416  0.00  0.00     0.062 H 
BRANCH  40  46
ATOM     46  O   LIG d   1      12.486   8.725  -7.134  0.00  0.00    -0.495 OA
BRANCH  46  47
ATOM     47  C   LIG d   1      11.868   9.943  -6.715  0.00  0.00     0.079 C 
ATOM     48  H   LIG d   1      11.121   9.726  -5.937  0.00  0.00     0.066 H 
ATOM     49  H   LIG d   1      11.375  10.419  -7.575  0.00  0.00     0.066 H 
ATOM     50  H   LIG d   1      12.633  10.622  -6.309  0.00  0.00     0.066 H 
ENDBRANCH  46  47
ENDBRANCH  40  46
ENDBRANCH   1  36
TORSDOF 6
ENDMDL
