MODEL 1
REMARK VINA RESULT:      -6.8      0.000      0.000
REMARK  11 active torsions:
REMARK  status: ('A' for Active; 'I' for Inactive)
REMARK    1  A    between atoms: C_1  and  C_2 
REMARK    2  A    between atoms: C_2  and  C_3 
REMARK    3  A    between atoms: C_2  and  N_4 
REMARK       I    between atoms: N_4  and  C_5 
REMARK       I    between atoms: C_5  and  N_7 
REMARK    4  A    between atoms: N_7  and  C_8 
REMARK    5  A    between atoms: C_8  and  C_9 
REMARK    6  A    between atoms: C_17  and  C_19 
REMARK    7  A    between atoms: C_19  and  N_63 
REMARK    8  A    between atoms: C_20  and  N_63 
REMARK    9  A    between atoms: C_21  and  C_22 
REMARK   10  A    between atoms: C_21  and  N_63 
REMARK   11  A    between atoms: C_22  and  C_23 
ROOT
ATOM      1  C   LIG d   1       2.449  -1.273 -11.041  0.00  0.00    -0.005 C 
ATOM      2  H   LIG d   1       1.979  -1.085 -12.007  0.00  0.00     0.087 H 
ATOM      3  C   LIG d   1       1.786  -0.399  -9.972  0.00  0.00    -0.005 C 
ATOM      4  C   LIG d   1       2.848   0.518  -9.354  0.00  0.00    -0.019 C 
ATOM      5  H   LIG d   1       2.409   1.156  -8.586  0.00  0.00     0.031 H 
ATOM      6  C   LIG d   1       3.460   1.377 -10.467  0.00  0.00    -0.009 C 
ATOM      7  C   LIG d   1       4.076   0.455 -11.522  0.00  0.00    -0.031 C 
ATOM      8  C   LIG d   1       4.557  -1.228  -9.847  0.00  0.00    -0.024 C 
ATOM      9  C   LIG d   1       3.954  -0.353  -8.744  0.00  0.00     0.042 C 
ATOM     10  H   LIG d   1       4.730   0.283  -8.318  0.00  0.00     0.041 H 
ATOM     11  H   LIG d   1       1.357  -1.034  -9.197  0.00  0.00     0.032 H 
ATOM     12  H   LIG d   1       1.001   0.205 -10.426  0.00  0.00     0.032 H 
ATOM     13  H   LIG d   1       4.234   2.021 -10.048  0.00  0.00     0.032 H 
ATOM     14  H   LIG d   1       2.685   1.991 -10.926  0.00  0.00     0.032 H 
ATOM     15  H   LIG d   1       5.143   0.662 -11.608  0.00  0.00     0.081 H 
ATOM     16  H   LIG d   1       3.594   0.628 -12.484  0.00  0.00     0.081 H 
ATOM     17  H   LIG d   1       5.620  -1.009  -9.945  0.00  0.00     0.082 H 
ATOM     18  H   LIG d   1       4.423  -2.280  -9.591  0.00  0.00     0.082 H 
ATOM     19  N   LIG d   1       3.891  -0.962 -11.141  0.00  0.00     0.239 N 
ATOM     20  H   LIG d   1       4.312  -1.558 -11.861  0.00  0.00     0.204 HD
ENDROOT
BRANCH   9  21
ATOM     21  C   LIG d   1       3.360  -1.243  -7.651  0.00  0.00    -0.024 C 
ATOM     22  H   LIG d   1       3.733  -2.260  -7.768  0.00  0.00     0.082 H 
ATOM     23  H   LIG d   1       2.273  -1.242  -7.732  0.00  0.00     0.082 H 
BRANCH  21  24
ATOM     24  N   LIG d   1       3.781  -0.722  -6.332  0.00  0.00     0.234 N 
ATOM     25  H   LIG d   1       3.611  -1.442  -5.620  0.00  0.00     0.203 HD
BRANCH  24  26
ATOM     26  C   LIG d   1       5.223  -0.399  -6.354  0.00  0.00    -0.043 C 
ATOM     27  H   LIG d   1       5.345   0.678  -6.237  0.00  0.00     0.078 H 
ATOM     28  H   LIG d   1       5.714  -0.912  -5.526  0.00  0.00     0.078 H 
ATOM     29  H   LIG d   1       5.672  -0.716  -7.295  0.00  0.00     0.078 H 
ENDBRANCH  24  26
BRANCH  24  30
ATOM     30  C   LIG d   1       2.998   0.485  -5.993  0.00  0.00    -0.027 C 
ATOM     31  H   LIG d   1       3.662   1.320  -5.769  0.00  0.00     0.082 H 
ATOM     32  H   LIG d   1       2.359   0.744  -6.837  0.00  0.00     0.082 H 
BRANCH  30  33
ATOM     33  C   LIG d   1       2.130   0.182  -4.770  0.00  0.00     0.030 C 
ATOM     34  H   LIG d   1       1.596   1.084  -4.472  0.00  0.00     0.038 H 
ATOM     35  H   LIG d   1       1.413  -0.600  -5.018  0.00  0.00     0.038 H 
BRANCH  33  36
ATOM     36  C   LIG d   1       3.006  -0.282  -3.634  0.00  0.00     0.046 A 
ATOM     37  N   LIG d   1       3.177  -1.573  -3.430  0.00  0.00    -0.260 NA
ATOM     38  C   LIG d   1       3.935  -2.025  -2.448  0.00  0.00     0.028 A 
ATOM     39  C   LIG d   1       4.579  -1.152  -1.594  0.00  0.00    -0.044 A 
ATOM     40  H   LIG d   1       4.052  -3.090  -2.313  0.00  0.00     0.083 H 
ATOM     41  C   LIG d   1       4.422   0.214  -1.778  0.00  0.00    -0.059 A 
ATOM     42  H   LIG d   1       5.197  -1.528  -0.792  0.00  0.00     0.063 H 
ATOM     43  C   LIG d   1       3.623   0.651  -2.822  0.00  0.00    -0.040 A 
ATOM     44  H   LIG d   1       4.913   0.920  -1.124  0.00  0.00     0.062 H 
ATOM     45  H   LIG d   1       3.482   1.707  -2.998  0.00  0.00     0.064 H 
ENDBRANCH  33  36
ENDBRANCH  30  33
ENDBRANCH  24  30
ENDBRANCH  21  24
ENDBRANCH   9  21
BRANCH   1  46
ATOM     46  C   LIG d   1       2.284  -2.747 -10.670  0.00  0.00     0.056 C 
ATOM     47  H   LIG d   1       2.510  -3.368 -11.537  0.00  0.00     0.052 H 
ATOM     48  H   LIG d   1       2.965  -2.996  -9.857  0.00  0.00     0.052 H 
BRANCH  46  49
ATOM     49  N   LIG d   1       0.904  -2.992 -10.242  0.00  0.00    -0.294 N 
ATOM     50  C   LIG d   1       0.305  -4.164 -10.532  0.00  0.00     0.300 C 
ATOM     51  N   LIG d   1      -0.964  -4.388 -10.139  0.00  0.00    -0.297 N 
ATOM     52  O   LIG d   1       0.910  -5.019 -11.150  0.00  0.00    -0.253 OA
ATOM     53  H   LIG d   1      -1.446  -3.706  -9.646  0.00  0.00     0.150 HD
ATOM     54  H   LIG d   1       0.421  -2.310  -9.749  0.00  0.00     0.150 HD
BRANCH  51  55
ATOM     55  C   LIG d   1      -1.615  -5.662 -10.454  0.00  0.00     0.019 C 
ATOM     56  H   LIG d   1      -0.918  -6.301 -10.996  0.00  0.00     0.049 H 
BRANCH  55  57
ATOM     57  C   LIG d   1      -2.038  -6.354  -9.158  0.00  0.00    -0.047 C 
ATOM     58  H   LIG d   1      -2.898  -5.837  -8.733  0.00  0.00     0.025 H 
ATOM     59  H   LIG d   1      -2.305  -7.390  -9.369  0.00  0.00     0.025 H 
ATOM     60  H   LIG d   1      -1.211  -6.331  -8.447  0.00  0.00     0.025 H 
ENDBRANCH  55  57
BRANCH  55  61
ATOM     61  C   LIG d   1      -2.849  -5.403 -11.320  0.00  0.00    -0.047 C 
ATOM     62  H   LIG d   1      -2.991  -6.237 -12.009  0.00  0.00     0.025 H 
ATOM     63  H   LIG d   1      -3.727  -5.306 -10.682  0.00  0.00     0.025 H 
ATOM     64  H   LIG d   1      -2.709  -4.483 -11.888  0.00  0.00     0.025 H 
ENDBRANCH  55  61
ENDBRANCH  51  55
ENDBRANCH  46  49
ENDBRANCH   1  46
TORSDOF 11
ENDMDL
MODEL 2
REMARK VINA RESULT:      -6.7      2.989      6.244
REMARK  11 active torsions:
REMARK  status: ('A' for Active; 'I' for Inactive)
REMARK    1  A    between atoms: C_1  and  C_2 
REMARK    2  A    between atoms: C_2  and  C_3 
REMARK    3  A    between atoms: C_2  and  N_4 
REMARK       I    between atoms: N_4  and  C_5 
REMARK       I    between atoms: C_5  and  N_7 
REMARK    4  A    between atoms: N_7  and  C_8 
REMARK    5  A    between atoms: C_8  and  C_9 
REMARK    6  A    between atoms: C_17  and  C_19 
REMARK    7  A    between atoms: C_19  and  N_63 
REMARK    8  A    between atoms: C_20  and  N_63 
REMARK    9  A    between atoms: C_21  and  C_22 
REMARK   10  A    between atoms: C_21  and  N_63 
REMARK   11  A    between atoms: C_22  and  C_23 
ROOT
ATOM      1  C   LIG d   1       4.413  -2.612  -3.514  0.00  0.00    -0.005 C 
ATOM      2  H   LIG d   1       3.872  -3.287  -2.850  0.00  0.00     0.087 H 
ATOM      3  C   LIG d   1       5.473  -1.850  -2.714  0.00  0.00    -0.005 C 
ATOM      4  C   LIG d   1       5.185  -0.348  -2.813  0.00  0.00    -0.019 C 
ATOM      5  H   LIG d   1       5.923   0.227  -2.252  0.00  0.00     0.031 H 
ATOM      6  C   LIG d   1       3.779  -0.082  -2.260  0.00  0.00    -0.009 C 
ATOM      7  C   LIG d   1       2.765  -0.893  -3.072  0.00  0.00    -0.031 C 
ATOM      8  C   LIG d   1       4.160  -0.755  -5.049  0.00  0.00    -0.024 C 
ATOM      9  C   LIG d   1       5.213   0.060  -4.291  0.00  0.00     0.042 C 
ATOM     10  H   LIG d   1       4.988   1.122  -4.385  0.00  0.00     0.041 H 
ATOM     11  H   LIG d   1       6.461  -2.060  -3.125  0.00  0.00     0.032 H 
ATOM     12  H   LIG d   1       5.439  -2.161  -1.670  0.00  0.00     0.032 H 
ATOM     13  H   LIG d   1       3.548   0.980  -2.343  0.00  0.00     0.032 H 
ATOM     14  H   LIG d   1       3.733  -0.383  -1.213  0.00  0.00     0.032 H 
ATOM     15  H   LIG d   1       2.050  -0.217  -3.540  0.00  0.00     0.081 H 
ATOM     16  H   LIG d   1       2.237  -1.581  -2.413  0.00  0.00     0.081 H 
ATOM     17  H   LIG d   1       3.434  -0.079  -5.503  0.00  0.00     0.082 H 
ATOM     18  H   LIG d   1       4.646  -1.344  -5.827  0.00  0.00     0.082 H 
ATOM     19  N   LIG d   1       3.453  -1.669  -4.126  0.00  0.00     0.239 N 
ATOM     20  H   LIG d   1       2.754  -2.202  -4.656  0.00  0.00     0.204 HD
ENDROOT
BRANCH   9  21
ATOM     21  C   LIG d   1       6.598  -0.225  -4.875  0.00  0.00    -0.024 C 
ATOM     22  H   LIG d   1       6.673  -1.281  -5.136  0.00  0.00     0.082 H 
ATOM     23  H   LIG d   1       7.361   0.022  -4.137  0.00  0.00     0.082 H 
BRANCH  21  24
ATOM     24  N   LIG d   1       6.777   0.588  -6.097  0.00  0.00     0.234 N 
ATOM     25  H   LIG d   1       5.943   1.170  -6.235  0.00  0.00     0.203 HD
BRANCH  24  26
ATOM     26  C   LIG d   1       7.957   1.466  -5.951  0.00  0.00    -0.043 C 
ATOM     27  H   LIG d   1       8.332   1.721  -6.942  0.00  0.00     0.078 H 
ATOM     28  H   LIG d   1       7.658   2.377  -5.430  0.00  0.00     0.078 H 
ATOM     29  H   LIG d   1       8.740   0.963  -5.384  0.00  0.00     0.078 H 
ENDBRANCH  24  26
BRANCH  24  30
ATOM     30  C   LIG d   1       6.947  -0.294  -7.270  0.00  0.00    -0.027 C 
ATOM     31  H   LIG d   1       7.926  -0.774  -7.250  0.00  0.00     0.082 H 
ATOM     32  H   LIG d   1       6.168  -1.058  -7.258  0.00  0.00     0.082 H 
BRANCH  30  33
ATOM     33  C   LIG d   1       6.817   0.546  -8.543  0.00  0.00     0.030 C 
ATOM     34  H   LIG d   1       7.500   1.394  -8.489  0.00  0.00     0.038 H 
ATOM     35  H   LIG d   1       7.067  -0.066  -9.409  0.00  0.00     0.038 H 
BRANCH  33  36
ATOM     36  C   LIG d   1       5.402   1.047  -8.672  0.00  0.00     0.046 A 
ATOM     37  N   LIG d   1       4.402   0.281  -8.281  0.00  0.00    -0.260 NA
ATOM     38  C   LIG d   1       3.147   0.678  -8.376  0.00  0.00     0.028 A 
ATOM     39  C   LIG d   1       2.836   1.921  -8.892  0.00  0.00    -0.044 A 
ATOM     40  H   LIG d   1       2.355   0.024  -8.045  0.00  0.00     0.083 H 
ATOM     41  C   LIG d   1       3.862   2.754  -9.314  0.00  0.00    -0.059 A 
ATOM     42  H   LIG d   1       1.807   2.240  -8.967  0.00  0.00     0.063 H 
ATOM     43  C   LIG d   1       5.167   2.305  -9.194  0.00  0.00    -0.040 A 
ATOM     44  H   LIG d   1       3.648   3.731  -9.723  0.00  0.00     0.062 H 
ATOM     45  H   LIG d   1       5.991   2.928  -9.508  0.00  0.00     0.064 H 
ENDBRANCH  33  36
ENDBRANCH  30  33
ENDBRANCH  24  30
ENDBRANCH  21  24
ENDBRANCH   9  21
BRANCH   1  46
ATOM     46  C   LIG d   1       5.091  -3.420  -4.621  0.00  0.00     0.056 C 
ATOM     47  H   LIG d   1       5.706  -2.757  -5.230  0.00  0.00     0.052 H 
ATOM     48  H   LIG d   1       5.720  -4.191  -4.176  0.00  0.00     0.052 H 
BRANCH  46  49
ATOM     49  N   LIG d   1       4.070  -4.049  -5.463  0.00  0.00    -0.294 N 
ATOM     50  C   LIG d   1       4.228  -4.085  -6.801  0.00  0.00     0.300 C 
ATOM     51  N   LIG d   1       3.289  -4.664  -7.575  0.00  0.00    -0.297 N 
ATOM     52  O   LIG d   1       5.218  -3.596  -7.310  0.00  0.00    -0.253 OA
ATOM     53  H   LIG d   1       2.500  -5.054  -7.169  0.00  0.00     0.150 HD
ATOM     54  H   LIG d   1       3.281  -4.439  -5.057  0.00  0.00     0.150 HD
BRANCH  51  55
ATOM     55  C   LIG d   1       3.461  -4.703  -9.029  0.00  0.00     0.019 C 
ATOM     56  H   LIG d   1       4.518  -4.595  -9.273  0.00  0.00     0.049 H 
BRANCH  55  57
ATOM     57  C   LIG d   1       2.948  -6.040  -9.568  0.00  0.00    -0.047 C 
ATOM     58  H   LIG d   1       2.591  -5.908 -10.589  0.00  0.00     0.025 H 
ATOM     59  H   LIG d   1       3.756  -6.771  -9.557  0.00  0.00     0.025 H 
ATOM     60  H   LIG d   1       2.130  -6.395  -8.940  0.00  0.00     0.025 H 
ENDBRANCH  55  57
BRANCH  55  61
ATOM     61  C   LIG d   1       2.671  -3.560  -9.667  0.00  0.00    -0.047 C 
ATOM     62  H   LIG d   1       2.103  -3.036  -8.897  0.00  0.00     0.025 H 
ATOM     63  H   LIG d   1       3.360  -2.864 -10.146  0.00  0.00     0.025 H 
ATOM     64  H   LIG d   1       1.986  -3.962 -10.413  0.00  0.00     0.025 H 
ENDBRANCH  55  61
ENDBRANCH  51  55
ENDBRANCH  46  49
ENDBRANCH   1  46
TORSDOF 11
ENDMDL
MODEL 3
REMARK VINA RESULT:      -6.5      1.308      1.824
REMARK  11 active torsions:
REMARK  status: ('A' for Active; 'I' for Inactive)
REMARK    1  A    between atoms: C_1  and  C_2 
REMARK    2  A    between atoms: C_2  and  C_3 
REMARK    3  A    between atoms: C_2  and  N_4 
REMARK       I    between atoms: N_4  and  C_5 
REMARK       I    between atoms: C_5  and  N_7 
REMARK    4  A    between atoms: N_7  and  C_8 
REMARK    5  A    between atoms: C_8  and  C_9 
REMARK    6  A    between atoms: C_17  and  C_19 
REMARK    7  A    between atoms: C_19  and  N_63 
REMARK    8  A    between atoms: C_20  and  N_63 
REMARK    9  A    between atoms: C_21  and  C_22 
REMARK   10  A    between atoms: C_21  and  N_63 
REMARK   11  A    between atoms: C_22  and  C_23 
ROOT
ATOM      1  C   LIG d   1       2.357  -0.243 -10.590  0.00  0.00    -0.005 C 
ATOM      2  H   LIG d   1       1.705   0.325 -11.254  0.00  0.00     0.087 H 
ATOM      3  C   LIG d   1       1.871  -0.090  -9.145  0.00  0.00    -0.005 C 
ATOM      4  C   LIG d   1       2.989   0.544  -8.311  0.00  0.00    -0.019 C 
ATOM      5  H   LIG d   1       2.676   0.668  -7.273  0.00  0.00     0.031 H 
ATOM      6  C   LIG d   1       3.343   1.906  -8.921  0.00  0.00    -0.009 C 
ATOM      7  C   LIG d   1       3.788   1.698 -10.371  0.00  0.00    -0.031 C 
ATOM      8  C   LIG d   1       4.648  -0.505  -9.847  0.00  0.00    -0.024 C 
ATOM      9  C   LIG d   1       4.227  -0.359  -8.382  0.00  0.00     0.042 C 
ATOM     10  H   LIG d   1       5.041   0.086  -7.811  0.00  0.00     0.041 H 
ATOM     11  H   LIG d   1       1.623  -1.071  -8.739  0.00  0.00     0.032 H 
ATOM     12  H   LIG d   1       0.989   0.549  -9.121  0.00  0.00     0.032 H 
ATOM     13  H   LIG d   1       4.154   2.362  -8.351  0.00  0.00     0.032 H 
ATOM     14  H   LIG d   1       2.470   2.558  -8.896  0.00  0.00     0.032 H 
ATOM     15  H   LIG d   1       4.809   2.058 -10.493  0.00  0.00     0.081 H 
ATOM     16  H   LIG d   1       3.126   2.250 -11.038  0.00  0.00     0.081 H 
ATOM     17  H   LIG d   1       5.664  -0.129  -9.973  0.00  0.00     0.082 H 
ATOM     18  H   LIG d   1       4.611  -1.557 -10.134  0.00  0.00     0.082 H 
ATOM     19  N   LIG d   1       3.739   0.263 -10.725  0.00  0.00     0.239 N 
ATOM     20  H   LIG d   1       4.042   0.151 -11.699  0.00  0.00     0.204 HD
ENDROOT
BRANCH   9  21
ATOM     21  C   LIG d   1       3.889  -1.736  -7.807  0.00  0.00    -0.024 C 
ATOM     22  H   LIG d   1       4.388  -2.508  -8.393  0.00  0.00     0.082 H 
ATOM     23  H   LIG d   1       2.811  -1.891  -7.844  0.00  0.00     0.082 H 
BRANCH  21  24
ATOM     24  N   LIG d   1       4.373  -1.801  -6.410  0.00  0.00     0.234 N 
ATOM     25  H   LIG d   1       3.627  -1.479  -5.784  0.00  0.00     0.203 HD
BRANCH  24  26
ATOM     26  C   LIG d   1       4.726  -3.194  -6.063  0.00  0.00    -0.043 C 
ATOM     27  H   LIG d   1       5.311  -3.190  -5.143  0.00  0.00     0.078 H 
ATOM     28  H   LIG d   1       3.808  -3.763  -5.907  0.00  0.00     0.078 H 
ATOM     29  H   LIG d   1       5.307  -3.652  -6.862  0.00  0.00     0.078 H 
ENDBRANCH  24  26
BRANCH  24  30
ATOM     30  C   LIG d   1       5.552  -0.925  -6.244  0.00  0.00    -0.027 C 
ATOM     31  H   LIG d   1       6.357  -1.238  -6.910  0.00  0.00     0.082 H 
ATOM     32  H   LIG d   1       5.268   0.102  -6.475  0.00  0.00     0.082 H 
BRANCH  30  33
ATOM     33  C   LIG d   1       6.029  -1.010  -4.793  0.00  0.00     0.030 C 
ATOM     34  H   LIG d   1       5.997  -2.047  -4.460  0.00  0.00     0.038 H 
ATOM     35  H   LIG d   1       7.051  -0.638  -4.724  0.00  0.00     0.038 H 
BRANCH  33  36
ATOM     36  C   LIG d   1       5.130  -0.173  -3.919  0.00  0.00     0.046 A 
ATOM     37  N   LIG d   1       4.017   0.327  -4.420  0.00  0.00    -0.260 NA
ATOM     38  C   LIG d   1       3.200   1.065  -3.692  0.00  0.00     0.028 A 
ATOM     39  C   LIG d   1       3.486   1.340  -2.369  0.00  0.00    -0.044 A 
ATOM     40  H   LIG d   1       2.298   1.456  -4.136  0.00  0.00     0.083 H 
ATOM     41  C   LIG d   1       4.648   0.831  -1.808  0.00  0.00    -0.059 A 
ATOM     42  H   LIG d   1       2.813   1.945  -1.779  0.00  0.00     0.063 H 
ATOM     43  C   LIG d   1       5.479   0.056  -2.601  0.00  0.00    -0.040 A 
ATOM     44  H   LIG d   1       4.897   1.031  -0.776  0.00  0.00     0.062 H 
ATOM     45  H   LIG d   1       6.389  -0.361  -2.197  0.00  0.00     0.064 H 
ENDBRANCH  33  36
ENDBRANCH  30  33
ENDBRANCH  24  30
ENDBRANCH  21  24
ENDBRANCH   9  21
BRANCH   1  46
ATOM     46  C   LIG d   1       2.328  -1.720 -10.985  0.00  0.00     0.056 C 
ATOM     47  H   LIG d   1       2.161  -1.806 -12.059  0.00  0.00     0.052 H 
ATOM     48  H   LIG d   1       3.280  -2.184 -10.726  0.00  0.00     0.052 H 
BRANCH  46  49
ATOM     49  N   LIG d   1       1.244  -2.397 -10.267  0.00  0.00    -0.294 N 
ATOM     50  C   LIG d   1       0.637  -3.467 -10.816  0.00  0.00     0.300 C 
ATOM     51  N   LIG d   1      -0.360  -4.089 -10.156  0.00  0.00    -0.297 N 
ATOM     52  O   LIG d   1       0.988  -3.872 -11.908  0.00  0.00    -0.253 OA
ATOM     53  H   LIG d   1      -0.640  -3.767  -9.286  0.00  0.00     0.150 HD
ATOM     54  H   LIG d   1       0.964  -2.074  -9.397  0.00  0.00     0.150 HD
BRANCH  51  55
ATOM     55  C   LIG d   1      -1.019  -5.253 -10.753  0.00  0.00     0.019 C 
ATOM     56  H   LIG d   1      -0.806  -5.283 -11.822  0.00  0.00     0.049 H 
BRANCH  55  57
ATOM     57  C   LIG d   1      -0.498  -6.530 -10.093  0.00  0.00    -0.047 C 
ATOM     58  H   LIG d   1      -0.606  -7.367 -10.783  0.00  0.00     0.025 H 
ATOM     59  H   LIG d   1       0.554  -6.404  -9.837  0.00  0.00     0.025 H 
ATOM     60  H   LIG d   1      -1.070  -6.730  -9.186  0.00  0.00     0.025 H 
ENDBRANCH  55  57
BRANCH  55  61
ATOM     61  C   LIG d   1      -2.530  -5.148 -10.538  0.00  0.00    -0.047 C 
ATOM     62  H   LIG d   1      -2.959  -6.149 -10.479  0.00  0.00     0.025 H 
ATOM     63  H   LIG d   1      -2.729  -4.613  -9.609  0.00  0.00     0.025 H 
ATOM     64  H   LIG d   1      -2.980  -4.609 -11.371  0.00  0.00     0.025 H 
ENDBRANCH  55  61
ENDBRANCH  51  55
ENDBRANCH  46  49
ENDBRANCH   1  46
TORSDOF 11
ENDMDL
MODEL 4
REMARK VINA RESULT:      -6.3      4.181      7.209
REMARK  11 active torsions:
REMARK  status: ('A' for Active; 'I' for Inactive)
REMARK    1  A    between atoms: C_1  and  C_2 
REMARK    2  A    between atoms: C_2  and  C_3 
REMARK    3  A    between atoms: C_2  and  N_4 
REMARK       I    between atoms: N_4  and  C_5 
REMARK       I    between atoms: C_5  and  N_7 
REMARK    4  A    between atoms: N_7  and  C_8 
REMARK    5  A    between atoms: C_8  and  C_9 
REMARK    6  A    between atoms: C_17  and  C_19 
REMARK    7  A    between atoms: C_19  and  N_63 
REMARK    8  A    between atoms: C_20  and  N_63 
REMARK    9  A    between atoms: C_21  and  C_22 
REMARK   10  A    between atoms: C_21  and  N_63 
REMARK   11  A    between atoms: C_22  and  C_23 
ROOT
ATOM      1  C   LIG d   1       3.326  -0.271  -4.165  0.00  0.00    -0.005 C 
ATOM      2  H   LIG d   1       2.380   0.271  -4.157  0.00  0.00     0.087 H 
ATOM      3  C   LIG d   1       3.366  -1.245  -2.984  0.00  0.00    -0.005 C 
ATOM      4  C   LIG d   1       4.556  -0.885  -2.086  0.00  0.00    -0.019 C 
ATOM      5  H   LIG d   1       4.615  -1.561  -1.232  0.00  0.00     0.031 H 
ATOM      6  C   LIG d   1       4.386   0.561  -1.605  0.00  0.00    -0.009 C 
ATOM      7  C   LIG d   1       4.318   1.484  -2.824  0.00  0.00    -0.031 C 
ATOM      8  C   LIG d   1       5.734  -0.010  -4.102  0.00  0.00    -0.024 C 
ATOM      9  C   LIG d   1       5.842  -0.976  -2.918  0.00  0.00     0.042 C 
ATOM     10  H   LIG d   1       6.699  -0.702  -2.302  0.00  0.00     0.041 H 
ATOM     11  H   LIG d   1       3.483  -2.263  -3.354  0.00  0.00     0.032 H 
ATOM     12  H   LIG d   1       2.442  -1.167  -2.413  0.00  0.00     0.032 H 
ATOM     13  H   LIG d   1       5.237   0.841  -0.982  0.00  0.00     0.032 H 
ATOM     14  H   LIG d   1       3.467   0.650  -1.026  0.00  0.00     0.032 H 
ATOM     15  H   LIG d   1       5.133   2.206  -2.781  0.00  0.00     0.081 H 
ATOM     16  H   LIG d   1       3.365   2.013  -2.828  0.00  0.00     0.081 H 
ATOM     17  H   LIG d   1       6.539   0.722  -4.049  0.00  0.00     0.082 H 
ATOM     18  H   LIG d   1       5.810  -0.569  -5.035  0.00  0.00     0.082 H 
ATOM     19  N   LIG d   1       4.437   0.700  -4.072  0.00  0.00     0.239 N 
ATOM     20  H   LIG d   1       4.388   1.340  -4.873  0.00  0.00     0.204 HD
ENDROOT
BRANCH   9  21
ATOM     21  C   LIG d   1       6.017  -2.404  -3.436  0.00  0.00    -0.024 C 
ATOM     22  H   LIG d   1       5.051  -2.797  -3.754  0.00  0.00     0.082 H 
ATOM     23  H   LIG d   1       6.422  -3.032  -2.643  0.00  0.00     0.082 H 
BRANCH  21  24
ATOM     24  N   LIG d   1       6.935  -2.381  -4.596  0.00  0.00     0.234 N 
ATOM     25  H   LIG d   1       6.986  -1.423  -4.961  0.00  0.00     0.203 HD
BRANCH  24  26
ATOM     26  C   LIG d   1       8.286  -2.811  -4.179  0.00  0.00    -0.043 C 
ATOM     27  H   LIG d   1       9.011  -2.456  -4.913  0.00  0.00     0.078 H 
ATOM     28  H   LIG d   1       8.511  -2.376  -3.205  0.00  0.00     0.078 H 
ATOM     29  H   LIG d   1       8.338  -3.897  -4.114  0.00  0.00     0.078 H 
ENDBRANCH  24  26
BRANCH  24  30
ATOM     30  C   LIG d   1       6.427  -3.273  -5.660  0.00  0.00    -0.027 C 
ATOM     31  H   LIG d   1       6.033  -2.689  -6.492  0.00  0.00     0.082 H 
ATOM     32  H   LIG d   1       7.241  -3.906  -6.013  0.00  0.00     0.082 H 
BRANCH  30  33
ATOM     33  C   LIG d   1       5.314  -4.148  -5.080  0.00  0.00     0.030 C 
ATOM     34  H   LIG d   1       5.262  -4.002  -4.001  0.00  0.00     0.038 H 
ATOM     35  H   LIG d   1       4.362  -3.871  -5.530  0.00  0.00     0.038 H 
BRANCH  33  36
ATOM     36  C   LIG d   1       5.608  -5.596  -5.377  0.00  0.00     0.046 A 
ATOM     37  N   LIG d   1       4.616  -6.464  -5.431  0.00  0.00    -0.260 NA
ATOM     38  C   LIG d   1       4.826  -7.741  -5.688  0.00  0.00     0.028 A 
ATOM     39  C   LIG d   1       6.103  -8.216  -5.911  0.00  0.00    -0.044 A 
ATOM     40  H   LIG d   1       3.988  -8.422  -5.725  0.00  0.00     0.083 H 
ATOM     41  C   LIG d   1       7.171  -7.334  -5.862  0.00  0.00    -0.059 A 
ATOM     42  H   LIG d   1       6.268  -9.263  -6.120  0.00  0.00     0.063 H 
ATOM     43  C   LIG d   1       6.912  -5.999  -5.594  0.00  0.00    -0.040 A 
ATOM     44  H   LIG d   1       8.181  -7.677  -6.031  0.00  0.00     0.062 H 
ATOM     45  H   LIG d   1       7.719  -5.282  -5.553  0.00  0.00     0.064 H 
ENDBRANCH  33  36
ENDBRANCH  30  33
ENDBRANCH  24  30
ENDBRANCH  21  24
ENDBRANCH   9  21
BRANCH   1  46
ATOM     46  C   LIG d   1       3.457  -1.051  -5.474  0.00  0.00     0.056 C 
ATOM     47  H   LIG d   1       4.507  -1.274  -5.661  0.00  0.00     0.052 H 
ATOM     48  H   LIG d   1       2.896  -1.983  -5.400  0.00  0.00     0.052 H 
BRANCH  46  49
ATOM     49  N   LIG d   1       2.924  -0.248  -6.578  0.00  0.00    -0.294 N 
ATOM     50  C   LIG d   1       3.765   0.327  -7.460  0.00  0.00     0.300 C 
ATOM     51  N   LIG d   1       3.275   1.066  -8.475  0.00  0.00    -0.297 N 
ATOM     52  O   LIG d   1       4.966   0.180  -7.341  0.00  0.00    -0.253 OA
ATOM     53  H   LIG d   1       2.317   1.184  -8.570  0.00  0.00     0.150 HD
ATOM     54  H   LIG d   1       1.966  -0.131  -6.673  0.00  0.00     0.150 HD
BRANCH  51  55
ATOM     55  C   LIG d   1       4.189   1.691  -9.434  0.00  0.00     0.019 C 
ATOM     56  H   LIG d   1       5.207   1.361  -9.233  0.00  0.00     0.049 H 
BRANCH  55  57
ATOM     57  C   LIG d   1       3.792   1.287 -10.855  0.00  0.00    -0.047 C 
ATOM     58  H   LIG d   1       4.647   0.833 -11.356  0.00  0.00     0.025 H 
ATOM     59  H   LIG d   1       2.972   0.571 -10.814  0.00  0.00     0.025 H 
ATOM     60  H   LIG d   1       3.474   2.171 -11.408  0.00  0.00     0.025 H 
ENDBRANCH  55  57
BRANCH  55  61
ATOM     61  C   LIG d   1       4.110   3.212  -9.296  0.00  0.00    -0.047 C 
ATOM     62  H   LIG d   1       4.945   3.567  -8.690  0.00  0.00     0.025 H 
ATOM     63  H   LIG d   1       4.159   3.670 -10.284  0.00  0.00     0.025 H 
ATOM     64  H   LIG d   1       3.170   3.487  -8.816  0.00  0.00     0.025 H 
ENDBRANCH  55  61
ENDBRANCH  51  55
ENDBRANCH  46  49
ENDBRANCH   1  46
TORSDOF 11
ENDMDL
MODEL 5
REMARK VINA RESULT:      -6.3      4.520      6.860
REMARK  11 active torsions:
REMARK  status: ('A' for Active; 'I' for Inactive)
REMARK    1  A    between atoms: C_1  and  C_2 
REMARK    2  A    between atoms: C_2  and  C_3 
REMARK    3  A    between atoms: C_2  and  N_4 
REMARK       I    between atoms: N_4  and  C_5 
REMARK       I    between atoms: C_5  and  N_7 
REMARK    4  A    between atoms: N_7  and  C_8 
REMARK    5  A    between atoms: C_8  and  C_9 
REMARK    6  A    between atoms: C_17  and  C_19 
REMARK    7  A    between atoms: C_19  and  N_63 
REMARK    8  A    between atoms: C_20  and  N_63 
REMARK    9  A    between atoms: C_21  and  C_22 
REMARK   10  A    between atoms: C_21  and  N_63 
REMARK   11  A    between atoms: C_22  and  C_23 
ROOT
ATOM      1  C   LIG d   1       3.983  -2.054  -3.505  0.00  0.00    -0.005 C 
ATOM      2  H   LIG d   1       3.027  -2.506  -3.240  0.00  0.00     0.087 H 
ATOM      3  C   LIG d   1       4.699  -1.590  -2.234  0.00  0.00    -0.005 C 
ATOM      4  C   LIG d   1       4.927  -0.076  -2.317  0.00  0.00    -0.019 C 
ATOM      5  H   LIG d   1       5.436   0.289  -1.425  0.00  0.00     0.031 H 
ATOM      6  C   LIG d   1       3.566   0.615  -2.468  0.00  0.00    -0.009 C 
ATOM      7  C   LIG d   1       2.881   0.090  -3.733  0.00  0.00    -0.031 C 
ATOM      8  C   LIG d   1       5.023  -0.289  -4.799  0.00  0.00    -0.024 C 
ATOM      9  C   LIG d   1       5.769   0.225  -3.563  0.00  0.00     0.042 C 
ATOM     10  H   LIG d   1       5.923   1.300  -3.652  0.00  0.00     0.041 H 
ATOM     11  H   LIG d   1       5.659  -2.099  -2.149  0.00  0.00     0.032 H 
ATOM     12  H   LIG d   1       4.086  -1.820  -1.363  0.00  0.00     0.032 H 
ATOM     13  H   LIG d   1       3.711   1.693  -2.551  0.00  0.00     0.032 H 
ATOM     14  H   LIG d   1       2.945   0.398  -1.599  0.00  0.00     0.032 H 
ATOM     15  H   LIG d   1       2.697   0.918  -4.417  0.00  0.00     0.081 H 
ATOM     16  H   LIG d   1       1.934  -0.379  -3.467  0.00  0.00     0.081 H 
ATOM     17  H   LIG d   1       4.824   0.542  -5.476  0.00  0.00     0.082 H 
ATOM     18  H   LIG d   1       5.635  -1.035  -5.308  0.00  0.00     0.082 H 
ATOM     19  N   LIG d   1       3.739  -0.908  -4.407  0.00  0.00     0.239 N 
ATOM     20  H   LIG d   1       3.259  -1.243  -5.250  0.00  0.00     0.204 HD
ENDROOT
BRANCH   9  21
ATOM     21  C   LIG d   1       7.121  -0.481  -3.450  0.00  0.00    -0.024 C 
ATOM     22  H   LIG d   1       7.148  -1.328  -4.136  0.00  0.00     0.082 H 
ATOM     23  H   LIG d   1       7.262  -0.834  -2.429  0.00  0.00     0.082 H 
BRANCH  21  24
ATOM     24  N   LIG d   1       8.189   0.474  -3.819  0.00  0.00     0.234 N 
ATOM     25  H   LIG d   1       8.914   0.460  -3.092  0.00  0.00     0.203 HD
BRANCH  24  26
ATOM     26  C   LIG d   1       8.794   0.080  -5.109  0.00  0.00    -0.043 C 
ATOM     27  H   LIG d   1       8.583   0.854  -5.848  0.00  0.00     0.078 H 
ATOM     28  H   LIG d   1       9.873  -0.015  -4.980  0.00  0.00     0.078 H 
ATOM     29  H   LIG d   1       8.383  -0.869  -5.450  0.00  0.00     0.078 H 
ENDBRANCH  24  26
BRANCH  24  30
ATOM     30  C   LIG d   1       7.633   1.839  -3.918  0.00  0.00    -0.027 C 
ATOM     31  H   LIG d   1       6.599   1.807  -4.261  0.00  0.00     0.082 H 
ATOM     32  H   LIG d   1       7.676   2.313  -2.937  0.00  0.00     0.082 H 
BRANCH  30  33
ATOM     33  C   LIG d   1       8.474   2.644  -4.911  0.00  0.00     0.030 C 
ATOM     34  H   LIG d   1       9.148   1.973  -5.444  0.00  0.00     0.038 H 
ATOM     35  H   LIG d   1       7.818   3.142  -5.624  0.00  0.00     0.038 H 
BRANCH  33  36
ATOM     36  C   LIG d   1       9.280   3.677  -4.165  0.00  0.00     0.046 A 
ATOM     37  N   LIG d   1       9.915   3.335  -3.061  0.00  0.00    -0.260 NA
ATOM     38  C   LIG d   1      10.633   4.205  -2.376  0.00  0.00     0.028 A 
ATOM     39  C   LIG d   1      10.743   5.516  -2.797  0.00  0.00    -0.044 A 
ATOM     40  H   LIG d   1      11.139   3.887  -1.477  0.00  0.00     0.083 H 
ATOM     41  C   LIG d   1      10.089   5.913  -3.954  0.00  0.00    -0.059 A 
ATOM     42  H   LIG d   1      11.332   6.224  -2.231  0.00  0.00     0.063 H 
ATOM     43  C   LIG d   1       9.349   4.970  -4.649  0.00  0.00    -0.040 A 
ATOM     44  H   LIG d   1      10.157   6.932  -4.305  0.00  0.00     0.062 H 
ATOM     45  H   LIG d   1       8.831   5.242  -5.556  0.00  0.00     0.064 H 
ENDBRANCH  33  36
ENDBRANCH  30  33
ENDBRANCH  24  30
ENDBRANCH  21  24
ENDBRANCH   9  21
BRANCH   1  46
ATOM     46  C   LIG d   1       4.850  -3.082  -4.233  0.00  0.00     0.056 C 
ATOM     47  H   LIG d   1       5.645  -2.570  -4.775  0.00  0.00     0.052 H 
ATOM     48  H   LIG d   1       5.289  -3.767  -3.507  0.00  0.00     0.052 H 
BRANCH  46  49
ATOM     49  N   LIG d   1       4.023  -3.838  -5.178  0.00  0.00    -0.294 N 
ATOM     50  C   LIG d   1       4.315  -3.819  -6.494  0.00  0.00     0.300 C 
ATOM     51  N   LIG d   1       3.554  -4.514  -7.362  0.00  0.00    -0.297 N 
ATOM     52  O   LIG d   1       5.264  -3.176  -6.897  0.00  0.00    -0.253 OA
ATOM     53  H   LIG d   1       2.797  -5.028  -7.041  0.00  0.00     0.150 HD
ATOM     54  H   LIG d   1       3.266  -4.351  -4.856  0.00  0.00     0.150 HD
BRANCH  51  55
ATOM     55  C   LIG d   1       3.871  -4.494  -8.792  0.00  0.00     0.019 C 
ATOM     56  H   LIG d   1       4.885  -4.119  -8.934  0.00  0.00     0.049 H 
BRANCH  55  57
ATOM     57  C   LIG d   1       3.769  -5.911  -9.358  0.00  0.00    -0.047 C 
ATOM     58  H   LIG d   1       4.462  -6.566  -8.830  0.00  0.00     0.025 H 
ATOM     59  H   LIG d   1       2.752  -6.281  -9.230  0.00  0.00     0.025 H 
ATOM     60  H   LIG d   1       4.018  -5.898 -10.420  0.00  0.00     0.025 H 
ENDBRANCH  55  57
BRANCH  55  61
ATOM     61  C   LIG d   1       2.883  -3.582  -9.520  0.00  0.00    -0.047 C 
ATOM     62  H   LIG d   1       3.188  -2.542  -9.397  0.00  0.00     0.025 H 
ATOM     63  H   LIG d   1       2.871  -3.832 -10.581  0.00  0.00     0.025 H 
ATOM     64  H   LIG d   1       1.885  -3.719  -9.104  0.00  0.00     0.025 H 
ENDBRANCH  55  61
ENDBRANCH  51  55
ENDBRANCH  46  49
ENDBRANCH   1  46
TORSDOF 11
ENDMDL
MODEL 6
REMARK VINA RESULT:      -6.3      4.155      6.856
REMARK  11 active torsions:
REMARK  status: ('A' for Active; 'I' for Inactive)
REMARK    1  A    between atoms: C_1  and  C_2 
REMARK    2  A    between atoms: C_2  and  C_3 
REMARK    3  A    between atoms: C_2  and  N_4 
REMARK       I    between atoms: N_4  and  C_5 
REMARK       I    between atoms: C_5  and  N_7 
REMARK    4  A    between atoms: N_7  and  C_8 
REMARK    5  A    between atoms: C_8  and  C_9 
REMARK    6  A    between atoms: C_17  and  C_19 
REMARK    7  A    between atoms: C_19  and  N_63 
REMARK    8  A    between atoms: C_20  and  N_63 
REMARK    9  A    between atoms: C_21  and  C_22 
REMARK   10  A    between atoms: C_21  and  N_63 
REMARK   11  A    between atoms: C_22  and  C_23 
ROOT
ATOM      1  C   LIG d   1       4.487  -2.639  -3.572  0.00  0.00    -0.005 C 
ATOM      2  H   LIG d   1       3.952  -3.357  -2.951  0.00  0.00     0.087 H 
ATOM      3  C   LIG d   1       5.534  -1.910  -2.725  0.00  0.00    -0.005 C 
ATOM      4  C   LIG d   1       5.226  -0.408  -2.742  0.00  0.00    -0.019 C 
ATOM      5  H   LIG d   1       5.954   0.143  -2.145  0.00  0.00     0.031 H 
ATOM      6  C   LIG d   1       3.814  -0.192  -2.182  0.00  0.00    -0.009 C 
ATOM      7  C   LIG d   1       2.816  -0.969  -3.044  0.00  0.00    -0.031 C 
ATOM      8  C   LIG d   1       4.218  -0.702  -5.002  0.00  0.00    -0.024 C 
ATOM      9  C   LIG d   1       5.256   0.082  -4.194  0.00  0.00     0.042 C 
ATOM     10  H   LIG d   1       5.018   1.145  -4.229  0.00  0.00     0.041 H 
ATOM     11  H   LIG d   1       6.526  -2.084  -3.142  0.00  0.00     0.032 H 
ATOM     12  H   LIG d   1       5.498  -2.279  -1.700  0.00  0.00     0.032 H 
ATOM     13  H   LIG d   1       3.570   0.870  -2.207  0.00  0.00     0.032 H 
ATOM     14  H   LIG d   1       3.767  -0.552  -1.154  0.00  0.00     0.032 H 
ATOM     15  H   LIG d   1       2.094  -0.277  -3.477  0.00  0.00     0.081 H 
ATOM     16  H   LIG d   1       2.293  -1.700  -2.428  0.00  0.00     0.081 H 
ATOM     17  H   LIG d   1       3.486  -0.011  -5.421  0.00  0.00     0.082 H 
ATOM     18  H   LIG d   1       4.715  -1.240  -5.810  0.00  0.00     0.082 H 
ATOM     19  N   LIG d   1       3.518  -1.676  -4.137  0.00  0.00     0.239 N 
ATOM     20  H   LIG d   1       2.829  -2.187  -4.699  0.00  0.00     0.204 HD
ENDROOT
BRANCH   9  21
ATOM     21  C   LIG d   1       6.648  -0.152  -4.785  0.00  0.00    -0.024 C 
ATOM     22  H   LIG d   1       6.701  -1.157  -5.204  0.00  0.00     0.082 H 
ATOM     23  H   LIG d   1       7.398  -0.044  -4.002  0.00  0.00     0.082 H 
BRANCH  21  24
ATOM     24  N   LIG d   1       6.880   0.834  -5.863  0.00  0.00     0.234 N 
ATOM     25  H   LIG d   1       6.063   1.451  -5.931  0.00  0.00     0.203 HD
BRANCH  24  26
ATOM     26  C   LIG d   1       8.074   1.648  -5.554  0.00  0.00    -0.043 C 
ATOM     27  H   LIG d   1       8.570   1.916  -6.488  0.00  0.00     0.078 H 
ATOM     28  H   LIG d   1       7.760   2.555  -5.036  0.00  0.00     0.078 H 
ATOM     29  H   LIG d   1       8.765   1.090  -4.924  0.00  0.00     0.078 H 
ENDBRANCH  24  26
BRANCH  24  30
ATOM     30  C   LIG d   1       7.064   0.137  -7.153  0.00  0.00    -0.027 C 
ATOM     31  H   LIG d   1       8.057  -0.311  -7.208  0.00  0.00     0.082 H 
ATOM     32  H   LIG d   1       6.308  -0.644  -7.248  0.00  0.00     0.082 H 
BRANCH  30  33
ATOM     33  C   LIG d   1       6.898   1.148  -8.289  0.00  0.00     0.030 C 
ATOM     34  H   LIG d   1       7.396   2.080  -8.021  0.00  0.00     0.038 H 
ATOM     35  H   LIG d   1       7.343   0.748  -9.200  0.00  0.00     0.038 H 
BRANCH  33  36
ATOM     36  C   LIG d   1       5.432   1.410  -8.519  0.00  0.00     0.046 A 
ATOM     37  N   LIG d   1       4.536   0.596  -7.997  0.00  0.00    -0.260 NA
ATOM     38  C   LIG d   1       3.242   0.786  -8.172  0.00  0.00     0.028 A 
ATOM     39  C   LIG d   1       2.779   1.855  -8.915  0.00  0.00    -0.044 A 
ATOM     40  H   LIG d   1       2.537   0.098  -7.729  0.00  0.00     0.083 H 
ATOM     41  C   LIG d   1       3.692   2.732  -9.480  0.00  0.00    -0.059 A 
ATOM     42  H   LIG d   1       1.718   2.004  -9.055  0.00  0.00     0.063 H 
ATOM     43  C   LIG d   1       5.043   2.503  -9.270  0.00  0.00    -0.040 A 
ATOM     44  H   LIG d   1       3.359   3.575 -10.066  0.00  0.00     0.062 H 
ATOM     45  H   LIG d   1       5.782   3.168  -9.691  0.00  0.00     0.064 H 
ENDBRANCH  33  36
ENDBRANCH  30  33
ENDBRANCH  24  30
ENDBRANCH  21  24
ENDBRANCH   9  21
BRANCH   1  46
ATOM     46  C   LIG d   1       5.182  -3.375  -4.720  0.00  0.00     0.056 C 
ATOM     47  H   LIG d   1       5.221  -2.727  -5.596  0.00  0.00     0.052 H 
ATOM     48  H   LIG d   1       6.196  -3.642  -4.420  0.00  0.00     0.052 H 
BRANCH  46  49
ATOM     49  N   LIG d   1       4.433  -4.591  -5.045  0.00  0.00    -0.294 N 
ATOM     50  C   LIG d   1       5.081  -5.680  -5.503  0.00  0.00     0.300 C 
ATOM     51  N   LIG d   1       4.392  -6.799  -5.803  0.00  0.00    -0.297 N 
ATOM     52  O   LIG d   1       6.288  -5.654  -5.647  0.00  0.00    -0.253 OA
ATOM     53  H   LIG d   1       3.429  -6.820  -5.688  0.00  0.00     0.150 HD
ATOM     54  H   LIG d   1       3.470  -4.612  -4.930  0.00  0.00     0.150 HD
BRANCH  51  55
ATOM     55  C   LIG d   1       5.097  -7.982  -6.300  0.00  0.00     0.019 C 
ATOM     56  H   LIG d   1       6.149  -7.742  -6.450  0.00  0.00     0.049 H 
BRANCH  55  57
ATOM     57  C   LIG d   1       4.973  -9.116  -5.281  0.00  0.00    -0.047 C 
ATOM     58  H   LIG d   1       4.113  -8.935  -4.637  0.00  0.00     0.025 H 
ATOM     59  H   LIG d   1       4.842 -10.063  -5.805  0.00  0.00     0.025 H 
ATOM     60  H   LIG d   1       5.879  -9.160  -4.675  0.00  0.00     0.025 H 
ENDBRANCH  55  57
BRANCH  55  61
ATOM     61  C   LIG d   1       4.480  -8.422  -7.629  0.00  0.00    -0.047 C 
ATOM     62  H   LIG d   1       3.413  -8.605  -7.492  0.00  0.00     0.025 H 
ATOM     63  H   LIG d   1       4.620  -7.637  -8.372  0.00  0.00     0.025 H 
ATOM     64  H   LIG d   1       4.964  -9.336  -7.971  0.00  0.00     0.025 H 
ENDBRANCH  55  61
ENDBRANCH  51  55
ENDBRANCH  46  49
ENDBRANCH   1  46
TORSDOF 11
ENDMDL
MODEL 7
REMARK VINA RESULT:      -6.1      7.612     10.295
REMARK  11 active torsions:
REMARK  status: ('A' for Active; 'I' for Inactive)
REMARK    1  A    between atoms: C_1  and  C_2 
REMARK    2  A    between atoms: C_2  and  C_3 
REMARK    3  A    between atoms: C_2  and  N_4 
REMARK       I    between atoms: N_4  and  C_5 
REMARK       I    between atoms: C_5  and  N_7 
REMARK    4  A    between atoms: N_7  and  C_8 
REMARK    5  A    between atoms: C_8  and  C_9 
REMARK    6  A    between atoms: C_17  and  C_19 
REMARK    7  A    between atoms: C_19  and  N_63 
REMARK    8  A    between atoms: C_20  and  N_63 
REMARK    9  A    between atoms: C_21  and  C_22 
REMARK   10  A    between atoms: C_21  and  N_63 
REMARK   11  A    between atoms: C_22  and  C_23 
ROOT
ATOM      1  C   LIG d   1       9.180   1.707  -4.685  0.00  0.00    -0.005 C 
ATOM      2  H   LIG d   1       9.091   0.739  -5.179  0.00  0.00     0.087 H 
ATOM      3  C   LIG d   1       9.525   2.780  -5.721  0.00  0.00    -0.005 C 
ATOM      4  C   LIG d   1      10.866   3.420  -5.344  0.00  0.00    -0.019 C 
ATOM      5  H   LIG d   1      11.143   4.191  -6.064  0.00  0.00     0.031 H 
ATOM      6  C   LIG d   1      11.938   2.322  -5.308  0.00  0.00    -0.009 C 
ATOM      7  C   LIG d   1      11.526   1.262  -4.284  0.00  0.00    -0.031 C 
ATOM      8  C   LIG d   1      10.364   2.920  -2.954  0.00  0.00    -0.024 C 
ATOM      9  C   LIG d   1      10.743   4.028  -3.942  0.00  0.00     0.042 C 
ATOM     10  H   LIG d   1      11.695   4.469  -3.647  0.00  0.00     0.041 H 
ATOM     11  H   LIG d   1       8.746   3.543  -5.728  0.00  0.00     0.032 H 
ATOM     12  H   LIG d   1       9.601   2.326  -6.708  0.00  0.00     0.032 H 
ATOM     13  H   LIG d   1      12.895   2.757  -5.020  0.00  0.00     0.032 H 
ATOM     14  H   LIG d   1      12.027   1.864  -6.293  0.00  0.00     0.032 H 
ATOM     15  H   LIG d   1      12.289   1.188  -3.509  0.00  0.00     0.081 H 
ATOM     16  H   LIG d   1      11.418   0.298  -4.781  0.00  0.00     0.081 H 
ATOM     17  H   LIG d   1      11.136   2.835  -2.189  0.00  0.00     0.082 H 
ATOM     18  H   LIG d   1       9.410   3.162  -2.484  0.00  0.00     0.082 H 
ATOM     19  N   LIG d   1      10.237   1.624  -3.655  0.00  0.00     0.239 N 
ATOM     20  H   LIG d   1       9.984   0.900  -2.974  0.00  0.00     0.204 HD
ENDROOT
BRANCH   9  21
ATOM     21  C   LIG d   1       9.656   5.105  -3.945  0.00  0.00    -0.024 C 
ATOM     22  H   LIG d   1       9.267   5.233  -2.935  0.00  0.00     0.082 H 
ATOM     23  H   LIG d   1       8.848   4.804  -4.611  0.00  0.00     0.082 H 
BRANCH  21  24
ATOM     24  N   LIG d   1      10.251   6.381  -4.399  0.00  0.00     0.234 N 
ATOM     25  H   LIG d   1      11.250   6.235  -4.584  0.00  0.00     0.203 HD
BRANCH  24  26
ATOM     26  C   LIG d   1       9.592   6.832  -5.642  0.00  0.00    -0.043 C 
ATOM     27  H   LIG d   1       8.667   7.348  -5.383  0.00  0.00     0.078 H 
ATOM     28  H   LIG d   1      10.257   7.518  -6.167  0.00  0.00     0.078 H 
ATOM     29  H   LIG d   1       9.366   5.982  -6.284  0.00  0.00     0.078 H 
ENDBRANCH  24  26
BRANCH  24  30
ATOM     30  C   LIG d   1      10.103   7.409  -3.347  0.00  0.00    -0.027 C 
ATOM     31  H   LIG d   1      11.080   7.775  -3.030  0.00  0.00     0.082 H 
ATOM     32  H   LIG d   1       9.515   8.238  -3.740  0.00  0.00     0.082 H 
BRANCH  30  33
ATOM     33  C   LIG d   1       9.379   6.790  -2.150  0.00  0.00     0.030 C 
ATOM     34  H   LIG d   1       8.356   7.165  -2.111  0.00  0.00     0.038 H 
ATOM     35  H   LIG d   1       9.363   5.706  -2.256  0.00  0.00     0.038 H 
BRANCH  33  36
ATOM     36  C   LIG d   1      10.099   7.160  -0.879  0.00  0.00     0.046 A 
ATOM     37  N   LIG d   1      10.436   6.216  -0.023  0.00  0.00    -0.260 NA
ATOM     38  C   LIG d   1      11.067   6.493   1.102  0.00  0.00     0.028 A 
ATOM     39  C   LIG d   1      11.400   7.795   1.423  0.00  0.00    -0.044 A 
ATOM     40  H   LIG d   1      11.327   5.693   1.778  0.00  0.00     0.083 H 
ATOM     41  C   LIG d   1      11.062   8.815   0.546  0.00  0.00    -0.059 A 
ATOM     42  H   LIG d   1      11.917   8.016   2.345  0.00  0.00     0.063 H 
ATOM     43  C   LIG d   1      10.404   8.485  -0.628  0.00  0.00    -0.040 A 
ATOM     44  H   LIG d   1      11.308   9.842   0.771  0.00  0.00     0.062 H 
ATOM     45  H   LIG d   1      10.129   9.253  -1.336  0.00  0.00     0.064 H 
ENDBRANCH  33  36
ENDBRANCH  30  33
ENDBRANCH  24  30
ENDBRANCH  21  24
ENDBRANCH   9  21
BRANCH   1  46
ATOM     46  C   LIG d   1       7.854   2.058  -4.007  0.00  0.00     0.056 C 
ATOM     47  H   LIG d   1       8.001   2.118  -2.929  0.00  0.00     0.052 H 
ATOM     48  H   LIG d   1       7.499   3.019  -4.380  0.00  0.00     0.052 H 
BRANCH  46  49
ATOM     49  N   LIG d   1       6.862   1.022  -4.307  0.00  0.00    -0.294 N 
ATOM     50  C   LIG d   1       5.872   0.761  -3.430  0.00  0.00     0.300 C 
ATOM     51  N   LIG d   1       4.961  -0.192  -3.707  0.00  0.00    -0.297 N 
ATOM     52  O   LIG d   1       5.803   1.386  -2.390  0.00  0.00    -0.253 OA
ATOM     53  H   LIG d   1       5.016  -0.690  -4.537  0.00  0.00     0.150 HD
ATOM     54  H   LIG d   1       6.918   0.524  -5.138  0.00  0.00     0.150 HD
BRANCH  51  55
ATOM     55  C   LIG d   1       3.885  -0.475  -2.754  0.00  0.00     0.019 C 
ATOM     56  H   LIG d   1       3.877   0.291  -1.978  0.00  0.00     0.049 H 
BRANCH  55  57
ATOM     57  C   LIG d   1       2.542  -0.474  -3.484  0.00  0.00    -0.047 C 
ATOM     58  H   LIG d   1       2.616  -1.084  -4.385  0.00  0.00     0.025 H 
ATOM     59  H   LIG d   1       1.772  -0.884  -2.831  0.00  0.00     0.025 H 
ATOM     60  H   LIG d   1       2.278   0.548  -3.758  0.00  0.00     0.025 H 
ENDBRANCH  55  57
BRANCH  55  61
ATOM     61  C   LIG d   1       4.118  -1.845  -2.115  0.00  0.00    -0.047 C 
ATOM     62  H   LIG d   1       5.107  -2.212  -2.391  0.00  0.00     0.025 H 
ATOM     63  H   LIG d   1       4.054  -1.757  -1.031  0.00  0.00     0.025 H 
ATOM     64  H   LIG d   1       3.359  -2.544  -2.467  0.00  0.00     0.025 H 
ENDBRANCH  55  61
ENDBRANCH  51  55
ENDBRANCH  46  49
ENDBRANCH   1  46
TORSDOF 11
ENDMDL
MODEL 8
REMARK VINA RESULT:      -6.0      3.256      6.219
REMARK  11 active torsions:
REMARK  status: ('A' for Active; 'I' for Inactive)
REMARK    1  A    between atoms: C_1  and  C_2 
REMARK    2  A    between atoms: C_2  and  C_3 
REMARK    3  A    between atoms: C_2  and  N_4 
REMARK       I    between atoms: N_4  and  C_5 
REMARK       I    between atoms: C_5  and  N_7 
REMARK    4  A    between atoms: N_7  and  C_8 
REMARK    5  A    between atoms: C_8  and  C_9 
REMARK    6  A    between atoms: C_17  and  C_19 
REMARK    7  A    between atoms: C_19  and  N_63 
REMARK    8  A    between atoms: C_20  and  N_63 
REMARK    9  A    between atoms: C_21  and  C_22 
REMARK   10  A    between atoms: C_21  and  N_63 
REMARK   11  A    between atoms: C_22  and  C_23 
ROOT
ATOM      1  C   LIG d   1       2.347  -0.509  -8.501  0.00  0.00    -0.005 C 
ATOM      2  H   LIG d   1       1.316  -0.804  -8.304  0.00  0.00     0.087 H 
ATOM      3  C   LIG d   1       2.437   0.148  -9.881  0.00  0.00    -0.005 C 
ATOM      4  C   LIG d   1       3.398  -0.665 -10.755  0.00  0.00    -0.019 C 
ATOM      5  H   LIG d   1       3.485  -0.225 -11.749  0.00  0.00     0.031 H 
ATOM      6  C   LIG d   1       2.868  -2.101 -10.861  0.00  0.00    -0.009 C 
ATOM      7  C   LIG d   1       2.767  -2.696  -9.453  0.00  0.00    -0.031 C 
ATOM      8  C   LIG d   1       4.618  -1.334  -8.687  0.00  0.00    -0.024 C 
ATOM      9  C   LIG d   1       4.771  -0.700 -10.073  0.00  0.00     0.042 C 
ATOM     10  H   LIG d   1       5.464  -1.293 -10.669  0.00  0.00     0.041 H 
ATOM     11  H   LIG d   1       2.811   1.166  -9.776  0.00  0.00     0.032 H 
ATOM     12  H   LIG d   1       1.450   0.167 -10.343  0.00  0.00     0.032 H 
ATOM     13  H   LIG d   1       3.553  -2.700 -11.462  0.00  0.00     0.032 H 
ATOM     14  H   LIG d   1       1.883  -2.096 -11.327  0.00  0.00     0.032 H 
ATOM     15  H   LIG d   1       3.400  -3.580  -9.385  0.00  0.00     0.081 H 
ATOM     16  H   LIG d   1       1.733  -2.973  -9.249  0.00  0.00     0.081 H 
ATOM     17  H   LIG d   1       5.238  -2.228  -8.624  0.00  0.00     0.082 H 
ATOM     18  H   LIG d   1       4.930  -0.619  -7.924  0.00  0.00     0.082 H 
ATOM     19  N   LIG d   1       3.208  -1.710  -8.444  0.00  0.00     0.239 N 
ATOM     20  H   LIG d   1       3.131  -2.131  -7.511  0.00  0.00     0.204 HD
ENDROOT
BRANCH   9  21
ATOM     21  C   LIG d   1       5.307   0.725  -9.928  0.00  0.00    -0.024 C 
ATOM     22  H   LIG d   1       4.605   1.320  -9.343  0.00  0.00     0.082 H 
ATOM     23  H   LIG d   1       5.427   1.170 -10.915  0.00  0.00     0.082 H 
BRANCH  21  24
ATOM     24  N   LIG d   1       6.606   0.677  -9.221  0.00  0.00     0.234 N 
ATOM     25  H   LIG d   1       6.531   0.025  -8.432  0.00  0.00     0.203 HD
BRANCH  24  26
ATOM     26  C   LIG d   1       7.662   0.203 -10.139  0.00  0.00    -0.043 C 
ATOM     27  H   LIG d   1       7.217  -0.472 -10.871  0.00  0.00     0.078 H 
ATOM     28  H   LIG d   1       8.096   1.061 -10.653  0.00  0.00     0.078 H 
ATOM     29  H   LIG d   1       8.441  -0.323  -9.587  0.00  0.00     0.078 H 
ENDBRANCH  24  26
BRANCH  24  30
ATOM     30  C   LIG d   1       6.949   2.018  -8.705  0.00  0.00    -0.027 C 
ATOM     31  H   LIG d   1       6.838   2.769  -9.487  0.00  0.00     0.082 H 
ATOM     32  H   LIG d   1       6.287   2.260  -7.873  0.00  0.00     0.082 H 
BRANCH  30  33
ATOM     33  C   LIG d   1       8.399   2.002  -8.216  0.00  0.00     0.030 C 
ATOM     34  H   LIG d   1       8.885   1.085  -8.549  0.00  0.00     0.038 H 
ATOM     35  H   LIG d   1       8.929   2.862  -8.622  0.00  0.00     0.038 H 
BRANCH  33  36
ATOM     36  C   LIG d   1       8.422   2.064  -6.710  0.00  0.00     0.046 A 
ATOM     37  N   LIG d   1       7.671   1.234  -6.013  0.00  0.00    -0.260 NA
ATOM     38  C   LIG d   1       7.660   1.251  -4.694  0.00  0.00     0.028 A 
ATOM     39  C   LIG d   1       8.442   2.148  -3.992  0.00  0.00    -0.044 A 
ATOM     40  H   LIG d   1       7.032   0.556  -4.157  0.00  0.00     0.083 H 
ATOM     41  C   LIG d   1       9.245   3.037  -4.691  0.00  0.00    -0.059 A 
ATOM     42  H   LIG d   1       8.427   2.158  -2.912  0.00  0.00     0.063 H 
ATOM     43  C   LIG d   1       9.234   2.985  -6.076  0.00  0.00    -0.040 A 
ATOM     44  H   LIG d   1       9.865   3.750  -4.169  0.00  0.00     0.062 H 
ATOM     45  H   LIG d   1       9.850   3.659  -6.653  0.00  0.00     0.064 H 
ENDBRANCH  33  36
ENDBRANCH  30  33
ENDBRANCH  24  30
ENDBRANCH  21  24
ENDBRANCH   9  21
BRANCH   1  46
ATOM     46  C   LIG d   1       2.807   0.483  -7.432  0.00  0.00     0.056 C 
ATOM     47  H   LIG d   1       3.887   0.616  -7.500  0.00  0.00     0.052 H 
ATOM     48  H   LIG d   1       2.312   1.442  -7.589  0.00  0.00     0.052 H 
BRANCH  46  49
ATOM     49  N   LIG d   1       2.462  -0.032  -6.105  0.00  0.00    -0.294 N 
ATOM     50  C   LIG d   1       3.420  -0.184  -5.169  0.00  0.00     0.300 C 
ATOM     51  N   LIG d   1       3.102  -0.658  -3.949  0.00  0.00    -0.297 N 
ATOM     52  O   LIG d   1       4.572   0.107  -5.427  0.00  0.00    -0.253 OA
ATOM     53  H   LIG d   1       2.183  -0.890  -3.743  0.00  0.00     0.150 HD
ATOM     54  H   LIG d   1       1.543  -0.264  -5.899  0.00  0.00     0.150 HD
BRANCH  51  55
ATOM     55  C   LIG d   1       4.144  -0.823  -2.933  0.00  0.00     0.019 C 
ATOM     56  H   LIG d   1       5.120  -0.861  -3.416  0.00  0.00     0.049 H 
BRANCH  55  57
ATOM     57  C   LIG d   1       4.102   0.358  -1.961  0.00  0.00    -0.047 C 
ATOM     58  H   LIG d   1       3.536   1.175  -2.407  0.00  0.00     0.025 H 
ATOM     59  H   LIG d   1       3.623   0.047  -1.033  0.00  0.00     0.025 H 
ATOM     60  H   LIG d   1       5.118   0.691  -1.751  0.00  0.00     0.025 H 
ENDBRANCH  55  57
BRANCH  55  61
ATOM     61  C   LIG d   1       3.906  -2.124  -2.165  0.00  0.00    -0.047 C 
ATOM     62  H   LIG d   1       4.412  -2.075  -1.200  0.00  0.00     0.025 H 
ATOM     63  H   LIG d   1       2.836  -2.262  -2.006  0.00  0.00     0.025 H 
ATOM     64  H   LIG d   1       4.298  -2.963  -2.739  0.00  0.00     0.025 H 
ENDBRANCH  55  61
ENDBRANCH  51  55
ENDBRANCH  46  49
ENDBRANCH   1  46
TORSDOF 11
ENDMDL
MODEL 9
REMARK VINA RESULT:      -6.0      7.825     10.485
REMARK  11 active torsions:
REMARK  status: ('A' for Active; 'I' for Inactive)
REMARK    1  A    between atoms: C_1  and  C_2 
REMARK    2  A    between atoms: C_2  and  C_3 
REMARK    3  A    between atoms: C_2  and  N_4 
REMARK       I    between atoms: N_4  and  C_5 
REMARK       I    between atoms: C_5  and  N_7 
REMARK    4  A    between atoms: N_7  and  C_8 
REMARK    5  A    between atoms: C_8  and  C_9 
REMARK    6  A    between atoms: C_17  and  C_19 
REMARK    7  A    between atoms: C_19  and  N_63 
REMARK    8  A    between atoms: C_20  and  N_63 
REMARK    9  A    between atoms: C_21  and  C_22 
REMARK   10  A    between atoms: C_21  and  N_63 
REMARK   11  A    between atoms: C_22  and  C_23 
ROOT
ATOM      1  C   LIG d   1       8.690   2.419  -5.015  0.00  0.00    -0.005 C 
ATOM      2  H   LIG d   1       8.148   2.139  -5.918  0.00  0.00     0.087 H 
ATOM      3  C   LIG d   1       8.933   3.931  -5.013  0.00  0.00    -0.005 C 
ATOM      4  C   LIG d   1      10.443   4.191  -4.976  0.00  0.00    -0.019 C 
ATOM      5  H   LIG d   1      10.652   5.261  -4.975  0.00  0.00     0.031 H 
ATOM      6  C   LIG d   1      11.082   3.530  -6.205  0.00  0.00    -0.009 C 
ATOM      7  C   LIG d   1      10.780   2.030  -6.174  0.00  0.00    -0.031 C 
ATOM      8  C   LIG d   1      10.722   2.038  -3.752  0.00  0.00    -0.024 C 
ATOM      9  C   LIG d   1      11.023   3.539  -3.715  0.00  0.00     0.042 C 
ATOM     10  H   LIG d   1      12.101   3.695  -3.682  0.00  0.00     0.041 H 
ATOM     11  H   LIG d   1       8.465   4.374  -4.133  0.00  0.00     0.032 H 
ATOM     12  H   LIG d   1       8.508   4.372  -5.914  0.00  0.00     0.032 H 
ATOM     13  H   LIG d   1      12.161   3.687  -6.183  0.00  0.00     0.032 H 
ATOM     14  H   LIG d   1      10.669   3.968  -7.114  0.00  0.00     0.032 H 
ATOM     15  H   LIG d   1      11.715   1.471  -6.141  0.00  0.00     0.081 H 
ATOM     16  H   LIG d   1      10.222   1.752  -7.067  0.00  0.00     0.081 H 
ATOM     17  H   LIG d   1      11.658   1.479  -3.736  0.00  0.00     0.082 H 
ATOM     18  H   LIG d   1      10.121   1.766  -2.883  0.00  0.00     0.082 H 
ATOM     19  N   LIG d   1       9.976   1.690  -4.980  0.00  0.00     0.239 N 
ATOM     20  H   LIG d   1       9.788   0.682  -4.982  0.00  0.00     0.204 HD
ENDROOT
BRANCH   9  21
ATOM     21  C   LIG d   1      10.376   4.161  -2.475  0.00  0.00    -0.024 C 
ATOM     22  H   LIG d   1       9.659   3.459  -2.048  0.00  0.00     0.082 H 
ATOM     23  H   LIG d   1       9.862   5.080  -2.755  0.00  0.00     0.082 H 
BRANCH  21  24
ATOM     24  N   LIG d   1      11.431   4.441  -1.477  0.00  0.00     0.234 N 
ATOM     25  H   LIG d   1      11.599   3.594  -0.923  0.00  0.00     0.203 HD
BRANCH  24  26
ATOM     26  C   LIG d   1      12.684   4.825  -2.162  0.00  0.00    -0.043 C 
ATOM     27  H   LIG d   1      13.304   5.394  -1.469  0.00  0.00     0.078 H 
ATOM     28  H   LIG d   1      13.213   3.920  -2.464  0.00  0.00     0.078 H 
ATOM     29  H   LIG d   1      12.469   5.431  -3.040  0.00  0.00     0.078 H 
ENDBRANCH  24  26
BRANCH  24  30
ATOM     30  C   LIG d   1      10.996   5.528  -0.575  0.00  0.00    -0.027 C 
ATOM     31  H   LIG d   1      10.534   5.117   0.323  0.00  0.00     0.082 H 
ATOM     32  H   LIG d   1      11.863   6.127  -0.295  0.00  0.00     0.082 H 
BRANCH  30  33
ATOM     33  C   LIG d   1       9.984   6.407  -1.312  0.00  0.00     0.030 C 
ATOM     34  H   LIG d   1      10.237   6.440  -2.372  0.00  0.00     0.038 H 
ATOM     35  H   LIG d   1       8.985   5.990  -1.191  0.00  0.00     0.038 H 
BRANCH  33  36
ATOM     36  C   LIG d   1      10.020   7.801  -0.743  0.00  0.00     0.046 A 
ATOM     37  N   LIG d   1       9.103   8.677  -1.106  0.00  0.00    -0.260 NA
ATOM     38  C   LIG d   1       9.094   9.908  -0.633  0.00  0.00     0.028 A 
ATOM     39  C   LIG d   1      10.055  10.326   0.267  0.00  0.00    -0.044 A 
ATOM     40  H   LIG d   1       8.327  10.597  -0.954  0.00  0.00     0.083 H 
ATOM     41  C   LIG d   1      11.036   9.433   0.673  0.00  0.00    -0.059 A 
ATOM     42  H   LIG d   1      10.043  11.336   0.650  0.00  0.00     0.063 H 
ATOM     43  C   LIG d   1      11.009   8.147   0.159  0.00  0.00    -0.040 A 
ATOM     44  H   LIG d   1      11.800   9.732   1.374  0.00  0.00     0.062 H 
ATOM     45  H   LIG d   1      11.754   7.423   0.455  0.00  0.00     0.064 H 
ENDBRANCH  33  36
ENDBRANCH  30  33
ENDBRANCH  24  30
ENDBRANCH  21  24
ENDBRANCH   9  21
BRANCH   1  46
ATOM     46  C   LIG d   1       7.867   2.033  -3.785  0.00  0.00     0.056 C 
ATOM     47  H   LIG d   1       8.534   1.684  -2.996  0.00  0.00     0.052 H 
ATOM     48  H   LIG d   1       7.310   2.901  -3.432  0.00  0.00     0.052 H 
BRANCH  46  49
ATOM     49  N   LIG d   1       6.930   0.964  -4.140  0.00  0.00    -0.294 N 
ATOM     50  C   LIG d   1       5.867   0.709  -3.351  0.00  0.00     0.300 C 
ATOM     51  N   LIG d   1       5.005  -0.274  -3.678  0.00  0.00    -0.297 N 
ATOM     52  O   LIG d   1       5.685   1.366  -2.345  0.00  0.00    -0.253 OA
ATOM     53  H   LIG d   1       5.150  -0.798  -4.481  0.00  0.00     0.150 HD
ATOM     54  H   LIG d   1       7.075   0.440  -4.943  0.00  0.00     0.150 HD
BRANCH  51  55
ATOM     55  C   LIG d   1       3.850  -0.551  -2.821  0.00  0.00     0.019 C 
ATOM     56  H   LIG d   1       3.841   0.150  -1.986  0.00  0.00     0.049 H 
BRANCH  55  57
ATOM     57  C   LIG d   1       2.563  -0.393  -3.632  0.00  0.00    -0.047 C 
ATOM     58  H   LIG d   1       1.721  -0.253  -2.955  0.00  0.00     0.025 H 
ATOM     59  H   LIG d   1       2.650   0.473  -4.288  0.00  0.00     0.025 H 
ATOM     60  H   LIG d   1       2.401  -1.288  -4.234  0.00  0.00     0.025 H 
ENDBRANCH  55  57
BRANCH  55  61
ATOM     61  C   LIG d   1       3.943  -1.980  -2.286  0.00  0.00    -0.047 C 
ATOM     62  H   LIG d   1       3.845  -1.970  -1.200  0.00  0.00     0.025 H 
ATOM     63  H   LIG d   1       3.143  -2.583  -2.716  0.00  0.00     0.025 H 
ATOM     64  H   LIG d   1       4.907  -2.410  -2.559  0.00  0.00     0.025 H 
ENDBRANCH  55  61
ENDBRANCH  51  55
ENDBRANCH  46  49
ENDBRANCH   1  46
TORSDOF 11
ENDMDL
MODEL 10
REMARK VINA RESULT:      -5.9      3.532      5.098
REMARK  11 active torsions:
REMARK  status: ('A' for Active; 'I' for Inactive)
REMARK    1  A    between atoms: C_1  and  C_2 
REMARK    2  A    between atoms: C_2  and  C_3 
REMARK    3  A    between atoms: C_2  and  N_4 
REMARK       I    between atoms: N_4  and  C_5 
REMARK       I    between atoms: C_5  and  N_7 
REMARK    4  A    between atoms: N_7  and  C_8 
REMARK    5  A    between atoms: C_8  and  C_9 
REMARK    6  A    between atoms: C_17  and  C_19 
REMARK    7  A    between atoms: C_19  and  N_63 
REMARK    8  A    between atoms: C_20  and  N_63 
REMARK    9  A    between atoms: C_21  and  C_22 
REMARK   10  A    between atoms: C_21  and  N_63 
REMARK   11  A    between atoms: C_22  and  C_23 
ROOT
ATOM      1  C   LIG d   1       3.148   0.325 -10.841  0.00  0.00    -0.005 C 
ATOM      2  H   LIG d   1       2.616   0.942 -11.566  0.00  0.00     0.087 H 
ATOM      3  C   LIG d   1       2.204  -0.046  -9.694  0.00  0.00    -0.005 C 
ATOM      4  C   LIG d   1       2.781   0.496  -8.382  0.00  0.00    -0.019 C 
ATOM      5  H   LIG d   1       2.131   0.250  -7.542  0.00  0.00     0.031 H 
ATOM      6  C   LIG d   1       2.929   2.018  -8.505  0.00  0.00    -0.009 C 
ATOM      7  C   LIG d   1       3.854   2.332  -9.685  0.00  0.00    -0.031 C 
ATOM      8  C   LIG d   1       5.062   0.258  -9.358  0.00  0.00    -0.024 C 
ATOM      9  C   LIG d   1       4.172  -0.114  -8.168  0.00  0.00     0.042 C 
ATOM     10  H   LIG d   1       4.608   0.276  -7.250  0.00  0.00     0.041 H 
ATOM     11  H   LIG d   1       2.113  -1.131  -9.633  0.00  0.00     0.032 H 
ATOM     12  H   LIG d   1       1.222   0.393  -9.871  0.00  0.00     0.032 H 
ATOM     13  H   LIG d   1       3.360   2.418  -7.587  0.00  0.00     0.032 H 
ATOM     14  H   LIG d   1       1.952   2.470  -8.676  0.00  0.00     0.032 H 
ATOM     15  H   LIG d   1       4.723   2.884  -9.329  0.00  0.00     0.081 H 
ATOM     16  H   LIG d   1       3.316   2.932 -10.419  0.00  0.00     0.081 H 
ATOM     17  H   LIG d   1       5.923   0.826  -9.004  0.00  0.00     0.082 H 
ATOM     18  H   LIG d   1       5.404  -0.651  -9.854  0.00  0.00     0.082 H 
ATOM     19  N   LIG d   1       4.310   1.081 -10.329  0.00  0.00     0.239 N 
ATOM     20  H   LIG d   1       4.927   1.318 -11.114  0.00  0.00     0.204 HD
ENDROOT
BRANCH   9  21
ATOM     21  C   LIG d   1       4.053  -1.637  -8.074  0.00  0.00    -0.024 C 
ATOM     22  H   LIG d   1       4.826  -2.101  -8.687  0.00  0.00     0.082 H 
ATOM     23  H   LIG d   1       3.071  -1.947  -8.430  0.00  0.00     0.082 H 
BRANCH  21  24
ATOM     24  N   LIG d   1       4.246  -2.043  -6.665  0.00  0.00     0.234 N 
ATOM     25  H   LIG d   1       3.413  -1.780  -6.126  0.00  0.00     0.203 HD
BRANCH  24  26
ATOM     26  C   LIG d   1       4.429  -3.507  -6.582  0.00  0.00    -0.043 C 
ATOM     27  H   LIG d   1       5.476  -3.743  -6.776  0.00  0.00     0.078 H 
ATOM     28  H   LIG d   1       4.161  -3.842  -5.580  0.00  0.00     0.078 H 
ATOM     29  H   LIG d   1       3.802  -4.013  -7.315  0.00  0.00     0.078 H 
ENDBRANCH  24  26
BRANCH  24  30
ATOM     30  C   LIG d   1       5.423  -1.353  -6.097  0.00  0.00    -0.027 C 
ATOM     31  H   LIG d   1       6.335  -1.683  -6.594  0.00  0.00     0.082 H 
ATOM     32  H   LIG d   1       5.305  -0.278  -6.232  0.00  0.00     0.082 H 
BRANCH  30  33
ATOM     33  C   LIG d   1       5.510  -1.674  -4.604  0.00  0.00     0.030 C 
ATOM     34  H   LIG d   1       5.021  -2.629  -4.408  0.00  0.00     0.038 H 
ATOM     35  H   LIG d   1       6.556  -1.735  -4.306  0.00  0.00     0.038 H 
BRANCH  33  36
ATOM     36  C   LIG d   1       4.825  -0.588  -3.815  0.00  0.00     0.046 A 
ATOM     37  N   LIG d   1       3.879   0.133  -4.385  0.00  0.00    -0.260 NA
ATOM     38  C   LIG d   1       3.252   1.094  -3.733  0.00  0.00     0.028 A 
ATOM     39  C   LIG d   1       3.570   1.380  -2.420  0.00  0.00    -0.044 A 
ATOM     40  H   LIG d   1       2.482   1.662  -4.233  0.00  0.00     0.083 H 
ATOM     41  C   LIG d   1       4.560   0.643  -1.787  0.00  0.00    -0.059 A 
ATOM     42  H   LIG d   1       3.053   2.168  -1.892  0.00  0.00     0.063 H 
ATOM     43  C   LIG d   1       5.192  -0.361  -2.502  0.00  0.00    -0.040 A 
ATOM     44  H   LIG d   1       4.829   0.846  -0.761  0.00  0.00     0.062 H 
ATOM     45  H   LIG d   1       5.965  -0.958  -2.040  0.00  0.00     0.064 H 
ENDBRANCH  33  36
ENDBRANCH  30  33
ENDBRANCH  24  30
ENDBRANCH  21  24
ENDBRANCH   9  21
BRANCH   1  46
ATOM     46  C   LIG d   1       3.648  -0.950 -11.524  0.00  0.00     0.056 C 
ATOM     47  H   LIG d   1       4.603  -1.245 -11.089  0.00  0.00     0.052 H 
ATOM     48  H   LIG d   1       2.920  -1.749 -11.379  0.00  0.00     0.052 H 
BRANCH  46  49
ATOM     49  N   LIG d   1       3.820  -0.701 -12.958  0.00  0.00    -0.294 N 
ATOM     50  C   LIG d   1       5.055  -0.697 -13.498  0.00  0.00     0.300 C 
ATOM     51  N   LIG d   1       5.213  -0.469 -14.817  0.00  0.00    -0.297 N 
ATOM     52  O   LIG d   1       6.026  -0.900 -12.796  0.00  0.00    -0.253 OA
ATOM     53  H   LIG d   1       4.438  -0.307 -15.377  0.00  0.00     0.150 HD
ATOM     54  H   LIG d   1       3.045  -0.540 -13.518  0.00  0.00     0.150 HD
BRANCH  51  55
ATOM     55  C   LIG d   1       6.554  -0.465 -15.404  0.00  0.00     0.019 C 
ATOM     56  H   LIG d   1       7.288  -0.238 -14.630  0.00  0.00     0.049 H 
BRANCH  55  57
ATOM     57  C   LIG d   1       6.854  -1.840 -16.004  0.00  0.00    -0.047 C 
ATOM     58  H   LIG d   1       7.772  -1.790 -16.588  0.00  0.00     0.025 H 
ATOM     59  H   LIG d   1       6.972  -2.568 -15.202  0.00  0.00     0.025 H 
ATOM     60  H   LIG d   1       6.028  -2.142 -16.648  0.00  0.00     0.025 H 
ENDBRANCH  55  57
BRANCH  55  61
ATOM     61  C   LIG d   1       6.627   0.597 -16.502  0.00  0.00    -0.047 C 
ATOM     62  H   LIG d   1       5.621   0.820 -16.860  0.00  0.00     0.025 H 
ATOM     63  H   LIG d   1       7.078   1.505 -16.101  0.00  0.00     0.025 H 
ATOM     64  H   LIG d   1       7.233   0.226 -17.328  0.00  0.00     0.025 H 
ENDBRANCH  55  61
ENDBRANCH  51  55
ENDBRANCH  46  49
ENDBRANCH   1  46
TORSDOF 11
ENDMDL
