MODEL 1
REMARK VINA RESULT:      -5.7      0.000      0.000
REMARK  13 active torsions:
REMARK  status: ('A' for Active; 'I' for Inactive)
REMARK    1  A    between atoms: C_1  and  C_2 
REMARK    2  A    between atoms: C_6  and  C_28 
REMARK    3  A    between atoms: C_10  and  C_27 
REMARK    4  A    between atoms: C_15  and  C_16 
REMARK    5  A    between atoms: C_16  and  C_17 
REMARK       I    between atoms: C_17  and  N_19 
REMARK    6  A    between atoms: N_19  and  C_20 
REMARK    7  A    between atoms: C_20  and  C_22 
REMARK    8  A    between atoms: C_20  and  C_25 
REMARK    9  A    between atoms: C_22  and  S_23 
REMARK   10  A    between atoms: S_23  and  C_24 
REMARK   11  A    between atoms: C_28  and  C_29 
REMARK   12  A    between atoms: C_28  and  C_30 
REMARK   13  A    between atoms: C_28  and  C_31 
ROOT
ATOM      1  C   UNK d   0       9.645   4.030  -5.818  0.00  0.00    -0.029 A 
ATOM      2  C   UNK d   0       9.731   5.364  -5.216  0.00  0.00     0.022 A 
ATOM      3  C   UNK d   0       9.852   6.500  -6.016  0.00  0.00    -0.040 A 
ATOM      4  C   UNK d   0       9.938   7.748  -5.414  0.00  0.00     0.025 A 
ATOM      5  C   UNK d   0      10.069   9.121  -5.921  0.00  0.00     0.004 A 
ATOM      6  C   UNK d   0      10.101   9.915  -4.844  0.00  0.00     0.097 A 
ATOM      7  O   UNK d   0      10.005   9.182  -3.721  0.00  0.00    -0.462 OA
ATOM      8  C   UNK d   0       9.903   7.869  -4.010  0.00  0.00     0.141 A 
ATOM      9  C   UNK d   0       9.782   6.733  -3.222  0.00  0.00     0.035 A 
ATOM     10  C   UNK d   0       9.696   5.484  -3.812  0.00  0.00     0.146 A 
ATOM     11  O   UNK d   0       9.580   4.374  -3.048  0.00  0.00    -0.422 OA
ATOM     12  C   UNK d   0       9.496   3.152  -3.595  0.00  0.00     0.341 A 
ATOM     13  O   UNK d   0       9.391   2.183  -2.865  0.00  0.00    -0.245 OA
ATOM     14  C   UNK d   0       9.524   2.960  -4.992  0.00  0.00     0.049 A 
ATOM     15  H   UNK d   0       9.881   6.410  -7.092  0.00  0.00     0.063 H 
ATOM     16  H   UNK d   0      10.193  10.991  -4.874  0.00  0.00     0.103 H 
ENDROOT
BRANCH  14  17
ATOM     17  C   UNK d   0       9.428   1.569  -5.566  0.00  0.00     0.056 C 
ATOM     18  H   UNK d   0      10.102   0.905  -5.024  0.00  0.00     0.041 H 
ATOM     19  H   UNK d   0       9.709   1.590  -6.618  0.00  0.00     0.041 H 
BRANCH  17  20
ATOM     20  C   UNK d   0       8.013   1.067  -5.432  0.00  0.00     0.218 C 
ATOM     21  O   UNK d   0       7.198   1.316  -6.295  0.00  0.00    -0.275 OA
ATOM     22  N   UNK d   1       7.655   0.341  -4.355  0.00  0.00    -0.306 N 
ATOM     23  H   UNK d   1       8.308   0.142  -3.666  0.00  0.00     0.149 HD
BRANCH  22  24
ATOM     24  C   UNK d   1       6.280  -0.147  -4.225  0.00  0.00     0.071 C 
ATOM     25  H   UNK d   1       5.841  -0.264  -5.215  0.00  0.00     0.057 H 
BRANCH  24  26
ATOM     26  C   UNK d   1       6.285  -1.498  -3.507  0.00  0.00     0.017 C 
ATOM     27  H   UNK d   1       6.361  -1.337  -2.431  0.00  0.00     0.040 H 
ATOM     28  H   UNK d   1       7.136  -2.088  -3.847  0.00  0.00     0.040 H 
BRANCH  26  29
ATOM     29  S   UNK d   1       4.747  -2.386  -3.877  0.00  0.00    -0.162 SA
BRANCH  29  30
ATOM     30  C   UNK d   1       3.740  -2.161  -2.386  0.00  0.00    -0.018 C 
ATOM     31  H   UNK d   1       3.421  -1.121  -2.316  0.00  0.00     0.034 H 
ATOM     32  H   UNK d   1       2.862  -2.807  -2.438  0.00  0.00     0.034 H 
ATOM     33  H   UNK d   1       4.329  -2.420  -1.506  0.00  0.00     0.034 H 
ENDBRANCH  29  30
ENDBRANCH  26  29
ENDBRANCH  24  26
BRANCH  24  34
ATOM     34  C   UNK d   1       5.468   0.843  -3.430  0.00  0.00     0.063 C 
ATOM     35  O   UNK d   1       5.938   1.352  -2.441  0.00  0.00    -0.548 OA
ATOM     36  O   UNK d   1       4.223   1.157  -3.820  0.00  0.00    -0.548 OA
ENDBRANCH  24  34
ENDBRANCH  22  24
ENDBRANCH  17  20
ENDBRANCH  14  17
BRANCH   1  37
ATOM     37  C   UNK d   0       9.684   3.851  -7.315  0.00  0.00    -0.038 C 
ATOM     38  H   UNK d   0       9.431   4.793  -7.799  0.00  0.00     0.028 H 
ATOM     39  H   UNK d   0      10.686   3.543  -7.617  0.00  0.00     0.028 H 
ATOM     40  H   UNK d   0       8.966   3.086  -7.609  0.00  0.00     0.028 H 
ENDBRANCH   1  37
BRANCH   9  41
ATOM     41  C   UNK d   0       9.744   6.860  -1.721  0.00  0.00    -0.033 C 
ATOM     42  H   UNK d   0       9.728   7.915  -1.445  0.00  0.00     0.028 H 
ATOM     43  H   UNK d   0       8.848   6.371  -1.338  0.00  0.00     0.028 H 
ATOM     44  H   UNK d   0      10.627   6.385  -1.293  0.00  0.00     0.028 H 
ENDBRANCH   9  41
BRANCH   5  45
ATOM     45  C   UNK d   0      10.152   9.548  -7.365  0.00  0.00    -0.009 C 
BRANCH  45  46
ATOM     46  C   UNK d   0      10.049  11.073  -7.451  0.00  0.00    -0.056 C 
ATOM     47  H   UNK d   0      10.980  11.521  -7.105  0.00  0.00     0.024 H 
ATOM     48  H   UNK d   0       9.867  11.366  -8.485  0.00  0.00     0.024 H 
ATOM     49  H   UNK d   0       9.225  11.417  -6.826  0.00  0.00     0.024 H 
ENDBRANCH  45  46
BRANCH  45  50
ATOM     50  C   UNK d   0      11.487   9.094  -7.955  0.00  0.00    -0.056 C 
ATOM     51  H   UNK d   0      11.881   8.264  -7.369  0.00  0.00     0.024 H 
ATOM     52  H   UNK d   0      11.337   8.770  -8.985  0.00  0.00     0.024 H 
ATOM     53  H   UNK d   0      12.196   9.921  -7.934  0.00  0.00     0.024 H 
ENDBRANCH  45  50
BRANCH  45  54
ATOM     54  C   UNK d   0       9.003   8.914  -8.151  0.00  0.00    -0.056 C 
ATOM     55  H   UNK d   0       8.877   7.877  -7.839  0.00  0.00     0.024 H 
ATOM     56  H   UNK d   0       8.083   9.466  -7.959  0.00  0.00     0.024 H 
ATOM     57  H   UNK d   0       9.230   8.947  -9.216  0.00  0.00     0.024 H 
ENDBRANCH  45  54
ENDBRANCH   5  45
TORSDOF 13
ENDMDL
MODEL 2
REMARK VINA RESULT:      -5.6      7.170     10.479
REMARK  13 active torsions:
REMARK  status: ('A' for Active; 'I' for Inactive)
REMARK    1  A    between atoms: C_1  and  C_2 
REMARK    2  A    between atoms: C_6  and  C_28 
REMARK    3  A    between atoms: C_10  and  C_27 
REMARK    4  A    between atoms: C_15  and  C_16 
REMARK    5  A    between atoms: C_16  and  C_17 
REMARK       I    between atoms: C_17  and  N_19 
REMARK    6  A    between atoms: N_19  and  C_20 
REMARK    7  A    between atoms: C_20  and  C_22 
REMARK    8  A    between atoms: C_20  and  C_25 
REMARK    9  A    between atoms: C_22  and  S_23 
REMARK   10  A    between atoms: S_23  and  C_24 
REMARK   11  A    between atoms: C_28  and  C_29 
REMARK   12  A    between atoms: C_28  and  C_30 
REMARK   13  A    between atoms: C_28  and  C_31 
ROOT
ATOM      1  C   UNK d   0       5.392  -5.156  -5.471  0.00  0.00    -0.029 A 
ATOM      2  C   UNK d   0       5.953  -3.910  -4.937  0.00  0.00     0.022 A 
ATOM      3  C   UNK d   0       5.118  -2.861  -4.551  0.00  0.00    -0.040 A 
ATOM      4  C   UNK d   0       5.681  -1.694  -4.055  0.00  0.00     0.025 A 
ATOM      5  C   UNK d   0       5.132  -0.420  -3.566  0.00  0.00     0.004 A 
ATOM      6  C   UNK d   0       6.184   0.330  -3.216  0.00  0.00     0.097 A 
ATOM      7  O   UNK d   0       7.329  -0.341  -3.437  0.00  0.00    -0.462 OA
ATOM      8  C   UNK d   0       7.081  -1.566  -3.942  0.00  0.00     0.141 A 
ATOM      9  C   UNK d   0       7.903  -2.615  -4.328  0.00  0.00     0.035 A 
ATOM     10  C   UNK d   0       7.352  -3.784  -4.824  0.00  0.00     0.146 A 
ATOM     11  O   UNK d   0       8.150  -4.808  -5.203  0.00  0.00    -0.422 OA
ATOM     12  C   UNK d   0       7.641  -5.950  -5.687  0.00  0.00     0.341 A 
ATOM     13  O   UNK d   0       8.400  -6.845  -6.014  0.00  0.00    -0.245 OA
ATOM     14  C   UNK d   0       6.250  -6.144  -5.827  0.00  0.00     0.049 A 
ATOM     15  H   UNK d   0       4.046  -2.956  -4.639  0.00  0.00     0.063 H 
ATOM     16  H   UNK d   0       6.122   1.331  -2.816  0.00  0.00     0.103 H 
ENDROOT
BRANCH  14  17
ATOM     17  C   UNK d   0       5.720  -7.444  -6.377  0.00  0.00     0.056 C 
ATOM     18  H   UNK d   0       6.457  -7.879  -7.054  0.00  0.00     0.041 H 
ATOM     19  H   UNK d   0       4.794  -7.257  -6.920  0.00  0.00     0.041 H 
BRANCH  17  20
ATOM     20  C   UNK d   0       5.455  -8.399  -5.242  0.00  0.00     0.218 C 
ATOM     21  O   UNK d   0       4.314  -8.696  -4.954  0.00  0.00    -0.275 OA
ATOM     22  N   UNK d   1       6.483  -8.923  -4.548  0.00  0.00    -0.306 N 
ATOM     23  H   UNK d   1       7.395  -8.686  -4.779  0.00  0.00     0.149 HD
BRANCH  22  24
ATOM     24  C   UNK d   1       6.225  -9.852  -3.445  0.00  0.00     0.071 C 
ATOM     25  H   UNK d   1       5.173  -9.804  -3.168  0.00  0.00     0.057 H 
BRANCH  24  26
ATOM     26  C   UNK d   1       6.572 -11.276  -3.885  0.00  0.00     0.017 C 
ATOM     27  H   UNK d   1       5.699 -11.735  -4.349  0.00  0.00     0.040 H 
ATOM     28  H   UNK d   1       6.872 -11.862  -3.017  0.00  0.00     0.040 H 
BRANCH  26  29
ATOM     29  S   UNK d   1       7.935 -11.224  -5.081  0.00  0.00    -0.162 SA
BRANCH  29  30
ATOM     30  C   UNK d   1       9.387 -11.719  -4.113  0.00  0.00    -0.018 C 
ATOM     31  H   UNK d   1      10.279 -11.655  -4.737  0.00  0.00     0.034 H 
ATOM     32  H   UNK d   1       9.496 -11.055  -3.255  0.00  0.00     0.034 H 
ATOM     33  H   UNK d   1       9.261 -12.744  -3.766  0.00  0.00     0.034 H 
ENDBRANCH  29  30
ENDBRANCH  26  29
ENDBRANCH  24  26
BRANCH  24  34
ATOM     34  C   UNK d   1       7.074  -9.472  -2.259  0.00  0.00     0.063 C 
ATOM     35  O   UNK d   1       8.043  -8.766  -2.411  0.00  0.00    -0.548 OA
ATOM     36  O   UNK d   1       6.754  -9.918  -1.034  0.00  0.00    -0.548 OA
ENDBRANCH  24  34
ENDBRANCH  22  24
ENDBRANCH  17  20
ENDBRANCH  14  17
BRANCH   1  37
ATOM     37  C   UNK d   0       3.902  -5.335  -5.616  0.00  0.00    -0.038 C 
ATOM     38  H   UNK d   0       3.441  -4.373  -5.834  0.00  0.00     0.028 H 
ATOM     39  H   UNK d   0       3.699  -6.029  -6.433  0.00  0.00     0.028 H 
ATOM     40  H   UNK d   0       3.492  -5.734  -4.690  0.00  0.00     0.028 H 
ENDBRANCH   1  37
BRANCH   9  41
ATOM     41  C   UNK d   0       9.399  -2.481  -4.207  0.00  0.00    -0.033 C 
ATOM     42  H   UNK d   0       9.762  -3.144  -3.420  0.00  0.00     0.028 H 
ATOM     43  H   UNK d   0       9.866  -2.753  -5.154  0.00  0.00     0.028 H 
ATOM     44  H   UNK d   0       9.653  -1.451  -3.960  0.00  0.00     0.028 H 
ENDBRANCH   9  41
BRANCH   5  45
ATOM     45  C   UNK d   0       3.677  -0.038  -3.477  0.00  0.00    -0.009 C 
BRANCH  45  46
ATOM     46  C   UNK d   0       3.543   1.280  -2.711  0.00  0.00    -0.056 C 
ATOM     47  H   UNK d   0       2.774   1.179  -1.946  0.00  0.00     0.024 H 
ATOM     48  H   UNK d   0       4.495   1.523  -2.239  0.00  0.00     0.024 H 
ATOM     49  H   UNK d   0       3.267   2.076  -3.403  0.00  0.00     0.024 H 
ENDBRANCH  45  46
BRANCH  45  50
ATOM     50  C   UNK d   0       3.107   0.131  -4.886  0.00  0.00    -0.056 C 
ATOM     51  H   UNK d   0       3.885  -0.074  -5.621  0.00  0.00     0.024 H 
ATOM     52  H   UNK d   0       2.280  -0.565  -5.030  0.00  0.00     0.024 H 
ATOM     53  H   UNK d   0       2.749   1.152  -5.014  0.00  0.00     0.024 H 
ENDBRANCH  45  50
BRANCH  45  54
ATOM     54  C   UNK d   0       2.905  -1.136  -2.743  0.00  0.00    -0.056 C 
ATOM     55  H   UNK d   0       3.329  -1.276  -1.748  0.00  0.00     0.024 H 
ATOM     56  H   UNK d   0       1.858  -0.847  -2.654  0.00  0.00     0.024 H 
ATOM     57  H   UNK d   0       2.978  -2.068  -3.302  0.00  0.00     0.024 H 
ENDBRANCH  45  54
ENDBRANCH   5  45
TORSDOF 13
ENDMDL
MODEL 3
REMARK VINA RESULT:      -5.5      7.747     10.463
REMARK  13 active torsions:
REMARK  status: ('A' for Active; 'I' for Inactive)
REMARK    1  A    between atoms: C_1  and  C_2 
REMARK    2  A    between atoms: C_6  and  C_28 
REMARK    3  A    between atoms: C_10  and  C_27 
REMARK    4  A    between atoms: C_15  and  C_16 
REMARK    5  A    between atoms: C_16  and  C_17 
REMARK       I    between atoms: C_17  and  N_19 
REMARK    6  A    between atoms: N_19  and  C_20 
REMARK    7  A    between atoms: C_20  and  C_22 
REMARK    8  A    between atoms: C_20  and  C_25 
REMARK    9  A    between atoms: C_22  and  S_23 
REMARK   10  A    between atoms: S_23  and  C_24 
REMARK   11  A    between atoms: C_28  and  C_29 
REMARK   12  A    between atoms: C_28  and  C_30 
REMARK   13  A    between atoms: C_28  and  C_31 
ROOT
ATOM      1  C   UNK d   0       5.157  -3.885  -7.151  0.00  0.00    -0.029 A 
ATOM      2  C   UNK d   0       4.553  -2.597  -6.797  0.00  0.00     0.022 A 
ATOM      3  C   UNK d   0       4.712  -2.063  -5.519  0.00  0.00    -0.040 A 
ATOM      4  C   UNK d   0       4.122  -0.844  -5.214  0.00  0.00     0.025 A 
ATOM      5  C   UNK d   0       4.077  -0.002  -4.010  0.00  0.00     0.004 A 
ATOM      6  C   UNK d   0       3.343   1.070  -4.332  0.00  0.00     0.097 A 
ATOM      7  O   UNK d   0       2.925   0.984  -5.608  0.00  0.00    -0.462 OA
ATOM      8  C   UNK d   0       3.368  -0.152  -6.184  0.00  0.00     0.141 A 
ATOM      9  C   UNK d   0       3.216  -0.691  -7.453  0.00  0.00     0.035 A 
ATOM     10  C   UNK d   0       3.800  -1.906  -7.768  0.00  0.00     0.146 A 
ATOM     11  O   UNK d   0       3.652  -2.435  -9.003  0.00  0.00    -0.422 OA
ATOM     12  C   UNK d   0       4.208  -3.611  -9.332  0.00  0.00     0.341 A 
ATOM     13  O   UNK d   0       4.047  -4.047 -10.458  0.00  0.00    -0.245 OA
ATOM     14  C   UNK d   0       4.973  -4.356  -8.410  0.00  0.00     0.049 A 
ATOM     15  H   UNK d   0       5.287  -2.592  -4.773  0.00  0.00     0.063 H 
ATOM     16  H   UNK d   0       3.116   1.887  -3.662  0.00  0.00     0.103 H 
ENDROOT
BRANCH  14  17
ATOM     17  C   UNK d   0       5.579  -5.673  -8.821  0.00  0.00     0.056 C 
ATOM     18  H   UNK d   0       6.614  -5.720  -8.479  0.00  0.00     0.041 H 
ATOM     19  H   UNK d   0       5.551  -5.763  -9.906  0.00  0.00     0.041 H 
BRANCH  17  20
ATOM     20  C   UNK d   0       4.795  -6.802  -8.202  0.00  0.00     0.218 C 
ATOM     21  O   UNK d   0       3.585  -6.822  -8.296  0.00  0.00    -0.275 OA
ATOM     22  N   UNK d   1       5.436  -7.788  -7.546  0.00  0.00    -0.306 N 
ATOM     23  H   UNK d   1       6.404  -7.772  -7.471  0.00  0.00     0.149 HD
BRANCH  22  24
ATOM     24  C   UNK d   1       4.674  -8.885  -6.944  0.00  0.00     0.071 C 
ATOM     25  H   UNK d   1       3.625  -8.794  -7.224  0.00  0.00     0.057 H 
BRANCH  24  26
ATOM     26  C   UNK d   1       5.221 -10.222  -7.447  0.00  0.00     0.017 C 
ATOM     27  H   UNK d   1       4.616 -10.570  -8.285  0.00  0.00     0.040 H 
ATOM     28  H   UNK d   1       5.184 -10.956  -6.642  0.00  0.00     0.040 H 
BRANCH  26  29
ATOM     29  S   UNK d   1       6.939 -10.007  -7.990  0.00  0.00    -0.162 SA
BRANCH  29  30
ATOM     30  C   UNK d   1       7.921 -10.633  -6.600  0.00  0.00    -0.018 C 
ATOM     31  H   UNK d   1       8.423 -11.554  -6.896  0.00  0.00     0.034 H 
ATOM     32  H   UNK d   1       8.665  -9.888  -6.316  0.00  0.00     0.034 H 
ATOM     33  H   UNK d   1       7.265 -10.833  -5.753  0.00  0.00     0.034 H 
ENDBRANCH  29  30
ENDBRANCH  26  29
ENDBRANCH  24  26
BRANCH  24  34
ATOM     34  C   UNK d   1       4.801  -8.822  -5.444  0.00  0.00     0.063 C 
ATOM     35  O   UNK d   1       5.694  -8.183  -4.940  0.00  0.00    -0.548 OA
ATOM     36  O   UNK d   1       3.922  -9.475  -4.668  0.00  0.00    -0.548 OA
ENDBRANCH  24  34
ENDBRANCH  22  24
ENDBRANCH  17  20
ENDBRANCH  14  17
BRANCH   1  37
ATOM     37  C   UNK d   0       5.966  -4.664  -6.145  0.00  0.00    -0.038 C 
ATOM     38  H   UNK d   0       7.010  -4.358  -6.203  0.00  0.00     0.028 H 
ATOM     39  H   UNK d   0       5.584  -4.468  -5.143  0.00  0.00     0.028 H 
ATOM     40  H   UNK d   0       5.887  -5.729  -6.362  0.00  0.00     0.028 H 
ENDBRANCH   1  37
BRANCH   9  41
ATOM     41  C   UNK d   0       2.412   0.048  -8.492  0.00  0.00    -0.033 C 
ATOM     42  H   UNK d   0       2.871  -0.087  -9.472  0.00  0.00     0.028 H 
ATOM     43  H   UNK d   0       1.395  -0.346  -8.511  0.00  0.00     0.028 H 
ATOM     44  H   UNK d   0       2.386   1.109  -8.245  0.00  0.00     0.028 H 
ENDBRANCH   9  41
BRANCH   5  45
ATOM     45  C   UNK d   0       4.727  -0.289  -2.681  0.00  0.00    -0.009 C 
BRANCH  45  46
ATOM     46  C   UNK d   0       6.233  -0.470  -2.880  0.00  0.00    -0.056 C 
ATOM     47  H   UNK d   0       6.772   0.101  -2.125  0.00  0.00     0.024 H 
ATOM     48  H   UNK d   0       6.487  -1.526  -2.785  0.00  0.00     0.024 H 
ATOM     49  H   UNK d   0       6.514  -0.118  -3.873  0.00  0.00     0.024 H 
ENDBRANCH  45  46
BRANCH  45  50
ATOM     50  C   UNK d   0       4.476   0.880  -1.727  0.00  0.00    -0.056 C 
ATOM     51  H   UNK d   0       3.460   1.250  -1.865  0.00  0.00     0.024 H 
ATOM     52  H   UNK d   0       4.603   0.543  -0.699  0.00  0.00     0.024 H 
ATOM     53  H   UNK d   0       5.185   1.680  -1.938  0.00  0.00     0.024 H 
ENDBRANCH  45  50
BRANCH  45  54
ATOM     54  C   UNK d   0       4.133  -1.568  -2.088  0.00  0.00    -0.056 C 
ATOM     55  H   UNK d   0       3.966  -2.295  -2.884  0.00  0.00     0.024 H 
ATOM     56  H   UNK d   0       4.823  -1.984  -1.354  0.00  0.00     0.024 H 
ATOM     57  H   UNK d   0       3.184  -1.338  -1.604  0.00  0.00     0.024 H 
ENDBRANCH  45  54
ENDBRANCH   5  45
TORSDOF 13
ENDMDL
MODEL 4
REMARK VINA RESULT:      -5.4      1.703      3.334
REMARK  13 active torsions:
REMARK  status: ('A' for Active; 'I' for Inactive)
REMARK    1  A    between atoms: C_1  and  C_2 
REMARK    2  A    between atoms: C_6  and  C_28 
REMARK    3  A    between atoms: C_10  and  C_27 
REMARK    4  A    between atoms: C_15  and  C_16 
REMARK    5  A    between atoms: C_16  and  C_17 
REMARK       I    between atoms: C_17  and  N_19 
REMARK    6  A    between atoms: N_19  and  C_20 
REMARK    7  A    between atoms: C_20  and  C_22 
REMARK    8  A    between atoms: C_20  and  C_25 
REMARK    9  A    between atoms: C_22  and  S_23 
REMARK   10  A    between atoms: S_23  and  C_24 
REMARK   11  A    between atoms: C_28  and  C_29 
REMARK   12  A    between atoms: C_28  and  C_30 
REMARK   13  A    between atoms: C_28  and  C_31 
ROOT
ATOM      1  C   UNK d   0       9.656   3.362  -4.528  0.00  0.00    -0.029 A 
ATOM      2  C   UNK d   0       9.770   4.788  -4.854  0.00  0.00     0.022 A 
ATOM      3  C   UNK d   0       9.922   5.739  -3.845  0.00  0.00    -0.040 A 
ATOM      4  C   UNK d   0      10.021   7.080  -4.187  0.00  0.00     0.025 A 
ATOM      5  C   UNK d   0      10.184   8.323  -3.418  0.00  0.00     0.004 A 
ATOM      6  C   UNK d   0      10.216   9.315  -4.315  0.00  0.00     0.097 A 
ATOM      7  O   UNK d   0      10.088   8.823  -5.560  0.00  0.00    -0.462 OA
ATOM      8  C   UNK d   0       9.968   7.480  -5.538  0.00  0.00     0.141 A 
ATOM      9  C   UNK d   0       9.817   6.527  -6.534  0.00  0.00     0.035 A 
ATOM     10  C   UNK d   0       9.717   5.186  -6.205  0.00  0.00     0.146 A 
ATOM     11  O   UNK d   0       9.568   4.254  -7.173  0.00  0.00    -0.422 OA
ATOM     12  C   UNK d   0       9.468   2.949  -6.880  0.00  0.00     0.341 A 
ATOM     13  O   UNK d   0       9.336   2.147  -7.787  0.00  0.00    -0.245 OA
ATOM     14  C   UNK d   0       9.514   2.481  -5.550  0.00  0.00     0.049 A 
ATOM     15  H   UNK d   0       9.961   5.435  -2.809  0.00  0.00     0.063 H 
ATOM     16  H   UNK d   0      10.325  10.363  -4.072  0.00  0.00     0.103 H 
ENDROOT
BRANCH  14  17
ATOM     17  C   UNK d   0       9.397   1.005  -5.264  0.00  0.00     0.056 C 
ATOM     18  H   UNK d   0       9.970   0.762  -4.368  0.00  0.00     0.041 H 
ATOM     19  H   UNK d   0       9.787   0.440  -6.109  0.00  0.00     0.041 H 
BRANCH  17  20
ATOM     20  C   UNK d   0       7.949   0.649  -5.045  0.00  0.00     0.218 C 
ATOM     21  O   UNK d   0       7.115   0.973  -5.865  0.00  0.00    -0.275 OA
ATOM     22  N   UNK d   1       7.581  -0.030  -3.942  0.00  0.00    -0.306 N 
ATOM     23  H   UNK d   1       8.248  -0.289  -3.287  0.00  0.00     0.149 HD
BRANCH  22  24
ATOM     24  C   UNK d   1       6.173  -0.377  -3.730  0.00  0.00     0.071 C 
ATOM     25  H   UNK d   1       5.623  -0.246  -4.661  0.00  0.00     0.057 H 
BRANCH  24  26
ATOM     26  C   UNK d   1       6.070  -1.834  -3.275  0.00  0.00     0.017 C 
ATOM     27  H   UNK d   1       5.730  -1.868  -2.240  0.00  0.00     0.040 H 
ATOM     28  H   UNK d   1       7.048  -2.309  -3.352  0.00  0.00     0.040 H 
BRANCH  26  29
ATOM     29  S   UNK d   1       4.886  -2.715  -4.330  0.00  0.00    -0.162 SA
BRANCH  29  30
ATOM     30  C   UNK d   1       4.647  -1.605  -5.744  0.00  0.00    -0.018 C 
ATOM     31  H   UNK d   1       5.007  -0.608  -5.488  0.00  0.00     0.034 H 
ATOM     32  H   UNK d   1       5.204  -1.982  -6.602  0.00  0.00     0.034 H 
ATOM     33  H   UNK d   1       3.587  -1.555  -5.992  0.00  0.00     0.034 H 
ENDBRANCH  29  30
ENDBRANCH  26  29
ENDBRANCH  24  26
BRANCH  24  34
ATOM     34  C   UNK d   1       5.588   0.523  -2.671  0.00  0.00     0.063 C 
ATOM     35  O   UNK d   1       5.883   1.694  -2.643  0.00  0.00    -0.548 OA
ATOM     36  O   UNK d   1       4.740   0.022  -1.759  0.00  0.00    -0.548 OA
ENDBRANCH  24  34
ENDBRANCH  22  24
ENDBRANCH  17  20
ENDBRANCH  14  17
BRANCH   1  37
ATOM     37  C   UNK d   0       9.701   2.888  -3.098  0.00  0.00    -0.038 C 
ATOM     38  H   UNK d   0      10.583   2.267  -2.949  0.00  0.00     0.028 H 
ATOM     39  H   UNK d   0       9.746   3.750  -2.432  0.00  0.00     0.028 H 
ATOM     40  H   UNK d   0       8.806   2.307  -2.879  0.00  0.00     0.028 H 
ENDBRANCH   1  37
BRANCH   9  41
ATOM     41  C   UNK d   0       9.761   6.952  -7.979  0.00  0.00    -0.033 C 
ATOM     42  H   UNK d   0       9.256   6.184  -8.565  0.00  0.00     0.028 H 
ATOM     43  H   UNK d   0       9.211   7.890  -8.060  0.00  0.00     0.028 H 
ATOM     44  H   UNK d   0      10.774   7.091  -8.357  0.00  0.00     0.028 H 
ENDBRANCH   9  41
BRANCH   5  45
ATOM     45  C   UNK d   0      10.293   8.451  -1.920  0.00  0.00    -0.009 C 
BRANCH  45  46
ATOM     46  C   UNK d   0      10.308   9.932  -1.536  0.00  0.00    -0.056 C 
ATOM     47  H   UNK d   0      11.311  10.217  -1.220  0.00  0.00     0.024 H 
ATOM     48  H   UNK d   0      10.015  10.533  -2.397  0.00  0.00     0.024 H 
ATOM     49  H   UNK d   0       9.607  10.103  -0.719  0.00  0.00     0.024 H 
ENDBRANCH  45  46
BRANCH  45  50
ATOM     50  C   UNK d   0       9.096   7.765  -1.260  0.00  0.00    -0.056 C 
ATOM     51  H   UNK d   0       8.203   8.372  -1.408  0.00  0.00     0.024 H 
ATOM     52  H   UNK d   0       8.947   6.784  -1.710  0.00  0.00     0.024 H 
ATOM     53  H   UNK d   0       9.285   7.651  -0.193  0.00  0.00     0.024 H 
ENDBRANCH  45  50
BRANCH  45  54
ATOM     54  C   UNK d   0      11.588   7.788  -1.444  0.00  0.00    -0.056 C 
ATOM     55  H   UNK d   0      11.348   6.914  -0.837  0.00  0.00     0.024 H 
ATOM     56  H   UNK d   0      12.177   7.481  -2.308  0.00  0.00     0.024 H 
ATOM     57  H   UNK d   0      12.161   8.497  -0.847  0.00  0.00     0.024 H 
ENDBRANCH  45  54
ENDBRANCH   5  45
TORSDOF 13
ENDMDL
MODEL 5
REMARK VINA RESULT:      -5.3      9.400     12.755
REMARK  13 active torsions:
REMARK  status: ('A' for Active; 'I' for Inactive)
REMARK    1  A    between atoms: C_1  and  C_2 
REMARK    2  A    between atoms: C_6  and  C_28 
REMARK    3  A    between atoms: C_10  and  C_27 
REMARK    4  A    between atoms: C_15  and  C_16 
REMARK    5  A    between atoms: C_16  and  C_17 
REMARK       I    between atoms: C_17  and  N_19 
REMARK    6  A    between atoms: N_19  and  C_20 
REMARK    7  A    between atoms: C_20  and  C_22 
REMARK    8  A    between atoms: C_20  and  C_25 
REMARK    9  A    between atoms: C_22  and  S_23 
REMARK   10  A    between atoms: S_23  and  C_24 
REMARK   11  A    between atoms: C_28  and  C_29 
REMARK   12  A    between atoms: C_28  and  C_30 
REMARK   13  A    between atoms: C_28  and  C_31 
ROOT
ATOM      1  C   UNK d   0       0.869  -3.059 -11.664  0.00  0.00    -0.029 A 
ATOM      2  C   UNK d   0       1.872  -2.802 -10.625  0.00  0.00     0.022 A 
ATOM      3  C   UNK d   0       2.380  -1.518 -10.428  0.00  0.00    -0.040 A 
ATOM      4  C   UNK d   0       3.332  -1.309  -9.440  0.00  0.00     0.025 A 
ATOM      5  C   UNK d   0       4.069  -0.131  -8.962  0.00  0.00     0.004 A 
ATOM      6  C   UNK d   0       4.860  -0.561  -7.972  0.00  0.00     0.097 A 
ATOM      7  O   UNK d   0       4.694  -1.883  -7.784  0.00  0.00    -0.462 OA
ATOM      8  C   UNK d   0       3.784  -2.382  -8.644  0.00  0.00     0.141 A 
ATOM      9  C   UNK d   0       3.272  -3.655  -8.847  0.00  0.00     0.035 A 
ATOM     10  C   UNK d   0       2.322  -3.874  -9.829  0.00  0.00     0.146 A 
ATOM     11  O   UNK d   0       1.822  -5.115 -10.032  0.00  0.00    -0.422 OA
ATOM     12  C   UNK d   0       0.901  -5.353 -10.978  0.00  0.00     0.341 A 
ATOM     13  O   UNK d   0       0.480  -6.487 -11.121  0.00  0.00    -0.245 OA
ATOM     14  C   UNK d   0       0.406  -4.326 -11.809  0.00  0.00     0.049 A 
ATOM     15  H   UNK d   0       2.037  -0.695 -11.038  0.00  0.00     0.063 H 
ATOM     16  H   UNK d   0       5.536   0.063  -7.406  0.00  0.00     0.103 H 
ENDROOT
BRANCH  14  17
ATOM     17  C   UNK d   0      -0.628  -4.638 -12.861  0.00  0.00     0.056 C 
ATOM     18  H   UNK d   0      -0.428  -5.622 -13.287  0.00  0.00     0.041 H 
ATOM     19  H   UNK d   0      -0.583  -3.886 -13.648  0.00  0.00     0.041 H 
BRANCH  17  20
ATOM     20  C   UNK d   0      -1.999  -4.631 -12.235  0.00  0.00     0.218 C 
ATOM     21  O   UNK d   0      -2.713  -3.658 -12.352  0.00  0.00    -0.275 OA
ATOM     22  N   UNK d   1      -2.431  -5.706 -11.548  0.00  0.00    -0.306 N 
ATOM     23  H   UNK d   1      -1.860  -6.484 -11.455  0.00  0.00     0.149 HD
BRANCH  22  24
ATOM     24  C   UNK d   1      -3.764  -5.699 -10.940  0.00  0.00     0.071 C 
ATOM     25  H   UNK d   1      -4.389  -4.962 -11.442  0.00  0.00     0.057 H 
BRANCH  24  26
ATOM     26  C   UNK d   1      -4.396  -7.085 -11.082  0.00  0.00     0.017 C 
ATOM     27  H   UNK d   1      -5.192  -7.047 -11.826  0.00  0.00     0.040 H 
ATOM     28  H   UNK d   1      -4.811  -7.396 -10.123  0.00  0.00     0.040 H 
BRANCH  26  29
ATOM     29  S   UNK d   1      -3.133  -8.275 -11.610  0.00  0.00    -0.162 SA
BRANCH  29  30
ATOM     30  C   UNK d   1      -2.879  -9.322 -10.150  0.00  0.00    -0.018 C 
ATOM     31  H   UNK d   1      -2.842 -10.368 -10.456  0.00  0.00     0.034 H 
ATOM     32  H   UNK d   1      -1.940  -9.052  -9.667  0.00  0.00     0.034 H 
ATOM     33  H   UNK d   1      -3.703  -9.177  -9.452  0.00  0.00     0.034 H 
ENDBRANCH  29  30
ENDBRANCH  26  29
ENDBRANCH  24  26
BRANCH  24  34
ATOM     34  C   UNK d   1      -3.648  -5.347  -9.479  0.00  0.00     0.063 C 
ATOM     35  O   UNK d   1      -2.927  -5.994  -8.757  0.00  0.00    -0.548 OA
ATOM     36  O   UNK d   1      -4.346  -4.315  -8.979  0.00  0.00    -0.548 OA
ENDBRANCH  24  34
ENDBRANCH  22  24
ENDBRANCH  17  20
ENDBRANCH  14  17
BRANCH   1  37
ATOM     37  C   UNK d   0       0.361  -1.945 -12.544  0.00  0.00    -0.038 C 
ATOM     38  H   UNK d   0       0.030  -1.114 -11.922  0.00  0.00     0.028 H 
ATOM     39  H   UNK d   0       1.163  -1.610 -13.203  0.00  0.00     0.028 H 
ATOM     40  H   UNK d   0      -0.474  -2.306 -13.143  0.00  0.00     0.028 H 
ENDBRANCH   1  37
BRANCH   9  41
ATOM     41  C   UNK d   0       3.752  -4.803  -7.996  0.00  0.00    -0.033 C 
ATOM     42  H   UNK d   0       4.623  -4.490  -7.420  0.00  0.00     0.028 H 
ATOM     43  H   UNK d   0       2.957  -5.107  -7.315  0.00  0.00     0.028 H 
ATOM     44  H   UNK d   0       4.022  -5.643  -8.637  0.00  0.00     0.028 H 
ENDBRANCH   9  41
BRANCH   5  45
ATOM     45  C   UNK d   0       3.956   1.279  -9.484  0.00  0.00    -0.009 C 
BRANCH  45  46
ATOM     46  C   UNK d   0       5.189   2.079  -9.056  0.00  0.00    -0.056 C 
ATOM     47  H   UNK d   0       5.934   1.404  -8.637  0.00  0.00     0.024 H 
ATOM     48  H   UNK d   0       5.608   2.589  -9.924  0.00  0.00     0.024 H 
ATOM     49  H   UNK d   0       4.901   2.817  -8.306  0.00  0.00     0.024 H 
ENDBRANCH  45  46
BRANCH  45  50
ATOM     50  C   UNK d   0       3.869   1.253 -11.010  0.00  0.00    -0.056 C 
ATOM     51  H   UNK d   0       4.170   2.222 -11.408  0.00  0.00     0.024 H 
ATOM     52  H   UNK d   0       4.532   0.480 -11.398  0.00  0.00     0.024 H 
ATOM     53  H   UNK d   0       2.845   1.039 -11.312  0.00  0.00     0.024 H 
ENDBRANCH  45  50
BRANCH  45  54
ATOM     54  C   UNK d   0       2.698   1.935  -8.911  0.00  0.00    -0.056 C 
ATOM     55  H   UNK d   0       2.950   2.919  -8.514  0.00  0.00     0.024 H 
ATOM     56  H   UNK d   0       1.953   2.041  -9.699  0.00  0.00     0.024 H 
ATOM     57  H   UNK d   0       2.297   1.314  -8.111  0.00  0.00     0.024 H 
ENDBRANCH  45  54
ENDBRANCH   5  45
TORSDOF 13
ENDMDL
MODEL 6
REMARK VINA RESULT:      -5.1      7.034      9.659
REMARK  13 active torsions:
REMARK  status: ('A' for Active; 'I' for Inactive)
REMARK    1  A    between atoms: C_1  and  C_2 
REMARK    2  A    between atoms: C_6  and  C_28 
REMARK    3  A    between atoms: C_10  and  C_27 
REMARK    4  A    between atoms: C_15  and  C_16 
REMARK    5  A    between atoms: C_16  and  C_17 
REMARK       I    between atoms: C_17  and  N_19 
REMARK    6  A    between atoms: N_19  and  C_20 
REMARK    7  A    between atoms: C_20  and  C_22 
REMARK    8  A    between atoms: C_20  and  C_25 
REMARK    9  A    between atoms: C_22  and  S_23 
REMARK   10  A    between atoms: S_23  and  C_24 
REMARK   11  A    between atoms: C_28  and  C_29 
REMARK   12  A    between atoms: C_28  and  C_30 
REMARK   13  A    between atoms: C_28  and  C_31 
ROOT
ATOM      1  C   UNK d   0       3.801  -0.212  -8.606  0.00  0.00    -0.029 A 
ATOM      2  C   UNK d   0       4.808  -0.382  -7.553  0.00  0.00     0.022 A 
ATOM      3  C   UNK d   0       4.432  -0.442  -6.212  0.00  0.00    -0.040 A 
ATOM      4  C   UNK d   0       5.410  -0.598  -5.239  0.00  0.00     0.025 A 
ATOM      5  C   UNK d   0       5.389  -0.699  -3.772  0.00  0.00     0.004 A 
ATOM      6  C   UNK d   0       6.663  -0.840  -3.389  0.00  0.00     0.097 A 
ATOM      7  O   UNK d   0       7.476  -0.836  -4.461  0.00  0.00    -0.462 OA
ATOM      8  C   UNK d   0       6.770  -0.694  -5.601  0.00  0.00     0.141 A 
ATOM      9  C   UNK d   0       7.134  -0.633  -6.938  0.00  0.00     0.035 A 
ATOM     10  C   UNK d   0       6.166  -0.478  -7.916  0.00  0.00     0.146 A 
ATOM     11  O   UNK d   0       6.518  -0.416  -9.220  0.00  0.00    -0.422 OA
ATOM     12  C   UNK d   0       5.599  -0.266 -10.187  0.00  0.00     0.341 A 
ATOM     13  O   UNK d   0       5.964  -0.217 -11.348  0.00  0.00    -0.245 OA
ATOM     14  C   UNK d   0       4.223  -0.163  -9.895  0.00  0.00     0.049 A 
ATOM     15  H   UNK d   0       3.392  -0.367  -5.931  0.00  0.00     0.063 H 
ATOM     16  H   UNK d   0       6.992  -0.940  -2.365  0.00  0.00     0.103 H 
ENDROOT
BRANCH  14  17
ATOM     17  C   UNK d   0       3.224   0.006 -11.011  0.00  0.00     0.056 C 
ATOM     18  H   UNK d   0       3.605   0.731 -11.732  0.00  0.00     0.041 H 
ATOM     19  H   UNK d   0       2.280   0.364 -10.602  0.00  0.00     0.041 H 
BRANCH  17  20
ATOM     20  C   UNK d   0       3.006  -1.318 -11.696  0.00  0.00     0.218 C 
ATOM     21  O   UNK d   0       2.972  -1.375 -12.907  0.00  0.00    -0.275 OA
ATOM     22  N   UNK d   1       2.852  -2.438 -10.964  0.00  0.00    -0.306 N 
ATOM     23  H   UNK d   1       2.880  -2.392  -9.995  0.00  0.00     0.149 HD
BRANCH  22  24
ATOM     24  C   UNK d   1       2.641  -3.726 -11.631  0.00  0.00     0.071 C 
ATOM     25  H   UNK d   1       2.912  -3.639 -12.682  0.00  0.00     0.057 H 
BRANCH  24  26
ATOM     26  C   UNK d   1       3.512  -4.793 -10.965  0.00  0.00     0.017 C 
ATOM     27  H   UNK d   1       4.188  -5.223 -11.705  0.00  0.00     0.040 H 
ATOM     28  H   UNK d   1       2.876  -5.578 -10.555  0.00  0.00     0.040 H 
BRANCH  26  29
ATOM     29  S   UNK d   1       4.479  -4.038  -9.629  0.00  0.00    -0.162 SA
BRANCH  29  30
ATOM     30  C   UNK d   1       3.672  -4.629  -8.116  0.00  0.00    -0.018 C 
ATOM     31  H   UNK d   1       4.325  -4.447  -7.261  0.00  0.00     0.034 H 
ATOM     32  H   UNK d   1       2.731  -4.096  -7.973  0.00  0.00     0.034 H 
ATOM     33  H   UNK d   1       3.476  -5.697  -8.201  0.00  0.00     0.034 H 
ENDBRANCH  29  30
ENDBRANCH  26  29
ENDBRANCH  24  26
BRANCH  24  34
ATOM     34  C   UNK d   1       1.190  -4.119 -11.517  0.00  0.00     0.063 C 
ATOM     35  O   UNK d   1       0.675  -4.219 -10.429  0.00  0.00    -0.548 OA
ATOM     36  O   UNK d   1       0.470  -4.358 -12.624  0.00  0.00    -0.548 OA
ENDBRANCH  24  34
ENDBRANCH  22  24
ENDBRANCH  17  20
ENDBRANCH  14  17
BRANCH   1  37
ATOM     37  C   UNK d   0       2.337  -0.098  -8.266  0.00  0.00    -0.038 C 
ATOM     38  H   UNK d   0       2.220   0.480  -7.351  0.00  0.00     0.028 H 
ATOM     39  H   UNK d   0       1.813   0.401  -9.082  0.00  0.00     0.028 H 
ATOM     40  H   UNK d   0       1.918  -1.094  -8.123  0.00  0.00     0.028 H 
ENDBRANCH   1  37
BRANCH   9  41
ATOM     41  C   UNK d   0       8.586  -0.736  -7.327  0.00  0.00    -0.033 C 
ATOM     42  H   UNK d   0       9.007  -1.658  -6.925  0.00  0.00     0.028 H 
ATOM     43  H   UNK d   0       8.671  -0.743  -8.414  0.00  0.00     0.028 H 
ATOM     44  H   UNK d   0       9.132   0.118  -6.926  0.00  0.00     0.028 H 
ENDBRANCH   9  41
BRANCH   5  45
ATOM     45  C   UNK d   0       4.174  -0.652  -2.881  0.00  0.00    -0.009 C 
BRANCH  45  46
ATOM     46  C   UNK d   0       4.453   0.267  -1.689  0.00  0.00    -0.056 C 
ATOM     47  H   UNK d   0       5.519   0.259  -1.465  0.00  0.00     0.024 H 
ATOM     48  H   UNK d   0       4.141   1.282  -1.934  0.00  0.00     0.024 H 
ATOM     49  H   UNK d   0       3.895  -0.084  -0.821  0.00  0.00     0.024 H 
ENDBRANCH  45  46
BRANCH  45  50
ATOM     50  C   UNK d   0       2.981  -0.114  -3.672  0.00  0.00    -0.056 C 
ATOM     51  H   UNK d   0       3.133   0.944  -3.884  0.00  0.00     0.024 H 
ATOM     52  H   UNK d   0       2.890  -0.662  -4.609  0.00  0.00     0.024 H 
ATOM     53  H   UNK d   0       2.070  -0.240  -3.087  0.00  0.00     0.024 H 
ENDBRANCH  45  50
BRANCH  45  54
ATOM     54  C   UNK d   0       3.858  -2.061  -2.375  0.00  0.00    -0.056 C 
ATOM     55  H   UNK d   0       3.893  -2.763  -3.209  0.00  0.00     0.024 H 
ATOM     56  H   UNK d   0       4.592  -2.351  -1.624  0.00  0.00     0.024 H 
ATOM     57  H   UNK d   0       2.862  -2.074  -1.933  0.00  0.00     0.024 H 
ENDBRANCH  45  54
ENDBRANCH   5  45
TORSDOF 13
ENDMDL
MODEL 7
REMARK VINA RESULT:      -5.1      6.254     12.809
REMARK  13 active torsions:
REMARK  status: ('A' for Active; 'I' for Inactive)
REMARK    1  A    between atoms: C_1  and  C_2 
REMARK    2  A    between atoms: C_6  and  C_28 
REMARK    3  A    between atoms: C_10  and  C_27 
REMARK    4  A    between atoms: C_15  and  C_16 
REMARK    5  A    between atoms: C_16  and  C_17 
REMARK       I    between atoms: C_17  and  N_19 
REMARK    6  A    between atoms: N_19  and  C_20 
REMARK    7  A    between atoms: C_20  and  C_22 
REMARK    8  A    between atoms: C_20  and  C_25 
REMARK    9  A    between atoms: C_22  and  S_23 
REMARK   10  A    between atoms: S_23  and  C_24 
REMARK   11  A    between atoms: C_28  and  C_29 
REMARK   12  A    between atoms: C_28  and  C_30 
REMARK   13  A    between atoms: C_28  and  C_31 
ROOT
ATOM      1  C   UNK d   0       6.536  -5.176  -5.382  0.00  0.00    -0.029 A 
ATOM      2  C   UNK d   0       6.728  -6.602  -5.098  0.00  0.00     0.022 A 
ATOM      3  C   UNK d   0       7.953  -7.077  -4.630  0.00  0.00    -0.040 A 
ATOM      4  C   UNK d   0       8.103  -8.433  -4.376  0.00  0.00     0.025 A 
ATOM      5  C   UNK d   0       9.212  -9.267  -3.891  0.00  0.00     0.004 A 
ATOM      6  C   UNK d   0       8.747 -10.521  -3.852  0.00  0.00     0.097 A 
ATOM      7  O   UNK d   0       7.467 -10.557  -4.264  0.00  0.00    -0.462 OA
ATOM      8  C   UNK d   0       7.030  -9.324  -4.590  0.00  0.00     0.141 A 
ATOM      9  C   UNK d   0       5.816  -8.842  -5.056  0.00  0.00     0.035 A 
ATOM     10  C   UNK d   0       5.655  -7.491  -5.312  0.00  0.00     0.146 A 
ATOM     11  O   UNK d   0       4.473  -7.018  -5.768  0.00  0.00    -0.422 OA
ATOM     12  C   UNK d   0       4.293  -5.714  -6.024  0.00  0.00     0.341 A 
ATOM     13  O   UNK d   0       3.210  -5.335  -6.432  0.00  0.00    -0.245 OA
ATOM     14  C   UNK d   0       5.323  -4.769  -5.832  0.00  0.00     0.049 A 
ATOM     15  H   UNK d   0       8.776  -6.397  -4.467  0.00  0.00     0.063 H 
ATOM     16  H   UNK d   0       9.319 -11.382  -3.538  0.00  0.00     0.103 H 
ENDROOT
BRANCH  14  17
ATOM     17  C   UNK d   0       5.078  -3.312  -6.133  0.00  0.00     0.056 C 
ATOM     18  H   UNK d   0       4.260  -3.222  -6.849  0.00  0.00     0.041 H 
ATOM     19  H   UNK d   0       5.980  -2.873  -6.557  0.00  0.00     0.041 H 
BRANCH  17  20
ATOM     20  C   UNK d   0       4.715  -2.590  -4.861  0.00  0.00     0.218 C 
ATOM     21  O   UNK d   0       4.293  -3.214  -3.910  0.00  0.00    -0.275 OA
ATOM     22  N   UNK d   1       4.861  -1.254  -4.780  0.00  0.00    -0.306 N 
ATOM     23  H   UNK d   1       5.199  -0.755  -5.541  0.00  0.00     0.149 HD
BRANCH  22  24
ATOM     24  C   UNK d   1       4.508  -0.552  -3.543  0.00  0.00     0.071 C 
ATOM     25  H   UNK d   1       4.096  -1.262  -2.827  0.00  0.00     0.057 H 
BRANCH  24  26
ATOM     26  C   UNK d   1       5.760   0.100  -2.953  0.00  0.00     0.017 C 
ATOM     27  H   UNK d   1       6.144  -0.519  -2.142  0.00  0.00     0.040 H 
ATOM     28  H   UNK d   1       5.507   1.088  -2.566  0.00  0.00     0.040 H 
BRANCH  26  29
ATOM     29  S   UNK d   1       7.025   0.261  -4.243  0.00  0.00    -0.162 SA
BRANCH  29  30
ATOM     30  C   UNK d   1       7.900   1.790  -3.812  0.00  0.00    -0.018 C 
ATOM     31  H   UNK d   1       7.766   1.998  -2.750  0.00  0.00     0.034 H 
ATOM     32  H   UNK d   1       8.962   1.675  -4.028  0.00  0.00     0.034 H 
ATOM     33  H   UNK d   1       7.497   2.616  -4.397  0.00  0.00     0.034 H 
ENDBRANCH  29  30
ENDBRANCH  26  29
ENDBRANCH  24  26
BRANCH  24  34
ATOM     34  C   UNK d   1       3.482   0.510  -3.843  0.00  0.00     0.063 C 
ATOM     35  O   UNK d   1       3.641   1.637  -3.437  0.00  0.00    -0.548 OA
ATOM     36  O   UNK d   1       2.390   0.205  -4.562  0.00  0.00    -0.548 OA
ENDBRANCH  24  34
ENDBRANCH  22  24
ENDBRANCH  17  20
ENDBRANCH  14  17
BRANCH   1  37
ATOM     37  C   UNK d   0       7.656  -4.188  -5.174  0.00  0.00    -0.038 C 
ATOM     38  H   UNK d   0       8.611  -4.709  -5.213  0.00  0.00     0.028 H 
ATOM     39  H   UNK d   0       7.622  -3.432  -5.959  0.00  0.00     0.028 H 
ATOM     40  H   UNK d   0       7.542  -3.708  -4.203  0.00  0.00     0.028 H 
ENDBRANCH   1  37
BRANCH   9  41
ATOM     41  C   UNK d   0       4.668  -9.792  -5.285  0.00  0.00    -0.033 C 
ATOM     42  H   UNK d   0       5.029 -10.819  -5.228  0.00  0.00     0.028 H 
ATOM     43  H   UNK d   0       3.907  -9.632  -4.521  0.00  0.00     0.028 H 
ATOM     44  H   UNK d   0       4.237  -9.612  -6.270  0.00  0.00     0.028 H 
ENDBRANCH   9  41
BRANCH   5  45
ATOM     45  C   UNK d   0      10.595  -8.801  -3.514  0.00  0.00    -0.009 C 
BRANCH  45  46
ATOM     46  C   UNK d   0      11.423  -9.998  -3.040  0.00  0.00    -0.056 C 
ATOM     47  H   UNK d   0      11.837 -10.519  -3.903  0.00  0.00     0.024 H 
ATOM     48  H   UNK d   0      12.235  -9.647  -2.403  0.00  0.00     0.024 H 
ATOM     49  H   UNK d   0      10.787 -10.679  -2.474  0.00  0.00     0.024 H 
ENDBRANCH  45  46
BRANCH  45  50
ATOM     50  C   UNK d   0      11.269  -8.165  -4.730  0.00  0.00    -0.056 C 
ATOM     51  H   UNK d   0      12.019  -7.448  -4.396  0.00  0.00     0.024 H 
ATOM     52  H   UNK d   0      11.749  -8.940  -5.327  0.00  0.00     0.024 H 
ATOM     53  H   UNK d   0      10.521  -7.653  -5.334  0.00  0.00     0.024 H 
ENDBRANCH  45  50
BRANCH  45  54
ATOM     54  C   UNK d   0      10.496  -7.771  -2.387  0.00  0.00    -0.056 C 
ATOM     55  H   UNK d   0      10.096  -6.837  -2.781  0.00  0.00     0.024 H 
ATOM     56  H   UNK d   0       9.836  -8.149  -1.606  0.00  0.00     0.024 H 
ATOM     57  H   UNK d   0      11.488  -7.593  -1.970  0.00  0.00     0.024 H 
ENDBRANCH  45  54
ENDBRANCH   5  45
TORSDOF 13
ENDMDL
MODEL 8
REMARK VINA RESULT:      -5.1      1.956      2.693
REMARK  13 active torsions:
REMARK  status: ('A' for Active; 'I' for Inactive)
REMARK    1  A    between atoms: C_1  and  C_2 
REMARK    2  A    between atoms: C_6  and  C_28 
REMARK    3  A    between atoms: C_10  and  C_27 
REMARK    4  A    between atoms: C_15  and  C_16 
REMARK    5  A    between atoms: C_16  and  C_17 
REMARK       I    between atoms: C_17  and  N_19 
REMARK    6  A    between atoms: N_19  and  C_20 
REMARK    7  A    between atoms: C_20  and  C_22 
REMARK    8  A    between atoms: C_20  and  C_25 
REMARK    9  A    between atoms: C_22  and  S_23 
REMARK   10  A    between atoms: S_23  and  C_24 
REMARK   11  A    between atoms: C_28  and  C_29 
REMARK   12  A    between atoms: C_28  and  C_30 
REMARK   13  A    between atoms: C_28  and  C_31 
ROOT
ATOM      1  C   UNK d   0       9.608   3.056  -6.506  0.00  0.00    -0.029 A 
ATOM      2  C   UNK d   0       9.675   4.511  -6.676  0.00  0.00     0.022 A 
ATOM      3  C   UNK d   0       9.834   5.074  -7.941  0.00  0.00    -0.040 A 
ATOM      4  C   UNK d   0       9.900   6.455  -8.066  0.00  0.00     0.025 A 
ATOM      5  C   UNK d   0      10.059   7.373  -9.203  0.00  0.00     0.004 A 
ATOM      6  C   UNK d   0      10.049   8.609  -8.689  0.00  0.00     0.097 A 
ATOM      7  O   UNK d   0       9.902   8.557  -7.353  0.00  0.00    -0.462 OA
ATOM      8  C   UNK d   0       9.807   7.282  -6.927  0.00  0.00     0.141 A 
ATOM      9  C   UNK d   0       9.648   6.712  -5.672  0.00  0.00     0.035 A 
ATOM     10  C   UNK d   0       9.582   5.336  -5.537  0.00  0.00     0.146 A 
ATOM     11  O   UNK d   0       9.429   4.777  -4.315  0.00  0.00    -0.422 OA
ATOM     12  C   UNK d   0       9.362   3.446  -4.157  0.00  0.00     0.341 A 
ATOM     13  O   UNK d   0       9.223   2.990  -3.036  0.00  0.00    -0.245 OA
ATOM     14  C   UNK d   0       9.448   2.562  -5.252  0.00  0.00     0.049 A 
ATOM     15  H   UNK d   0       9.907   4.444  -8.815  0.00  0.00     0.063 H 
ATOM     16  H   UNK d   0      10.147   9.518  -9.265  0.00  0.00     0.103 H 
ENDROOT
BRANCH  14  17
ATOM     17  C   UNK d   0       9.370   1.073  -5.030  0.00  0.00     0.056 C 
ATOM     18  H   UNK d   0       9.913   0.813  -4.121  0.00  0.00     0.041 H 
ATOM     19  H   UNK d   0       9.814   0.556  -5.879  0.00  0.00     0.041 H 
BRANCH  17  20
ATOM     20  C   UNK d   0       7.927   0.662  -4.889  0.00  0.00     0.218 C 
ATOM     21  O   UNK d   0       7.115   1.004  -5.722  0.00  0.00    -0.275 OA
ATOM     22  N   UNK d   1       7.540  -0.087  -3.838  0.00  0.00    -0.306 N 
ATOM     23  H   UNK d   1       8.190  -0.362  -3.172  0.00  0.00     0.149 HD
BRANCH  22  24
ATOM     24  C   UNK d   1       6.137  -0.488  -3.700  0.00  0.00     0.071 C 
ATOM     25  H   UNK d   1       5.618  -0.321  -4.644  0.00  0.00     0.057 H 
BRANCH  24  26
ATOM     26  C   UNK d   1       6.065  -1.971  -3.333  0.00  0.00     0.017 C 
ATOM     27  H   UNK d   1       5.088  -2.367  -3.611  0.00  0.00     0.040 H 
ATOM     28  H   UNK d   1       6.210  -2.088  -2.259  0.00  0.00     0.040 H 
BRANCH  26  29
ATOM     29  S   UNK d   1       7.361  -2.879  -4.220  0.00  0.00    -0.162 SA
BRANCH  29  30
ATOM     30  C   UNK d   1       6.443  -3.999  -5.313  0.00  0.00    -0.018 C 
ATOM     31  H   UNK d   1       6.951  -4.063  -6.276  0.00  0.00     0.034 H 
ATOM     32  H   UNK d   1       6.395  -4.990  -4.861  0.00  0.00     0.034 H 
ATOM     33  H   UNK d   1       5.433  -3.616  -5.460  0.00  0.00     0.034 H 
ENDBRANCH  29  30
ENDBRANCH  26  29
ENDBRANCH  24  26
BRANCH  24  34
ATOM     34  C   UNK d   1       5.485   0.331  -2.617  0.00  0.00     0.063 C 
ATOM     35  O   UNK d   1       4.745  -0.198  -1.822  0.00  0.00    -0.548 OA
ATOM     36  O   UNK d   1       5.726   1.649  -2.534  0.00  0.00    -0.548 OA
ENDBRANCH  24  34
ENDBRANCH  22  24
ENDBRANCH  17  20
ENDBRANCH  14  17
BRANCH   1  37
ATOM     37  C   UNK d   0       9.709   2.132  -7.694  0.00  0.00    -0.038 C 
ATOM     38  H   UNK d   0      10.117   2.677  -8.544  0.00  0.00     0.028 H 
ATOM     39  H   UNK d   0      10.365   1.296  -7.448  0.00  0.00     0.028 H 
ATOM     40  H   UNK d   0       8.719   1.754  -7.946  0.00  0.00     0.028 H 
ENDBRANCH   1  37
BRANCH   9  41
ATOM     41  C   UNK d   0       9.549   7.593  -4.454  0.00  0.00    -0.033 C 
ATOM     42  H   UNK d   0      10.464   8.177  -4.351  0.00  0.00     0.028 H 
ATOM     43  H   UNK d   0       8.699   8.268  -4.562  0.00  0.00     0.028 H 
ATOM     44  H   UNK d   0       9.410   6.975  -3.567  0.00  0.00     0.028 H 
ENDBRANCH   9  41
BRANCH   5  45
ATOM     45  C   UNK d   0      10.204   6.997 -10.656  0.00  0.00    -0.009 C 
BRANCH  45  46
ATOM     46  C   UNK d   0       9.010   6.139 -11.080  0.00  0.00    -0.056 C 
ATOM     47  H   UNK d   0       8.976   6.074 -12.167  0.00  0.00     0.024 H 
ATOM     48  H   UNK d   0       9.116   5.138 -10.661  0.00  0.00     0.024 H 
ATOM     49  H   UNK d   0       8.089   6.591 -10.713  0.00  0.00     0.024 H 
ENDBRANCH  45  46
BRANCH  45  50
ATOM     50  C   UNK d   0      10.249   8.265 -11.509  0.00  0.00    -0.056 C 
ATOM     51  H   UNK d   0      10.717   9.069 -10.941  0.00  0.00     0.024 H 
ATOM     52  H   UNK d   0      10.828   8.074 -12.412  0.00  0.00     0.024 H 
ATOM     53  H   UNK d   0       9.236   8.557 -11.782  0.00  0.00     0.024 H 
ENDBRANCH  45  50
BRANCH  45  54
ATOM     54  C   UNK d   0      11.497   6.204 -10.850  0.00  0.00    -0.056 C 
ATOM     55  H   UNK d   0      12.347   6.887 -10.851  0.00  0.00     0.024 H 
ATOM     56  H   UNK d   0      11.609   5.485 -10.038  0.00  0.00     0.024 H 
ATOM     57  H   UNK d   0      11.459   5.673 -11.802  0.00  0.00     0.024 H 
ENDBRANCH  45  54
ENDBRANCH   5  45
TORSDOF 13
ENDMDL
MODEL 9
REMARK VINA RESULT:      -5.0      8.040     10.927
REMARK  13 active torsions:
REMARK  status: ('A' for Active; 'I' for Inactive)
REMARK    1  A    between atoms: C_1  and  C_2 
REMARK    2  A    between atoms: C_6  and  C_28 
REMARK    3  A    between atoms: C_10  and  C_27 
REMARK    4  A    between atoms: C_15  and  C_16 
REMARK    5  A    between atoms: C_16  and  C_17 
REMARK       I    between atoms: C_17  and  N_19 
REMARK    6  A    between atoms: N_19  and  C_20 
REMARK    7  A    between atoms: C_20  and  C_22 
REMARK    8  A    between atoms: C_20  and  C_25 
REMARK    9  A    between atoms: C_22  and  S_23 
REMARK   10  A    between atoms: S_23  and  C_24 
REMARK   11  A    between atoms: C_28  and  C_29 
REMARK   12  A    between atoms: C_28  and  C_30 
REMARK   13  A    between atoms: C_28  and  C_31 
ROOT
ATOM      1  C   UNK d   0       5.195  -3.532  -7.817  0.00  0.00    -0.029 A 
ATOM      2  C   UNK d   0       4.574  -2.328  -7.254  0.00  0.00     0.022 A 
ATOM      3  C   UNK d   0       4.676  -2.044  -5.893  0.00  0.00    -0.040 A 
ATOM      4  C   UNK d   0       4.072  -0.900  -5.391  0.00  0.00     0.025 A 
ATOM      5  C   UNK d   0       3.972  -0.297  -4.054  0.00  0.00     0.004 A 
ATOM      6  C   UNK d   0       3.253   0.821  -4.201  0.00  0.00     0.097 A 
ATOM      7  O   UNK d   0       2.892   0.979  -5.488  0.00  0.00    -0.462 OA
ATOM      8  C   UNK d   0       3.362  -0.032  -6.247  0.00  0.00     0.141 A 
ATOM      9  C   UNK d   0       3.267  -0.323  -7.600  0.00  0.00     0.035 A 
ATOM     10  C   UNK d   0       3.865  -1.462  -8.110  0.00  0.00     0.146 A 
ATOM     11  O   UNK d   0       3.773  -1.749  -9.428  0.00  0.00    -0.422 OA
ATOM     12  C   UNK d   0       4.343  -2.847  -9.947  0.00  0.00     0.341 A 
ATOM     13  O   UNK d   0       4.233  -3.063 -11.141  0.00  0.00    -0.245 OA
ATOM     14  C   UNK d   0       5.067  -3.757  -9.149  0.00  0.00     0.049 A 
ATOM     15  H   UNK d   0       5.217  -2.708  -5.235  0.00  0.00     0.063 H 
ATOM     16  H   UNK d   0       2.996   1.500  -3.400  0.00  0.00     0.103 H 
ENDROOT
BRANCH  14  17
ATOM     17  C   UNK d   0       5.692  -4.979  -9.772  0.00  0.00     0.056 C 
ATOM     18  H   UNK d   0       6.467  -5.369  -9.110  0.00  0.00     0.041 H 
ATOM     19  H   UNK d   0       6.134  -4.712 -10.731  0.00  0.00     0.041 H 
BRANCH  17  20
ATOM     20  C   UNK d   0       4.634  -6.032  -9.982  0.00  0.00     0.218 C 
ATOM     21  O   UNK d   0       4.345  -6.788  -9.078  0.00  0.00    -0.275 OA
ATOM     22  N   UNK d   1       4.010  -6.133 -11.171  0.00  0.00    -0.306 N 
ATOM     23  H   UNK d   1       4.241  -5.528 -11.893  0.00  0.00     0.149 HD
BRANCH  22  24
ATOM     24  C   UNK d   1       2.982  -7.157 -11.374  0.00  0.00     0.071 C 
ATOM     25  H   UNK d   1       2.822  -7.701 -10.444  0.00  0.00     0.057 H 
BRANCH  24  26
ATOM     26  C   UNK d   1       1.675  -6.488 -11.805  0.00  0.00     0.017 C 
ATOM     27  H   UNK d   1       1.114  -7.167 -12.447  0.00  0.00     0.040 H 
ATOM     28  H   UNK d   1       1.898  -5.572 -12.353  0.00  0.00     0.040 H 
BRANCH  26  29
ATOM     29  S   UNK d   1       0.687  -6.088 -10.337  0.00  0.00    -0.162 SA
BRANCH  29  30
ATOM     30  C   UNK d   1      -0.118  -4.519 -10.763  0.00  0.00    -0.018 C 
ATOM     31  H   UNK d   1       0.208  -3.744 -10.069  0.00  0.00     0.034 H 
ATOM     32  H   UNK d   1       0.155  -4.234 -11.779  0.00  0.00     0.034 H 
ATOM     33  H   UNK d   1      -1.199  -4.636 -10.696  0.00  0.00     0.034 H 
ENDBRANCH  29  30
ENDBRANCH  26  29
ENDBRANCH  24  26
BRANCH  24  34
ATOM     34  C   UNK d   1       3.433  -8.116 -12.446  0.00  0.00     0.063 C 
ATOM     35  O   UNK d   1       4.442  -8.761 -12.293  0.00  0.00    -0.548 OA
ATOM     36  O   UNK d   1       2.713  -8.252 -13.570  0.00  0.00    -0.548 OA
ENDBRANCH  24  34
ENDBRANCH  22  24
ENDBRANCH  17  20
ENDBRANCH  14  17
BRANCH   1  37
ATOM     37  C   UNK d   0       5.958  -4.492  -6.940  0.00  0.00    -0.038 C 
ATOM     38  H   UNK d   0       6.055  -5.450  -7.449  0.00  0.00     0.028 H 
ATOM     39  H   UNK d   0       6.950  -4.087  -6.736  0.00  0.00     0.028 H 
ATOM     40  H   UNK d   0       5.423  -4.632  -6.001  0.00  0.00     0.028 H 
ENDBRANCH   1  37
BRANCH   9  41
ATOM     41  C   UNK d   0       2.509   0.603  -8.516  0.00  0.00    -0.033 C 
ATOM     42  H   UNK d   0       2.733   0.352  -9.554  0.00  0.00     0.028 H 
ATOM     43  H   UNK d   0       1.439   0.493  -8.339  0.00  0.00     0.028 H 
ATOM     44  H   UNK d   0       2.806   1.633  -8.319  0.00  0.00     0.028 H 
ENDBRANCH   9  41
BRANCH   5  45
ATOM     45  C   UNK d   0       4.563  -0.833  -2.774  0.00  0.00    -0.009 C 
BRANCH  45  46
ATOM     46  C   UNK d   0       6.034  -1.187  -3.002  0.00  0.00    -0.056 C 
ATOM     47  H   UNK d   0       6.666  -0.476  -2.471  0.00  0.00     0.024 H 
ATOM     48  H   UNK d   0       6.226  -2.193  -2.630  0.00  0.00     0.024 H 
ATOM     49  H   UNK d   0       6.257  -1.146  -4.069  0.00  0.00     0.024 H 
ENDBRANCH  45  46
BRANCH  45  50
ATOM     50  C   UNK d   0       4.457   0.229  -1.680  0.00  0.00    -0.056 C 
ATOM     51  H   UNK d   0       5.421   0.723  -1.558  0.00  0.00     0.024 H 
ATOM     52  H   UNK d   0       3.705   0.966  -1.960  0.00  0.00     0.024 H 
ATOM     53  H   UNK d   0       4.170  -0.243  -0.741  0.00  0.00     0.024 H 
ENDBRANCH  45  50
BRANCH  45  54
ATOM     54  C   UNK d   0       3.797  -2.087  -2.345  0.00  0.00    -0.056 C 
ATOM     55  H   UNK d   0       4.501  -2.899  -2.164  0.00  0.00     0.024 H 
ATOM     56  H   UNK d   0       3.240  -1.878  -1.433  0.00  0.00     0.024 H 
ATOM     57  H   UNK d   0       3.105  -2.378  -3.135  0.00  0.00     0.024 H 
ENDBRANCH  45  54
ENDBRANCH   5  45
TORSDOF 13
ENDMDL
