MODEL 1
REMARK VINA RESULT:      -4.9      0.000      0.000
REMARK  7 active torsions:
REMARK  status: ('A' for Active; 'I' for Inactive)
REMARK    1  A    between atoms: C3_3  and  O5_17 
REMARK    2  A    between atoms: C4_4  and  O4_16 
REMARK    3  A    between atoms: C6_6  and  C7_7 
REMARK    4  A    between atoms: C7_7  and  C8_9 
REMARK    5  A    between atoms: C7_7  and  O3_15 
REMARK    6  A    between atoms: C8_9  and  C9_11 
REMARK    7  A    between atoms: C8_9  and  N1_14 
ROOT
ATOM      1  C1  <1> d           4.017  -2.063  -2.991  0.00  0.00    -0.052 A 
ATOM      2  C2  <1> d           3.557  -0.943  -2.321  0.00  0.00    -0.016 A 
ATOM      3  C3  <1> d           4.277   0.239  -2.372  0.00  0.00     0.158 A 
ATOM      4  C4  <1> d           5.462   0.298  -3.099  0.00  0.00     0.159 A 
ATOM      5  C5  <1> d           5.918  -0.827  -3.767  0.00  0.00    -0.011 A 
ATOM      6  C6  <1> d           5.194  -2.004  -3.713  0.00  0.00    -0.010 A 
ATOM      7  H3  <1> d           3.457  -2.985  -2.947  0.00  0.00     0.062 H 
ATOM      8  H4  <1> d           2.637  -0.992  -1.758  0.00  0.00     0.066 H 
ATOM      9  H5  <1> d           6.837  -0.783  -4.332  0.00  0.00     0.066 H 
ENDROOT
BRANCH   6  10
ATOM     10  C7  <1> d           5.692  -3.226  -4.441  0.00  0.00     0.128 C 
ATOM     11  H1  <1> d           5.683  -4.081  -3.765  0.00  0.00     0.070 H 
BRANCH  10  12
ATOM     12  C8  <1> d           4.780  -3.513  -5.637  0.00  0.00     0.047 C 
ATOM     13  H2  <1> d           3.804  -3.058  -5.466  0.00  0.00     0.094 H 
BRANCH  12  14
ATOM     14  C9  <1> d           4.618  -5.002  -5.798  0.00  0.00     0.092 C 
ATOM     15  O1  <1> d           5.577  -5.739  -5.653  0.00  0.00    -0.544 OA
ATOM     16  O2  <1> d           3.526  -5.470  -6.075  0.00  0.00    -0.544 OA
ENDBRANCH  12  14
BRANCH  12  17
ATOM     17  N1  <1> d           5.377  -2.950  -6.854  0.00  0.00     0.227 N 
ATOM     18  H6  <1> d           5.493  -1.954  -6.742  0.00  0.00     0.200 HD
ATOM     19  H7  <1> d           6.277  -3.377  -7.016  0.00  0.00     0.200 HD
ATOM     20  H11 <1> d           4.773  -3.131  -7.640  0.00  0.00     0.200 HD
ENDBRANCH  12  17
ENDBRANCH  10  12
BRANCH  10  21
ATOM     21  O3  <1> d           7.023  -2.996  -4.903  0.00  0.00    -0.381 OA
ATOM     22  H8  <1> d           7.409  -2.165  -4.596  0.00  0.00     0.210 HD
ENDBRANCH  10  21
ENDBRANCH   6  10
BRANCH   4  23
ATOM     23  O4  <1> d           6.172   1.457  -3.152  0.00  0.00    -0.503 OA
ATOM     24  H9  <1> d           6.132   1.981  -2.340  0.00  0.00     0.292 HD
ENDBRANCH   4  23
BRANCH   3  25
ATOM     25  O5  <1> d           3.825   1.341  -1.714  0.00  0.00    -0.503 OA
ATOM     26  H10 <1> d           3.419   2.003  -2.289  0.00  0.00     0.292 HD
ENDBRANCH   3  25
TORSDOF 7
ENDMDL
MODEL 2
REMARK VINA RESULT:      -4.8      4.767      6.058
REMARK  7 active torsions:
REMARK  status: ('A' for Active; 'I' for Inactive)
REMARK    1  A    between atoms: C3_3  and  O5_17 
REMARK    2  A    between atoms: C4_4  and  O4_16 
REMARK    3  A    between atoms: C6_6  and  C7_7 
REMARK    4  A    between atoms: C7_7  and  C8_9 
REMARK    5  A    between atoms: C7_7  and  O3_15 
REMARK    6  A    between atoms: C8_9  and  C9_11 
REMARK    7  A    between atoms: C8_9  and  N1_14 
ROOT
ATOM      1  C1  <1> d           2.817   1.706  -7.725  0.00  0.00    -0.052 A 
ATOM      2  C2  <1> d           3.081   1.901  -9.069  0.00  0.00    -0.016 A 
ATOM      3  C3  <1> d           3.548   0.851  -9.842  0.00  0.00     0.158 A 
ATOM      4  C4  <1> d           3.748  -0.399  -9.265  0.00  0.00     0.159 A 
ATOM      5  C5  <1> d           3.481  -0.588  -7.919  0.00  0.00    -0.011 A 
ATOM      6  C6  <1> d           3.016   0.464  -7.152  0.00  0.00    -0.010 A 
ATOM      7  H3  <1> d           2.457   2.527  -7.122  0.00  0.00     0.062 H 
ATOM      8  H4  <1> d           2.925   2.872  -9.514  0.00  0.00     0.066 H 
ATOM      9  H5  <1> d           3.636  -1.557  -7.469  0.00  0.00     0.066 H 
ENDROOT
BRANCH   6  10
ATOM     10  C7  <1> d           2.725   0.256  -5.688  0.00  0.00     0.128 C 
ATOM     11  H1  <1> d           1.790  -0.293  -5.578  0.00  0.00     0.070 H 
BRANCH  10  12
ATOM     12  C8  <1> d           3.864  -0.542  -5.050  0.00  0.00     0.047 C 
ATOM     13  H2  <1> d           4.225  -1.288  -5.759  0.00  0.00     0.094 H 
BRANCH  12  14
ATOM     14  C9  <1> d           3.361  -1.231  -3.809  0.00  0.00     0.092 C 
ATOM     15  O1  <1> d           2.542  -0.679  -3.094  0.00  0.00    -0.544 OA
ATOM     16  O2  <1> d           3.773  -2.343  -3.519  0.00  0.00    -0.544 OA
ENDBRANCH  12  14
BRANCH  12  17
ATOM     17  N1  <1> d           4.961   0.367  -4.695  0.00  0.00     0.227 N 
ATOM     18  H6  <1> d           5.763   0.168  -5.274  0.00  0.00     0.200 HD
ATOM     19  H7  <1> d           4.668   1.321  -4.844  0.00  0.00     0.200 HD
ATOM     20  H11 <1> d           5.206   0.238  -3.726  0.00  0.00     0.200 HD
ENDBRANCH  12  17
ENDBRANCH  10  12
BRANCH  10  21
ATOM     21  O3  <1> d           2.613   1.525  -5.040  0.00  0.00    -0.381 OA
ATOM     22  H8  <1> d           1.855   1.598  -4.445  0.00  0.00     0.210 HD
ENDBRANCH  10  21
ENDBRANCH   6  10
BRANCH   4  23
ATOM     23  O4  <1> d           4.206  -1.433 -10.021  0.00  0.00    -0.503 OA
ATOM     24  H9  <1> d           5.043  -1.252 -10.471  0.00  0.00     0.292 HD
ENDBRANCH   4  23
BRANCH   3  25
ATOM     25  O5  <1> d           3.809   1.042 -11.164  0.00  0.00    -0.503 OA
ATOM     26  H10 <1> d           3.963   0.224 -11.656  0.00  0.00     0.292 HD
ENDBRANCH   3  25
TORSDOF 7
ENDMDL
MODEL 3
REMARK VINA RESULT:      -4.7      2.098      5.250
REMARK  7 active torsions:
REMARK  status: ('A' for Active; 'I' for Inactive)
REMARK    1  A    between atoms: C3_3  and  O5_17 
REMARK    2  A    between atoms: C4_4  and  O4_16 
REMARK    3  A    between atoms: C6_6  and  C7_7 
REMARK    4  A    between atoms: C7_7  and  C8_9 
REMARK    5  A    between atoms: C7_7  and  O3_15 
REMARK    6  A    between atoms: C8_9  and  C9_11 
REMARK    7  A    between atoms: C8_9  and  N1_14 
ROOT
ATOM      1  C1  <1> d           5.193  -3.467  -4.690  0.00  0.00    -0.052 A 
ATOM      2  C2  <1> d           6.174  -4.271  -5.242  0.00  0.00    -0.016 A 
ATOM      3  C3  <1> d           7.505  -4.051  -4.928  0.00  0.00     0.158 A 
ATOM      4  C4  <1> d           7.853  -3.023  -4.058  0.00  0.00     0.159 A 
ATOM      5  C5  <1> d           6.865  -2.221  -3.509  0.00  0.00    -0.011 A 
ATOM      6  C6  <1> d           5.538  -2.445  -3.825  0.00  0.00    -0.010 A 
ATOM      7  H3  <1> d           4.155  -3.635  -4.938  0.00  0.00     0.062 H 
ATOM      8  H4  <1> d           5.902  -5.068  -5.916  0.00  0.00     0.066 H 
ATOM      9  H5  <1> d           7.132  -1.422  -2.833  0.00  0.00     0.066 H 
ENDROOT
BRANCH   6  10
ATOM     10  C7  <1> d           4.465  -1.572  -3.226  0.00  0.00     0.128 C 
ATOM     11  H1  <1> d           4.357  -1.804  -2.167  0.00  0.00     0.070 H 
BRANCH  10  12
ATOM     12  C8  <1> d           4.854  -0.101  -3.390  0.00  0.00     0.047 C 
ATOM     13  H2  <1> d           5.940  -0.008  -3.362  0.00  0.00     0.094 H 
BRANCH  12  14
ATOM     14  C9  <1> d           4.252   0.705  -2.269  0.00  0.00     0.092 C 
ATOM     15  O1  <1> d           4.973   1.221  -1.432  0.00  0.00    -0.544 OA
ATOM     16  O2  <1> d           3.041   0.841  -2.198  0.00  0.00    -0.544 OA
ENDBRANCH  12  14
BRANCH  12  17
ATOM     17  N1  <1> d           4.353   0.399  -4.677  0.00  0.00     0.227 N 
ATOM     18  H6  <1> d           5.029   1.030  -5.078  0.00  0.00     0.200 HD
ATOM     19  H7  <1> d           4.205  -0.378  -5.304  0.00  0.00     0.200 HD
ATOM     20  H11 <1> d           3.482   0.885  -4.533  0.00  0.00     0.200 HD
ENDBRANCH  12  17
ENDBRANCH  10  12
BRANCH  10  21
ATOM     21  O3  <1> d           3.226  -1.813  -3.896  0.00  0.00    -0.381 OA
ATOM     22  H8  <1> d           3.244  -1.614  -4.841  0.00  0.00     0.210 HD
ENDBRANCH  10  21
ENDBRANCH   6  10
BRANCH   4  23
ATOM     23  O4  <1> d           9.159  -2.804  -3.747  0.00  0.00    -0.503 OA
ATOM     24  H9  <1> d           9.446  -3.234  -2.930  0.00  0.00     0.292 HD
ENDBRANCH   4  23
BRANCH   3  25
ATOM     25  O5  <1> d           8.472  -4.842  -5.470  0.00  0.00    -0.503 OA
ATOM     26  H10 <1> d           9.295  -4.376  -5.667  0.00  0.00     0.292 HD
ENDBRANCH   3  25
TORSDOF 7
ENDMDL
MODEL 4
REMARK VINA RESULT:      -4.7      9.798     11.761
REMARK  7 active torsions:
REMARK  status: ('A' for Active; 'I' for Inactive)
REMARK    1  A    between atoms: C3_3  and  O5_17 
REMARK    2  A    between atoms: C4_4  and  O4_16 
REMARK    3  A    between atoms: C6_6  and  C7_7 
REMARK    4  A    between atoms: C7_7  and  C8_9 
REMARK    5  A    between atoms: C7_7  and  O3_15 
REMARK    6  A    between atoms: C8_9  and  C9_11 
REMARK    7  A    between atoms: C8_9  and  N1_14 
ROOT
ATOM      1  C1  <1> d          11.075   8.350   0.462  0.00  0.00    -0.052 A 
ATOM      2  C2  <1> d          10.914   9.713   0.635  0.00  0.00    -0.016 A 
ATOM      3  C3  <1> d           9.882  10.375  -0.010  0.00  0.00     0.158 A 
ATOM      4  C4  <1> d           9.009   9.667  -0.829  0.00  0.00     0.159 A 
ATOM      5  C5  <1> d           9.176   8.302  -0.998  0.00  0.00    -0.011 A 
ATOM      6  C6  <1> d          10.208   7.647  -0.352  0.00  0.00    -0.010 A 
ATOM      7  H3  <1> d          11.883   7.835   0.961  0.00  0.00     0.062 H 
ATOM      8  H4  <1> d          11.593  10.260   1.271  0.00  0.00     0.066 H 
ATOM      9  H5  <1> d           8.499   7.750  -1.634  0.00  0.00     0.066 H 
ENDROOT
BRANCH   6  10
ATOM     10  C7  <1> d          10.387   6.161  -0.537  0.00  0.00     0.128 C 
ATOM     11  H1  <1> d           9.475   5.734  -0.953  0.00  0.00     0.070 H 
BRANCH  10  12
ATOM     12  C8  <1> d          11.553   5.904  -1.493  0.00  0.00     0.047 C 
ATOM     13  H2  <1> d          12.032   6.850  -1.745  0.00  0.00     0.094 H 
BRANCH  12  14
ATOM     14  C9  <1> d          11.037   5.252  -2.750  0.00  0.00     0.092 C 
ATOM     15  O1  <1> d          11.448   5.615  -3.839  0.00  0.00    -0.544 OA
ATOM     16  O2  <1> d          10.206   4.361  -2.678  0.00  0.00    -0.544 OA
ENDBRANCH  12  14
BRANCH  12  17
ATOM     17  N1  <1> d          12.530   5.017  -0.848  0.00  0.00     0.227 N 
ATOM     18  H6  <1> d          13.371   5.536  -0.643  0.00  0.00     0.200 HD
ATOM     19  H7  <1> d          12.141   4.657   0.010  0.00  0.00     0.200 HD
ATOM     20  H11 <1> d          12.749   4.252  -1.466  0.00  0.00     0.200 HD
ENDBRANCH  12  17
ENDBRANCH  10  12
BRANCH  10  21
ATOM     21  O3  <1> d          10.665   5.555   0.727  0.00  0.00    -0.381 OA
ATOM     22  H8  <1> d           9.976   5.693   1.390  0.00  0.00     0.210 HD
ENDBRANCH  10  21
ENDBRANCH   6  10
BRANCH   4  23
ATOM     23  O4  <1> d           7.994  10.313  -1.464  0.00  0.00    -0.503 OA
ATOM     24  H9  <1> d           7.982  11.269  -1.317  0.00  0.00     0.292 HD
ENDBRANCH   4  23
BRANCH   3  25
ATOM     25  O5  <1> d           9.723  11.716   0.159  0.00  0.00    -0.503 OA
ATOM     26  H10 <1> d          10.343  12.253  -0.352  0.00  0.00     0.292 HD
ENDBRANCH   3  25
TORSDOF 7
ENDMDL
MODEL 5
REMARK VINA RESULT:      -4.6     10.006     12.519
REMARK  7 active torsions:
REMARK  status: ('A' for Active; 'I' for Inactive)
REMARK    1  A    between atoms: C3_3  and  O5_17 
REMARK    2  A    between atoms: C4_4  and  O4_16 
REMARK    3  A    between atoms: C6_6  and  C7_7 
REMARK    4  A    between atoms: C7_7  and  C8_9 
REMARK    5  A    between atoms: C7_7  and  O3_15 
REMARK    6  A    between atoms: C8_9  and  C9_11 
REMARK    7  A    between atoms: C8_9  and  N1_14 
ROOT
ATOM      1  C1  <1> d           9.943   7.466  -3.109  0.00  0.00    -0.052 A 
ATOM      2  C2  <1> d          10.514   6.506  -3.925  0.00  0.00    -0.016 A 
ATOM      3  C3  <1> d          10.922   5.296  -3.389  0.00  0.00     0.158 A 
ATOM      4  C4  <1> d          10.757   5.049  -2.030  0.00  0.00     0.159 A 
ATOM      5  C5  <1> d          10.185   6.014  -1.218  0.00  0.00    -0.011 A 
ATOM      6  C6  <1> d           9.778   7.220  -1.759  0.00  0.00    -0.010 A 
ATOM      7  H3  <1> d           9.628   8.411  -3.527  0.00  0.00     0.062 H 
ATOM      8  H4  <1> d          10.640   6.701  -4.979  0.00  0.00     0.066 H 
ATOM      9  H5  <1> d          10.055   5.825  -0.163  0.00  0.00     0.066 H 
ENDROOT
BRANCH   6  10
ATOM     10  C7  <1> d           9.155   8.270  -0.874  0.00  0.00     0.128 C 
ATOM     11  H1  <1> d           9.506   8.136   0.150  0.00  0.00     0.070 H 
BRANCH  10  12
ATOM     12  C8  <1> d           9.554   9.660  -1.373  0.00  0.00     0.047 C 
ATOM     13  H2  <1> d          10.200   9.561  -2.246  0.00  0.00     0.094 H 
BRANCH  12  14
ATOM     14  C9  <1> d          10.293  10.391  -0.282  0.00  0.00     0.092 C 
ATOM     15  O1  <1> d          10.399  11.605  -0.325  0.00  0.00    -0.544 OA
ATOM     16  O2  <1> d          10.785   9.768   0.644  0.00  0.00    -0.544 OA
ENDBRANCH  12  14
BRANCH  12  17
ATOM     17  N1  <1> d           8.349  10.414  -1.739  0.00  0.00     0.227 N 
ATOM     18  H6  <1> d           8.119  10.232  -2.704  0.00  0.00     0.200 HD
ATOM     19  H7  <1> d           7.581  10.126  -1.151  0.00  0.00     0.200 HD
ATOM     20  H11 <1> d           8.517  11.400  -1.613  0.00  0.00     0.200 HD
ENDBRANCH  12  17
ENDBRANCH  10  12
BRANCH  10  21
ATOM     21  O3  <1> d           7.733   8.140  -0.912  0.00  0.00    -0.381 OA
ATOM     22  H8  <1> d           7.348   8.285  -1.787  0.00  0.00     0.210 HD
ENDBRANCH  10  21
ENDBRANCH   6  10
BRANCH   4  23
ATOM     23  O4  <1> d          11.157   3.862  -1.499  0.00  0.00    -0.503 OA
ATOM     24  H9  <1> d          10.438   3.339  -1.118  0.00  0.00     0.292 HD
ENDBRANCH   4  23
BRANCH   3  25
ATOM     25  O5  <1> d          11.484   4.351  -4.191  0.00  0.00    -0.503 OA
ATOM     26  H10 <1> d          10.890   4.012  -4.874  0.00  0.00     0.292 HD
ENDBRANCH   3  25
TORSDOF 7
ENDMDL
MODEL 6
REMARK VINA RESULT:      -4.5      3.574      4.204
REMARK  7 active torsions:
REMARK  status: ('A' for Active; 'I' for Inactive)
REMARK    1  A    between atoms: C3_3  and  O5_17 
REMARK    2  A    between atoms: C4_4  and  O4_16 
REMARK    3  A    between atoms: C6_6  and  C7_7 
REMARK    4  A    between atoms: C7_7  and  C8_9 
REMARK    5  A    between atoms: C7_7  and  O3_15 
REMARK    6  A    between atoms: C8_9  and  C9_11 
REMARK    7  A    between atoms: C8_9  and  N1_14 
ROOT
ATOM      1  C1  <1> d           2.905   0.427  -4.471  0.00  0.00    -0.052 A 
ATOM      2  C2  <1> d           3.262   0.848  -3.202  0.00  0.00    -0.016 A 
ATOM      3  C3  <1> d           4.557   0.657  -2.749  0.00  0.00     0.158 A 
ATOM      4  C4  <1> d           5.497   0.043  -3.571  0.00  0.00     0.159 A 
ATOM      5  C5  <1> d           5.133  -0.376  -4.840  0.00  0.00    -0.011 A 
ATOM      6  C6  <1> d           3.838  -0.183  -5.288  0.00  0.00    -0.010 A 
ATOM      7  H3  <1> d           1.894   0.572  -4.822  0.00  0.00     0.062 H 
ATOM      8  H4  <1> d           2.532   1.324  -2.566  0.00  0.00     0.066 H 
ATOM      9  H5  <1> d           5.860  -0.853  -5.481  0.00  0.00     0.066 H 
ENDROOT
BRANCH   6  10
ATOM     10  C7  <1> d           3.444  -0.640  -6.669  0.00  0.00     0.128 C 
ATOM     11  H1  <1> d           2.360  -0.595  -6.771  0.00  0.00     0.070 H 
BRANCH  10  12
ATOM     12  C8  <1> d           4.093   0.274  -7.712  0.00  0.00     0.047 C 
ATOM     13  H2  <1> d           4.859   0.884  -7.233  0.00  0.00     0.094 H 
BRANCH  12  14
ATOM     14  C9  <1> d           3.043   1.169  -8.317  0.00  0.00     0.092 C 
ATOM     15  O1  <1> d           2.351   0.764  -9.235  0.00  0.00    -0.544 OA
ATOM     16  O2  <1> d           2.885   2.300  -7.887  0.00  0.00    -0.544 OA
ENDBRANCH  12  14
BRANCH  12  17
ATOM     17  N1  <1> d           4.706  -0.544  -8.766  0.00  0.00     0.227 N 
ATOM     18  H6  <1> d           5.588  -0.137  -9.037  0.00  0.00     0.200 HD
ATOM     19  H7  <1> d           4.861  -1.479  -8.419  0.00  0.00     0.200 HD
ATOM     20  H11 <1> d           4.092  -0.579  -9.565  0.00  0.00     0.200 HD
ENDBRANCH  12  17
ENDBRANCH  10  12
BRANCH  10  21
ATOM     21  O3  <1> d           3.888  -1.982  -6.871  0.00  0.00    -0.381 OA
ATOM     22  H8  <1> d           3.232  -2.653  -6.640  0.00  0.00     0.210 HD
ENDBRANCH  10  21
ENDBRANCH   6  10
BRANCH   4  23
ATOM     23  O4  <1> d           6.770  -0.146  -3.130  0.00  0.00    -0.503 OA
ATOM     24  H9  <1> d           7.326   0.643  -3.184  0.00  0.00     0.292 HD
ENDBRANCH   4  23
BRANCH   3  25
ATOM     25  O5  <1> d           4.910   1.071  -1.501  0.00  0.00    -0.503 OA
ATOM     26  H10 <1> d           5.776   1.498  -1.460  0.00  0.00     0.292 HD
ENDBRANCH   3  25
TORSDOF 7
ENDMDL
MODEL 7
REMARK VINA RESULT:      -4.4     10.543     13.235
REMARK  7 active torsions:
REMARK  status: ('A' for Active; 'I' for Inactive)
REMARK    1  A    between atoms: C3_3  and  O5_17 
REMARK    2  A    between atoms: C4_4  and  O4_16 
REMARK    3  A    between atoms: C6_6  and  C7_7 
REMARK    4  A    between atoms: C7_7  and  C8_9 
REMARK    5  A    between atoms: C7_7  and  O3_15 
REMARK    6  A    between atoms: C8_9  and  C9_11 
REMARK    7  A    between atoms: C8_9  and  N1_14 
ROOT
ATOM      1  C1  <1> d           9.626   7.431  -1.994  0.00  0.00    -0.052 A 
ATOM      2  C2  <1> d          10.055   6.127  -1.824  0.00  0.00    -0.016 A 
ATOM      3  C3  <1> d          10.772   5.776  -0.692  0.00  0.00     0.158 A 
ATOM      4  C4  <1> d          11.058   6.737   0.273  0.00  0.00     0.159 A 
ATOM      5  C5  <1> d          10.625   8.041   0.096  0.00  0.00    -0.011 A 
ATOM      6  C6  <1> d           9.910   8.385  -1.036  0.00  0.00    -0.010 A 
ATOM      7  H3  <1> d           9.070   7.704  -2.879  0.00  0.00     0.062 H 
ATOM      8  H4  <1> d           9.831   5.384  -2.574  0.00  0.00     0.066 H 
ATOM      9  H5  <1> d          10.846   8.789   0.844  0.00  0.00     0.066 H 
ENDROOT
BRANCH   6  10
ATOM     10  C7  <1> d           9.439   9.805  -1.225  0.00  0.00     0.128 C 
ATOM     11  H1  <1> d           9.889  10.441  -0.464  0.00  0.00     0.070 H 
BRANCH  10  12
ATOM     12  C8  <1> d           9.855  10.298  -2.613  0.00  0.00     0.047 C 
ATOM     13  H2  <1> d          10.272   9.468  -3.184  0.00  0.00     0.094 H 
BRANCH  12  14
ATOM     14  C9  <1> d          10.892  11.382  -2.471  0.00  0.00     0.092 C 
ATOM     15  O1  <1> d          11.524  11.489  -1.434  0.00  0.00    -0.544 OA
ATOM     16  O2  <1> d          11.099  12.152  -3.394  0.00  0.00    -0.544 OA
ENDBRANCH  12  14
BRANCH  12  17
ATOM     17  N1  <1> d           8.680  10.833  -3.315  0.00  0.00     0.227 N 
ATOM     18  H6  <1> d           8.691  11.841  -3.268  0.00  0.00     0.200 HD
ATOM     19  H7  <1> d           8.704  10.541  -4.281  0.00  0.00     0.200 HD
ATOM     20  H11 <1> d           7.841  10.485  -2.879  0.00  0.00     0.200 HD
ENDBRANCH  12  17
ENDBRANCH  10  12
BRANCH  10  21
ATOM     21  O3  <1> d           8.017   9.854  -1.109  0.00  0.00    -0.381 OA
ATOM     22  H8  <1> d           7.597  10.508  -1.683  0.00  0.00     0.210 HD
ENDBRANCH  10  21
ENDBRANCH   6  10
BRANCH   4  23
ATOM     23  O4  <1> d          11.761   6.397   1.386  0.00  0.00    -0.503 OA
ATOM     24  H9  <1> d          11.432   6.804   2.199  0.00  0.00     0.292 HD
ENDBRANCH   4  23
BRANCH   3  25
ATOM     25  O5  <1> d          11.194   4.494  -0.524  0.00  0.00    -0.503 OA
ATOM     26  H10 <1> d          11.647   4.125  -1.294  0.00  0.00     0.292 HD
ENDBRANCH   3  25
TORSDOF 7
ENDMDL
MODEL 8
REMARK VINA RESULT:      -4.4      4.214      5.785
REMARK  7 active torsions:
REMARK  status: ('A' for Active; 'I' for Inactive)
REMARK    1  A    between atoms: C3_3  and  O5_17 
REMARK    2  A    between atoms: C4_4  and  O4_16 
REMARK    3  A    between atoms: C6_6  and  C7_7 
REMARK    4  A    between atoms: C7_7  and  C8_9 
REMARK    5  A    between atoms: C7_7  and  O3_15 
REMARK    6  A    between atoms: C8_9  and  C9_11 
REMARK    7  A    between atoms: C8_9  and  N1_14 
ROOT
ATOM      1  C1  <1> d           2.867   0.218  -7.037  0.00  0.00    -0.052 A 
ATOM      2  C2  <1> d           2.755   0.648  -8.347  0.00  0.00    -0.016 A 
ATOM      3  C3  <1> d           3.879   0.703  -9.155  0.00  0.00     0.158 A 
ATOM      4  C4  <1> d           5.118   0.323  -8.648  0.00  0.00     0.159 A 
ATOM      5  C5  <1> d           5.222  -0.107  -7.335  0.00  0.00    -0.011 A 
ATOM      6  C6  <1> d           4.097  -0.159  -6.533  0.00  0.00    -0.010 A 
ATOM      7  H3  <1> d           1.991   0.180  -6.406  0.00  0.00     0.062 H 
ATOM      8  H4  <1> d           1.793   0.942  -8.739  0.00  0.00     0.066 H 
ATOM      9  H5  <1> d           6.182  -0.402  -6.938  0.00  0.00     0.066 H 
ENDROOT
BRANCH   6  10
ATOM     10  C7  <1> d           4.213  -0.628  -5.105  0.00  0.00     0.128 C 
ATOM     11  H1  <1> d           5.217  -0.422  -4.735  0.00  0.00     0.070 H 
BRANCH  10  12
ATOM     12  C8  <1> d           3.189   0.112  -4.241  0.00  0.00     0.047 C 
ATOM     13  H2  <1> d           2.600   0.781  -4.869  0.00  0.00     0.094 H 
BRANCH  12  14
ATOM     14  C9  <1> d           3.908   0.916  -3.189  0.00  0.00     0.092 C 
ATOM     15  O1  <1> d           5.024   1.352  -3.411  0.00  0.00    -0.544 OA
ATOM     16  O2  <1> d           3.373   1.130  -2.114  0.00  0.00    -0.544 OA
ENDBRANCH  12  14
BRANCH  12  17
ATOM     17  N1  <1> d           2.300  -0.861  -3.592  0.00  0.00     0.227 N 
ATOM     18  H6  <1> d           1.364  -0.488  -3.557  0.00  0.00     0.200 HD
ATOM     19  H7  <1> d           2.301  -1.721  -4.121  0.00  0.00     0.200 HD
ATOM     20  H11 <1> d           2.626  -1.041  -2.656  0.00  0.00     0.200 HD
ENDBRANCH  12  17
ENDBRANCH  10  12
BRANCH  10  21
ATOM     21  O3  <1> d           3.960  -2.033  -5.043  0.00  0.00    -0.381 OA
ATOM     22  H8  <1> d           4.193  -2.438  -4.198  0.00  0.00     0.210 HD
ENDBRANCH  10  21
ENDBRANCH   6  10
BRANCH   4  23
ATOM     23  O4  <1> d           6.224   0.375  -9.438  0.00  0.00    -0.503 OA
ATOM     24  H9  <1> d           6.489  -0.482  -9.800  0.00  0.00     0.292 HD
ENDBRANCH   4  23
BRANCH   3  25
ATOM     25  O5  <1> d           3.771   1.126 -10.444  0.00  0.00    -0.503 OA
ATOM     26  H10 <1> d           3.298   0.511 -11.021  0.00  0.00     0.292 HD
ENDBRANCH   3  25
TORSDOF 7
ENDMDL
MODEL 9
REMARK VINA RESULT:      -4.4      5.854      7.493
REMARK  7 active torsions:
REMARK  status: ('A' for Active; 'I' for Inactive)
REMARK    1  A    between atoms: C3_3  and  O5_17 
REMARK    2  A    between atoms: C4_4  and  O4_16 
REMARK    3  A    between atoms: C6_6  and  C7_7 
REMARK    4  A    between atoms: C7_7  and  C8_9 
REMARK    5  A    between atoms: C7_7  and  O3_15 
REMARK    6  A    between atoms: C8_9  and  C9_11 
REMARK    7  A    between atoms: C8_9  and  N1_14 
ROOT
ATOM      1  C1  <1> d           1.688  -0.735  -9.602  0.00  0.00    -0.052 A 
ATOM      2  C2  <1> d           1.578  -1.327 -10.848  0.00  0.00    -0.016 A 
ATOM      3  C3  <1> d           2.475  -1.000 -11.851  0.00  0.00     0.158 A 
ATOM      4  C4  <1> d           3.488  -0.079 -11.603  0.00  0.00     0.159 A 
ATOM      5  C5  <1> d           3.593   0.510 -10.353  0.00  0.00    -0.011 A 
ATOM      6  C6  <1> d           2.694   0.181  -9.356  0.00  0.00    -0.010 A 
ATOM      7  H3  <1> d           0.985  -0.986  -8.822  0.00  0.00     0.062 H 
ATOM      8  H4  <1> d           0.792  -2.041 -11.037  0.00  0.00     0.066 H 
ATOM      9  H5  <1> d           4.378   1.226 -10.158  0.00  0.00     0.066 H 
ENDROOT
BRANCH   6  10
ATOM     10  C7  <1> d           2.811   0.822  -7.996  0.00  0.00     0.128 C 
ATOM     11  H1  <1> d           1.817   0.935  -7.562  0.00  0.00     0.070 H 
BRANCH  10  12
ATOM     12  C8  <1> d           3.668  -0.062  -7.088  0.00  0.00     0.047 C 
ATOM     13  H2  <1> d           3.524  -1.108  -7.359  0.00  0.00     0.094 H 
BRANCH  12  14
ATOM     14  C9  <1> d           3.256   0.145  -5.653  0.00  0.00     0.092 C 
ATOM     15  O1  <1> d           3.528  -0.695  -4.813  0.00  0.00    -0.544 OA
ATOM     16  O2  <1> d           2.650   1.155  -5.333  0.00  0.00    -0.544 OA
ENDBRANCH  12  14
BRANCH  12  17
ATOM     17  N1  <1> d           5.083   0.296  -7.248  0.00  0.00     0.227 N 
ATOM     18  H6  <1> d           5.511   0.386  -6.340  0.00  0.00     0.200 HD
ATOM     19  H7  <1> d           5.555  -0.425  -7.772  0.00  0.00     0.200 HD
ATOM     20  H11 <1> d           5.154   1.172  -7.742  0.00  0.00     0.200 HD
ENDBRANCH  12  17
ENDBRANCH  10  12
BRANCH  10  21
ATOM     21  O3  <1> d           3.424   2.106  -8.127  0.00  0.00    -0.381 OA
ATOM     22  H8  <1> d           4.190   2.237  -7.553  0.00  0.00     0.210 HD
ENDBRANCH  10  21
ENDBRANCH   6  10
BRANCH   4  23
ATOM     23  O4  <1> d           4.372   0.244 -12.585  0.00  0.00    -0.503 OA
ATOM     24  H9  <1> d           4.683  -0.513 -13.099  0.00  0.00     0.292 HD
ENDBRANCH   4  23
BRANCH   3  25
ATOM     25  O5  <1> d           2.368  -1.582 -13.076  0.00  0.00    -0.503 OA
ATOM     26  H10 <1> d           1.876  -1.054 -13.720  0.00  0.00     0.292 HD
ENDBRANCH   3  25
TORSDOF 7
ENDMDL
MODEL 10
REMARK VINA RESULT:      -4.3     11.654     13.641
REMARK  7 active torsions:
REMARK  status: ('A' for Active; 'I' for Inactive)
REMARK    1  A    between atoms: C3_3  and  O5_17 
REMARK    2  A    between atoms: C4_4  and  O4_16 
REMARK    3  A    between atoms: C6_6  and  C7_7 
REMARK    4  A    between atoms: C7_7  and  C8_9 
REMARK    5  A    between atoms: C7_7  and  O3_15 
REMARK    6  A    between atoms: C8_9  and  C9_11 
REMARK    7  A    between atoms: C8_9  and  N1_14 
ROOT
ATOM      1  C1  <1> d          11.816   9.459  -1.170  0.00  0.00    -0.052 A 
ATOM      2  C2  <1> d          12.680   8.476  -0.721  0.00  0.00    -0.016 A 
ATOM      3  C3  <1> d          12.175   7.294  -0.204  0.00  0.00     0.158 A 
ATOM      4  C4  <1> d          10.799   7.098  -0.139  0.00  0.00     0.159 A 
ATOM      5  C5  <1> d           9.939   8.087  -0.591  0.00  0.00    -0.011 A 
ATOM      6  C6  <1> d          10.450   9.264  -1.105  0.00  0.00    -0.010 A 
ATOM      7  H3  <1> d          12.211  10.382  -1.569  0.00  0.00     0.062 H 
ATOM      8  H4  <1> d          13.747   8.631  -0.773  0.00  0.00     0.066 H 
ATOM      9  H5  <1> d           8.871   7.937  -0.541  0.00  0.00     0.066 H 
ENDROOT
BRANCH   6  10
ATOM     10  C7  <1> d           9.513  10.338  -1.597  0.00  0.00     0.128 C 
ATOM     11  H1  <1> d           9.685  11.256  -1.034  0.00  0.00     0.070 H 
BRANCH  10  12
ATOM     12  C8  <1> d           9.769  10.596  -3.083  0.00  0.00     0.047 C 
ATOM     13  H2  <1> d          10.829  10.797  -3.240  0.00  0.00     0.094 H 
BRANCH  12  14
ATOM     14  C9  <1> d           8.961  11.786  -3.532  0.00  0.00     0.092 C 
ATOM     15  O1  <1> d           7.774  11.856  -3.260  0.00  0.00    -0.544 OA
ATOM     16  O2  <1> d           9.494  12.681  -4.168  0.00  0.00    -0.544 OA
ENDBRANCH  12  14
BRANCH  12  17
ATOM     17  N1  <1> d           9.374   9.415  -3.861  0.00  0.00     0.227 N 
ATOM     18  H6  <1> d           9.069   8.686  -3.233  0.00  0.00     0.200 HD
ATOM     19  H7  <1> d           8.619   9.659  -4.484  0.00  0.00     0.200 HD
ATOM     20  H11 <1> d          10.161   9.087  -4.398  0.00  0.00     0.200 HD
ENDBRANCH  12  17
ENDBRANCH  10  12
BRANCH  10  21
ATOM     21  O3  <1> d           8.162   9.912  -1.413  0.00  0.00    -0.381 OA
ATOM     22  H8  <1> d           7.504  10.521  -1.773  0.00  0.00     0.210 HD
ENDBRANCH  10  21
ENDBRANCH   6  10
BRANCH   4  23
ATOM     23  O4  <1> d          10.298   5.939   0.367  0.00  0.00    -0.503 OA
ATOM     24  H9  <1> d          10.919   5.454   0.927  0.00  0.00     0.292 HD
ENDBRANCH   4  23
BRANCH   3  25
ATOM     25  O5  <1> d          13.023   6.326   0.238  0.00  0.00    -0.503 OA
ATOM     26  H10 <1> d          12.801   5.979   1.112  0.00  0.00     0.292 HD
ENDBRANCH   3  25
TORSDOF 7
ENDMDL
