MODEL 1
REMARK VINA RESULT:      -6.5      0.000      0.000
REMARK  13 active torsions:
REMARK  status: ('A' for Active; 'I' for Inactive)
REMARK    1  A    between atoms: C_1  and  C_2 
REMARK    2  A    between atoms: C_5  and  O_38 
REMARK    3  A    between atoms: C_7  and  C_35 
REMARK    4  A    between atoms: C_7  and  C_36 
REMARK    5  A    between atoms: C_14  and  N_16 
REMARK       I    between atoms: N_16  and  C_17 
REMARK    6  A    between atoms: C_17  and  C_19 
REMARK    7  A    between atoms: C_19  and  C_20 
REMARK    8  A    between atoms: C_20  and  C_21 
REMARK    9  A    between atoms: C_20  and  C_22 
REMARK   10  A    between atoms: C_20  and  C_23 
REMARK   11  A    between atoms: C_24  and  C_26 
REMARK   12  A    between atoms: C_26  and  C_27 
REMARK       I    between atoms: C_27  and  N_29 
REMARK   13  A    between atoms: C_36  and  O_37 
ROOT
ATOM      1  C   LIG d   1       9.620   2.449  -4.710  0.00  0.00    -0.019 C 
ATOM      2  C   LIG d   1       9.637   2.760  -3.210  0.00  0.00    -0.044 C 
ATOM      3  C   LIG d   1      11.034   3.193  -2.771  0.00  0.00    -0.026 C 
ATOM      4  C   LIG d   1      11.422   4.459  -3.540  0.00  0.00     0.063 C 
ATOM      5  H   LIG d   1      10.689   5.242  -3.347  0.00  0.00     0.060 H 
ATOM      6  C   LIG d   1      11.453   4.138  -5.032  0.00  0.00     0.021 C 
ATOM      7  C   LIG d   1      10.072   3.678  -5.507  0.00  0.00    -0.021 C 
ATOM      8  H   LIG d   1       9.344   4.481  -5.397  0.00  0.00     0.032 H 
ATOM      9  C   LIG d   1      10.206   3.288  -6.992  0.00  0.00    -0.016 C 
ATOM     10  C   LIG d   1       9.002   2.514  -7.402  0.00  0.00     0.015 A 
ATOM     11  C   LIG d   1       8.067   1.946  -6.598  0.00  0.00     0.058 A 
ATOM     12  N   LIG d   1       7.081   1.299  -7.216  0.00  0.00    -0.229 NA
ATOM     13  C   LIG d   1       7.011   1.216  -8.529  0.00  0.00     0.165 A 
ATOM     14  S   LIG d   1       8.424   2.100  -9.025  0.00  0.00    -0.057 SA
ATOM     15  C   LIG d   1       8.182   2.073  -5.086  0.00  0.00     0.016 C 
ATOM     16  H   LIG d   1       7.500   2.846  -4.734  0.00  0.00     0.037 H 
ATOM     17  H   LIG d   1       8.929   3.562  -3.000  0.00  0.00     0.027 H 
ATOM     18  H   LIG d   1       9.343   1.869  -2.653  0.00  0.00     0.027 H 
ATOM     19  H   LIG d   1      11.033   3.400  -1.701  0.00  0.00     0.029 H 
ATOM     20  H   LIG d   1      11.748   2.398  -2.990  0.00  0.00     0.029 H 
ATOM     21  H   LIG d   1      11.097   2.675  -7.129  0.00  0.00     0.032 H 
ATOM     22  H   LIG d   1      10.284   4.188  -7.600  0.00  0.00     0.032 H 
ENDROOT
BRANCH  15  23
ATOM     23  C   LIG d   1       7.817   0.737  -4.434  0.00  0.00     0.033 C 
ATOM     24  H   LIG d   1       7.725  -0.030  -5.203  0.00  0.00     0.036 H 
ATOM     25  H   LIG d   1       8.599   0.452  -3.729  0.00  0.00     0.036 H 
BRANCH  23  26
ATOM     26  C   LIG d   1       6.507   0.876  -3.703  0.00  0.00     0.216 C 
ATOM     27  O   LIG d   1       6.293   1.857  -3.023  0.00  0.00    -0.276 OA
ATOM     28  N   LIG d   1       5.573  -0.091  -3.806  0.00  0.00    -0.301 N 
ATOM     29  C   LIG d   1       4.291   0.030  -3.099  0.00  0.00     0.015 C 
ATOM     30  C   LIG d   1       5.816  -1.282  -4.630  0.00  0.00     0.015 C 
ATOM     31  C   LIG d   1       4.072  -1.230  -2.256  0.00  0.00    -0.037 C 
ATOM     32  H   LIG d   1       4.313   0.905  -2.448  0.00  0.00     0.046 H 
ATOM     33  H   LIG d   1       3.483   0.130  -3.823  0.00  0.00     0.046 H 
ATOM     34  C   LIG d   1       4.180  -2.465  -3.154  0.00  0.00    -0.050 C 
ATOM     35  H   LIG d   1       4.829  -1.282  -1.474  0.00  0.00     0.028 H 
ATOM     36  H   LIG d   1       3.081  -1.197  -1.802  0.00  0.00     0.028 H 
ATOM     37  C   LIG d   1       5.580  -2.531  -3.766  0.00  0.00    -0.037 C 
ATOM     38  H   LIG d   1       4.000  -3.362  -2.562  0.00  0.00     0.027 H 
ATOM     39  H   LIG d   1       3.439  -2.401  -3.951  0.00  0.00     0.027 H 
ATOM     40  H   LIG d   1       6.325  -2.570  -2.970  0.00  0.00     0.028 H 
ATOM     41  H   LIG d   1       5.666  -3.423  -4.386  0.00  0.00     0.028 H 
ATOM     42  H   LIG d   1       5.129  -1.286  -5.477  0.00  0.00     0.046 H 
ATOM     43  H   LIG d   1       6.844  -1.274  -4.991  0.00  0.00     0.046 H 
ENDBRANCH  23  26
ENDBRANCH  15  23
BRANCH   1  44
ATOM     44  C   LIG d   1      10.552   1.271  -5.000  0.00  0.00    -0.059 C 
ATOM     45  H   LIG d   1      11.002   0.926  -4.070  0.00  0.00     0.024 H 
ATOM     46  H   LIG d   1       9.980   0.458  -5.450  0.00  0.00     0.024 H 
ATOM     47  H   LIG d   1      11.336   1.587  -5.688  0.00  0.00     0.024 H 
ENDBRANCH   1  44
BRANCH   6  48
ATOM     48  C   LIG d   1      11.864   5.388  -5.811  0.00  0.00    -0.055 C 
ATOM     49  H   LIG d   1      11.581   6.278  -5.247  0.00  0.00     0.024 H 
ATOM     50  H   LIG d   1      12.944   5.383  -5.963  0.00  0.00     0.024 H 
ATOM     51  H   LIG d   1      11.361   5.396  -6.779  0.00  0.00     0.024 H 
ENDBRANCH   6  48
BRANCH   6  52
ATOM     52  C   LIG d   1      12.470   3.024  -5.290  0.00  0.00     0.052 C 
ATOM     53  H   LIG d   1      12.508   2.360  -4.426  0.00  0.00     0.056 H 
ATOM     54  H   LIG d   1      12.171   2.456  -6.171  0.00  0.00     0.056 H 
BRANCH  52  55
ATOM     55  O   LIG d   1      13.760   3.597  -5.508  0.00  0.00    -0.394 OA
ATOM     56  H   LIG d   1      14.269   3.740  -4.698  0.00  0.00     0.209 HD
ENDBRANCH  52  55
ENDBRANCH   6  52
BRANCH  13  57
ATOM     57  N   LIG d   1       6.055   0.584  -9.314  0.00  0.00    -0.265 N 
ATOM     58  C   LIG d   1       5.018   1.287  -9.809  0.00  0.00     0.219 C 
ATOM     59  O   LIG d   1       4.918   2.472  -9.568  0.00  0.00    -0.275 OA
ATOM     60  H   LIG d   1       6.134  -0.363  -9.506  0.00  0.00     0.157 HD
BRANCH  58  61
ATOM     61  C   LIG d   1       3.980   0.602 -10.660  0.00  0.00     0.029 C 
ATOM     62  H   LIG d   1       3.420   1.349 -11.223  0.00  0.00     0.036 H 
ATOM     63  H   LIG d   1       4.472  -0.081 -11.353  0.00  0.00     0.036 H 
BRANCH  61  64
ATOM     64  C   LIG d   1       3.021  -0.184  -9.763  0.00  0.00    -0.029 C 
BRANCH  64  65
ATOM     65  C   LIG d   1       1.731  -0.477 -10.531  0.00  0.00    -0.060 C 
ATOM     66  H   LIG d   1       1.946  -0.528 -11.599  0.00  0.00     0.024 H 
ATOM     67  H   LIG d   1       1.318  -1.429 -10.198  0.00  0.00     0.024 H 
ATOM     68  H   LIG d   1       1.008   0.318 -10.344  0.00  0.00     0.024 H 
ENDBRANCH  64  65
BRANCH  64  69
ATOM     69  C   LIG d   1       3.676  -1.502  -9.347  0.00  0.00    -0.060 C 
ATOM     70  H   LIG d   1       3.541  -2.241 -10.136  0.00  0.00     0.024 H 
ATOM     71  H   LIG d   1       4.742  -1.340  -9.179  0.00  0.00     0.024 H 
ATOM     72  H   LIG d   1       3.215  -1.862  -8.428  0.00  0.00     0.024 H 
ENDBRANCH  64  69
BRANCH  64  73
ATOM     73  C   LIG d   1       2.697   0.642  -8.517  0.00  0.00    -0.060 C 
ATOM     74  H   LIG d   1       2.217   0.004  -7.774  0.00  0.00     0.024 H 
ATOM     75  H   LIG d   1       3.617   1.052  -8.103  0.00  0.00     0.024 H 
ATOM     76  H   LIG d   1       2.024   1.456  -8.784  0.00  0.00     0.024 H 
ENDBRANCH  64  73
ENDBRANCH  61  64
ENDBRANCH  58  61
ENDBRANCH  13  57
BRANCH   4  77
ATOM     77  O   LIG d   1      12.715   4.899  -3.118  0.00  0.00    -0.391 OA
ATOM     78  H   LIG d   1      13.288   4.187  -2.801  0.00  0.00     0.210 HD
ENDBRANCH   4  77
TORSDOF 13
ENDMDL
MODEL 2
REMARK VINA RESULT:      -6.1      3.381      6.545
REMARK  13 active torsions:
REMARK  status: ('A' for Active; 'I' for Inactive)
REMARK    1  A    between atoms: C_1  and  C_2 
REMARK    2  A    between atoms: C_5  and  O_38 
REMARK    3  A    between atoms: C_7  and  C_35 
REMARK    4  A    between atoms: C_7  and  C_36 
REMARK    5  A    between atoms: C_14  and  N_16 
REMARK       I    between atoms: N_16  and  C_17 
REMARK    6  A    between atoms: C_17  and  C_19 
REMARK    7  A    between atoms: C_19  and  C_20 
REMARK    8  A    between atoms: C_20  and  C_21 
REMARK    9  A    between atoms: C_20  and  C_22 
REMARK   10  A    between atoms: C_20  and  C_23 
REMARK   11  A    between atoms: C_24  and  C_26 
REMARK   12  A    between atoms: C_26  and  C_27 
REMARK       I    between atoms: C_27  and  N_29 
REMARK   13  A    between atoms: C_36  and  O_37 
ROOT
ATOM      1  C   LIG d   1      10.715   4.841  -5.157  0.00  0.00    -0.019 C 
ATOM      2  C   LIG d   1      11.264   6.243  -4.876  0.00  0.00    -0.044 C 
ATOM      3  C   LIG d   1      12.288   6.638  -5.938  0.00  0.00    -0.026 C 
ATOM      4  C   LIG d   1      11.601   6.643  -7.306  0.00  0.00     0.063 C 
ATOM      5  H   LIG d   1      10.763   7.339  -7.291  0.00  0.00     0.060 H 
ATOM      6  C   LIG d   1      11.096   5.234  -7.609  0.00  0.00     0.021 C 
ATOM      7  C   LIG d   1      10.081   4.793  -6.551  0.00  0.00    -0.021 C 
ATOM      8  H   LIG d   1       9.198   5.432  -6.580  0.00  0.00     0.032 H 
ATOM      9  C   LIG d   1       9.690   3.338  -6.872  0.00  0.00    -0.016 C 
ATOM     10  C   LIG d   1       8.990   2.752  -5.696  0.00  0.00     0.015 A 
ATOM     11  C   LIG d   1       8.946   3.238  -4.429  0.00  0.00     0.058 A 
ATOM     12  N   LIG d   1       8.249   2.519  -3.552  0.00  0.00    -0.229 NA
ATOM     13  C   LIG d   1       7.635   1.404  -3.890  0.00  0.00     0.165 A 
ATOM     14  S   LIG d   1       8.020   1.273  -5.580  0.00  0.00    -0.057 SA
ATOM     15  C   LIG d   1       9.662   4.535  -4.084  0.00  0.00     0.016 C 
ATOM     16  H   LIG d   1       8.939   5.349  -4.042  0.00  0.00     0.037 H 
ATOM     17  H   LIG d   1      10.443   6.960  -4.883  0.00  0.00     0.027 H 
ATOM     18  H   LIG d   1      11.739   6.255  -3.894  0.00  0.00     0.027 H 
ATOM     19  H   LIG d   1      12.677   7.632  -5.719  0.00  0.00     0.029 H 
ATOM     20  H   LIG d   1      13.106   5.916  -5.942  0.00  0.00     0.029 H 
ATOM     21  H   LIG d   1      10.587   2.758  -7.088  0.00  0.00     0.032 H 
ATOM     22  H   LIG d   1       9.027   3.321  -7.736  0.00  0.00     0.032 H 
ENDROOT
BRANCH  15  23
ATOM     23  C   LIG d   1      10.347   4.391  -2.723  0.00  0.00     0.033 C 
ATOM     24  H   LIG d   1       9.856   3.606  -2.150  0.00  0.00     0.036 H 
ATOM     25  H   LIG d   1      11.396   4.131  -2.870  0.00  0.00     0.036 H 
BRANCH  23  26
ATOM     26  C   LIG d   1      10.253   5.695  -1.973  0.00  0.00     0.216 C 
ATOM     27  O   LIG d   1       9.247   6.368  -2.051  0.00  0.00    -0.276 OA
ATOM     28  N   LIG d   1      11.286   6.111  -1.215  0.00  0.00    -0.301 N 
ATOM     29  C   LIG d   1      11.209   7.380  -0.477  0.00  0.00     0.015 C 
ATOM     30  C   LIG d   1      12.509   5.304  -1.106  0.00  0.00     0.015 C 
ATOM     31  C   LIG d   1      12.425   8.237  -0.842  0.00  0.00    -0.037 C 
ATOM     32  H   LIG d   1      10.295   7.907  -0.751  0.00  0.00     0.046 H 
ATOM     33  H   LIG d   1      11.212   7.180   0.594  0.00  0.00     0.046 H 
ATOM     34  C   LIG d   1      13.704   7.438  -0.585  0.00  0.00    -0.050 C 
ATOM     35  H   LIG d   1      12.373   8.512  -1.896  0.00  0.00     0.028 H 
ATOM     36  H   LIG d   1      12.431   9.140  -0.231  0.00  0.00     0.028 H 
ATOM     37  C   LIG d   1      13.712   6.188  -1.467  0.00  0.00    -0.037 C 
ATOM     38  H   LIG d   1      14.571   8.054  -0.820  0.00  0.00     0.027 H 
ATOM     39  H   LIG d   1      13.743   7.142   0.463  0.00  0.00     0.027 H 
ATOM     40  H   LIG d   1      13.649   6.481  -2.516  0.00  0.00     0.028 H 
ATOM     41  H   LIG d   1      14.634   5.631  -1.302  0.00  0.00     0.028 H 
ATOM     42  H   LIG d   1      12.615   4.938  -0.084  0.00  0.00     0.046 H 
ATOM     43  H   LIG d   1      12.452   4.461  -1.794  0.00  0.00     0.046 H 
ENDBRANCH  23  26
ENDBRANCH  15  23
BRANCH   1  44
ATOM     44  C   LIG d   1      11.851   3.819  -5.067  0.00  0.00    -0.059 C 
ATOM     45  H   LIG d   1      11.733   3.223  -4.162  0.00  0.00     0.024 H 
ATOM     46  H   LIG d   1      11.820   3.164  -5.939  0.00  0.00     0.024 H 
ATOM     47  H   LIG d   1      12.808   4.340  -5.038  0.00  0.00     0.024 H 
ENDBRANCH   1  44
BRANCH   6  48
ATOM     48  C   LIG d   1      10.429   5.220  -8.985  0.00  0.00    -0.055 C 
ATOM     49  H   LIG d   1      11.081   4.715  -9.699  0.00  0.00     0.024 H 
ATOM     50  H   LIG d   1       9.479   4.689  -8.923  0.00  0.00     0.024 H 
ATOM     51  H   LIG d   1      10.254   6.244  -9.315  0.00  0.00     0.024 H 
ENDBRANCH   6  48
BRANCH   6  52
ATOM     52  C   LIG d   1      12.278   4.262  -7.608  0.00  0.00     0.052 C 
ATOM     53  H   LIG d   1      13.039   4.615  -6.913  0.00  0.00     0.056 H 
ATOM     54  H   LIG d   1      11.935   3.274  -7.300  0.00  0.00     0.056 H 
BRANCH  52  55
ATOM     55  O   LIG d   1      12.832   4.185  -8.923  0.00  0.00    -0.394 OA
ATOM     56  H   LIG d   1      13.500   4.859  -9.108  0.00  0.00     0.209 HD
ENDBRANCH  52  55
ENDBRANCH   6  52
BRANCH  13  57
ATOM     57  N   LIG d   1       6.876   0.550  -3.098  0.00  0.00    -0.265 N 
ATOM     58  C   LIG d   1       5.576   0.821  -2.870  0.00  0.00     0.219 C 
ATOM     59  O   LIG d   1       5.068   1.809  -3.357  0.00  0.00    -0.275 OA
ATOM     60  H   LIG d   1       7.282  -0.240  -2.709  0.00  0.00     0.157 HD
BRANCH  58  61
ATOM     61  C   LIG d   1       4.753  -0.104  -2.011  0.00  0.00     0.029 C 
ATOM     62  H   LIG d   1       5.413  -0.692  -1.373  0.00  0.00     0.036 H 
ATOM     63  H   LIG d   1       4.076   0.483  -1.390  0.00  0.00     0.036 H 
BRANCH  61  64
ATOM     64  C   LIG d   1       3.940  -1.043  -2.905  0.00  0.00    -0.029 C 
BRANCH  64  65
ATOM     65  C   LIG d   1       3.828  -2.414  -2.235  0.00  0.00    -0.060 C 
ATOM     66  H   LIG d   1       3.034  -2.988  -2.713  0.00  0.00     0.024 H 
ATOM     67  H   LIG d   1       4.773  -2.946  -2.338  0.00  0.00     0.024 H 
ATOM     68  H   LIG d   1       3.596  -2.284  -1.178  0.00  0.00     0.024 H 
ENDBRANCH  64  65
BRANCH  64  69
ATOM     69  C   LIG d   1       2.540  -0.463  -3.114  0.00  0.00    -0.060 C 
ATOM     70  H   LIG d   1       1.792  -1.218  -2.867  0.00  0.00     0.024 H 
ATOM     71  H   LIG d   1       2.406   0.406  -2.468  0.00  0.00     0.024 H 
ATOM     72  H   LIG d   1       2.422  -0.163  -4.155  0.00  0.00     0.024 H 
ENDBRANCH  64  69
BRANCH  64  73
ATOM     73  C   LIG d   1       4.638  -1.191  -4.258  0.00  0.00    -0.060 C 
ATOM     74  H   LIG d   1       3.944  -0.926  -5.056  0.00  0.00     0.024 H 
ATOM     75  H   LIG d   1       5.503  -0.530  -4.294  0.00  0.00     0.024 H 
ATOM     76  H   LIG d   1       4.963  -2.223  -4.388  0.00  0.00     0.024 H 
ENDBRANCH  64  73
ENDBRANCH  61  64
ENDBRANCH  58  61
ENDBRANCH  13  57
BRANCH   4  77
ATOM     77  O   LIG d   1      12.537   7.043  -8.310  0.00  0.00    -0.391 OA
ATOM     78  H   LIG d   1      12.527   7.990  -8.502  0.00  0.00     0.210 HD
ENDBRANCH   4  77
TORSDOF 13
ENDMDL
MODEL 3
REMARK VINA RESULT:      -5.9      5.112      8.677
REMARK  13 active torsions:
REMARK  status: ('A' for Active; 'I' for Inactive)
REMARK    1  A    between atoms: C_1  and  C_2 
REMARK    2  A    between atoms: C_5  and  O_38 
REMARK    3  A    between atoms: C_7  and  C_35 
REMARK    4  A    between atoms: C_7  and  C_36 
REMARK    5  A    between atoms: C_14  and  N_16 
REMARK       I    between atoms: N_16  and  C_17 
REMARK    6  A    between atoms: C_17  and  C_19 
REMARK    7  A    between atoms: C_19  and  C_20 
REMARK    8  A    between atoms: C_20  and  C_21 
REMARK    9  A    between atoms: C_20  and  C_22 
REMARK   10  A    between atoms: C_20  and  C_23 
REMARK   11  A    between atoms: C_24  and  C_26 
REMARK   12  A    between atoms: C_26  and  C_27 
REMARK       I    between atoms: C_27  and  N_29 
REMARK   13  A    between atoms: C_36  and  O_37 
ROOT
ATOM      1  C   LIG d   1       4.512  -1.945  -7.290  0.00  0.00    -0.019 C 
ATOM      2  C   LIG d   1       3.934  -0.746  -6.531  0.00  0.00    -0.044 C 
ATOM      3  C   LIG d   1       3.802   0.460  -7.460  0.00  0.00    -0.026 C 
ATOM      4  C   LIG d   1       2.851   0.097  -8.603  0.00  0.00     0.063 C 
ATOM      5  H   LIG d   1       1.883  -0.193  -8.196  0.00  0.00     0.060 H 
ATOM      6  C   LIG d   1       3.448  -1.067  -9.390  0.00  0.00     0.021 C 
ATOM      7  C   LIG d   1       3.618  -2.290  -8.486  0.00  0.00    -0.021 C 
ATOM      8  H   LIG d   1       2.648  -2.643  -8.136  0.00  0.00     0.032 H 
ATOM      9  C   LIG d   1       4.306  -3.385  -9.323  0.00  0.00    -0.016 C 
ATOM     10  C   LIG d   1       4.806  -4.451  -8.412  0.00  0.00     0.015 A 
ATOM     11  C   LIG d   1       4.949  -4.391  -7.064  0.00  0.00     0.058 A 
ATOM     12  N   LIG d   1       5.424  -5.488  -6.477  0.00  0.00    -0.229 NA
ATOM     13  C   LIG d   1       5.736  -6.570  -7.161  0.00  0.00     0.165 A 
ATOM     14  S   LIG d   1       5.360  -6.092  -8.790  0.00  0.00    -0.057 SA
ATOM     15  C   LIG d   1       4.568  -3.125  -6.312  0.00  0.00     0.016 C 
ATOM     16  H   LIG d   1       3.592  -3.258  -5.846  0.00  0.00     0.037 H 
ATOM     17  H   LIG d   1       2.952  -1.006  -6.137  0.00  0.00     0.027 H 
ATOM     18  H   LIG d   1       4.595  -0.491  -5.701  0.00  0.00     0.027 H 
ATOM     19  H   LIG d   1       3.401   1.307  -6.904  0.00  0.00     0.029 H 
ATOM     20  H   LIG d   1       4.781   0.717  -7.865  0.00  0.00     0.029 H 
ATOM     21  H   LIG d   1       5.143  -2.954  -9.872  0.00  0.00     0.032 H 
ATOM     22  H   LIG d   1       3.590  -3.812 -10.024  0.00  0.00     0.032 H 
ENDROOT
BRANCH  15  23
ATOM     23  C   LIG d   1       5.614  -2.841  -5.231  0.00  0.00     0.033 C 
ATOM     24  H   LIG d   1       6.280  -3.699  -5.135  0.00  0.00     0.036 H 
ATOM     25  H   LIG d   1       6.194  -1.961  -5.508  0.00  0.00     0.036 H 
BRANCH  23  26
ATOM     26  C   LIG d   1       4.922  -2.593  -3.915  0.00  0.00     0.216 C 
ATOM     27  O   LIG d   1       4.066  -3.358  -3.527  0.00  0.00    -0.276 OA
ATOM     28  N   LIG d   1       5.257  -1.520  -3.170  0.00  0.00    -0.301 N 
ATOM     29  C   LIG d   1       4.592  -1.265  -1.885  0.00  0.00     0.015 C 
ATOM     30  C   LIG d   1       6.297  -0.588  -3.625  0.00  0.00     0.015 C 
ATOM     31  C   LIG d   1       4.034   0.161  -1.894  0.00  0.00    -0.037 C 
ATOM     32  H   LIG d   1       3.776  -1.975  -1.748  0.00  0.00     0.046 H 
ATOM     33  H   LIG d   1       5.312  -1.370  -1.074  0.00  0.00     0.046 H 
ATOM     34  C   LIG d   1       5.160   1.144  -2.225  0.00  0.00    -0.050 C 
ATOM     35  H   LIG d   1       3.249   0.241  -2.646  0.00  0.00     0.028 H 
ATOM     36  H   LIG d   1       3.622   0.398  -0.913  0.00  0.00     0.028 H 
ATOM     37  C   LIG d   1       5.716   0.835  -3.616  0.00  0.00    -0.037 C 
ATOM     38  H   LIG d   1       4.771   2.162  -2.207  0.00  0.00     0.027 H 
ATOM     39  H   LIG d   1       5.955   1.046  -1.486  0.00  0.00     0.027 H 
ATOM     40  H   LIG d   1       4.916   0.907  -4.353  0.00  0.00     0.028 H 
ATOM     41  H   LIG d   1       6.501   1.549  -3.862  0.00  0.00     0.028 H 
ATOM     42  H   LIG d   1       7.154  -0.640  -2.952  0.00  0.00     0.046 H 
ATOM     43  H   LIG d   1       6.607  -0.851  -4.636  0.00  0.00     0.046 H 
ENDBRANCH  23  26
ENDBRANCH  15  23
BRANCH   1  44
ATOM     44  C   LIG d   1       5.924  -1.612  -7.776  0.00  0.00    -0.059 C 
ATOM     45  H   LIG d   1       6.598  -1.551  -6.921  0.00  0.00     0.024 H 
ATOM     46  H   LIG d   1       6.269  -2.394  -8.453  0.00  0.00     0.024 H 
ATOM     47  H   LIG d   1       5.913  -0.656  -8.300  0.00  0.00     0.024 H 
ENDBRANCH   1  44
BRANCH   6  48
ATOM     48  C   LIG d   1       2.520  -1.423 -10.553  0.00  0.00    -0.055 C 
ATOM     49  H   LIG d   1       2.103  -0.509 -10.978  0.00  0.00     0.024 H 
ATOM     50  H   LIG d   1       3.085  -1.955 -11.319  0.00  0.00     0.024 H 
ATOM     51  H   LIG d   1       1.711  -2.057 -10.191  0.00  0.00     0.024 H 
ENDBRANCH   6  48
BRANCH   6  52
ATOM     52  C   LIG d   1       4.816  -0.656  -9.942  0.00  0.00     0.052 C 
ATOM     53  H   LIG d   1       5.314  -0.002  -9.227  0.00  0.00     0.056 H 
ATOM     54  H   LIG d   1       5.423  -1.546 -10.105  0.00  0.00     0.056 H 
BRANCH  52  55
ATOM     55  O   LIG d   1       4.642   0.035 -11.180  0.00  0.00    -0.394 OA
ATOM     56  H   LIG d   1       4.003  -0.379 -11.776  0.00  0.00     0.209 HD
ENDBRANCH  52  55
ENDBRANCH   6  52
BRANCH  13  57
ATOM     57  N   LIG d   1       6.237  -7.781  -6.699  0.00  0.00    -0.265 N 
ATOM     58  C   LIG d   1       5.410  -8.829  -6.523  0.00  0.00     0.219 C 
ATOM     59  O   LIG d   1       4.227  -8.717  -6.769  0.00  0.00    -0.275 OA
ATOM     60  H   LIG d   1       7.183  -7.871  -6.502  0.00  0.00     0.157 HD
BRANCH  58  61
ATOM     61  C   LIG d   1       5.953 -10.142  -6.022  0.00  0.00     0.029 C 
ATOM     62  H   LIG d   1       5.368 -10.962  -6.440  0.00  0.00     0.036 H 
ATOM     63  H   LIG d   1       6.994 -10.246  -6.329  0.00  0.00     0.036 H 
BRANCH  61  64
ATOM     64  C   LIG d   1       5.866 -10.182  -4.495  0.00  0.00    -0.029 C 
BRANCH  64  65
ATOM     65  C   LIG d   1       6.964  -9.299  -3.898  0.00  0.00    -0.060 C 
ATOM     66  H   LIG d   1       6.510  -8.452  -3.383  0.00  0.00     0.024 H 
ATOM     67  H   LIG d   1       7.554  -9.881  -3.191  0.00  0.00     0.024 H 
ATOM     68  H   LIG d   1       7.610  -8.934  -4.697  0.00  0.00     0.024 H 
ENDBRANCH  64  65
BRANCH  64  69
ATOM     69  C   LIG d   1       4.497  -9.664  -4.048  0.00  0.00    -0.060 C 
ATOM     70  H   LIG d   1       3.713 -10.223  -4.559  0.00  0.00     0.024 H 
ATOM     71  H   LIG d   1       4.393  -9.795  -2.971  0.00  0.00     0.024 H 
ATOM     72  H   LIG d   1       4.410  -8.607  -4.296  0.00  0.00     0.024 H 
ENDBRANCH  64  69
BRANCH  64  73
ATOM     73  C   LIG d   1       6.049 -11.622  -4.011  0.00  0.00    -0.060 C 
ATOM     74  H   LIG d   1       6.841 -12.100  -4.587  0.00  0.00     0.024 H 
ATOM     75  H   LIG d   1       6.320 -11.618  -2.955  0.00  0.00     0.024 H 
ATOM     76  H   LIG d   1       5.119 -12.172  -4.146  0.00  0.00     0.024 H 
ENDBRANCH  64  73
ENDBRANCH  61  64
ENDBRANCH  58  61
ENDBRANCH  13  57
BRANCH   4  77
ATOM     77  O   LIG d   1       2.688   1.225  -9.467  0.00  0.00    -0.391 OA
ATOM     78  H   LIG d   1       2.981   2.062  -9.080  0.00  0.00     0.210 HD
ENDBRANCH   4  77
TORSDOF 13
ENDMDL
MODEL 4
REMARK VINA RESULT:      -5.6      4.622      7.062
REMARK  13 active torsions:
REMARK  status: ('A' for Active; 'I' for Inactive)
REMARK    1  A    between atoms: C_1  and  C_2 
REMARK    2  A    between atoms: C_5  and  O_38 
REMARK    3  A    between atoms: C_7  and  C_35 
REMARK    4  A    between atoms: C_7  and  C_36 
REMARK    5  A    between atoms: C_14  and  N_16 
REMARK       I    between atoms: N_16  and  C_17 
REMARK    6  A    between atoms: C_17  and  C_19 
REMARK    7  A    between atoms: C_19  and  C_20 
REMARK    8  A    between atoms: C_20  and  C_21 
REMARK    9  A    between atoms: C_20  and  C_22 
REMARK   10  A    between atoms: C_20  and  C_23 
REMARK   11  A    between atoms: C_24  and  C_26 
REMARK   12  A    between atoms: C_26  and  C_27 
REMARK       I    between atoms: C_27  and  N_29 
REMARK   13  A    between atoms: C_36  and  O_37 
ROOT
ATOM      1  C   LIG d   1      10.847   6.644  -2.080  0.00  0.00    -0.019 C 
ATOM      2  C   LIG d   1      10.756   5.555  -1.007  0.00  0.00    -0.044 C 
ATOM      3  C   LIG d   1      11.524   5.974   0.245  0.00  0.00    -0.026 C 
ATOM      4  C   LIG d   1      10.904   7.261   0.795  0.00  0.00     0.063 C 
ATOM      5  H   LIG d   1       9.850   7.092   1.020  0.00  0.00     0.060 H 
ATOM      6  C   LIG d   1      11.037   8.361  -0.255  0.00  0.00     0.021 C 
ATOM      7  C   LIG d   1      10.297   7.967  -1.536  0.00  0.00    -0.021 C 
ATOM      8  H   LIG d   1       9.228   7.875  -1.345  0.00  0.00     0.032 H 
ATOM      9  C   LIG d   1      10.554   9.078  -2.572  0.00  0.00    -0.016 C 
ATOM     10  C   LIG d   1      10.159   8.586  -3.920  0.00  0.00     0.015 A 
ATOM     11  C   LIG d   1       9.910   7.306  -4.297  0.00  0.00     0.058 A 
ATOM     12  N   LIG d   1       9.575   7.127  -5.573  0.00  0.00    -0.229 NA
ATOM     13  C   LIG d   1       9.487   8.130  -6.422  0.00  0.00     0.165 A 
ATOM     14  S   LIG d   1       9.898   9.492  -5.421  0.00  0.00    -0.057 SA
ATOM     15  C   LIG d   1      10.015   6.178  -3.281  0.00  0.00     0.016 C 
ATOM     16  H   LIG d   1       9.017   5.898  -2.945  0.00  0.00     0.037 H 
ATOM     17  H   LIG d   1       9.710   5.390  -0.748  0.00  0.00     0.027 H 
ATOM     18  H   LIG d   1      11.178   4.628  -1.396  0.00  0.00     0.027 H 
ATOM     19  H   LIG d   1      11.459   5.186   0.995  0.00  0.00     0.029 H 
ATOM     20  H   LIG d   1      12.569   6.152  -0.011  0.00  0.00     0.029 H 
ATOM     21  H   LIG d   1      11.612   9.338  -2.574  0.00  0.00     0.032 H 
ATOM     22  H   LIG d   1       9.962   9.957  -2.318  0.00  0.00     0.032 H 
ENDROOT
BRANCH  15  23
ATOM     23  C   LIG d   1      10.691   4.969  -3.931  0.00  0.00     0.033 C 
ATOM     24  H   LIG d   1      11.038   5.239  -4.929  0.00  0.00     0.036 H 
ATOM     25  H   LIG d   1      11.542   4.658  -3.324  0.00  0.00     0.036 H 
BRANCH  23  26
ATOM     26  C   LIG d   1       9.705   3.835  -4.033  0.00  0.00     0.216 C 
ATOM     27  O   LIG d   1       9.261   3.326  -3.026  0.00  0.00    -0.276 OA
ATOM     28  N   LIG d   1       9.314   3.388  -5.243  0.00  0.00    -0.301 N 
ATOM     29  C   LIG d   1       8.352   2.283  -5.357  0.00  0.00     0.015 C 
ATOM     30  C   LIG d   1       9.838   3.999  -6.472  0.00  0.00     0.015 C 
ATOM     31  C   LIG d   1       8.954   1.197  -6.255  0.00  0.00    -0.037 C 
ATOM     32  H   LIG d   1       8.150   1.870  -4.369  0.00  0.00     0.046 H 
ATOM     33  H   LIG d   1       7.426   2.650  -5.800  0.00  0.00     0.046 H 
ATOM     34  C   LIG d   1       9.364   1.815  -7.594  0.00  0.00    -0.050 C 
ATOM     35  H   LIG d   1       9.831   0.768  -5.769  0.00  0.00     0.028 H 
ATOM     36  H   LIG d   1       8.214   0.415  -6.427  0.00  0.00     0.028 H 
ATOM     37  C   LIG d   1      10.427   2.889  -7.357  0.00  0.00    -0.037 C 
ATOM     38  H   LIG d   1       9.769   1.039  -8.243  0.00  0.00     0.027 H 
ATOM     39  H   LIG d   1       8.492   2.266  -8.067  0.00  0.00     0.027 H 
ATOM     40  H   LIG d   1      11.290   2.445  -6.861  0.00  0.00     0.028 H 
ATOM     41  H   LIG d   1      10.736   3.313  -8.312  0.00  0.00     0.028 H 
ATOM     42  H   LIG d   1       9.030   4.503  -7.002  0.00  0.00     0.046 H 
ATOM     43  H   LIG d   1      10.617   4.719  -6.219  0.00  0.00     0.046 H 
ENDBRANCH  23  26
ENDBRANCH  15  23
BRANCH   1  44
ATOM     44  C   LIG d   1      12.306   6.824  -2.505  0.00  0.00    -0.059 C 
ATOM     45  H   LIG d   1      12.823   5.867  -2.446  0.00  0.00     0.024 H 
ATOM     46  H   LIG d   1      12.343   7.194  -3.531  0.00  0.00     0.024 H 
ATOM     47  H   LIG d   1      12.792   7.541  -1.843  0.00  0.00     0.024 H 
ENDBRANCH   1  44
BRANCH   6  48
ATOM     48  C   LIG d   1      10.444   9.660   0.293  0.00  0.00    -0.055 C 
ATOM     49  H   LIG d   1       9.387   9.511   0.517  0.00  0.00     0.024 H 
ATOM     50  H   LIG d   1      10.972   9.945   1.203  0.00  0.00     0.024 H 
ATOM     51  H   LIG d   1      10.549  10.450  -0.452  0.00  0.00     0.024 H 
ENDBRANCH   6  48
BRANCH   6  52
ATOM     52  C   LIG d   1      12.518   8.577  -0.577  0.00  0.00     0.052 C 
ATOM     53  H   LIG d   1      13.050   7.629  -0.490  0.00  0.00     0.056 H 
ATOM     54  H   LIG d   1      12.617   8.958  -1.593  0.00  0.00     0.056 H 
BRANCH  52  55
ATOM     55  O   LIG d   1      13.073   9.520   0.342  0.00  0.00    -0.394 OA
ATOM     56  H   LIG d   1      13.575  10.231  -0.080  0.00  0.00     0.209 HD
ENDBRANCH  52  55
ENDBRANCH   6  52
BRANCH  13  57
ATOM     57  N   LIG d   1       9.153   8.106  -7.771  0.00  0.00    -0.265 N 
ATOM     58  C   LIG d   1      10.104   7.871  -8.696  0.00  0.00     0.219 C 
ATOM     59  O   LIG d   1      11.252   7.681  -8.352  0.00  0.00    -0.275 OA
ATOM     60  H   LIG d   1       8.236   8.258  -8.046  0.00  0.00     0.157 HD
BRANCH  58  61
ATOM     61  C   LIG d   1       9.743   7.845 -10.158  0.00  0.00     0.029 C 
ATOM     62  H   LIG d   1       8.835   8.427 -10.320  0.00  0.00     0.036 H 
ATOM     63  H   LIG d   1      10.558   8.273 -10.742  0.00  0.00     0.036 H 
BRANCH  61  64
ATOM     64  C   LIG d   1       9.505   6.399 -10.600  0.00  0.00    -0.029 C 
BRANCH  64  65
ATOM     65  C   LIG d   1      10.810   5.610 -10.485  0.00  0.00    -0.060 C 
ATOM     66  H   LIG d   1      11.070   5.487  -9.433  0.00  0.00     0.024 H 
ATOM     67  H   LIG d   1      10.684   4.630 -10.945  0.00  0.00     0.024 H 
ATOM     68  H   LIG d   1      11.608   6.151 -10.994  0.00  0.00     0.024 H 
ENDBRANCH  64  65
BRANCH  64  69
ATOM     69  C   LIG d   1       8.442   5.760  -9.704  0.00  0.00    -0.060 C 
ATOM     70  H   LIG d   1       7.755   5.174 -10.316  0.00  0.00     0.024 H 
ATOM     71  H   LIG d   1       8.926   5.108  -8.976  0.00  0.00     0.024 H 
ATOM     72  H   LIG d   1       7.890   6.540  -9.183  0.00  0.00     0.024 H 
ENDBRANCH  64  69
BRANCH  64  73
ATOM     73  C   LIG d   1       9.025   6.382 -12.053  0.00  0.00    -0.060 C 
ATOM     74  H   LIG d   1       7.965   6.634 -12.088  0.00  0.00     0.024 H 
ATOM     75  H   LIG d   1       9.592   7.112 -12.631  0.00  0.00     0.024 H 
ATOM     76  H   LIG d   1       9.176   5.389 -12.474  0.00  0.00     0.024 H 
ENDBRANCH  64  73
ENDBRANCH  61  64
ENDBRANCH  58  61
ENDBRANCH  13  57
BRANCH   4  77
ATOM     77  O   LIG d   1      11.590   7.652   1.988  0.00  0.00    -0.391 OA
ATOM     78  H   LIG d   1      11.873   6.910   2.539  0.00  0.00     0.210 HD
ENDBRANCH   4  77
TORSDOF 13
ENDMDL
MODEL 5
REMARK VINA RESULT:      -5.6      3.380      6.311
REMARK  13 active torsions:
REMARK  status: ('A' for Active; 'I' for Inactive)
REMARK    1  A    between atoms: C_1  and  C_2 
REMARK    2  A    between atoms: C_5  and  O_38 
REMARK    3  A    between atoms: C_7  and  C_35 
REMARK    4  A    between atoms: C_7  and  C_36 
REMARK    5  A    between atoms: C_14  and  N_16 
REMARK       I    between atoms: N_16  and  C_17 
REMARK    6  A    between atoms: C_17  and  C_19 
REMARK    7  A    between atoms: C_19  and  C_20 
REMARK    8  A    between atoms: C_20  and  C_21 
REMARK    9  A    between atoms: C_20  and  C_22 
REMARK   10  A    between atoms: C_20  and  C_23 
REMARK   11  A    between atoms: C_24  and  C_26 
REMARK   12  A    between atoms: C_26  and  C_27 
REMARK       I    between atoms: C_27  and  N_29 
REMARK   13  A    between atoms: C_36  and  O_37 
ROOT
ATOM      1  C   LIG d   1      11.796   3.673  -4.603  0.00  0.00    -0.019 C 
ATOM      2  C   LIG d   1      12.663   4.935  -4.552  0.00  0.00    -0.044 C 
ATOM      3  C   LIG d   1      14.076   4.631  -5.046  0.00  0.00    -0.026 C 
ATOM      4  C   LIG d   1      13.997   4.146  -6.496  0.00  0.00     0.063 C 
ATOM      5  H   LIG d   1      13.521   4.910  -7.112  0.00  0.00     0.060 H 
ATOM      6  C   LIG d   1      13.173   2.862  -6.541  0.00  0.00     0.021 C 
ATOM      7  C   LIG d   1      11.753   3.121  -6.031  0.00  0.00    -0.021 C 
ATOM      8  H   LIG d   1      11.235   3.822  -6.686  0.00  0.00     0.032 H 
ATOM      9  C   LIG d   1      11.017   1.767  -6.021  0.00  0.00    -0.016 C 
ATOM     10  C   LIG d   1       9.771   1.897  -5.217  0.00  0.00     0.015 A 
ATOM     11  C   LIG d   1       9.437   2.895  -4.360  0.00  0.00     0.058 A 
ATOM     12  N   LIG d   1       8.257   2.775  -3.756  0.00  0.00    -0.229 NA
ATOM     13  C   LIG d   1       7.458   1.751  -3.975  0.00  0.00     0.165 A 
ATOM     14  S   LIG d   1       8.368   0.818  -5.125  0.00  0.00    -0.057 SA
ATOM     15  C   LIG d   1      10.386   4.064  -4.143  0.00  0.00     0.016 C 
ATOM     16  H   LIG d   1      10.042   4.924  -4.718  0.00  0.00     0.037 H 
ATOM     17  H   LIG d   1      12.218   5.704  -5.184  0.00  0.00     0.027 H 
ATOM     18  H   LIG d   1      12.710   5.300  -3.526  0.00  0.00     0.027 H 
ATOM     19  H   LIG d   1      14.683   5.535  -4.994  0.00  0.00     0.029 H 
ATOM     20  H   LIG d   1      14.521   3.854  -4.424  0.00  0.00     0.029 H 
ATOM     21  H   LIG d   1      11.659   1.006  -5.578  0.00  0.00     0.032 H 
ATOM     22  H   LIG d   1      10.764   1.482  -7.042  0.00  0.00     0.032 H 
ENDROOT
BRANCH  15  23
ATOM     23  C   LIG d   1      10.416   4.425  -2.656  0.00  0.00     0.033 C 
ATOM     24  H   LIG d   1       9.811   3.713  -2.096  0.00  0.00     0.036 H 
ATOM     25  H   LIG d   1      11.445   4.390  -2.294  0.00  0.00     0.036 H 
BRANCH  23  26
ATOM     26  C   LIG d   1       9.864   5.814  -2.464  0.00  0.00     0.216 C 
ATOM     27  O   LIG d   1       9.254   6.353  -3.363  0.00  0.00    -0.276 OA
ATOM     28  N   LIG d   1      10.047   6.456  -1.293  0.00  0.00    -0.301 N 
ATOM     29  C   LIG d   1       9.514   7.810  -1.091  0.00  0.00     0.015 C 
ATOM     30  C   LIG d   1      10.779   5.813  -0.194  0.00  0.00     0.015 C 
ATOM     31  C   LIG d   1      10.653   8.724  -0.629  0.00  0.00    -0.037 C 
ATOM     32  H   LIG d   1       9.103   8.185  -2.029  0.00  0.00     0.046 H 
ATOM     33  H   LIG d   1       8.734   7.786  -0.330  0.00  0.00     0.046 H 
ATOM     34  C   LIG d   1      11.318   8.119   0.610  0.00  0.00    -0.050 C 
ATOM     35  H   LIG d   1      11.390   8.820  -1.427  0.00  0.00     0.028 H 
ATOM     36  H   LIG d   1      10.254   9.708  -0.383  0.00  0.00     0.028 H 
ATOM     37  C   LIG d   1      11.908   6.753   0.257  0.00  0.00    -0.037 C 
ATOM     38  H   LIG d   1      12.112   8.780   0.955  0.00  0.00     0.027 H 
ATOM     39  H   LIG d   1      10.575   8.001   1.398  0.00  0.00     0.027 H 
ATOM     40  H   LIG d   1      12.634   6.865  -0.549  0.00  0.00     0.028 H 
ATOM     41  H   LIG d   1      12.402   6.332   1.133  0.00  0.00     0.028 H 
ATOM     42  H   LIG d   1      10.099   5.629   0.639  0.00  0.00     0.046 H 
ATOM     43  H   LIG d   1      11.202   4.869  -0.538  0.00  0.00     0.046 H 
ENDBRANCH  23  26
ENDBRANCH  15  23
BRANCH   1  44
ATOM     44  C   LIG d   1      12.371   2.618  -3.655  0.00  0.00    -0.059 C 
ATOM     45  H   LIG d   1      11.963   2.767  -2.655  0.00  0.00     0.024 H 
ATOM     46  H   LIG d   1      12.101   1.623  -4.012  0.00  0.00     0.024 H 
ATOM     47  H   LIG d   1      13.456   2.711  -3.623  0.00  0.00     0.024 H 
ENDBRANCH   1  44
BRANCH   6  48
ATOM     48  C   LIG d   1      13.108   2.352  -7.982  0.00  0.00    -0.055 C 
ATOM     49  H   LIG d   1      12.425   1.503  -8.037  0.00  0.00     0.024 H 
ATOM     50  H   LIG d   1      12.749   3.149  -8.634  0.00  0.00     0.024 H 
ATOM     51  H   LIG d   1      14.102   2.039  -8.303  0.00  0.00     0.024 H 
ENDBRANCH   6  48
BRANCH   6  52
ATOM     52  C   LIG d   1      13.838   1.802  -5.659  0.00  0.00     0.052 C 
ATOM     53  H   LIG d   1      14.356   2.291  -4.834  0.00  0.00     0.056 H 
ATOM     54  H   LIG d   1      13.077   1.130  -5.264  0.00  0.00     0.056 H 
BRANCH  52  55
ATOM     55  O   LIG d   1      14.777   1.056  -6.436  0.00  0.00    -0.394 OA
ATOM     56  H   LIG d   1      14.467   0.175  -6.687  0.00  0.00     0.209 HD
ENDBRANCH  52  55
ENDBRANCH   6  52
BRANCH  13  57
ATOM     57  N   LIG d   1       6.208   1.486  -3.427  0.00  0.00    -0.265 N 
ATOM     58  C   LIG d   1       5.957   0.283  -2.875  0.00  0.00     0.219 C 
ATOM     59  O   LIG d   1       6.821  -0.569  -2.856  0.00  0.00    -0.275 OA
ATOM     60  H   LIG d   1       5.518   2.166  -3.442  0.00  0.00     0.157 HD
BRANCH  58  61
ATOM     61  C   LIG d   1       4.603  -0.006  -2.280  0.00  0.00     0.029 C 
ATOM     62  H   LIG d   1       4.726  -0.446  -1.291  0.00  0.00     0.036 H 
ATOM     63  H   LIG d   1       4.037   0.922  -2.197  0.00  0.00     0.036 H 
BRANCH  61  64
ATOM     64  C   LIG d   1       3.847  -0.984  -3.182  0.00  0.00    -0.029 C 
BRANCH  64  65
ATOM     65  C   LIG d   1       2.370  -0.590  -3.237  0.00  0.00    -0.060 C 
ATOM     66  H   LIG d   1       1.833  -1.079  -2.424  0.00  0.00     0.024 H 
ATOM     67  H   LIG d   1       2.279   0.491  -3.135  0.00  0.00     0.024 H 
ATOM     68  H   LIG d   1       1.946  -0.902  -4.192  0.00  0.00     0.024 H 
ENDBRANCH  64  65
BRANCH  64  69
ATOM     69  C   LIG d   1       4.439  -0.939  -4.593  0.00  0.00    -0.060 C 
ATOM     70  H   LIG d   1       5.518  -1.091  -4.539  0.00  0.00     0.024 H 
ATOM     71  H   LIG d   1       3.991  -1.727  -5.199  0.00  0.00     0.024 H 
ATOM     72  H   LIG d   1       4.230   0.030  -5.044  0.00  0.00     0.024 H 
ENDBRANCH  64  69
BRANCH  64  73
ATOM     73  C   LIG d   1       3.977  -2.401  -2.620  0.00  0.00    -0.060 C 
ATOM     74  H   LIG d   1       4.969  -2.531  -2.189  0.00  0.00     0.024 H 
ATOM     75  H   LIG d   1       3.222  -2.555  -1.848  0.00  0.00     0.024 H 
ATOM     76  H   LIG d   1       3.831  -3.125  -3.421  0.00  0.00     0.024 H 
ENDBRANCH  64  73
ENDBRANCH  61  64
ENDBRANCH  58  61
ENDBRANCH  13  57
BRANCH   4  77
ATOM     77  O   LIG d   1      15.314   3.888  -6.988  0.00  0.00    -0.391 OA
ATOM     78  H   LIG d   1      15.911   3.505  -6.331  0.00  0.00     0.210 HD
ENDBRANCH   4  77
TORSDOF 13
ENDMDL
MODEL 6
REMARK VINA RESULT:      -5.5      3.181      6.403
REMARK  13 active torsions:
REMARK  status: ('A' for Active; 'I' for Inactive)
REMARK    1  A    between atoms: C_1  and  C_2 
REMARK    2  A    between atoms: C_5  and  O_38 
REMARK    3  A    between atoms: C_7  and  C_35 
REMARK    4  A    between atoms: C_7  and  C_36 
REMARK    5  A    between atoms: C_14  and  N_16 
REMARK       I    between atoms: N_16  and  C_17 
REMARK    6  A    between atoms: C_17  and  C_19 
REMARK    7  A    between atoms: C_19  and  C_20 
REMARK    8  A    between atoms: C_20  and  C_21 
REMARK    9  A    between atoms: C_20  and  C_22 
REMARK   10  A    between atoms: C_20  and  C_23 
REMARK   11  A    between atoms: C_24  and  C_26 
REMARK   12  A    between atoms: C_26  and  C_27 
REMARK       I    between atoms: C_27  and  N_29 
REMARK   13  A    between atoms: C_36  and  O_37 
ROOT
ATOM      1  C   LIG d   1      10.581   4.956  -6.974  0.00  0.00    -0.019 C 
ATOM      2  C   LIG d   1      11.152   6.321  -6.575  0.00  0.00    -0.044 C 
ATOM      3  C   LIG d   1      11.837   6.982  -7.769  0.00  0.00    -0.026 C 
ATOM      4  C   LIG d   1      10.803   7.186  -8.880  0.00  0.00     0.063 C 
ATOM      5  H   LIG d   1       9.984   7.802  -8.507  0.00  0.00     0.060 H 
ATOM      6  C   LIG d   1      10.269   5.823  -9.312  0.00  0.00     0.021 C 
ATOM      7  C   LIG d   1       9.592   5.118  -8.134  0.00  0.00    -0.021 C 
ATOM      8  H   LIG d   1       8.720   5.681  -7.803  0.00  0.00     0.032 H 
ATOM      9  C   LIG d   1       9.163   3.721  -8.622  0.00  0.00    -0.016 C 
ATOM     10  C   LIG d   1       8.825   2.877  -7.444  0.00  0.00     0.015 A 
ATOM     11  C   LIG d   1       9.116   3.116  -6.140  0.00  0.00     0.058 A 
ATOM     12  N   LIG d   1       8.702   2.197  -5.271  0.00  0.00    -0.229 NA
ATOM     13  C   LIG d   1       8.046   1.119  -5.649  0.00  0.00     0.165 A 
ATOM     14  S   LIG d   1       7.958   1.332  -7.373  0.00  0.00    -0.057 SA
ATOM     15  C   LIG d   1       9.868   4.378  -5.745  0.00  0.00     0.016 C 
ATOM     16  H   LIG d   1       9.165   5.113  -5.355  0.00  0.00     0.037 H 
ATOM     17  H   LIG d   1      10.343   6.962  -6.225  0.00  0.00     0.027 H 
ATOM     18  H   LIG d   1      11.876   6.188  -5.771  0.00  0.00     0.027 H 
ATOM     19  H   LIG d   1      12.247   7.946  -7.468  0.00  0.00     0.029 H 
ATOM     20  H   LIG d   1      12.640   6.338  -8.131  0.00  0.00     0.029 H 
ATOM     21  H   LIG d   1       9.981   3.261  -9.177  0.00  0.00     0.032 H 
ATOM     22  H   LIG d   1       8.290   3.813  -9.267  0.00  0.00     0.032 H 
ENDROOT
BRANCH  15  23
ATOM     23  C   LIG d   1      10.901   4.040  -4.669  0.00  0.00     0.033 C 
ATOM     24  H   LIG d   1      11.116   2.971  -4.694  0.00  0.00     0.036 H 
ATOM     25  H   LIG d   1      11.819   4.598  -4.857  0.00  0.00     0.036 H 
BRANCH  23  26
ATOM     26  C   LIG d   1      10.356   4.410  -3.314  0.00  0.00     0.216 C 
ATOM     27  O   LIG d   1       9.432   3.784  -2.840  0.00  0.00    -0.276 OA
ATOM     28  N   LIG d   1      10.897   5.438  -2.629  0.00  0.00    -0.301 N 
ATOM     29  C   LIG d   1      10.376   5.811  -1.306  0.00  0.00     0.015 C 
ATOM     30  C   LIG d   1      12.020   6.202  -3.187  0.00  0.00     0.015 C 
ATOM     31  C   LIG d   1      10.027   7.302  -1.317  0.00  0.00    -0.037 C 
ATOM     32  H   LIG d   1       9.481   5.228  -1.088  0.00  0.00     0.046 H 
ATOM     33  H   LIG d   1      11.134   5.619  -0.548  0.00  0.00     0.046 H 
ATOM     34  C   LIG d   1      11.252   8.106  -1.760  0.00  0.00    -0.050 C 
ATOM     35  H   LIG d   1       9.206   7.479  -2.012  0.00  0.00     0.028 H 
ATOM     36  H   LIG d   1       9.730   7.615  -0.316  0.00  0.00     0.028 H 
ATOM     37  C   LIG d   1      11.649   7.693  -3.178  0.00  0.00    -0.037 C 
ATOM     38  H   LIG d   1      11.014   9.169  -1.744  0.00  0.00     0.027 H 
ATOM     39  H   LIG d   1      12.080   7.909  -1.080  0.00  0.00     0.027 H 
ATOM     40  H   LIG d   1      10.813   7.866  -3.856  0.00  0.00     0.028 H 
ATOM     41  H   LIG d   1      12.506   8.282  -3.503  0.00  0.00     0.028 H 
ATOM     42  H   LIG d   1      12.910   6.040  -2.578  0.00  0.00     0.046 H 
ATOM     43  H   LIG d   1      12.210   5.877  -4.210  0.00  0.00     0.046 H 
ENDBRANCH  23  26
ENDBRANCH  15  23
BRANCH   1  44
ATOM     44  C   LIG d   1      11.722   4.025  -7.391  0.00  0.00    -0.059 C 
ATOM     45  H   LIG d   1      11.987   3.378  -6.555  0.00  0.00     0.024 H 
ATOM     46  H   LIG d   1      11.402   3.414  -8.236  0.00  0.00     0.024 H 
ATOM     47  H   LIG d   1      12.589   4.619  -7.680  0.00  0.00     0.024 H 
ENDBRANCH   1  44
BRANCH   6  48
ATOM     48  C   LIG d   1       9.253   6.012 -10.439  0.00  0.00    -0.055 C 
ATOM     49  H   LIG d   1       8.655   5.105 -10.546  0.00  0.00     0.024 H 
ATOM     50  H   LIG d   1       8.598   6.852 -10.203  0.00  0.00     0.024 H 
ATOM     51  H   LIG d   1       9.778   6.212 -11.373  0.00  0.00     0.024 H 
ENDBRANCH   6  48
BRANCH   6  52
ATOM     52  C   LIG d   1      11.429   4.961  -9.815  0.00  0.00     0.052 C 
ATOM     53  H   LIG d   1      12.341   5.236  -9.287  0.00  0.00     0.056 H 
ATOM     54  H   LIG d   1      11.206   3.910  -9.631  0.00  0.00     0.056 H 
BRANCH  52  55
ATOM     55  O   LIG d   1      11.607   5.172 -11.216  0.00  0.00    -0.394 OA
ATOM     56  H   LIG d   1      10.894   5.676 -11.632  0.00  0.00     0.209 HD
ENDBRANCH  52  55
ENDBRANCH   6  52
BRANCH  13  57
ATOM     57  N   LIG d   1       7.553   0.078  -4.871  0.00  0.00    -0.265 N 
ATOM     58  C   LIG d   1       6.751   0.344  -3.822  0.00  0.00     0.219 C 
ATOM     59  O   LIG d   1       6.459   1.491  -3.556  0.00  0.00    -0.275 OA
ATOM     60  H   LIG d   1       7.787  -0.839  -5.083  0.00  0.00     0.157 HD
BRANCH  58  61
ATOM     61  C   LIG d   1       6.216  -0.783  -2.977  0.00  0.00     0.029 C 
ATOM     62  H   LIG d   1       6.420  -1.735  -3.469  0.00  0.00     0.036 H 
ATOM     63  H   LIG d   1       6.701  -0.768  -2.001  0.00  0.00     0.036 H 
BRANCH  61  64
ATOM     64  C   LIG d   1       4.706  -0.616  -2.799  0.00  0.00    -0.029 C 
BRANCH  64  65
ATOM     65  C   LIG d   1       4.433   0.476  -1.763  0.00  0.00    -0.060 C 
ATOM     66  H   LIG d   1       5.368   0.764  -1.283  0.00  0.00     0.024 H 
ATOM     67  H   LIG d   1       3.996   1.344  -2.257  0.00  0.00     0.024 H 
ATOM     68  H   LIG d   1       3.740   0.099  -1.011  0.00  0.00     0.024 H 
ENDBRANCH  64  65
BRANCH  64  69
ATOM     69  C   LIG d   1       4.074  -0.221  -4.135  0.00  0.00    -0.060 C 
ATOM     70  H   LIG d   1       4.494   0.729  -4.469  0.00  0.00     0.024 H 
ATOM     71  H   LIG d   1       4.284  -0.991  -4.878  0.00  0.00     0.024 H 
ATOM     72  H   LIG d   1       2.997  -0.118  -4.012  0.00  0.00     0.024 H 
ENDBRANCH  64  69
BRANCH  64  73
ATOM     73  C   LIG d   1       4.100  -1.937  -2.319  0.00  0.00    -0.060 C 
ATOM     74  H   LIG d   1       4.777  -2.756  -2.562  0.00  0.00     0.024 H 
ATOM     75  H   LIG d   1       3.949  -1.897  -1.241  0.00  0.00     0.024 H 
ATOM     76  H   LIG d   1       3.143  -2.099  -2.815  0.00  0.00     0.024 H 
ENDBRANCH  64  73
ENDBRANCH  61  64
ENDBRANCH  58  61
ENDBRANCH  13  57
BRANCH   4  77
ATOM     77  O   LIG d   1      11.420   7.835  -9.995  0.00  0.00    -0.391 OA
ATOM     78  H   LIG d   1      12.046   7.278 -10.477  0.00  0.00     0.210 HD
ENDBRANCH   4  77
TORSDOF 13
ENDMDL
MODEL 7
REMARK VINA RESULT:      -5.3      7.302     11.385
REMARK  13 active torsions:
REMARK  status: ('A' for Active; 'I' for Inactive)
REMARK    1  A    between atoms: C_1  and  C_2 
REMARK    2  A    between atoms: C_5  and  O_38 
REMARK    3  A    between atoms: C_7  and  C_35 
REMARK    4  A    between atoms: C_7  and  C_36 
REMARK    5  A    between atoms: C_14  and  N_16 
REMARK       I    between atoms: N_16  and  C_17 
REMARK    6  A    between atoms: C_17  and  C_19 
REMARK    7  A    between atoms: C_19  and  C_20 
REMARK    8  A    between atoms: C_20  and  C_21 
REMARK    9  A    between atoms: C_20  and  C_22 
REMARK   10  A    between atoms: C_20  and  C_23 
REMARK   11  A    between atoms: C_24  and  C_26 
REMARK   12  A    between atoms: C_26  and  C_27 
REMARK       I    between atoms: C_27  and  N_29 
REMARK   13  A    between atoms: C_36  and  O_37 
ROOT
ATOM      1  C   LIG d   1       6.681  -9.478  -5.178  0.00  0.00    -0.019 C 
ATOM      2  C   LIG d   1       7.776 -10.544  -5.075  0.00  0.00    -0.044 C 
ATOM      3  C   LIG d   1       7.155 -11.932  -4.930  0.00  0.00    -0.026 C 
ATOM      4  C   LIG d   1       6.301 -12.221  -6.168  0.00  0.00     0.063 C 
ATOM      5  H   LIG d   1       6.922 -12.159  -7.063  0.00  0.00     0.060 H 
ATOM      6  C   LIG d   1       5.181 -11.187  -6.246  0.00  0.00     0.021 C 
ATOM      7  C   LIG d   1       5.764  -9.777  -6.368  0.00  0.00    -0.021 C 
ATOM      8  H   LIG d   1       6.320  -9.675  -7.301  0.00  0.00     0.032 H 
ATOM      9  C   LIG d   1       4.582  -8.790  -6.349  0.00  0.00    -0.016 C 
ATOM     10  C   LIG d   1       5.100  -7.415  -6.113  0.00  0.00     0.015 A 
ATOM     11  C   LIG d   1       6.334  -7.056  -5.674  0.00  0.00     0.058 A 
ATOM     12  N   LIG d   1       6.550  -5.749  -5.542  0.00  0.00    -0.229 NA
ATOM     13  C   LIG d   1       5.626  -4.854  -5.822  0.00  0.00     0.165 A 
ATOM     14  S   LIG d   1       4.293  -5.851  -6.325  0.00  0.00    -0.057 SA
ATOM     15  C   LIG d   1       7.375  -8.123  -5.370  0.00  0.00     0.016 C 
ATOM     16  H   LIG d   1       8.079  -8.190  -6.198  0.00  0.00     0.037 H 
ATOM     17  H   LIG d   1       8.391 -10.517  -5.973  0.00  0.00     0.027 H 
ATOM     18  H   LIG d   1       8.401 -10.337  -4.206  0.00  0.00     0.027 H 
ATOM     19  H   LIG d   1       7.945 -12.679  -4.848  0.00  0.00     0.029 H 
ATOM     20  H   LIG d   1       6.528 -11.961  -4.039  0.00  0.00     0.029 H 
ATOM     21  H   LIG d   1       3.893  -9.061  -5.549  0.00  0.00     0.032 H 
ATOM     22  H   LIG d   1       4.062  -8.824  -7.305  0.00  0.00     0.032 H 
ENDROOT
BRANCH  15  23
ATOM     23  C   LIG d   1       8.127  -7.750  -4.091  0.00  0.00     0.033 C 
ATOM     24  H   LIG d   1       7.643  -6.894  -3.621  0.00  0.00     0.036 H 
ATOM     25  H   LIG d   1       8.116  -8.595  -3.402  0.00  0.00     0.036 H 
BRANCH  23  26
ATOM     26  C   LIG d   1       9.552  -7.397  -4.430  0.00  0.00     0.216 C 
ATOM     27  O   LIG d   1      10.315  -8.259  -4.813  0.00  0.00    -0.276 OA
ATOM     28  N   LIG d   1       9.978  -6.124  -4.309  0.00  0.00    -0.301 N 
ATOM     29  C   LIG d   1      11.365  -5.766  -4.637  0.00  0.00     0.015 C 
ATOM     30  C   LIG d   1       9.065  -5.069  -3.853  0.00  0.00     0.015 C 
ATOM     31  C   LIG d   1      11.981  -5.036  -3.440  0.00  0.00    -0.037 C 
ATOM     32  H   LIG d   1      11.937  -6.670  -4.848  0.00  0.00     0.046 H 
ATOM     33  H   LIG d   1      11.377  -5.111  -5.509  0.00  0.00     0.046 H 
ATOM     34  C   LIG d   1      11.097  -3.845  -3.062  0.00  0.00    -0.050 C 
ATOM     35  H   LIG d   1      12.052  -5.719  -2.594  0.00  0.00     0.028 H 
ATOM     36  H   LIG d   1      12.977  -4.679  -3.703  0.00  0.00     0.028 H 
ATOM     37  C   LIG d   1       9.709  -4.347  -2.659  0.00  0.00    -0.037 C 
ATOM     38  H   LIG d   1      11.546  -3.310  -2.226  0.00  0.00     0.027 H 
ATOM     39  H   LIG d   1      11.006  -3.175  -3.916  0.00  0.00     0.027 H 
ATOM     40  H   LIG d   1       9.800  -5.037  -1.820  0.00  0.00     0.028 H 
ATOM     41  H   LIG d   1       9.086  -3.502  -2.367  0.00  0.00     0.028 H 
ATOM     42  H   LIG d   1       8.893  -4.359  -4.663  0.00  0.00     0.046 H 
ATOM     43  H   LIG d   1       8.118  -5.513  -3.546  0.00  0.00     0.046 H 
ENDBRANCH  23  26
ENDBRANCH  15  23
BRANCH   1  44
ATOM     44  C   LIG d   1       5.863  -9.456  -3.885  0.00  0.00    -0.059 C 
ATOM     45  H   LIG d   1       4.801  -9.516  -4.125  0.00  0.00     0.024 H 
ATOM     46  H   LIG d   1       6.142 -10.307  -3.263  0.00  0.00     0.024 H 
ATOM     47  H   LIG d   1       6.061  -8.531  -3.344  0.00  0.00     0.024 H 
ENDBRANCH   1  44
BRANCH   6  48
ATOM     48  C   LIG d   1       4.304 -11.479  -7.464  0.00  0.00    -0.055 C 
ATOM     49  H   LIG d   1       3.959 -12.513  -7.425  0.00  0.00     0.024 H 
ATOM     50  H   LIG d   1       3.444 -10.809  -7.463  0.00  0.00     0.024 H 
ATOM     51  H   LIG d   1       4.884 -11.324  -8.375  0.00  0.00     0.024 H 
ENDBRANCH   6  48
BRANCH   6  52
ATOM     52  C   LIG d   1       4.328 -11.269  -4.977  0.00  0.00     0.052 C 
ATOM     53  H   LIG d   1       4.848 -11.866  -4.228  0.00  0.00     0.056 H 
ATOM     54  H   LIG d   1       4.158 -10.265  -4.589  0.00  0.00     0.056 H 
BRANCH  52  55
ATOM     55  O   LIG d   1       3.073 -11.878  -5.286  0.00  0.00    -0.394 OA
ATOM     56  H   LIG d   1       2.550 -12.116  -4.508  0.00  0.00     0.209 HD
ENDBRANCH  52  55
ENDBRANCH   6  52
BRANCH  13  57
ATOM     57  N   LIG d   1       5.697  -3.469  -5.736  0.00  0.00    -0.265 N 
ATOM     58  C   LIG d   1       4.992  -2.815  -4.793  0.00  0.00     0.219 C 
ATOM     59  O   LIG d   1       4.295  -3.435  -4.018  0.00  0.00    -0.275 OA
ATOM     60  H   LIG d   1       6.255  -2.973  -6.356  0.00  0.00     0.157 HD
BRANCH  58  61
ATOM     61  C   LIG d   1       5.069  -1.313  -4.700  0.00  0.00     0.029 C 
ATOM     62  H   LIG d   1       5.675  -0.928  -5.520  0.00  0.00     0.036 H 
ATOM     63  H   LIG d   1       4.065  -0.893  -4.761  0.00  0.00     0.036 H 
BRANCH  61  64
ATOM     64  C   LIG d   1       5.707  -0.916  -3.366  0.00  0.00    -0.029 C 
BRANCH  64  65
ATOM     65  C   LIG d   1       6.170   0.541  -3.436  0.00  0.00    -0.060 C 
ATOM     66  H   LIG d   1       6.989   0.696  -2.735  0.00  0.00     0.024 H 
ATOM     67  H   LIG d   1       6.509   0.766  -4.447  0.00  0.00     0.024 H 
ATOM     68  H   LIG d   1       5.340   1.198  -3.177  0.00  0.00     0.024 H 
ENDBRANCH  64  65
BRANCH  64  69
ATOM     69  C   LIG d   1       4.679  -1.070  -2.243  0.00  0.00    -0.060 C 
ATOM     70  H   LIG d   1       3.764  -1.507  -2.645  0.00  0.00     0.024 H 
ATOM     71  H   LIG d   1       5.083  -1.723  -1.469  0.00  0.00     0.024 H 
ATOM     72  H   LIG d   1       4.458  -0.093  -1.816  0.00  0.00     0.024 H 
ENDBRANCH  64  69
BRANCH  64  73
ATOM     73  C   LIG d   1       6.909  -1.820  -3.086  0.00  0.00    -0.060 C 
ATOM     74  H   LIG d   1       7.120  -2.426  -3.967  0.00  0.00     0.024 H 
ATOM     75  H   LIG d   1       7.777  -1.206  -2.850  0.00  0.00     0.024 H 
ATOM     76  H   LIG d   1       6.684  -2.472  -2.243  0.00  0.00     0.024 H 
ENDBRANCH  64  73
ENDBRANCH  61  64
ENDBRANCH  58  61
ENDBRANCH  13  57
BRANCH   4  77
ATOM     77  O   LIG d   1       5.738 -13.531  -6.067  0.00  0.00    -0.391 OA
ATOM     78  H   LIG d   1       6.320 -14.235  -6.383  0.00  0.00     0.210 HD
ENDBRANCH   4  77
TORSDOF 13
ENDMDL
MODEL 8
REMARK VINA RESULT:      -5.3      4.916      7.304
REMARK  13 active torsions:
REMARK  status: ('A' for Active; 'I' for Inactive)
REMARK    1  A    between atoms: C_1  and  C_2 
REMARK    2  A    between atoms: C_5  and  O_38 
REMARK    3  A    between atoms: C_7  and  C_35 
REMARK    4  A    between atoms: C_7  and  C_36 
REMARK    5  A    between atoms: C_14  and  N_16 
REMARK       I    between atoms: N_16  and  C_17 
REMARK    6  A    between atoms: C_17  and  C_19 
REMARK    7  A    between atoms: C_19  and  C_20 
REMARK    8  A    between atoms: C_20  and  C_21 
REMARK    9  A    between atoms: C_20  and  C_22 
REMARK   10  A    between atoms: C_20  and  C_23 
REMARK   11  A    between atoms: C_24  and  C_26 
REMARK   12  A    between atoms: C_26  and  C_27 
REMARK       I    between atoms: C_27  and  N_29 
REMARK   13  A    between atoms: C_36  and  O_37 
ROOT
ATOM      1  C   LIG d   1      10.306   5.917  -4.103  0.00  0.00    -0.019 C 
ATOM      2  C   LIG d   1      10.094   4.626  -3.305  0.00  0.00    -0.044 C 
ATOM      3  C   LIG d   1      10.656   4.774  -1.893  0.00  0.00    -0.026 C 
ATOM      4  C   LIG d   1       9.918   5.915  -1.187  0.00  0.00     0.063 C 
ATOM      5  H   LIG d   1       8.850   5.700  -1.164  0.00  0.00     0.060 H 
ATOM      6  C   LIG d   1      10.168   7.211  -1.954  0.00  0.00     0.021 C 
ATOM      7  C   LIG d   1       9.638   7.094  -3.385  0.00  0.00    -0.021 C 
ATOM      8  H   LIG d   1       8.556   6.962  -3.381  0.00  0.00     0.032 H 
ATOM      9  C   LIG d   1      10.006   8.399  -4.117  0.00  0.00    -0.016 C 
ATOM     10  C   LIG d   1       9.831   8.201  -5.581  0.00  0.00     0.015 A 
ATOM     11  C   LIG d   1       9.683   7.028  -6.249  0.00  0.00     0.058 A 
ATOM     12  N   LIG d   1       9.546   7.121  -7.570  0.00  0.00    -0.229 NA
ATOM     13  C   LIG d   1       9.550   8.280  -8.196  0.00  0.00     0.165 A 
ATOM     14  S   LIG d   1       9.763   9.402  -6.884  0.00  0.00    -0.057 SA
ATOM     15  C   LIG d   1       9.676   5.712  -5.486  0.00  0.00     0.016 C 
ATOM     16  H   LIG d   1       8.649   5.365  -5.370  0.00  0.00     0.037 H 
ATOM     17  H   LIG d   1       9.028   4.408  -3.248  0.00  0.00     0.027 H 
ATOM     18  H   LIG d   1      10.600   3.802  -3.811  0.00  0.00     0.027 H 
ATOM     19  H   LIG d   1      10.508   3.845  -1.342  0.00  0.00     0.029 H 
ATOM     20  H   LIG d   1      11.721   5.004  -1.946  0.00  0.00     0.029 H 
ATOM     21  H   LIG d   1      11.044   8.655  -3.906  0.00  0.00     0.032 H 
ATOM     22  H   LIG d   1       9.355   9.204  -3.778  0.00  0.00     0.032 H 
ENDROOT
BRANCH  15  23
ATOM     23  C   LIG d   1      10.480   4.669  -6.264  0.00  0.00     0.033 C 
ATOM     24  H   LIG d   1      11.031   5.158  -7.067  0.00  0.00     0.036 H 
ATOM     25  H   LIG d   1      11.183   4.176  -5.591  0.00  0.00     0.036 H 
BRANCH  23  26
ATOM     26  C   LIG d   1       9.543   3.645  -6.849  0.00  0.00     0.216 C 
ATOM     27  O   LIG d   1       8.898   2.925  -6.117  0.00  0.00    -0.276 OA
ATOM     28  N   LIG d   1       9.421   3.530  -8.187  0.00  0.00    -0.301 N 
ATOM     29  C   LIG d   1       8.511   2.536  -8.772  0.00  0.00     0.015 C 
ATOM     30  C   LIG d   1      10.192   4.399  -9.086  0.00  0.00     0.015 C 
ATOM     31  C   LIG d   1       9.295   1.678  -9.770  0.00  0.00    -0.037 C 
ATOM     32  H   LIG d   1       8.105   1.902  -7.984  0.00  0.00     0.046 H 
ATOM     33  H   LIG d   1       7.698   3.046  -9.290  0.00  0.00     0.046 H 
ATOM     34  C   LIG d   1       9.977   2.586 -10.795  0.00  0.00    -0.050 C 
ATOM     35  H   LIG d   1      10.050   1.099  -9.237  0.00  0.00     0.028 H 
ATOM     36  H   LIG d   1       8.612   0.999 -10.282  0.00  0.00     0.028 H 
ATOM     37  C   LIG d   1      10.960   3.515 -10.080  0.00  0.00    -0.037 C 
ATOM     38  H   LIG d   1      10.515   1.976 -11.520  0.00  0.00     0.027 H 
ATOM     39  H   LIG d   1       9.223   3.182 -11.309  0.00  0.00     0.027 H 
ATOM     40  H   LIG d   1      11.700   2.920  -9.545  0.00  0.00     0.028 H 
ATOM     41  H   LIG d   1      11.464   4.145 -10.813  0.00  0.00     0.028 H 
ATOM     42  H   LIG d   1       9.512   5.058  -9.628  0.00  0.00     0.046 H 
ATOM     43  H   LIG d   1      10.895   4.995  -8.505  0.00  0.00     0.046 H 
ENDBRANCH  23  26
ENDBRANCH  15  23
BRANCH   1  44
ATOM     44  C   LIG d   1      11.804   6.185  -4.256  0.00  0.00    -0.059 C 
ATOM     45  H   LIG d   1      12.341   5.740  -3.419  0.00  0.00     0.024 H 
ATOM     46  H   LIG d   1      12.159   5.746  -5.190  0.00  0.00     0.024 H 
ATOM     47  H   LIG d   1      11.982   7.261  -4.271  0.00  0.00     0.024 H 
ENDBRANCH   1  44
BRANCH   6  48
ATOM     48  C   LIG d   1       9.457   8.365  -1.244  0.00  0.00    -0.055 C 
ATOM     49  H   LIG d   1       9.605   8.276  -0.167  0.00  0.00     0.024 H 
ATOM     50  H   LIG d   1       9.869   9.313  -1.590  0.00  0.00     0.024 H 
ATOM     51  H   LIG d   1       8.390   8.328  -1.468  0.00  0.00     0.024 H 
ENDBRANCH   6  48
BRANCH   6  52
ATOM     52  C   LIG d   1      11.671   7.493  -1.996  0.00  0.00     0.052 C 
ATOM     53  H   LIG d   1      12.218   6.550  -1.998  0.00  0.00     0.056 H 
ATOM     54  H   LIG d   1      11.910   8.052  -2.901  0.00  0.00     0.056 H 
BRANCH  52  55
ATOM     55  O   LIG d   1      12.046   8.259  -0.850  0.00  0.00    -0.394 OA
ATOM     56  H   LIG d   1      12.357   9.150  -1.057  0.00  0.00     0.209 HD
ENDBRANCH  52  55
ENDBRANCH   6  52
BRANCH  13  57
ATOM     57  N   LIG d   1       9.419   8.539  -9.555  0.00  0.00    -0.265 N 
ATOM     58  C   LIG d   1      10.434   8.259 -10.395  0.00  0.00     0.219 C 
ATOM     59  O   LIG d   1      11.463   7.780  -9.965  0.00  0.00    -0.275 OA
ATOM     60  H   LIG d   1       8.597   8.923  -9.898  0.00  0.00     0.157 HD
BRANCH  58  61
ATOM     61  C   LIG d   1      10.293   8.540 -11.868  0.00  0.00     0.029 C 
ATOM     62  H   LIG d   1       9.417   9.167 -12.037  0.00  0.00     0.036 H 
ATOM     63  H   LIG d   1      11.184   9.057 -12.227  0.00  0.00     0.036 H 
BRANCH  61  64
ATOM     64  C   LIG d   1      10.129   7.221 -12.627  0.00  0.00    -0.029 C 
BRANCH  64  65
ATOM     65  C   LIG d   1       9.075   6.359 -11.929  0.00  0.00    -0.060 C 
ATOM     66  H   LIG d   1       8.577   6.947 -11.158  0.00  0.00     0.024 H 
ATOM     67  H   LIG d   1       8.340   6.022 -12.660  0.00  0.00     0.024 H 
ATOM     68  H   LIG d   1       9.557   5.495 -11.473  0.00  0.00     0.024 H 
ENDBRANCH  64  65
BRANCH  64  69
ATOM     69  C   LIG d   1       9.684   7.509 -14.062  0.00  0.00    -0.060 C 
ATOM     70  H   LIG d   1       8.760   6.969 -14.271  0.00  0.00     0.024 H 
ATOM     71  H   LIG d   1       9.513   8.580 -14.181  0.00  0.00     0.024 H 
ATOM     72  H   LIG d   1      10.459   7.186 -14.755  0.00  0.00     0.024 H 
ENDBRANCH  64  69
BRANCH  64  73
ATOM     73  C   LIG d   1      11.465   6.476 -12.648  0.00  0.00    -0.060 C 
ATOM     74  H   LIG d   1      11.392   5.618 -13.317  0.00  0.00     0.024 H 
ATOM     75  H   LIG d   1      12.249   7.146 -12.999  0.00  0.00     0.024 H 
ATOM     76  H   LIG d   1      11.705   6.131 -11.642  0.00  0.00     0.024 H 
ENDBRANCH  64  73
ENDBRANCH  61  64
ENDBRANCH  58  61
ENDBRANCH  13  57
BRANCH   4  77
ATOM     77  O   LIG d   1      10.408   6.047   0.150  0.00  0.00    -0.391 OA
ATOM     78  H   LIG d   1       9.713   6.118   0.818  0.00  0.00     0.210 HD
ENDBRANCH   4  77
TORSDOF 13
ENDMDL
MODEL 9
REMARK VINA RESULT:      -5.3      4.721      8.097
REMARK  13 active torsions:
REMARK  status: ('A' for Active; 'I' for Inactive)
REMARK    1  A    between atoms: C_1  and  C_2 
REMARK    2  A    between atoms: C_5  and  O_38 
REMARK    3  A    between atoms: C_7  and  C_35 
REMARK    4  A    between atoms: C_7  and  C_36 
REMARK    5  A    between atoms: C_14  and  N_16 
REMARK       I    between atoms: N_16  and  C_17 
REMARK    6  A    between atoms: C_17  and  C_19 
REMARK    7  A    between atoms: C_19  and  C_20 
REMARK    8  A    between atoms: C_20  and  C_21 
REMARK    9  A    between atoms: C_20  and  C_22 
REMARK   10  A    between atoms: C_20  and  C_23 
REMARK   11  A    between atoms: C_24  and  C_26 
REMARK   12  A    between atoms: C_26  and  C_27 
REMARK       I    between atoms: C_27  and  N_29 
REMARK   13  A    between atoms: C_36  and  O_37 
ROOT
ATOM      1  C   LIG d   1       6.764  -0.599  -4.352  0.00  0.00    -0.019 C 
ATOM      2  C   LIG d   1       6.963   0.720  -3.598  0.00  0.00    -0.044 C 
ATOM      3  C   LIG d   1       5.617   1.293  -3.162  0.00  0.00    -0.026 C 
ATOM      4  C   LIG d   1       4.935   0.290  -2.227  0.00  0.00     0.063 C 
ATOM      5  H   LIG d   1       5.576   0.097  -1.368  0.00  0.00     0.060 H 
ATOM      6  C   LIG d   1       4.692  -1.009  -2.992  0.00  0.00     0.021 C 
ATOM      7  C   LIG d   1       6.020  -1.604  -3.467  0.00  0.00    -0.021 C 
ATOM      8  H   LIG d   1       6.640  -1.880  -2.615  0.00  0.00     0.032 H 
ATOM      9  C   LIG d   1       5.687  -2.855  -4.303  0.00  0.00    -0.016 C 
ATOM     10  C   LIG d   1       6.896  -3.263  -5.069  0.00  0.00     0.015 A 
ATOM     11  C   LIG d   1       8.023  -2.539  -5.289  0.00  0.00     0.058 A 
ATOM     12  N   LIG d   1       8.967  -3.134  -6.015  0.00  0.00    -0.229 NA
ATOM     13  C   LIG d   1       8.821  -4.354  -6.492  0.00  0.00     0.165 A 
ATOM     14  S   LIG d   1       7.237  -4.783  -5.916  0.00  0.00    -0.057 SA
ATOM     15  C   LIG d   1       8.154  -1.137  -4.714  0.00  0.00     0.016 C 
ATOM     16  H   LIG d   1       8.775  -1.169  -3.819  0.00  0.00     0.037 H 
ATOM     17  H   LIG d   1       7.581   0.542  -2.719  0.00  0.00     0.027 H 
ATOM     18  H   LIG d   1       7.466   1.436  -4.250  0.00  0.00     0.027 H 
ATOM     19  H   LIG d   1       5.774   2.235  -2.637  0.00  0.00     0.029 H 
ATOM     20  H   LIG d   1       4.990   1.461  -4.038  0.00  0.00     0.029 H 
ATOM     21  H   LIG d   1       4.877  -2.626  -4.996  0.00  0.00     0.032 H 
ATOM     22  H   LIG d   1       5.384  -3.665  -3.642  0.00  0.00     0.032 H 
ENDROOT
BRANCH  15  23
ATOM     23  C   LIG d   1       8.803  -0.219  -5.752  0.00  0.00     0.033 C 
ATOM     24  H   LIG d   1       8.953  -0.769  -6.681  0.00  0.00     0.036 H 
ATOM     25  H   LIG d   1       8.152   0.636  -5.938  0.00  0.00     0.036 H 
BRANCH  23  26
ATOM     26  C   LIG d   1      10.133   0.264  -5.234  0.00  0.00     0.216 C 
ATOM     27  O   LIG d   1      10.968  -0.535  -4.869  0.00  0.00    -0.276 OA
ATOM     28  N   LIG d   1      10.394   1.586  -5.179  0.00  0.00    -0.301 N 
ATOM     29  C   LIG d   1      11.686   2.072  -4.678  0.00  0.00     0.015 C 
ATOM     30  C   LIG d   1       9.394   2.566  -5.624  0.00  0.00     0.015 C 
ATOM     31  C   LIG d   1      11.430   3.088  -3.560  0.00  0.00    -0.037 C 
ATOM     32  H   LIG d   1      12.265   1.236  -4.285  0.00  0.00     0.046 H 
ATOM     33  H   LIG d   1      12.235   2.552  -5.488  0.00  0.00     0.046 H 
ATOM     34  C   LIG d   1      10.502   4.189  -4.079  0.00  0.00    -0.050 C 
ATOM     35  H   LIG d   1      10.962   2.587  -2.713  0.00  0.00     0.028 H 
ATOM     36  H   LIG d   1      12.376   3.529  -3.244  0.00  0.00     0.028 H 
ATOM     37  C   LIG d   1       9.163   3.577  -4.491  0.00  0.00    -0.037 C 
ATOM     38  H   LIG d   1      10.339   4.926  -3.293  0.00  0.00     0.027 H 
ATOM     39  H   LIG d   1      10.961   4.673  -4.941  0.00  0.00     0.027 H 
ATOM     40  H   LIG d   1       8.714   3.071  -3.635  0.00  0.00     0.028 H 
ATOM     41  H   LIG d   1       8.493   4.364  -4.838  0.00  0.00     0.028 H 
ATOM     42  H   LIG d   1       9.761   3.084  -6.511  0.00  0.00     0.046 H 
ATOM     43  H   LIG d   1       8.460   2.055  -5.858  0.00  0.00     0.046 H 
ENDBRANCH  23  26
ENDBRANCH  15  23
BRANCH   1  44
ATOM     44  C   LIG d   1       5.965  -0.342  -5.632  0.00  0.00    -0.059 C 
ATOM     45  H   LIG d   1       6.422   0.476  -6.188  0.00  0.00     0.024 H 
ATOM     46  H   LIG d   1       5.964  -1.243  -6.247  0.00  0.00     0.024 H 
ATOM     47  H   LIG d   1       4.939  -0.077  -5.373  0.00  0.00     0.024 H 
ENDBRANCH   1  44
BRANCH   6  48
ATOM     48  C   LIG d   1       3.987  -2.011  -2.077  0.00  0.00    -0.055 C 
ATOM     49  H   LIG d   1       3.195  -2.516  -2.632  0.00  0.00     0.024 H 
ATOM     50  H   LIG d   1       4.708  -2.749  -1.723  0.00  0.00     0.024 H 
ATOM     51  H   LIG d   1       3.556  -1.486  -1.225  0.00  0.00     0.024 H 
ENDBRANCH   6  48
BRANCH   6  52
ATOM     52  C   LIG d   1       3.806  -0.723  -4.207  0.00  0.00     0.052 C 
ATOM     53  H   LIG d   1       3.979   0.297  -4.550  0.00  0.00     0.056 H 
ATOM     54  H   LIG d   1       4.051  -1.422  -5.007  0.00  0.00     0.056 H 
BRANCH  52  55
ATOM     55  O   LIG d   1       2.433  -0.877  -3.843  0.00  0.00    -0.394 OA
ATOM     56  H   LIG d   1       1.974  -0.042  -3.678  0.00  0.00     0.209 HD
ENDBRANCH  52  55
ENDBRANCH   6  52
BRANCH  13  57
ATOM     57  N   LIG d   1       9.705  -5.104  -7.258  0.00  0.00    -0.265 N 
ATOM     58  C   LIG d   1      10.584  -5.929  -6.658  0.00  0.00     0.219 C 
ATOM     59  O   LIG d   1      10.604  -6.018  -5.448  0.00  0.00    -0.275 OA
ATOM     60  H   LIG d   1       9.689  -5.033  -8.225  0.00  0.00     0.157 HD
BRANCH  58  61
ATOM     61  C   LIG d   1      11.543  -6.742  -7.488  0.00  0.00     0.029 C 
ATOM     62  H   LIG d   1      11.892  -6.145  -8.330  0.00  0.00     0.036 H 
ATOM     63  H   LIG d   1      12.395  -7.037  -6.875  0.00  0.00     0.036 H 
BRANCH  61  64
ATOM     64  C   LIG d   1      10.833  -7.994  -8.010  0.00  0.00    -0.029 C 
BRANCH  64  65
ATOM     65  C   LIG d   1      11.854  -9.118  -8.197  0.00  0.00    -0.060 C 
ATOM     66  H   LIG d   1      12.804  -8.825  -7.749  0.00  0.00     0.024 H 
ATOM     67  H   LIG d   1      11.489 -10.024  -7.714  0.00  0.00     0.024 H 
ATOM     68  H   LIG d   1      11.997  -9.305  -9.261  0.00  0.00     0.024 H 
ENDBRANCH  64  65
BRANCH  64  69
ATOM     69  C   LIG d   1       9.769  -8.434  -7.003  0.00  0.00    -0.060 C 
ATOM     70  H   LIG d   1       9.176  -7.570  -6.699  0.00  0.00     0.024 H 
ATOM     71  H   LIG d   1       9.118  -9.177  -7.465  0.00  0.00     0.024 H 
ATOM     72  H   LIG d   1      10.252  -8.868  -6.129  0.00  0.00     0.024 H 
ENDBRANCH  64  69
BRANCH  64  73
ATOM     73  C   LIG d   1      10.168  -7.680  -9.351  0.00  0.00    -0.060 C 
ATOM     74  H   LIG d   1       9.167  -8.111  -9.370  0.00  0.00     0.024 H 
ATOM     75  H   LIG d   1      10.101  -6.600  -9.480  0.00  0.00     0.024 H 
ATOM     76  H   LIG d   1      10.761  -8.107 -10.160  0.00  0.00     0.024 H 
ENDBRANCH  64  73
ENDBRANCH  61  64
ENDBRANCH  58  61
ENDBRANCH  13  57
BRANCH   4  77
ATOM     77  O   LIG d   1       3.686   0.824  -1.781  0.00  0.00    -0.391 OA
ATOM     78  H   LIG d   1       2.930   0.244  -1.943  0.00  0.00     0.210 HD
ENDBRANCH   4  77
TORSDOF 13
ENDMDL
