MODEL 1
REMARK VINA RESULT:      -7.8      0.000      0.000
REMARK  5 active torsions:
REMARK  status: ('A' for Active; 'I' for Inactive)
REMARK    1  A    between atoms: C_2  and  C_25 
REMARK    2  A    between atoms: N_5  and  C_6 
REMARK    3  A    between atoms: C_6  and  C_7 
REMARK    4  A    between atoms: C_15  and  C_17 
REMARK       I    between atoms: C_17  and  N_19 
REMARK    5  A    between atoms: C_25  and  C_26 
ROOT
ATOM      1  C   LIG d   1       5.527   0.630  -9.094  0.00  0.00    -0.001 C 
ATOM      2  H   LIG d   1       6.397   1.277  -9.204  0.00  0.00     0.087 H 
ATOM      3  C   LIG d   1       5.029   0.202 -10.477  0.00  0.00    -0.004 C 
ATOM      4  C   LIG d   1       3.584   0.685 -10.654  0.00  0.00    -0.015 C 
ATOM      5  H   LIG d   1       3.198   0.397 -11.632  0.00  0.00     0.031 H 
ATOM      6  C   LIG d   1       3.557   2.212 -10.506  0.00  0.00    -0.009 C 
ATOM      7  C   LIG d   1       4.097   2.583  -9.122  0.00  0.00    -0.031 C 
ATOM      8  C   LIG d   1       3.285   0.503  -8.187  0.00  0.00    -0.020 C 
ATOM      9  C   LIG d   1       2.722   0.071  -9.544  0.00  0.00     0.079 C 
ATOM     10  H   LIG d   1       1.695   0.421  -9.644  0.00  0.00     0.045 H 
ATOM     11  H   LIG d   1       5.062  -0.885 -10.557  0.00  0.00     0.032 H 
ATOM     12  H   LIG d   1       5.660   0.646 -11.246  0.00  0.00     0.032 H 
ATOM     13  H   LIG d   1       4.183   2.665 -11.276  0.00  0.00     0.032 H 
ATOM     14  H   LIG d   1       2.534   2.571 -10.610  0.00  0.00     0.032 H 
ATOM     15  H   LIG d   1       4.978   3.216  -9.233  0.00  0.00     0.081 H 
ATOM     16  H   LIG d   1       3.330   3.123  -8.566  0.00  0.00     0.081 H 
ATOM     17  H   LIG d   1       2.523   1.056  -7.637  0.00  0.00     0.082 H 
ATOM     18  H   LIG d   1       3.575  -0.381  -7.617  0.00  0.00     0.082 H 
ATOM     19  N   LIG d   1       4.470   1.367  -8.369  0.00  0.00     0.239 N 
ATOM     20  H   LIG d   1       4.828   1.642  -7.447  0.00  0.00     0.204 HD
ENDROOT
BRANCH   1  21
ATOM     21  C   LIG d   1       5.913  -0.609  -8.284  0.00  0.00     0.086 C 
ATOM     22  H   LIG d   1       5.045  -1.261  -8.180  0.00  0.00     0.057 H 
ATOM     23  H   LIG d   1       6.710  -1.146  -8.798  0.00  0.00     0.057 H 
BRANCH  21  24
ATOM     24  N   LIG d   1       6.378  -0.201  -6.956  0.00  0.00    -0.246 N 
ATOM     25  C   LIG d   1       6.344  -0.958  -5.836  0.00  0.00     0.049 A 
ATOM     26  C   LIG d   1       6.869  -0.195  -4.849  0.00  0.00     0.083 A 
ATOM     27  H   LIG d   1       5.974  -1.969  -5.748  0.00  0.00     0.085 H 
ATOM     28  N   LIG d   1       7.187   0.979  -5.404  0.00  0.00    -0.135 NA
ATOM     29  N   LIG d   1       6.883   0.944  -6.655  0.00  0.00    -0.065 NA
BRANCH  26  30
ATOM     30  C   LIG d   1       7.054  -0.590  -3.407  0.00  0.00    -0.004 C 
ATOM     31  H   LIG d   1       7.513  -1.577  -3.356  0.00  0.00     0.033 H 
ATOM     32  H   LIG d   1       7.698   0.137  -2.910  0.00  0.00     0.033 H 
BRANCH  30  33
ATOM     33  C   LIG d   1       5.693  -0.625  -2.708  0.00  0.00    -0.035 C 
ATOM     34  C   LIG d   1       4.882   0.611  -3.106  0.00  0.00    -0.050 C 
ATOM     35  C   LIG d   1       3.522   0.575  -2.406  0.00  0.00    -0.053 C 
ATOM     36  H   LIG d   1       5.422   1.510  -2.807  0.00  0.00     0.027 H 
ATOM     37  H   LIG d   1       4.736   0.617  -4.186  0.00  0.00     0.027 H 
ATOM     38  C   LIG d   1       2.767  -0.687  -2.826  0.00  0.00    -0.053 C 
ATOM     39  H   LIG d   1       3.669   0.570  -1.326  0.00  0.00     0.026 H 
ATOM     40  H   LIG d   1       2.945   1.456  -2.690  0.00  0.00     0.026 H 
ATOM     41  C   LIG d   1       3.576  -1.922  -2.428  0.00  0.00    -0.053 C 
ATOM     42  H   LIG d   1       1.798  -0.712  -2.328  0.00  0.00     0.026 H 
ATOM     43  H   LIG d   1       2.620  -0.681  -3.906  0.00  0.00     0.026 H 
ATOM     44  C   LIG d   1       4.937  -1.887  -3.127  0.00  0.00    -0.050 C 
ATOM     45  H   LIG d   1       3.723  -1.928  -1.348  0.00  0.00     0.026 H 
ATOM     46  H   LIG d   1       3.038  -2.822  -2.726  0.00  0.00     0.026 H 
ATOM     47  H   LIG d   1       4.790  -1.881  -4.207  0.00  0.00     0.027 H 
ATOM     48  H   LIG d   1       5.514  -2.767  -2.843  0.00  0.00     0.027 H 
ATOM     49  H   LIG d   1       5.839  -0.630  -1.628  0.00  0.00     0.030 H 
ENDBRANCH  30  33
ENDBRANCH  26  30
ENDBRANCH  21  24
ENDBRANCH   1  21
BRANCH   9  50
ATOM     50  C   LIG d   1       2.758  -1.432  -9.652  0.00  0.00     0.224 C 
ATOM     51  O   LIG d   1       3.179  -2.096  -8.730  0.00  0.00    -0.275 OA
ATOM     52  N   LIG d   1       2.321  -2.037 -10.774  0.00  0.00    -0.297 N 
ATOM     53  C   LIG d   1       2.346  -3.502 -10.903  0.00  0.00     0.038 C 
ATOM     54  C   LIG d   1       1.804  -1.250 -11.906  0.00  0.00     0.038 C 
ATOM     55  C   LIG d   1       0.961  -3.971 -11.361  0.00  0.00     0.064 C 
ATOM     56  H   LIG d   1       2.585  -3.952  -9.940  0.00  0.00     0.049 H 
ATOM     57  H   LIG d   1       3.095  -3.793 -11.641  0.00  0.00     0.049 H 
ATOM     58  O   LIG d   1       0.576  -3.238 -12.527  0.00  0.00    -0.377 OA
ATOM     59  H   LIG d   1       0.235  -3.796 -10.566  0.00  0.00     0.058 H 
ATOM     60  H   LIG d   1       0.993  -5.035 -11.596  0.00  0.00     0.058 H 
ATOM     61  C   LIG d   1       0.445  -1.830 -12.316  0.00  0.00     0.064 C 
ATOM     62  H   LIG d   1       0.109  -1.354 -13.237  0.00  0.00     0.058 H 
ATOM     63  H   LIG d   1      -0.283  -1.647 -11.524  0.00  0.00     0.058 H 
ATOM     64  H   LIG d   1       2.498  -1.314 -12.744  0.00  0.00     0.049 H 
ATOM     65  H   LIG d   1       1.684  -0.210 -11.607  0.00  0.00     0.049 H 
ENDBRANCH   9  50
TORSDOF 5
ENDMDL
MODEL 2
REMARK VINA RESULT:      -7.8      2.694      7.208
REMARK  5 active torsions:
REMARK  status: ('A' for Active; 'I' for Inactive)
REMARK    1  A    between atoms: C_2  and  C_25 
REMARK    2  A    between atoms: N_5  and  C_6 
REMARK    3  A    between atoms: C_6  and  C_7 
REMARK    4  A    between atoms: C_15  and  C_17 
REMARK       I    between atoms: C_17  and  N_19 
REMARK    5  A    between atoms: C_25  and  C_26 
ROOT
ATOM      1  C   LIG d   1       2.977   0.251  -3.976  0.00  0.00    -0.001 C 
ATOM      2  H   LIG d   1       2.246   1.042  -3.805  0.00  0.00     0.087 H 
ATOM      3  C   LIG d   1       2.931  -0.748  -2.817  0.00  0.00    -0.004 C 
ATOM      4  C   LIG d   1       4.309  -0.789  -2.145  0.00  0.00    -0.015 C 
ATOM      5  H   LIG d   1       4.311  -1.493  -1.311  0.00  0.00     0.031 H 
ATOM      6  C   LIG d   1       4.653   0.620  -1.645  0.00  0.00    -0.009 C 
ATOM      7  C   LIG d   1       4.650   1.580  -2.838  0.00  0.00    -0.031 C 
ATOM      8  C   LIG d   1       5.330  -0.194  -4.339  0.00  0.00    -0.020 C 
ATOM      9  C   LIG d   1       5.352  -1.206  -3.189  0.00  0.00     0.079 C 
ATOM     10  H   LIG d   1       6.341  -1.221  -2.732  0.00  0.00     0.045 H 
ATOM     11  H   LIG d   1       2.681  -1.738  -3.198  0.00  0.00     0.032 H 
ATOM     12  H   LIG d   1       2.180  -0.433  -2.093  0.00  0.00     0.032 H 
ATOM     13  H   LIG d   1       3.908   0.941  -0.916  0.00  0.00     0.032 H 
ATOM     14  H   LIG d   1       5.639   0.613  -1.182  0.00  0.00     0.032 H 
ATOM     15  H   LIG d   1       3.906   2.361  -2.675  0.00  0.00     0.081 H 
ATOM     16  H   LIG d   1       5.636   2.035  -2.941  0.00  0.00     0.081 H 
ATOM     17  H   LIG d   1       6.311   0.271  -4.432  0.00  0.00     0.082 H 
ATOM     18  H   LIG d   1       5.081  -0.706  -5.268  0.00  0.00     0.082 H 
ATOM     19  N   LIG d   1       4.322   0.857  -4.084  0.00  0.00     0.239 N 
ATOM     20  H   LIG d   1       4.326   1.521  -4.867  0.00  0.00     0.204 HD
ENDROOT
BRANCH   1  21
ATOM     21  C   LIG d   1       2.650  -0.470  -5.285  0.00  0.00     0.086 C 
ATOM     22  H   LIG d   1       3.340  -1.303  -5.423  0.00  0.00     0.057 H 
ATOM     23  H   LIG d   1       1.628  -0.847  -5.248  0.00  0.00     0.057 H 
BRANCH  21  24
ATOM     24  N   LIG d   1       2.785   0.465  -6.406  0.00  0.00    -0.246 N 
ATOM     25  C   LIG d   1       3.219   0.155  -7.649  0.00  0.00     0.049 A 
ATOM     26  C   LIG d   1       3.183   1.308  -8.358  0.00  0.00     0.083 A 
ATOM     27  H   LIG d   1       3.529  -0.816  -8.005  0.00  0.00     0.085 H 
ATOM     28  N   LIG d   1       2.742   2.255  -7.522  0.00  0.00    -0.135 NA
ATOM     29  N   LIG d   1       2.515   1.723  -6.373  0.00  0.00    -0.065 NA
BRANCH  26  30
ATOM     30  C   LIG d   1       3.569   1.489  -9.803  0.00  0.00    -0.004 C 
ATOM     31  H   LIG d   1       2.897   2.209 -10.271  0.00  0.00     0.033 H 
ATOM     32  H   LIG d   1       4.594   1.856  -9.863  0.00  0.00     0.033 H 
BRANCH  30  33
ATOM     33  C   LIG d   1       3.465   0.148 -10.531  0.00  0.00    -0.035 C 
ATOM     34  C   LIG d   1       1.992  -0.207 -10.743  0.00  0.00    -0.050 C 
ATOM     35  C   LIG d   1       1.890  -1.549 -11.471  0.00  0.00    -0.053 C 
ATOM     36  H   LIG d   1       1.493  -0.279  -9.776  0.00  0.00     0.027 H 
ATOM     37  H   LIG d   1       1.514   0.569 -11.341  0.00  0.00     0.027 H 
ATOM     38  C   LIG d   1       2.590  -1.446 -12.828  0.00  0.00    -0.053 C 
ATOM     39  H   LIG d   1       2.367  -2.324 -10.873  0.00  0.00     0.026 H 
ATOM     40  H   LIG d   1       0.840  -1.801 -11.622  0.00  0.00     0.026 H 
ATOM     41  C   LIG d   1       4.063  -1.093 -12.617  0.00  0.00    -0.053 C 
ATOM     42  H   LIG d   1       2.516  -2.402 -13.347  0.00  0.00     0.026 H 
ATOM     43  H   LIG d   1       2.112  -0.670 -13.426  0.00  0.00     0.026 H 
ATOM     44  C   LIG d   1       4.165   0.249 -11.888  0.00  0.00    -0.050 C 
ATOM     45  H   LIG d   1       4.541  -1.869 -12.018  0.00  0.00     0.026 H 
ATOM     46  H   LIG d   1       4.562  -1.021 -13.583  0.00  0.00     0.026 H 
ATOM     47  H   LIG d   1       3.688   1.024 -12.486  0.00  0.00     0.027 H 
ATOM     48  H   LIG d   1       5.215   0.501 -11.737  0.00  0.00     0.027 H 
ATOM     49  H   LIG d   1       3.943  -0.628  -9.933  0.00  0.00     0.030 H 
ENDBRANCH  30  33
ENDBRANCH  26  30
ENDBRANCH  21  24
ENDBRANCH   1  21
BRANCH   9  50
ATOM     50  C   LIG d   1       5.017  -2.578  -3.717  0.00  0.00     0.224 C 
ATOM     51  O   LIG d   1       4.014  -3.144  -3.339  0.00  0.00    -0.275 OA
ATOM     52  N   LIG d   1       5.834  -3.174  -4.608  0.00  0.00    -0.297 N 
ATOM     53  C   LIG d   1       5.529  -4.512  -5.137  0.00  0.00     0.038 C 
ATOM     54  C   LIG d   1       7.056  -2.503  -5.081  0.00  0.00     0.038 C 
ATOM     55  C   LIG d   1       5.616  -4.460  -6.667  0.00  0.00     0.064 C 
ATOM     56  H   LIG d   1       4.523  -4.805  -4.837  0.00  0.00     0.049 H 
ATOM     57  H   LIG d   1       6.251  -5.233  -4.753  0.00  0.00     0.049 H 
ATOM     58  O   LIG d   1       6.875  -3.898  -7.047  0.00  0.00    -0.377 OA
ATOM     59  H   LIG d   1       4.809  -3.839  -7.057  0.00  0.00     0.058 H 
ATOM     60  H   LIG d   1       5.530  -5.467  -7.073  0.00  0.00     0.058 H 
ATOM     61  C   LIG d   1       7.069  -2.550  -6.614  0.00  0.00     0.064 C 
ATOM     62  H   LIG d   1       8.028  -2.184  -6.980  0.00  0.00     0.058 H 
ATOM     63  H   LIG d   1       6.267  -1.923  -7.004  0.00  0.00     0.058 H 
ATOM     64  H   LIG d   1       7.932  -3.021  -4.691  0.00  0.00     0.049 H 
ATOM     65  H   LIG d   1       7.061  -1.467  -4.746  0.00  0.00     0.049 H 
ENDBRANCH   9  50
TORSDOF 5
ENDMDL
MODEL 3
REMARK VINA RESULT:      -7.7      5.139      8.213
REMARK  5 active torsions:
REMARK  status: ('A' for Active; 'I' for Inactive)
REMARK    1  A    between atoms: C_2  and  C_25 
REMARK    2  A    between atoms: N_5  and  C_6 
REMARK    3  A    between atoms: C_6  and  C_7 
REMARK    4  A    between atoms: C_15  and  C_17 
REMARK       I    between atoms: C_17  and  N_19 
REMARK    5  A    between atoms: C_25  and  C_26 
ROOT
ATOM      1  C   LIG d   1       4.615  -2.936  -4.232  0.00  0.00    -0.001 C 
ATOM      2  H   LIG d   1       4.298  -3.823  -3.685  0.00  0.00     0.087 H 
ATOM      3  C   LIG d   1       5.939  -2.425  -3.658  0.00  0.00    -0.004 C 
ATOM      4  C   LIG d   1       5.736  -0.994  -3.144  0.00  0.00    -0.015 C 
ATOM      5  H   LIG d   1       6.662  -0.599  -2.726  0.00  0.00     0.031 H 
ATOM      6  C   LIG d   1       4.639  -1.009  -2.073  0.00  0.00    -0.009 C 
ATOM      7  C   LIG d   1       3.351  -1.559  -2.693  0.00  0.00    -0.031 C 
ATOM      8  C   LIG d   1       3.962  -0.691  -4.869  0.00  0.00    -0.020 C 
ATOM      9  C   LIG d   1       5.268  -0.116  -4.312  0.00  0.00     0.079 C 
ATOM     10  H   LIG d   1       5.100   0.901  -3.959  0.00  0.00     0.045 H 
ATOM     11  H   LIG d   1       6.701  -2.429  -4.437  0.00  0.00     0.032 H 
ATOM     12  H   LIG d   1       6.252  -3.068  -2.835  0.00  0.00     0.032 H 
ATOM     13  H   LIG d   1       4.946  -1.646  -1.243  0.00  0.00     0.032 H 
ATOM     14  H   LIG d   1       4.468   0.005  -1.711  0.00  0.00     0.032 H 
ATOM     15  H   LIG d   1       3.044  -2.458  -2.156  0.00  0.00     0.081 H 
ATOM     16  H   LIG d   1       2.564  -0.809  -2.623  0.00  0.00     0.081 H 
ATOM     17  H   LIG d   1       3.172   0.054  -4.785  0.00  0.00     0.082 H 
ATOM     18  H   LIG d   1       4.102  -0.958  -5.917  0.00  0.00     0.082 H 
ATOM     19  N   LIG d   1       3.566  -1.900  -4.115  0.00  0.00     0.239 N 
ATOM     20  H   LIG d   1       2.691  -2.265  -4.507  0.00  0.00     0.204 HD
ENDROOT
BRANCH   1  21
ATOM     21  C   LIG d   1       4.801  -3.288  -5.710  0.00  0.00     0.086 C 
ATOM     22  H   LIG d   1       4.030  -2.796  -6.301  0.00  0.00     0.057 H 
ATOM     23  H   LIG d   1       5.784  -2.952  -6.042  0.00  0.00     0.057 H 
BRANCH  21  24
ATOM     24  N   LIG d   1       4.697  -4.739  -5.883  0.00  0.00    -0.246 N 
ATOM     25  C   LIG d   1       5.666  -5.643  -5.608  0.00  0.00     0.049 A 
ATOM     26  C   LIG d   1       5.147  -6.856  -5.911  0.00  0.00     0.083 A 
ATOM     27  H   LIG d   1       6.653  -5.438  -5.222  0.00  0.00     0.085 H 
ATOM     28  N   LIG d   1       3.905  -6.637  -6.359  0.00  0.00    -0.135 NA
ATOM     29  N   LIG d   1       3.669  -5.372  -6.330  0.00  0.00    -0.065 NA
BRANCH  26  30
ATOM     30  C   LIG d   1       5.834  -8.189  -5.776  0.00  0.00    -0.004 C 
ATOM     31  H   LIG d   1       5.477  -8.863  -6.556  0.00  0.00     0.033 H 
ATOM     32  H   LIG d   1       6.912  -8.055  -5.878  0.00  0.00     0.033 H 
BRANCH  30  33
ATOM     33  C   LIG d   1       5.523  -8.788  -4.403  0.00  0.00    -0.035 C 
ATOM     34  C   LIG d   1       4.393  -9.811  -4.536  0.00  0.00    -0.050 C 
ATOM     35  C   LIG d   1       4.082 -10.409  -3.162  0.00  0.00    -0.053 C 
ATOM     36  H   LIG d   1       3.502  -9.320  -4.929  0.00  0.00     0.027 H 
ATOM     37  H   LIG d   1       4.700 -10.605  -5.217  0.00  0.00     0.027 H 
ATOM     38  C   LIG d   1       5.332 -11.098  -2.612  0.00  0.00    -0.053 C 
ATOM     39  H   LIG d   1       3.775  -9.615  -2.482  0.00  0.00     0.026 H 
ATOM     40  H   LIG d   1       3.277 -11.138  -3.257  0.00  0.00     0.026 H 
ATOM     41  C   LIG d   1       6.462 -10.075  -2.478  0.00  0.00    -0.053 C 
ATOM     42  H   LIG d   1       5.110 -11.524  -1.634  0.00  0.00     0.026 H 
ATOM     43  H   LIG d   1       5.639 -11.891  -3.293  0.00  0.00     0.026 H 
ATOM     44  C   LIG d   1       6.772  -9.477  -3.852  0.00  0.00    -0.050 C 
ATOM     45  H   LIG d   1       6.154  -9.280  -1.798  0.00  0.00     0.026 H 
ATOM     46  H   LIG d   1       7.352 -10.566  -2.085  0.00  0.00     0.026 H 
ATOM     47  H   LIG d   1       7.080 -10.270  -4.532  0.00  0.00     0.027 H 
ATOM     48  H   LIG d   1       7.577  -8.747  -3.757  0.00  0.00     0.027 H 
ATOM     49  H   LIG d   1       5.215  -7.994  -3.723  0.00  0.00     0.030 H 
ENDBRANCH  30  33
ENDBRANCH  26  30
ENDBRANCH  21  24
ENDBRANCH   1  21
BRANCH   9  50
ATOM     50  C   LIG d   1       6.320  -0.111  -5.392  0.00  0.00     0.224 C 
ATOM     51  O   LIG d   1       6.097  -0.643  -6.458  0.00  0.00    -0.275 OA
ATOM     52  N   LIG d   1       7.508   0.487  -5.171  0.00  0.00    -0.297 N 
ATOM     53  C   LIG d   1       8.550   0.505  -6.209  0.00  0.00     0.038 C 
ATOM     54  C   LIG d   1       7.799   1.141  -3.885  0.00  0.00     0.038 C 
ATOM     55  C   LIG d   1       9.037   1.948  -6.380  0.00  0.00     0.064 C 
ATOM     56  H   LIG d   1       8.137   0.144  -7.151  0.00  0.00     0.049 H 
ATOM     57  H   LIG d   1       9.383  -0.130  -5.905  0.00  0.00     0.049 H 
ATOM     58  O   LIG d   1       9.404   2.476  -5.103  0.00  0.00    -0.377 OA
ATOM     59  H   LIG d   1       8.238   2.555  -6.808  0.00  0.00     0.058 H 
ATOM     60  H   LIG d   1       9.902   1.967  -7.043  0.00  0.00     0.058 H 
ATOM     61  C   LIG d   1       8.324   2.552  -4.169  0.00  0.00     0.064 C 
ATOM     62  H   LIG d   1       8.676   3.004  -3.242  0.00  0.00     0.058 H 
ATOM     63  H   LIG d   1       7.522   3.162  -4.589  0.00  0.00     0.058 H 
ATOM     64  H   LIG d   1       8.555   0.569  -3.347  0.00  0.00     0.049 H 
ATOM     65  H   LIG d   1       6.890   1.200  -3.288  0.00  0.00     0.049 H 
ENDBRANCH   9  50
TORSDOF 5
ENDMDL
MODEL 4
REMARK VINA RESULT:      -7.3      7.020     10.400
REMARK  5 active torsions:
REMARK  status: ('A' for Active; 'I' for Inactive)
REMARK    1  A    between atoms: C_2  and  C_25 
REMARK    2  A    between atoms: N_5  and  C_6 
REMARK    3  A    between atoms: C_6  and  C_7 
REMARK    4  A    between atoms: C_15  and  C_17 
REMARK       I    between atoms: C_17  and  N_19 
REMARK    5  A    between atoms: C_25  and  C_26 
ROOT
ATOM      1  C   LIG d   1       9.619   5.023  -5.574  0.00  0.00    -0.001 C 
ATOM      2  H   LIG d   1       8.938   4.720  -6.369  0.00  0.00     0.087 H 
ATOM      3  C   LIG d   1       8.870   5.894  -4.562  0.00  0.00    -0.004 C 
ATOM      4  C   LIG d   1       9.543   7.271  -4.500  0.00  0.00    -0.015 C 
ATOM      5  H   LIG d   1       9.032   7.919  -3.788  0.00  0.00     0.031 H 
ATOM      6  C   LIG d   1       9.508   7.897  -5.901  0.00  0.00    -0.009 C 
ATOM      7  C   LIG d   1      10.239   6.969  -6.874  0.00  0.00    -0.031 C 
ATOM      8  C   LIG d   1      11.698   6.177  -5.111  0.00  0.00    -0.020 C 
ATOM      9  C   LIG d   1      11.008   7.082  -4.086  0.00  0.00     0.079 C 
ATOM     10  H   LIG d   1      11.507   8.051  -4.057  0.00  0.00     0.045 H 
ATOM     11  H   LIG d   1       8.907   5.426  -3.579  0.00  0.00     0.032 H 
ATOM     12  H   LIG d   1       7.833   6.008  -4.876  0.00  0.00     0.032 H 
ATOM     13  H   LIG d   1       8.472   8.019  -6.220  0.00  0.00     0.032 H 
ATOM     14  H   LIG d   1      10.000   8.868  -5.879  0.00  0.00     0.032 H 
ATOM     15  H   LIG d   1       9.552   6.651  -7.660  0.00  0.00     0.081 H 
ATOM     16  H   LIG d   1      11.080   7.500  -7.321  0.00  0.00     0.081 H 
ATOM     17  H   LIG d   1      12.529   6.714  -5.568  0.00  0.00     0.082 H 
ATOM     18  H   LIG d   1      12.072   5.284  -4.612  0.00  0.00     0.082 H 
ATOM     19  N   LIG d   1      10.746   5.773  -6.168  0.00  0.00     0.239 N 
ATOM     20  H   LIG d   1      11.231   5.169  -6.841  0.00  0.00     0.204 HD
ENDROOT
BRANCH   1  21
ATOM     21  C   LIG d   1      10.166   3.779  -4.870  0.00  0.00     0.086 C 
ATOM     22  H   LIG d   1      11.053   3.425  -5.396  0.00  0.00     0.057 H 
ATOM     23  H   LIG d   1      10.429   4.029  -3.843  0.00  0.00     0.057 H 
BRANCH  21  24
ATOM     24  N   LIG d   1       9.146   2.728  -4.871  0.00  0.00    -0.246 N 
ATOM     25  C   LIG d   1       8.793   1.964  -3.812  0.00  0.00     0.049 A 
ATOM     26  C   LIG d   1       7.822   1.132  -4.255  0.00  0.00     0.083 A 
ATOM     27  H   LIG d   1       9.203   2.011  -2.814  0.00  0.00     0.085 H 
ATOM     28  N   LIG d   1       7.636   1.418  -5.548  0.00  0.00    -0.135 NA
ATOM     29  N   LIG d   1       8.436   2.369  -5.883  0.00  0.00    -0.065 NA
BRANCH  26  30
ATOM     30  C   LIG d   1       7.096   0.085  -3.450  0.00  0.00    -0.004 C 
ATOM     31  H   LIG d   1       7.340  -0.904  -3.837  0.00  0.00     0.033 H 
ATOM     32  H   LIG d   1       7.402   0.153  -2.405  0.00  0.00     0.033 H 
BRANCH  30  33
ATOM     33  C   LIG d   1       5.587   0.316  -3.554  0.00  0.00    -0.035 C 
ATOM     34  C   LIG d   1       4.894  -0.996  -3.929  0.00  0.00    -0.050 C 
ATOM     35  C   LIG d   1       3.386  -0.764  -4.034  0.00  0.00    -0.053 C 
ATOM     36  H   LIG d   1       5.275  -1.346  -4.889  0.00  0.00     0.027 H 
ATOM     37  H   LIG d   1       5.095  -1.744  -3.163  0.00  0.00     0.027 H 
ATOM     38  C   LIG d   1       2.851  -0.272  -2.687  0.00  0.00    -0.053 C 
ATOM     39  H   LIG d   1       3.185  -0.015  -4.800  0.00  0.00     0.026 H 
ATOM     40  H   LIG d   1       2.892  -1.699  -4.301  0.00  0.00     0.026 H 
ATOM     41  C   LIG d   1       3.543   1.040  -2.312  0.00  0.00    -0.053 C 
ATOM     42  H   LIG d   1       1.777  -0.107  -2.762  0.00  0.00     0.026 H 
ATOM     43  H   LIG d   1       3.052  -1.021  -1.921  0.00  0.00     0.026 H 
ATOM     44  C   LIG d   1       5.052   0.808  -2.208  0.00  0.00    -0.050 C 
ATOM     45  H   LIG d   1       3.343   1.789  -3.079  0.00  0.00     0.026 H 
ATOM     46  H   LIG d   1       3.162   1.390  -1.353  0.00  0.00     0.026 H 
ATOM     47  H   LIG d   1       5.253   0.060  -1.442  0.00  0.00     0.027 H 
ATOM     48  H   LIG d   1       5.545   1.743  -1.941  0.00  0.00     0.027 H 
ATOM     49  H   LIG d   1       5.386   1.065  -4.320  0.00  0.00     0.030 H 
ENDBRANCH  30  33
ENDBRANCH  26  30
ENDBRANCH  21  24
ENDBRANCH   1  21
BRANCH   9  50
ATOM     50  C   LIG d   1      11.068   6.440  -2.724  0.00  0.00     0.224 C 
ATOM     51  O   LIG d   1      11.518   5.322  -2.599  0.00  0.00    -0.275 OA
ATOM     52  N   LIG d   1      10.620   7.111  -1.643  0.00  0.00    -0.297 N 
ATOM     53  C   LIG d   1      10.668   6.506  -0.304  0.00  0.00     0.038 C 
ATOM     54  C   LIG d   1      10.071   8.471  -1.771  0.00  0.00     0.038 C 
ATOM     55  C   LIG d   1      11.334   7.501   0.654  0.00  0.00     0.064 C 
ATOM     56  H   LIG d   1      11.249   5.585  -0.337  0.00  0.00     0.049 H 
ATOM     57  H   LIG d   1       9.655   6.290   0.038  0.00  0.00     0.049 H 
ATOM     58  O   LIG d   1      10.674   8.766   0.551  0.00  0.00    -0.377 OA
ATOM     59  H   LIG d   1      12.384   7.616   0.386  0.00  0.00     0.058 H 
ATOM     60  H   LIG d   1      11.256   7.133   1.676  0.00  0.00     0.058 H 
ATOM     61  C   LIG d   1      10.765   9.370  -0.741  0.00  0.00     0.064 C 
ATOM     62  H   LIG d   1      10.278  10.345  -0.723  0.00  0.00     0.058 H 
ATOM     63  H   LIG d   1      11.814   9.492  -1.013  0.00  0.00     0.058 H 
ATOM     64  H   LIG d   1       8.998   8.452  -1.578  0.00  0.00     0.049 H 
ATOM     65  H   LIG d   1      10.257   8.851  -2.775  0.00  0.00     0.049 H 
ENDBRANCH   9  50
TORSDOF 5
ENDMDL
MODEL 5
REMARK VINA RESULT:      -7.2      2.672      3.304
REMARK  5 active torsions:
REMARK  status: ('A' for Active; 'I' for Inactive)
REMARK    1  A    between atoms: C_2  and  C_25 
REMARK    2  A    between atoms: N_5  and  C_6 
REMARK    3  A    between atoms: C_6  and  C_7 
REMARK    4  A    between atoms: C_15  and  C_17 
REMARK       I    between atoms: C_17  and  N_19 
REMARK    5  A    between atoms: C_25  and  C_26 
ROOT
ATOM      1  C   LIG d   1       3.979  -1.125  -8.879  0.00  0.00    -0.001 C 
ATOM      2  H   LIG d   1       4.402  -0.744  -7.949  0.00  0.00     0.087 H 
ATOM      3  C   LIG d   1       4.907  -0.773 -10.044  0.00  0.00    -0.004 C 
ATOM      4  C   LIG d   1       4.136   0.098 -11.045  0.00  0.00    -0.015 C 
ATOM      5  H   LIG d   1       4.769   0.369 -11.889  0.00  0.00     0.031 H 
ATOM      6  C   LIG d   1       3.651   1.362 -10.323  0.00  0.00    -0.009 C 
ATOM      7  C   LIG d   1       2.759   0.948  -9.149  0.00  0.00    -0.031 C 
ATOM      8  C   LIG d   1       2.039  -1.041 -10.326  0.00  0.00    -0.020 C 
ATOM      9  C   LIG d   1       2.911  -0.686 -11.534  0.00  0.00     0.079 C 
ATOM     10  H   LIG d   1       2.340  -0.073 -12.231  0.00  0.00     0.045 H 
ATOM     11  H   LIG d   1       5.239  -1.686 -10.536  0.00  0.00     0.032 H 
ATOM     12  H   LIG d   1       5.770  -0.222  -9.671  0.00  0.00     0.032 H 
ATOM     13  H   LIG d   1       4.510   1.921  -9.950  0.00  0.00     0.032 H 
ATOM     14  H   LIG d   1       3.083   1.983 -11.015  0.00  0.00     0.032 H 
ATOM     15  H   LIG d   1       3.191   1.313  -8.217  0.00  0.00     0.081 H 
ATOM     16  H   LIG d   1       1.765   1.376  -9.280  0.00  0.00     0.081 H 
ATOM     17  H   LIG d   1       1.050  -0.601 -10.450  0.00  0.00     0.082 H 
ATOM     18  H   LIG d   1       1.948  -2.125 -10.252  0.00  0.00     0.082 H 
ATOM     19  N   LIG d   1       2.644  -0.524  -9.080  0.00  0.00     0.239 N 
ATOM     20  H   LIG d   1       2.042  -0.775  -8.288  0.00  0.00     0.204 HD
ENDROOT
BRANCH   1  21
ATOM     21  C   LIG d   1       3.831  -2.645  -8.786  0.00  0.00     0.086 C 
ATOM     22  H   LIG d   1       2.807  -2.926  -9.035  0.00  0.00     0.057 H 
ATOM     23  H   LIG d   1       4.518  -3.121  -9.486  0.00  0.00     0.057 H 
BRANCH  21  24
ATOM     24  N   LIG d   1       4.140  -3.085  -7.423  0.00  0.00    -0.246 N 
ATOM     25  C   LIG d   1       4.646  -2.311  -6.436  0.00  0.00     0.049 A 
ATOM     26  C   LIG d   1       4.772  -3.116  -5.355  0.00  0.00     0.083 A 
ATOM     27  H   LIG d   1       4.896  -1.262  -6.497  0.00  0.00     0.085 H 
ATOM     28  N   LIG d   1       4.351  -4.328  -5.731  0.00  0.00    -0.135 NA
ATOM     29  N   LIG d   1       3.983  -4.277  -6.963  0.00  0.00    -0.065 NA
BRANCH  26  30
ATOM     30  C   LIG d   1       5.291  -2.723  -3.996  0.00  0.00    -0.004 C 
ATOM     31  H   LIG d   1       4.871  -3.388  -3.241  0.00  0.00     0.033 H 
ATOM     32  H   LIG d   1       6.378  -2.802  -3.984  0.00  0.00     0.033 H 
BRANCH  30  33
ATOM     33  C   LIG d   1       4.881  -1.281  -3.689  0.00  0.00    -0.035 C 
ATOM     34  C   LIG d   1       3.692  -1.281  -2.726  0.00  0.00    -0.050 C 
ATOM     35  C   LIG d   1       3.283   0.161  -2.421  0.00  0.00    -0.053 C 
ATOM     36  H   LIG d   1       2.854  -1.807  -3.185  0.00  0.00     0.027 H 
ATOM     37  H   LIG d   1       3.974  -1.783  -1.801  0.00  0.00     0.027 H 
ATOM     38  C   LIG d   1       4.459   0.899  -1.779  0.00  0.00    -0.053 C 
ATOM     39  H   LIG d   1       3.001   0.663  -3.347  0.00  0.00     0.026 H 
ATOM     40  H   LIG d   1       2.435   0.161  -1.735  0.00  0.00     0.026 H 
ATOM     41  C   LIG d   1       5.648   0.900  -2.741  0.00  0.00    -0.053 C 
ATOM     42  H   LIG d   1       4.167   1.926  -1.561  0.00  0.00     0.026 H 
ATOM     43  H   LIG d   1       4.741   0.397  -0.853  0.00  0.00     0.026 H 
ATOM     44  C   LIG d   1       6.057  -0.543  -3.047  0.00  0.00    -0.050 C 
ATOM     45  H   LIG d   1       5.366   1.401  -3.667  0.00  0.00     0.026 H 
ATOM     46  H   LIG d   1       6.486   1.426  -2.284  0.00  0.00     0.026 H 
ATOM     47  H   LIG d   1       6.339  -1.044  -2.122  0.00  0.00     0.027 H 
ATOM     48  H   LIG d   1       6.904  -0.542  -3.733  0.00  0.00     0.027 H 
ATOM     49  H   LIG d   1       4.599  -0.780  -4.615  0.00  0.00     0.030 H 
ENDBRANCH  30  33
ENDBRANCH  26  30
ENDBRANCH  21  24
ENDBRANCH   1  21
BRANCH   9  50
ATOM     50  C   LIG d   1       3.362  -1.949 -12.221  0.00  0.00     0.224 C 
ATOM     51  O   LIG d   1       3.129  -3.028 -11.721  0.00  0.00    -0.275 OA
ATOM     52  N   LIG d   1       4.025  -1.877 -13.393  0.00  0.00    -0.297 N 
ATOM     53  C   LIG d   1       4.476  -3.095 -14.083  0.00  0.00     0.038 C 
ATOM     54  C   LIG d   1       4.318  -0.577 -14.019  0.00  0.00     0.038 C 
ATOM     55  C   LIG d   1       4.009  -3.027 -15.541  0.00  0.00     0.064 C 
ATOM     56  H   LIG d   1       4.044  -3.972 -13.601  0.00  0.00     0.049 H 
ATOM     57  H   LIG d   1       5.565  -3.156 -14.049  0.00  0.00     0.049 H 
ATOM     58  O   LIG d   1       4.426  -1.783 -16.111  0.00  0.00    -0.377 OA
ATOM     59  H   LIG d   1       2.922  -3.097 -15.579  0.00  0.00     0.058 H 
ATOM     60  H   LIG d   1       4.447  -3.849 -16.105  0.00  0.00     0.058 H 
ATOM     61  C   LIG d   1       3.859  -0.632 -15.480  0.00  0.00     0.064 C 
ATOM     62  H   LIG d   1       4.191   0.268 -16.000  0.00  0.00     0.058 H 
ATOM     63  H   LIG d   1       2.771  -0.694 -15.519  0.00  0.00     0.058 H 
ATOM     64  H   LIG d   1       5.390  -0.384 -13.977  0.00  0.00     0.049 H 
ATOM     65  H   LIG d   1       3.781   0.213 -13.495  0.00  0.00     0.049 H 
ENDBRANCH   9  50
TORSDOF 5
ENDMDL
MODEL 6
REMARK VINA RESULT:      -7.0      7.955     11.710
REMARK  5 active torsions:
REMARK  status: ('A' for Active; 'I' for Inactive)
REMARK    1  A    between atoms: C_2  and  C_25 
REMARK    2  A    between atoms: N_5  and  C_6 
REMARK    3  A    between atoms: C_6  and  C_7 
REMARK    4  A    between atoms: C_15  and  C_17 
REMARK       I    between atoms: C_17  and  N_19 
REMARK    5  A    between atoms: C_25  and  C_26 
ROOT
ATOM      1  C   LIG d   1      11.375   4.787  -3.373  0.00  0.00    -0.001 C 
ATOM      2  H   LIG d   1      11.628   4.219  -4.269  0.00  0.00     0.087 H 
ATOM      3  C   LIG d   1      11.540   6.283  -3.653  0.00  0.00    -0.004 C 
ATOM      4  C   LIG d   1      12.587   6.854  -2.688  0.00  0.00    -0.015 C 
ATOM      5  H   LIG d   1      12.730   7.921  -2.861  0.00  0.00     0.031 H 
ATOM      6  C   LIG d   1      13.908   6.105  -2.898  0.00  0.00    -0.009 C 
ATOM      7  C   LIG d   1      13.676   4.613  -2.640  0.00  0.00    -0.031 C 
ATOM      8  C   LIG d   1      11.929   5.107  -1.037  0.00  0.00    -0.020 C 
ATOM      9  C   LIG d   1      12.111   6.613  -1.250  0.00  0.00     0.079 C 
ATOM     10  H   LIG d   1      12.854   6.996  -0.550  0.00  0.00     0.045 H 
ATOM     11  H   LIG d   1      10.588   6.791  -3.500  0.00  0.00     0.032 H 
ATOM     12  H   LIG d   1      11.874   6.428  -4.680  0.00  0.00     0.032 H 
ATOM     13  H   LIG d   1      14.251   6.249  -3.923  0.00  0.00     0.032 H 
ATOM     14  H   LIG d   1      14.659   6.485  -2.206  0.00  0.00     0.032 H 
ATOM     15  H   LIG d   1      13.911   4.047  -3.541  0.00  0.00     0.081 H 
ATOM     16  H   LIG d   1      14.319   4.281  -1.824  0.00  0.00     0.081 H 
ATOM     17  H   LIG d   1      12.584   4.773  -0.232  0.00  0.00     0.082 H 
ATOM     18  H   LIG d   1      10.892   4.901  -0.772  0.00  0.00     0.082 H 
ATOM     19  N   LIG d   1      12.266   4.366  -2.271  0.00  0.00     0.239 N 
ATOM     20  H   LIG d   1      12.137   3.362  -2.103  0.00  0.00     0.204 HD
ENDROOT
BRANCH   1  21
ATOM     21  C   LIG d   1       9.926   4.499  -2.978  0.00  0.00     0.086 C 
ATOM     22  H   LIG d   1       9.832   4.530  -1.893  0.00  0.00     0.057 H 
ATOM     23  H   LIG d   1       9.272   5.250  -3.421  0.00  0.00     0.057 H 
BRANCH  21  24
ATOM     24  N   LIG d   1       9.542   3.170  -3.463  0.00  0.00    -0.246 N 
ATOM     25  C   LIG d   1       8.282   2.759  -3.736  0.00  0.00     0.049 A 
ATOM     26  C   LIG d   1       8.387   1.476  -4.154  0.00  0.00     0.083 A 
ATOM     27  H   LIG d   1       7.376   3.338  -3.641  0.00  0.00     0.085 H 
ATOM     28  N   LIG d   1       9.688   1.167  -4.110  0.00  0.00    -0.135 NA
ATOM     29  N   LIG d   1      10.346   2.193  -3.697  0.00  0.00    -0.065 NA
BRANCH  26  30
ATOM     30  C   LIG d   1       7.260   0.572  -4.581  0.00  0.00    -0.004 C 
ATOM     31  H   LIG d   1       6.604   1.109  -5.267  0.00  0.00     0.033 H 
ATOM     32  H   LIG d   1       7.667  -0.307  -5.081  0.00  0.00     0.033 H 
BRANCH  30  33
ATOM     33  C   LIG d   1       6.462   0.135  -3.351  0.00  0.00    -0.035 C 
ATOM     34  C   LIG d   1       5.416   1.200  -3.015  0.00  0.00    -0.050 C 
ATOM     35  C   LIG d   1       4.620   0.762  -1.784  0.00  0.00    -0.053 C 
ATOM     36  H   LIG d   1       5.916   2.146  -2.806  0.00  0.00     0.027 H 
ATOM     37  H   LIG d   1       4.740   1.324  -3.860  0.00  0.00     0.027 H 
ATOM     38  C   LIG d   1       3.919  -0.567  -2.078  0.00  0.00    -0.053 C 
ATOM     39  H   LIG d   1       5.296   0.637  -0.939  0.00  0.00     0.026 H 
ATOM     40  H   LIG d   1       3.874   1.521  -1.545  0.00  0.00     0.026 H 
ATOM     41  C   LIG d   1       4.964  -1.632  -2.413  0.00  0.00    -0.053 C 
ATOM     42  H   LIG d   1       3.351  -0.878  -1.201  0.00  0.00     0.026 H 
ATOM     43  H   LIG d   1       3.243  -0.441  -2.923  0.00  0.00     0.026 H 
ATOM     44  C   LIG d   1       5.761  -1.193  -3.643  0.00  0.00    -0.050 C 
ATOM     45  H   LIG d   1       5.641  -1.756  -1.567  0.00  0.00     0.026 H 
ATOM     46  H   LIG d   1       4.465  -2.578  -2.621  0.00  0.00     0.026 H 
ATOM     47  H   LIG d   1       5.085  -1.069  -4.489  0.00  0.00     0.027 H 
ATOM     48  H   LIG d   1       6.507  -1.952  -3.882  0.00  0.00     0.027 H 
ATOM     49  H   LIG d   1       7.138   0.010  -2.505  0.00  0.00     0.030 H 
ENDBRANCH  30  33
ENDBRANCH  26  30
ENDBRANCH  21  24
ENDBRANCH   1  21
BRANCH   9  50
ATOM     50  C   LIG d   1      10.797   7.317  -1.029  0.00  0.00     0.224 C 
ATOM     51  O   LIG d   1       9.797   6.675  -0.789  0.00  0.00    -0.275 OA
ATOM     52  N   LIG d   1      10.733   8.662  -1.098  0.00  0.00    -0.297 N 
ATOM     53  C   LIG d   1       9.463   9.371  -0.886  0.00  0.00     0.038 C 
ATOM     54  C   LIG d   1      11.935   9.462  -1.386  0.00  0.00     0.038 C 
ATOM     55  C   LIG d   1       9.693  10.479   0.148  0.00  0.00     0.064 C 
ATOM     56  H   LIG d   1       8.710   8.675  -0.516  0.00  0.00     0.049 H 
ATOM     57  H   LIG d   1       9.126   9.811  -1.826  0.00  0.00     0.049 H 
ATOM     58  O   LIG d   1      10.807  11.279  -0.259  0.00  0.00    -0.377 OA
ATOM     59  H   LIG d   1       9.903  10.032   1.120  0.00  0.00     0.058 H 
ATOM     60  H   LIG d   1       8.804  11.105   0.219  0.00  0.00     0.058 H 
ATOM     61  C   LIG d   1      12.045  10.566  -0.329  0.00  0.00     0.064 C 
ATOM     62  H   LIG d   1      12.846  11.253  -0.601  0.00  0.00     0.058 H 
ATOM     63  H   LIG d   1      12.263  10.120   0.642  0.00  0.00     0.058 H 
ATOM     64  H   LIG d   1      11.848   9.910  -2.377  0.00  0.00     0.049 H 
ATOM     65  H   LIG d   1      12.819   8.827  -1.347  0.00  0.00     0.049 H 
ENDBRANCH   9  50
TORSDOF 5
ENDMDL
MODEL 7
REMARK VINA RESULT:      -7.0      2.701      7.899
REMARK  5 active torsions:
REMARK  status: ('A' for Active; 'I' for Inactive)
REMARK    1  A    between atoms: C_2  and  C_25 
REMARK    2  A    between atoms: N_5  and  C_6 
REMARK    3  A    between atoms: C_6  and  C_7 
REMARK    4  A    between atoms: C_15  and  C_17 
REMARK       I    between atoms: C_17  and  N_19 
REMARK    5  A    between atoms: C_25  and  C_26 
ROOT
ATOM      1  C   LIG d   1       4.312  -0.083  -4.813  0.00  0.00    -0.001 C 
ATOM      2  H   LIG d   1       3.558   0.700  -4.902  0.00  0.00     0.087 H 
ATOM      3  C   LIG d   1       3.694  -1.315  -4.149  0.00  0.00    -0.004 C 
ATOM      4  C   LIG d   1       4.457  -1.614  -2.852  0.00  0.00    -0.015 C 
ATOM      5  H   LIG d   1       4.040  -2.488  -2.351  0.00  0.00     0.031 H 
ATOM      6  C   LIG d   1       4.364  -0.387  -1.935  0.00  0.00    -0.009 C 
ATOM      7  C   LIG d   1       4.964   0.819  -2.663  0.00  0.00    -0.031 C 
ATOM      8  C   LIG d   1       6.488  -0.609  -3.888  0.00  0.00    -0.020 C 
ATOM      9  C   LIG d   1       5.932  -1.856  -3.197  0.00  0.00     0.079 C 
ATOM     10  H   LIG d   1       6.493  -2.051  -2.283  0.00  0.00     0.045 H 
ATOM     11  H   LIG d   1       3.769  -2.169  -4.821  0.00  0.00     0.032 H 
ATOM     12  H   LIG d   1       2.646  -1.119  -3.919  0.00  0.00     0.032 H 
ATOM     13  H   LIG d   1       3.319  -0.187  -1.697  0.00  0.00     0.032 H 
ATOM     14  H   LIG d   1       4.919  -0.575  -1.017  0.00  0.00     0.032 H 
ATOM     15  H   LIG d   1       4.205   1.595  -2.769  0.00  0.00     0.081 H 
ATOM     16  H   LIG d   1       5.804   1.209  -2.088  0.00  0.00     0.081 H 
ATOM     17  H   LIG d   1       7.318  -0.210  -3.306  0.00  0.00     0.082 H 
ATOM     18  H   LIG d   1       6.838  -0.873  -4.886  0.00  0.00     0.082 H 
ATOM     19  N   LIG d   1       5.441   0.428  -4.007  0.00  0.00     0.239 N 
ATOM     20  H   LIG d   1       5.838   1.252  -4.472  0.00  0.00     0.204 HD
ENDROOT
BRANCH   1  21
ATOM     21  C   LIG d   1       4.825  -0.457  -6.205  0.00  0.00     0.086 C 
ATOM     22  H   LIG d   1       5.779   0.039  -6.386  0.00  0.00     0.057 H 
ATOM     23  H   LIG d   1       4.960  -1.537  -6.265  0.00  0.00     0.057 H 
BRANCH  21  24
ATOM     24  N   LIG d   1       3.855  -0.029  -7.216  0.00  0.00    -0.246 N 
ATOM     25  C   LIG d   1       3.243  -0.832  -8.117  0.00  0.00     0.049 A 
ATOM     26  C   LIG d   1       2.433  -0.029  -8.847  0.00  0.00     0.083 A 
ATOM     27  H   LIG d   1       3.372  -1.898  -8.229  0.00  0.00     0.085 H 
ATOM     28  N   LIG d   1       2.594   1.209  -8.369  0.00  0.00    -0.135 NA
ATOM     29  N   LIG d   1       3.443   1.176  -7.402  0.00  0.00    -0.065 NA
BRANCH  26  30
ATOM     30  C   LIG d   1       1.533  -0.448  -9.980  0.00  0.00    -0.004 C 
ATOM     31  H   LIG d   1       0.782  -1.146  -9.608  0.00  0.00     0.033 H 
ATOM     32  H   LIG d   1       1.039   0.430 -10.396  0.00  0.00     0.033 H 
BRANCH  30  33
ATOM     33  C   LIG d   1       2.365  -1.128 -11.069  0.00  0.00    -0.035 C 
ATOM     34  C   LIG d   1       1.443  -1.605 -12.194  0.00  0.00    -0.050 C 
ATOM     35  C   LIG d   1       2.276  -2.286 -13.282  0.00  0.00    -0.053 C 
ATOM     36  H   LIG d   1       0.720  -2.316 -11.792  0.00  0.00     0.027 H 
ATOM     37  H   LIG d   1       0.917  -0.751 -12.619  0.00  0.00     0.027 H 
ATOM     38  C   LIG d   1       3.292  -1.288 -13.844  0.00  0.00    -0.053 C 
ATOM     39  H   LIG d   1       2.802  -3.140 -12.856  0.00  0.00     0.026 H 
ATOM     40  H   LIG d   1       1.619  -2.626 -14.083  0.00  0.00     0.026 H 
ATOM     41  C   LIG d   1       4.214  -0.811 -12.721  0.00  0.00    -0.053 C 
ATOM     42  H   LIG d   1       3.884  -1.772 -14.619  0.00  0.00     0.026 H 
ATOM     43  H   LIG d   1       2.764  -0.434 -14.269  0.00  0.00     0.026 H 
ATOM     44  C   LIG d   1       3.381  -0.132 -11.632  0.00  0.00    -0.050 C 
ATOM     45  H   LIG d   1       4.740  -1.666 -12.294  0.00  0.00     0.026 H 
ATOM     46  H   LIG d   1       4.937  -0.101 -13.121  0.00  0.00     0.026 H 
ATOM     47  H   LIG d   1       2.854   0.723 -12.057  0.00  0.00     0.027 H 
ATOM     48  H   LIG d   1       4.038   0.208 -10.831  0.00  0.00     0.027 H 
ATOM     49  H   LIG d   1       2.891  -1.982 -10.644  0.00  0.00     0.030 H 
ENDBRANCH  30  33
ENDBRANCH  26  30
ENDBRANCH  21  24
ENDBRANCH   1  21
BRANCH   9  50
ATOM     50  C   LIG d   1       6.045  -3.041  -4.122  0.00  0.00     0.224 C 
ATOM     51  O   LIG d   1       5.048  -3.525  -4.612  0.00  0.00    -0.275 OA
ATOM     52  N   LIG d   1       7.256  -3.562  -4.404  0.00  0.00    -0.297 N 
ATOM     53  C   LIG d   1       7.392  -4.717  -5.303  0.00  0.00     0.038 C 
ATOM     54  C   LIG d   1       8.480  -2.989  -3.820  0.00  0.00     0.038 C 
ATOM     55  C   LIG d   1       8.448  -4.384  -6.363  0.00  0.00     0.064 C 
ATOM     56  H   LIG d   1       6.437  -4.920  -5.788  0.00  0.00     0.049 H 
ATOM     57  H   LIG d   1       7.708  -5.592  -4.733  0.00  0.00     0.049 H 
ATOM     58  O   LIG d   1       9.643  -3.940  -5.714  0.00  0.00    -0.377 OA
ATOM     59  H   LIG d   1       8.073  -3.594  -7.015  0.00  0.00     0.058 H 
ATOM     60  H   LIG d   1       8.665  -5.272  -6.955  0.00  0.00     0.058 H 
ATOM     61  C   LIG d   1       9.483  -2.741  -4.952  0.00  0.00     0.064 C 
ATOM     62  H   LIG d   1      10.444  -2.448  -4.529  0.00  0.00     0.058 H 
ATOM     63  H   LIG d   1       9.113  -1.945  -5.599  0.00  0.00     0.058 H 
ATOM     64  H   LIG d   1       8.905  -3.689  -3.100  0.00  0.00     0.049 H 
ATOM     65  H   LIG d   1       8.246  -2.048  -3.324  0.00  0.00     0.049 H 
ENDBRANCH   9  50
TORSDOF 5
ENDMDL
MODEL 8
REMARK VINA RESULT:      -6.9      1.779      2.225
REMARK  5 active torsions:
REMARK  status: ('A' for Active; 'I' for Inactive)
REMARK    1  A    between atoms: C_2  and  C_25 
REMARK    2  A    between atoms: N_5  and  C_6 
REMARK    3  A    between atoms: C_6  and  C_7 
REMARK    4  A    between atoms: C_15  and  C_17 
REMARK       I    between atoms: C_17  and  N_19 
REMARK    5  A    between atoms: C_25  and  C_26 
ROOT
ATOM      1  C   LIG d   1       5.396   1.141  -8.695  0.00  0.00    -0.001 C 
ATOM      2  H   LIG d   1       5.713   2.147  -8.419  0.00  0.00     0.087 H 
ATOM      3  C   LIG d   1       5.130   1.083 -10.201  0.00  0.00    -0.004 C 
ATOM      4  C   LIG d   1       3.665   0.689 -10.429  0.00  0.00    -0.015 C 
ATOM      5  H   LIG d   1       3.440   0.639 -11.495  0.00  0.00     0.031 H 
ATOM      6  C   LIG d   1       2.766   1.728  -9.749  0.00  0.00    -0.009 C 
ATOM      7  C   LIG d   1       3.099   1.768  -8.255  0.00  0.00    -0.031 C 
ATOM      8  C   LIG d   1       3.732  -0.569  -8.279  0.00  0.00    -0.020 C 
ATOM      9  C   LIG d   1       3.418  -0.676  -9.774  0.00  0.00     0.079 C 
ATOM     10  H   LIG d   1       2.375  -0.963  -9.910  0.00  0.00     0.045 H 
ATOM     11  H   LIG d   1       5.783   0.341 -10.659  0.00  0.00     0.032 H 
ATOM     12  H   LIG d   1       5.317   2.062 -10.643  0.00  0.00     0.032 H 
ATOM     13  H   LIG d   1       2.944   2.710 -10.190  0.00  0.00     0.032 H 
ATOM     14  H   LIG d   1       1.720   1.452  -9.885  0.00  0.00     0.032 H 
ATOM     15  H   LIG d   1       3.434   2.769  -7.983  0.00  0.00     0.081 H 
ATOM     16  H   LIG d   1       2.211   1.513  -7.677  0.00  0.00     0.081 H 
ATOM     17  H   LIG d   1       2.840  -0.809  -7.702  0.00  0.00     0.082 H 
ATOM     18  H   LIG d   1       4.529  -1.269  -8.025  0.00  0.00     0.082 H 
ATOM     19  N   LIG d   1       4.172   0.801  -7.939  0.00  0.00     0.239 N 
ATOM     20  H   LIG d   1       4.376   0.846  -6.934  0.00  0.00     0.204 HD
ENDROOT
BRANCH   1  21
ATOM     21  C   LIG d   1       6.497   0.143  -8.332  0.00  0.00     0.086 C 
ATOM     22  H   LIG d   1       6.162  -0.868  -8.565  0.00  0.00     0.057 H 
ATOM     23  H   LIG d   1       7.396   0.368  -8.906  0.00  0.00     0.057 H 
BRANCH  21  24
ATOM     24  N   LIG d   1       6.795   0.240  -6.901  0.00  0.00    -0.246 N 
ATOM     25  C   LIG d   1       6.721  -0.771  -6.005  0.00  0.00     0.049 A 
ATOM     26  C   LIG d   1       7.079  -0.243  -4.811  0.00  0.00     0.083 A 
ATOM     27  H   LIG d   1       6.437  -1.794  -6.203  0.00  0.00     0.085 H 
ATOM     28  N   LIG d   1       7.342   1.050  -5.031  0.00  0.00    -0.135 NA
ATOM     29  N   LIG d   1       7.165   1.304  -6.279  0.00  0.00    -0.065 NA
BRANCH  26  30
ATOM     30  C   LIG d   1       7.159  -0.968  -3.493  0.00  0.00    -0.004 C 
ATOM     31  H   LIG d   1       7.359  -2.025  -3.672  0.00  0.00     0.033 H 
ATOM     32  H   LIG d   1       7.964  -0.543  -2.892  0.00  0.00     0.033 H 
BRANCH  30  33
ATOM     33  C   LIG d   1       5.832  -0.819  -2.746  0.00  0.00    -0.035 C 
ATOM     34  C   LIG d   1       5.380   0.642  -2.795  0.00  0.00    -0.050 C 
ATOM     35  C   LIG d   1       4.053   0.790  -2.047  0.00  0.00    -0.053 C 
ATOM     36  H   LIG d   1       6.135   1.271  -2.323  0.00  0.00     0.027 H 
ATOM     37  H   LIG d   1       5.248   0.946  -3.833  0.00  0.00     0.027 H 
ATOM     38  C   LIG d   1       2.994  -0.095  -2.709  0.00  0.00    -0.053 C 
ATOM     39  H   LIG d   1       4.185   0.485  -1.009  0.00  0.00     0.026 H 
ATOM     40  H   LIG d   1       3.731   1.831  -2.082  0.00  0.00     0.026 H 
ATOM     41  C   LIG d   1       3.446  -1.555  -2.660  0.00  0.00    -0.053 C 
ATOM     42  H   LIG d   1       2.049   0.011  -2.177  0.00  0.00     0.026 H 
ATOM     43  H   LIG d   1       2.863   0.211  -3.747  0.00  0.00     0.026 H 
ATOM     44  C   LIG d   1       4.773  -1.703  -3.407  0.00  0.00    -0.050 C 
ATOM     45  H   LIG d   1       3.578  -1.860  -1.622  0.00  0.00     0.026 H 
ATOM     46  H   LIG d   1       2.692  -2.185  -3.131  0.00  0.00     0.026 H 
ATOM     47  H   LIG d   1       4.642  -1.399  -4.445  0.00  0.00     0.027 H 
ATOM     48  H   LIG d   1       5.095  -2.745  -3.372  0.00  0.00     0.027 H 
ATOM     49  H   LIG d   1       5.964  -1.124  -1.708  0.00  0.00     0.030 H 
ENDBRANCH  30  33
ENDBRANCH  26  30
ENDBRANCH  21  24
ENDBRANCH   1  21
BRANCH   9  50
ATOM     50  C   LIG d   1       4.314  -1.710 -10.407  0.00  0.00     0.224 C 
ATOM     51  O   LIG d   1       5.196  -1.366 -11.164  0.00  0.00    -0.275 OA
ATOM     52  N   LIG d   1       4.133  -3.017 -10.131  0.00  0.00    -0.297 N 
ATOM     53  C   LIG d   1       4.994  -4.044 -10.737  0.00  0.00     0.038 C 
ATOM     54  C   LIG d   1       3.069  -3.457  -9.214  0.00  0.00     0.038 C 
ATOM     55  C   LIG d   1       5.519  -4.955  -9.621  0.00  0.00     0.064 C 
ATOM     56  H   LIG d   1       5.832  -3.568 -11.246  0.00  0.00     0.049 H 
ATOM     57  H   LIG d   1       4.417  -4.633 -11.451  0.00  0.00     0.049 H 
ATOM     58  O   LIG d   1       4.417  -5.428  -8.842  0.00  0.00    -0.377 OA
ATOM     59  H   LIG d   1       6.201  -4.392  -8.982  0.00  0.00     0.058 H 
ATOM     60  H   LIG d   1       6.046  -5.802 -10.058  0.00  0.00     0.058 H 
ATOM     61  C   LIG d   1       3.688  -4.397  -8.173  0.00  0.00     0.064 C 
ATOM     62  H   LIG d   1       2.897  -4.843  -7.570  0.00  0.00     0.058 H 
ATOM     63  H   LIG d   1       4.363  -3.833  -7.528  0.00  0.00     0.058 H 
ATOM     64  H   LIG d   1       2.298  -3.986  -9.774  0.00  0.00     0.049 H 
ATOM     65  H   LIG d   1       2.633  -2.593  -8.714  0.00  0.00     0.049 H 
ENDBRANCH   9  50
TORSDOF 5
ENDMDL
MODEL 9
REMARK VINA RESULT:      -6.8      3.005      8.238
REMARK  5 active torsions:
REMARK  status: ('A' for Active; 'I' for Inactive)
REMARK    1  A    between atoms: C_2  and  C_25 
REMARK    2  A    between atoms: N_5  and  C_6 
REMARK    3  A    between atoms: C_6  and  C_7 
REMARK    4  A    between atoms: C_15  and  C_17 
REMARK       I    between atoms: C_17  and  N_19 
REMARK    5  A    between atoms: C_25  and  C_26 
ROOT
ATOM      1  C   LIG d   1       4.261  -1.612  -5.037  0.00  0.00    -0.001 C 
ATOM      2  H   LIG d   1       3.290  -2.080  -5.198  0.00  0.00     0.087 H 
ATOM      3  C   LIG d   1       5.165  -2.566  -4.253  0.00  0.00    -0.004 C 
ATOM      4  C   LIG d   1       5.573  -1.892  -2.937  0.00  0.00    -0.015 C 
ATOM      5  H   LIG d   1       6.219  -2.547  -2.351  0.00  0.00     0.031 H 
ATOM      6  C   LIG d   1       4.304  -1.558  -2.143  0.00  0.00    -0.009 C 
ATOM      7  C   LIG d   1       3.424  -0.632  -2.987  0.00  0.00    -0.031 C 
ATOM      8  C   LIG d   1       5.369   0.316  -4.075  0.00  0.00    -0.020 C 
ATOM      9  C   LIG d   1       6.305  -0.584  -3.263  0.00  0.00     0.079 C 
ATOM     10  H   LIG d   1       6.585  -0.082  -2.336  0.00  0.00     0.045 H 
ATOM     11  H   LIG d   1       6.056  -2.790  -4.839  0.00  0.00     0.032 H 
ATOM     12  H   LIG d   1       4.625  -3.488  -4.039  0.00  0.00     0.032 H 
ATOM     13  H   LIG d   1       3.759  -2.476  -1.921  0.00  0.00     0.032 H 
ATOM     14  H   LIG d   1       4.575  -1.059  -1.213  0.00  0.00     0.032 H 
ATOM     15  H   LIG d   1       2.459  -1.108  -3.165  0.00  0.00     0.081 H 
ATOM     16  H   LIG d   1       3.272   0.309  -2.457  0.00  0.00     0.081 H 
ATOM     17  H   LIG d   1       5.206   1.249  -3.537  0.00  0.00     0.082 H 
ATOM     18  H   LIG d   1       5.821   0.528  -5.044  0.00  0.00     0.082 H 
ATOM     19  N   LIG d   1       4.067  -0.351  -4.289  0.00  0.00     0.239 N 
ATOM     20  H   LIG d   1       3.459   0.270  -4.834  0.00  0.00     0.204 HD
ENDROOT
BRANCH   1  21
ATOM     21  C   LIG d   1       4.904  -1.293  -6.388  0.00  0.00     0.086 C 
ATOM     22  H   LIG d   1       5.745  -0.615  -6.239  0.00  0.00     0.057 H 
ATOM     23  H   LIG d   1       5.259  -2.215  -6.848  0.00  0.00     0.057 H 
BRANCH  21  24
ATOM     24  N   LIG d   1       3.915  -0.660  -7.264  0.00  0.00    -0.246 N 
ATOM     25  C   LIG d   1       3.232  -1.270  -8.260  0.00  0.00     0.049 A 
ATOM     26  C   LIG d   1       2.432  -0.322  -8.803  0.00  0.00     0.083 A 
ATOM     27  H   LIG d   1       3.308  -2.304  -8.560  0.00  0.00     0.085 H 
ATOM     28  N   LIG d   1       2.668   0.807  -8.126  0.00  0.00    -0.135 NA
ATOM     29  N   LIG d   1       3.551   0.574  -7.221  0.00  0.00    -0.065 NA
BRANCH  26  30
ATOM     30  C   LIG d   1       1.470  -0.503  -9.947  0.00  0.00    -0.004 C 
ATOM     31  H   LIG d   1       0.604  -1.073  -9.607  0.00  0.00     0.033 H 
ATOM     32  H   LIG d   1       1.144   0.473 -10.307  0.00  0.00     0.033 H 
BRANCH  30  33
ATOM     33  C   LIG d   1       2.163  -1.259 -11.083  0.00  0.00    -0.035 C 
ATOM     34  C   LIG d   1       1.138  -1.611 -12.163  0.00  0.00    -0.050 C 
ATOM     35  C   LIG d   1       1.832  -2.368 -13.297  0.00  0.00    -0.053 C 
ATOM     36  H   LIG d   1       0.358  -2.239 -11.732  0.00  0.00     0.027 H 
ATOM     37  H   LIG d   1       0.694  -0.696 -12.554  0.00  0.00     0.027 H 
ATOM     38  C   LIG d   1       2.927  -1.486 -13.902  0.00  0.00    -0.053 C 
ATOM     39  H   LIG d   1       2.276  -3.283 -12.906  0.00  0.00     0.026 H 
ATOM     40  H   LIG d   1       1.101  -2.618 -14.067  0.00  0.00     0.026 H 
ATOM     41  C   LIG d   1       3.952  -1.134 -12.823  0.00  0.00    -0.053 C 
ATOM     42  H   LIG d   1       3.421  -2.025 -14.710  0.00  0.00     0.026 H 
ATOM     43  H   LIG d   1       2.482  -0.571 -14.293  0.00  0.00     0.026 H 
ATOM     44  C   LIG d   1       3.258  -0.379 -11.687  0.00  0.00    -0.050 C 
ATOM     45  H   LIG d   1       4.396  -2.050 -12.431  0.00  0.00     0.026 H 
ATOM     46  H   LIG d   1       4.732  -0.507 -13.253  0.00  0.00     0.026 H 
ATOM     47  H   LIG d   1       2.814   0.536 -12.079  0.00  0.00     0.027 H 
ATOM     48  H   LIG d   1       3.989  -0.128 -10.918  0.00  0.00     0.027 H 
ATOM     49  H   LIG d   1       2.607  -2.174 -10.692  0.00  0.00     0.030 H 
ENDBRANCH  30  33
ENDBRANCH  26  30
ENDBRANCH  21  24
ENDBRANCH   1  21
BRANCH   9  50
ATOM     50  C   LIG d   1       7.542  -0.886  -4.069  0.00  0.00     0.224 C 
ATOM     51  O   LIG d   1       7.751  -2.014  -4.460  0.00  0.00    -0.275 OA
ATOM     52  N   LIG d   1       8.416   0.100  -4.354  0.00  0.00    -0.297 N 
ATOM     53  C   LIG d   1       9.631  -0.170  -5.139  0.00  0.00     0.038 C 
ATOM     54  C   LIG d   1       8.182   1.477  -3.891  0.00  0.00     0.038 C 
ATOM     55  C   LIG d   1       9.710   0.855  -6.276  0.00  0.00     0.064 C 
ATOM     56  H   LIG d   1       9.584  -1.176  -5.555  0.00  0.00     0.049 H 
ATOM     57  H   LIG d   1      10.510  -0.077  -4.500  0.00  0.00     0.049 H 
ATOM     58  O   LIG d   1       9.584   2.172  -5.733  0.00  0.00    -0.377 OA
ATOM     59  H   LIG d   1       8.901   0.675  -6.985  0.00  0.00     0.058 H 
ATOM     60  H   LIG d   1      10.668   0.763  -6.786  0.00  0.00     0.058 H 
ATOM     61  C   LIG d   1       8.333   2.422  -5.089  0.00  0.00     0.064 C 
ATOM     62  H   LIG d   1       8.301   3.455  -4.744  0.00  0.00     0.058 H 
ATOM     63  H   LIG d   1       7.519   2.248  -5.794  0.00  0.00     0.058 H 
ATOM     64  H   LIG d   1       8.914   1.736  -3.125  0.00  0.00     0.049 H 
ATOM     65  H   LIG d   1       7.176   1.562  -3.481  0.00  0.00     0.049 H 
ENDBRANCH   9  50
TORSDOF 5
ENDMDL
