MODEL 1
REMARK VINA RESULT:      -4.7      0.000      0.000
REMARK  8 active torsions:
REMARK  status: ('A' for Active; 'I' for Inactive)
REMARK    1  A    between atoms: C_1  and  C_2 
REMARK    2  A    between atoms: C_2  and  C_4 
REMARK    3  A    between atoms: C_5  and  O_16 
REMARK    4  A    between atoms: C_7  and  O_14 
REMARK    5  A    between atoms: C_8  and  C_11 
REMARK    6  A    between atoms: C_9  and  O_10 
REMARK    7  A    between atoms: C_11  and  C_13 
REMARK    8  A    between atoms: O_14  and  C_15 
ROOT
ATOM      1  C   LIG d   1       3.911  -0.059  -6.714  0.00  0.00     0.101 A 
ATOM      2  C   LIG d   1       5.288  -0.220  -6.972  0.00  0.00     0.134 A 
ATOM      3  C   LIG d   1       6.160  -0.515  -5.938  0.00  0.00     0.023 A 
ATOM      4  C   LIG d   1       5.691  -0.653  -4.641  0.00  0.00     0.138 A 
ATOM      5  C   LIG d   1       4.319  -0.496  -4.363  0.00  0.00     0.101 A 
ATOM      6  C   LIG d   1       3.425  -0.204  -5.406  0.00  0.00     0.145 A 
ATOM      7  H   LIG d   1       7.213  -0.637  -6.142  0.00  0.00     0.069 H 
ENDROOT
BRANCH   1   8
ATOM      8  C   LIG d   1       2.992   0.251  -7.808  0.00  0.00     0.167 C 
ATOM      9  O   LIG d   1       2.303  -0.625  -8.289  0.00  0.00    -0.292 OA
BRANCH   8  10
ATOM     10  C   LIG d   1       2.899   1.658  -8.339  0.00  0.00    -0.001 C 
ATOM     11  H   LIG d   1       3.740   2.154  -8.119  0.00  0.00     0.031 H 
ATOM     12  H   LIG d   1       2.765   1.631  -9.420  0.00  0.00     0.031 H 
ATOM     13  H   LIG d   1       2.049   2.164  -7.880  0.00  0.00     0.031 H 
ENDBRANCH   8  10
ENDBRANCH   1   8
BRANCH   6  14
ATOM     14  O   LIG d   1       2.105  -0.056  -5.150  0.00  0.00    -0.505 OA
ATOM     15  H   LIG d   1       1.537  -0.644  -5.667  0.00  0.00     0.292 HD
ENDBRANCH   6  14
BRANCH   2  16
ATOM     16  O   LIG d   1       5.759  -0.088  -8.234  0.00  0.00    -0.506 OA
ATOM     17  H   LIG d   1       6.707   0.095  -8.284  0.00  0.00     0.292 HD
ENDBRANCH   2  16
BRANCH   5  18
ATOM     18  C   LIG d   1       3.826  -0.644  -2.995  0.00  0.00     0.167 C 
ATOM     19  O   LIG d   1       3.495   0.337  -2.361  0.00  0.00    -0.292 OA
BRANCH  18  20
ATOM     20  C   LIG d   1       3.730  -2.012  -2.373  0.00  0.00    -0.001 C 
ATOM     21  H   LIG d   1       3.882  -2.709  -3.074  0.00  0.00     0.031 H 
ATOM     22  H   LIG d   1       2.739  -2.144  -1.938  0.00  0.00     0.031 H 
ATOM     23  H   LIG d   1       4.485  -2.111  -1.593  0.00  0.00     0.031 H 
ENDBRANCH  18  20
ENDBRANCH   5  18
BRANCH   4  24
ATOM     24  O   LIG d   1       6.554  -0.942  -3.639  0.00  0.00    -0.494 OA
BRANCH  24  25
ATOM     25  C   LIG d   1       7.236  -2.196  -3.711  0.00  0.00     0.079 C 
ATOM     26  H   LIG d   1       7.548  -2.382  -4.739  0.00  0.00     0.066 H 
ATOM     27  H   LIG d   1       8.112  -2.170  -3.064  0.00  0.00     0.066 H 
ATOM     28  H   LIG d   1       6.567  -2.992  -3.384  0.00  0.00     0.066 H 
ENDBRANCH  24  25
ENDBRANCH   4  24
TORSDOF 8
ENDMDL
MODEL 2
REMARK VINA RESULT:      -4.6      0.602      4.519
REMARK  8 active torsions:
REMARK  status: ('A' for Active; 'I' for Inactive)
REMARK    1  A    between atoms: C_1  and  C_2 
REMARK    2  A    between atoms: C_2  and  C_4 
REMARK    3  A    between atoms: C_5  and  O_16 
REMARK    4  A    between atoms: C_7  and  O_14 
REMARK    5  A    between atoms: C_8  and  C_11 
REMARK    6  A    between atoms: C_9  and  O_10 
REMARK    7  A    between atoms: C_11  and  C_13 
REMARK    8  A    between atoms: O_14  and  C_15 
ROOT
ATOM      1  C   LIG d   1       4.323  -0.490  -4.363  0.00  0.00     0.101 A 
ATOM      2  C   LIG d   1       5.698  -0.617  -4.647  0.00  0.00     0.134 A 
ATOM      3  C   LIG d   1       6.159  -0.451  -5.942  0.00  0.00     0.023 A 
ATOM      4  C   LIG d   1       5.276  -0.161  -6.970  0.00  0.00     0.138 A 
ATOM      5  C   LIG d   1       3.898  -0.031  -6.706  0.00  0.00     0.101 A 
ATOM      6  C   LIG d   1       3.422  -0.190  -5.396  0.00  0.00     0.145 A 
ATOM      7  H   LIG d   1       7.213  -0.549  -6.154  0.00  0.00     0.069 H 
ENDROOT
BRANCH   1   8
ATOM      8  C   LIG d   1       3.839  -0.664  -2.994  0.00  0.00     0.167 C 
ATOM      9  O   LIG d   1       3.508   0.303  -2.340  0.00  0.00    -0.292 OA
BRANCH   8  10
ATOM     10  C   LIG d   1       3.749  -2.045  -2.396  0.00  0.00    -0.001 C 
ATOM     11  H   LIG d   1       2.983  -2.537  -2.808  0.00  0.00     0.031 H 
ATOM     12  H   LIG d   1       4.675  -2.585  -2.589  0.00  0.00     0.031 H 
ATOM     13  H   LIG d   1       3.592  -1.965  -1.320  0.00  0.00     0.031 H 
ENDBRANCH   8  10
ENDBRANCH   1   8
BRANCH   6  14
ATOM     14  O   LIG d   1       2.101  -0.062  -5.131  0.00  0.00    -0.505 OA
ATOM     15  H   LIG d   1       1.621  -0.901  -5.110  0.00  0.00     0.292 HD
ENDBRANCH   6  14
BRANCH   2  16
ATOM     16  O   LIG d   1       6.570  -0.899  -3.652  0.00  0.00    -0.506 OA
ATOM     17  H   LIG d   1       6.321  -1.663  -3.114  0.00  0.00     0.292 HD
ENDBRANCH   2  16
BRANCH   5  18
ATOM     18  C   LIG d   1       2.970   0.276  -7.792  0.00  0.00     0.167 C 
ATOM     19  O   LIG d   1       2.293  -0.606  -8.278  0.00  0.00    -0.292 OA
BRANCH  18  20
ATOM     20  C   LIG d   1       2.852   1.687  -8.307  0.00  0.00    -0.001 C 
ATOM     21  H   LIG d   1       2.129   2.165  -7.809  0.00  0.00     0.031 H 
ATOM     22  H   LIG d   1       2.609   1.667  -9.370  0.00  0.00     0.031 H 
ATOM     23  H   LIG d   1       3.799   2.207  -8.161  0.00  0.00     0.031 H 
ENDBRANCH  18  20
ENDBRANCH   5  18
BRANCH   4  24
ATOM     24  O   LIG d   1       5.740  -0.001  -8.232  0.00  0.00    -0.494 OA
BRANCH  24  25
ATOM     25  C   LIG d   1       6.530   1.161  -8.491  0.00  0.00     0.079 C 
ATOM     26  H   LIG d   1       6.496   1.824  -7.626  0.00  0.00     0.066 H 
ATOM     27  H   LIG d   1       7.561   0.865  -8.682  0.00  0.00     0.066 H 
ATOM     28  H   LIG d   1       6.134   1.682  -9.363  0.00  0.00     0.066 H 
ENDBRANCH  24  25
ENDBRANCH   4  24
TORSDOF 8
ENDMDL
MODEL 3
REMARK VINA RESULT:      -4.5      3.031      4.776
REMARK  8 active torsions:
REMARK  status: ('A' for Active; 'I' for Inactive)
REMARK    1  A    between atoms: C_1  and  C_2 
REMARK    2  A    between atoms: C_2  and  C_4 
REMARK    3  A    between atoms: C_5  and  O_16 
REMARK    4  A    between atoms: C_7  and  O_14 
REMARK    5  A    between atoms: C_8  and  C_11 
REMARK    6  A    between atoms: C_9  and  O_10 
REMARK    7  A    between atoms: C_11  and  C_13 
REMARK    8  A    between atoms: O_14  and  C_15 
ROOT
ATOM      1  C   LIG d   1       5.138  -0.866  -3.586  0.00  0.00     0.101 A 
ATOM      2  C   LIG d   1       4.201  -1.826  -4.022  0.00  0.00     0.134 A 
ATOM      3  C   LIG d   1       4.633  -3.038  -4.532  0.00  0.00     0.023 A 
ATOM      4  C   LIG d   1       5.987  -3.321  -4.621  0.00  0.00     0.138 A 
ATOM      5  C   LIG d   1       6.939  -2.374  -4.191  0.00  0.00     0.101 A 
ATOM      6  C   LIG d   1       6.511  -1.145  -3.666  0.00  0.00     0.145 A 
ATOM      7  H   LIG d   1       3.911  -3.769  -4.863  0.00  0.00     0.069 H 
ENDROOT
BRANCH   1   8
ATOM      8  C   LIG d   1       4.679   0.413  -3.047  0.00  0.00     0.167 C 
ATOM      9  O   LIG d   1       4.294   1.285  -3.798  0.00  0.00    -0.292 OA
BRANCH   8  10
ATOM     10  C   LIG d   1       4.683   0.649  -1.559  0.00  0.00    -0.001 C 
ATOM     11  H   LIG d   1       5.056  -0.155  -1.095  0.00  0.00     0.031 H 
ATOM     12  H   LIG d   1       5.297   1.519  -1.330  0.00  0.00     0.031 H 
ATOM     13  H   LIG d   1       3.662   0.824  -1.216  0.00  0.00     0.031 H 
ENDBRANCH   8  10
ENDBRANCH   1   8
BRANCH   6  14
ATOM     14  O   LIG d   1       7.416  -0.232  -3.246  0.00  0.00    -0.505 OA
ATOM     15  H   LIG d   1       7.757   0.337  -3.950  0.00  0.00     0.292 HD
ENDBRANCH   6  14
BRANCH   2  16
ATOM     16  O   LIG d   1       2.876  -1.562  -3.940  0.00  0.00    -0.506 OA
ATOM     17  H   LIG d   1       2.651  -0.631  -4.064  0.00  0.00     0.292 HD
ENDBRANCH   2  16
BRANCH   5  18
ATOM     18  C   LIG d   1       8.365  -2.675  -4.285  0.00  0.00     0.167 C 
ATOM     19  O   LIG d   1       9.049  -2.117  -5.118  0.00  0.00    -0.292 OA
BRANCH  18  20
ATOM     20  C   LIG d   1       8.988  -3.677  -3.349  0.00  0.00    -0.001 C 
ATOM     21  H   LIG d   1       9.395  -3.199  -2.571  0.00  0.00     0.031 H 
ATOM     22  H   LIG d   1       9.761  -4.236  -3.876  0.00  0.00     0.031 H 
ATOM     23  H   LIG d   1       8.221  -4.365  -2.991  0.00  0.00     0.031 H 
ENDBRANCH  18  20
ENDBRANCH   5  18
BRANCH   4  24
ATOM     24  O   LIG d   1       6.396  -4.510  -5.121  0.00  0.00    -0.494 OA
BRANCH  24  25
ATOM     25  C   LIG d   1       5.401  -5.335  -5.731  0.00  0.00     0.079 C 
ATOM     26  H   LIG d   1       5.512  -6.360  -5.378  0.00  0.00     0.066 H 
ATOM     27  H   LIG d   1       4.411  -4.964  -5.468  0.00  0.00     0.066 H 
ATOM     28  H   LIG d   1       5.522  -5.309  -6.814  0.00  0.00     0.066 H 
ENDBRANCH  24  25
ENDBRANCH   4  24
TORSDOF 8
ENDMDL
MODEL 4
REMARK VINA RESULT:      -4.5      2.773      3.207
REMARK  8 active torsions:
REMARK  status: ('A' for Active; 'I' for Inactive)
REMARK    1  A    between atoms: C_1  and  C_2 
REMARK    2  A    between atoms: C_2  and  C_4 
REMARK    3  A    between atoms: C_5  and  O_16 
REMARK    4  A    between atoms: C_7  and  O_14 
REMARK    5  A    between atoms: C_8  and  C_11 
REMARK    6  A    between atoms: C_9  and  O_10 
REMARK    7  A    between atoms: C_11  and  C_13 
REMARK    8  A    between atoms: O_14  and  C_15 
ROOT
ATOM      1  C   LIG d   1       5.247  -2.284  -5.150  0.00  0.00     0.101 A 
ATOM      2  C   LIG d   1       6.565  -1.924  -5.497  0.00  0.00     0.134 A 
ATOM      3  C   LIG d   1       7.084  -0.705  -5.093  0.00  0.00     0.023 A 
ATOM      4  C   LIG d   1       6.315   0.172  -4.344  0.00  0.00     0.138 A 
ATOM      5  C   LIG d   1       4.995  -0.170  -3.987  0.00  0.00     0.101 A 
ATOM      6  C   LIG d   1       4.463  -1.406  -4.386  0.00  0.00     0.145 A 
ATOM      7  H   LIG d   1       8.094  -0.435  -5.362  0.00  0.00     0.069 H 
ENDROOT
BRANCH   1   8
ATOM      8  C   LIG d   1       4.703  -3.571  -5.577  0.00  0.00     0.167 C 
ATOM      9  O   LIG d   1       4.542  -4.461  -4.768  0.00  0.00    -0.292 OA
BRANCH   8  10
ATOM     10  C   LIG d   1       4.340  -3.794  -7.023  0.00  0.00    -0.001 C 
ATOM     11  H   LIG d   1       3.386  -3.532  -7.171  0.00  0.00     0.031 H 
ATOM     12  H   LIG d   1       4.987  -3.189  -7.657  0.00  0.00     0.031 H 
ATOM     13  H   LIG d   1       4.469  -4.848  -7.272  0.00  0.00     0.031 H 
ENDBRANCH   8  10
ENDBRANCH   1   8
BRANCH   6  14
ATOM     14  O   LIG d   1       3.199  -1.746  -4.043  0.00  0.00    -0.505 OA
ATOM     15  H   LIG d   1       2.857  -2.517  -4.517  0.00  0.00     0.292 HD
ENDBRANCH   6  14
BRANCH   2  16
ATOM     16  O   LIG d   1       7.327  -2.771  -6.228  0.00  0.00    -0.506 OA
ATOM     17  H   LIG d   1       7.076  -2.823  -7.160  0.00  0.00     0.292 HD
ENDBRANCH   2  16
BRANCH   5  18
ATOM     18  C   LIG d   1       4.187   0.756  -3.197  0.00  0.00     0.167 C 
ATOM     19  O   LIG d   1       3.336   1.431  -3.738  0.00  0.00    -0.292 OA
BRANCH  18  20
ATOM     20  C   LIG d   1       4.409   0.872  -1.711  0.00  0.00    -0.001 C 
ATOM     21  H   LIG d   1       5.330   0.554  -1.486  0.00  0.00     0.031 H 
ATOM     22  H   LIG d   1       3.676   0.261  -1.185  0.00  0.00     0.031 H 
ATOM     23  H   LIG d   1       4.300   1.913  -1.407  0.00  0.00     0.031 H 
ENDBRANCH  18  20
ENDBRANCH   5  18
BRANCH   4  24
ATOM     24  O   LIG d   1       6.834   1.360  -3.955  0.00  0.00    -0.494 OA
BRANCH  24  25
ATOM     25  C   LIG d   1       8.258   1.478  -3.958  0.00  0.00     0.079 C 
ATOM     26  H   LIG d   1       8.701   0.554  -3.586  0.00  0.00     0.066 H 
ATOM     27  H   LIG d   1       8.605   1.666  -4.974  0.00  0.00     0.066 H 
ATOM     28  H   LIG d   1       8.555   2.307  -3.315  0.00  0.00     0.066 H 
ENDBRANCH  24  25
ENDBRANCH   4  24
TORSDOF 8
ENDMDL
MODEL 5
REMARK VINA RESULT:      -4.5      1.929      3.170
REMARK  8 active torsions:
REMARK  status: ('A' for Active; 'I' for Inactive)
REMARK    1  A    between atoms: C_1  and  C_2 
REMARK    2  A    between atoms: C_2  and  C_4 
REMARK    3  A    between atoms: C_5  and  O_16 
REMARK    4  A    between atoms: C_7  and  O_14 
REMARK    5  A    between atoms: C_8  and  C_11 
REMARK    6  A    between atoms: C_9  and  O_10 
REMARK    7  A    between atoms: C_11  and  C_13 
REMARK    8  A    between atoms: O_14  and  C_15 
ROOT
ATOM      1  C   LIG d   1       3.573  -0.227  -6.376  0.00  0.00     0.101 A 
ATOM      2  C   LIG d   1       3.041   0.375  -5.217  0.00  0.00     0.134 A 
ATOM      3  C   LIG d   1       3.178  -0.244  -3.986  0.00  0.00     0.023 A 
ATOM      4  C   LIG d   1       3.836  -1.459  -3.879  0.00  0.00     0.138 A 
ATOM      5  C   LIG d   1       4.374  -2.077  -5.026  0.00  0.00     0.101 A 
ATOM      6  C   LIG d   1       4.247  -1.454  -6.277  0.00  0.00     0.145 A 
ATOM      7  H   LIG d   1       2.769   0.222  -3.102  0.00  0.00     0.069 H 
ENDROOT
BRANCH   1   8
ATOM      8  C   LIG d   1       3.428   0.428  -7.674  0.00  0.00     0.167 C 
ATOM      9  O   LIG d   1       4.160   1.350  -7.974  0.00  0.00    -0.292 OA
BRANCH   8  10
ATOM     10  C   LIG d   1       2.372  -0.039  -8.642  0.00  0.00    -0.001 C 
ATOM     11  H   LIG d   1       2.336  -1.039  -8.639  0.00  0.00     0.031 H 
ATOM     12  H   LIG d   1       1.403   0.360  -8.344  0.00  0.00     0.031 H 
ATOM     13  H   LIG d   1       2.617   0.312  -9.645  0.00  0.00     0.031 H 
ENDBRANCH   8  10
ENDBRANCH   1   8
BRANCH   6  14
ATOM     14  O   LIG d   1       4.765  -2.036  -7.383  0.00  0.00    -0.505 OA
ATOM     15  H   LIG d   1       5.485  -1.535  -7.791  0.00  0.00     0.292 HD
ENDBRANCH   6  14
BRANCH   2  16
ATOM     16  O   LIG d   1       2.397   1.561  -5.307  0.00  0.00    -0.506 OA
ATOM     17  H   LIG d   1       2.985   2.327  -5.354  0.00  0.00     0.292 HD
ENDBRANCH   2  16
BRANCH   5  18
ATOM     18  C   LIG d   1       5.069  -3.357  -4.910  0.00  0.00     0.167 C 
ATOM     19  O   LIG d   1       4.459  -4.394  -5.071  0.00  0.00    -0.292 OA
BRANCH  18  20
ATOM     20  C   LIG d   1       6.541  -3.390  -4.593  0.00  0.00    -0.001 C 
ATOM     21  H   LIG d   1       6.681  -3.154  -3.632  0.00  0.00     0.031 H 
ATOM     22  H   LIG d   1       7.065  -2.671  -5.223  0.00  0.00     0.031 H 
ATOM     23  H   LIG d   1       6.931  -4.390  -4.782  0.00  0.00     0.031 H 
ENDBRANCH  18  20
ENDBRANCH   5  18
BRANCH   4  24
ATOM     24  O   LIG d   1       3.964  -2.053  -2.670  0.00  0.00    -0.494 OA
BRANCH  24  25
ATOM     25  C   LIG d   1       4.564  -1.281  -1.627  0.00  0.00     0.079 C 
ATOM     26  H   LIG d   1       5.370  -1.854  -1.168  0.00  0.00     0.066 H 
ATOM     27  H   LIG d   1       4.964  -0.357  -2.044  0.00  0.00     0.066 H 
ATOM     28  H   LIG d   1       3.813  -1.043  -0.873  0.00  0.00     0.066 H 
ENDBRANCH  24  25
ENDBRANCH   4  24
TORSDOF 8
ENDMDL
MODEL 6
REMARK VINA RESULT:      -4.4      8.619      9.681
REMARK  8 active torsions:
REMARK  status: ('A' for Active; 'I' for Inactive)
REMARK    1  A    between atoms: C_1  and  C_2 
REMARK    2  A    between atoms: C_2  and  C_4 
REMARK    3  A    between atoms: C_5  and  O_16 
REMARK    4  A    between atoms: C_7  and  O_14 
REMARK    5  A    between atoms: C_8  and  C_11 
REMARK    6  A    between atoms: C_9  and  O_10 
REMARK    7  A    between atoms: C_11  and  C_13 
REMARK    8  A    between atoms: O_14  and  C_15 
ROOT
ATOM      1  C   LIG d   1      10.237   5.101  -3.089  0.00  0.00     0.101 A 
ATOM      2  C   LIG d   1      10.957   4.385  -2.110  0.00  0.00     0.134 A 
ATOM      3  C   LIG d   1      11.116   4.911  -0.839  0.00  0.00     0.023 A 
ATOM      4  C   LIG d   1      10.572   6.144  -0.516  0.00  0.00     0.138 A 
ATOM      5  C   LIG d   1       9.849   6.875  -1.480  0.00  0.00     0.101 A 
ATOM      6  C   LIG d   1       9.677   6.347  -2.769  0.00  0.00     0.145 A 
ATOM      7  H   LIG d   1      11.668   4.358  -0.094  0.00  0.00     0.069 H 
ENDROOT
BRANCH   1   8
ATOM      8  C   LIG d   1      10.070   4.542  -4.429  0.00  0.00     0.167 C 
ATOM      9  O   LIG d   1      10.775   4.927  -5.339  0.00  0.00    -0.292 OA
BRANCH   8  10
ATOM     10  C   LIG d   1       9.024   3.487  -4.682  0.00  0.00    -0.001 C 
ATOM     11  H   LIG d   1       9.179   3.073  -5.578  0.00  0.00     0.031 H 
ATOM     12  H   LIG d   1       9.088   2.720  -3.910  0.00  0.00     0.031 H 
ATOM     13  H   LIG d   1       8.034   3.944  -4.659  0.00  0.00     0.031 H 
ENDBRANCH   8  10
ENDBRANCH   1   8
BRANCH   6  14
ATOM     14  O   LIG d   1       8.980   7.038  -3.701  0.00  0.00    -0.505 OA
ATOM     15  H   LIG d   1       8.340   7.661  -3.330  0.00  0.00     0.292 HD
ENDBRANCH   6  14
BRANCH   2  16
ATOM     16  O   LIG d   1      11.493   3.179  -2.413  0.00  0.00    -0.506 OA
ATOM     17  H   LIG d   1      11.271   2.480  -1.783  0.00  0.00     0.292 HD
ENDBRANCH   2  16
BRANCH   5  18
ATOM     18  C   LIG d   1       9.276   8.174  -1.137  0.00  0.00     0.167 C 
ATOM     19  O   LIG d   1       8.117   8.251  -0.785  0.00  0.00    -0.292 OA
BRANCH  18  20
ATOM     20  C   LIG d   1      10.123   9.417  -1.219  0.00  0.00    -0.001 C 
ATOM     21  H   LIG d   1       9.531  10.223  -1.240  0.00  0.00     0.031 H 
ATOM     22  H   LIG d   1      10.727   9.386  -2.125  0.00  0.00     0.031 H 
ATOM     23  H   LIG d   1      10.776   9.470  -0.347  0.00  0.00     0.031 H 
ENDBRANCH  18  20
ENDBRANCH   5  18
BRANCH   4  24
ATOM     24  O   LIG d   1      10.734   6.647   0.730  0.00  0.00    -0.494 OA
BRANCH  24  25
ATOM     25  C   LIG d   1      10.986   5.711   1.780  0.00  0.00     0.079 C 
ATOM     26  H   LIG d   1      10.773   6.177   2.743  0.00  0.00     0.066 H 
ATOM     27  H   LIG d   1      10.346   4.838   1.650  0.00  0.00     0.066 H 
ATOM     28  H   LIG d   1      12.031   5.402   1.749  0.00  0.00     0.066 H 
ENDBRANCH  24  25
ENDBRANCH   4  24
TORSDOF 8
ENDMDL
MODEL 7
REMARK VINA RESULT:      -4.4      8.846     10.021
REMARK  8 active torsions:
REMARK  status: ('A' for Active; 'I' for Inactive)
REMARK    1  A    between atoms: C_1  and  C_2 
REMARK    2  A    between atoms: C_2  and  C_4 
REMARK    3  A    between atoms: C_5  and  O_16 
REMARK    4  A    between atoms: C_7  and  O_14 
REMARK    5  A    between atoms: C_8  and  C_11 
REMARK    6  A    between atoms: C_9  and  O_10 
REMARK    7  A    between atoms: C_11  and  C_13 
REMARK    8  A    between atoms: O_14  and  C_15 
ROOT
ATOM      1  C   LIG d   1       9.943   5.211  -2.812  0.00  0.00     0.101 A 
ATOM      2  C   LIG d   1       9.389   6.461  -3.159  0.00  0.00     0.134 A 
ATOM      3  C   LIG d   1       9.587   7.561  -2.342  0.00  0.00     0.023 A 
ATOM      4  C   LIG d   1      10.328   7.447  -1.177  0.00  0.00     0.138 A 
ATOM      5  C   LIG d   1      10.890   6.206  -0.813  0.00  0.00     0.101 A 
ATOM      6  C   LIG d   1      10.700   5.087  -1.638  0.00  0.00     0.145 A 
ATOM      7  H   LIG d   1       9.161   8.515  -2.614  0.00  0.00     0.069 H 
ENDROOT
BRANCH   1   8
ATOM      8  C   LIG d   1       9.733   4.052  -3.677  0.00  0.00     0.167 C 
ATOM      9  O   LIG d   1       8.995   3.156  -3.323  0.00  0.00    -0.292 OA
BRANCH   8  10
ATOM     10  C   LIG d   1      10.433   3.969  -5.010  0.00  0.00    -0.001 C 
ATOM     11  H   LIG d   1      11.246   3.393  -4.924  0.00  0.00     0.031 H 
ATOM     12  H   LIG d   1       9.758   3.537  -5.748  0.00  0.00     0.031 H 
ATOM     13  H   LIG d   1      10.729   4.969  -5.328  0.00  0.00     0.031 H 
ENDBRANCH   8  10
ENDBRANCH   1   8
BRANCH   6  14
ATOM     14  O   LIG d   1      11.240   3.893  -1.300  0.00  0.00    -0.505 OA
ATOM     15  H   LIG d   1      12.207   3.886  -1.294  0.00  0.00     0.292 HD
ENDBRANCH   6  14
BRANCH   2  16
ATOM     16  O   LIG d   1       8.663   6.586  -4.295  0.00  0.00    -0.506 OA
ATOM     17  H   LIG d   1       8.389   7.492  -4.489  0.00  0.00     0.292 HD
ENDBRANCH   2  16
BRANCH   5  18
ATOM     18  C   LIG d   1      11.672   6.089   0.416  0.00  0.00     0.167 C 
ATOM     19  O   LIG d   1      12.877   6.226   0.383  0.00  0.00    -0.292 OA
BRANCH  18  20
ATOM     20  C   LIG d   1      10.982   5.797   1.723  0.00  0.00    -0.001 C 
ATOM     21  H   LIG d   1      11.593   6.026   2.481  0.00  0.00     0.031 H 
ATOM     22  H   LIG d   1      10.725   4.739   1.770  0.00  0.00     0.031 H 
ATOM     23  H   LIG d   1      10.074   6.395   1.796  0.00  0.00     0.031 H 
ENDBRANCH  18  20
ENDBRANCH   5  18
BRANCH   4  24
ATOM     24  O   LIG d   1      10.515   8.530  -0.387  0.00  0.00    -0.494 OA
BRANCH  24  25
ATOM     25  C   LIG d   1       9.602   9.618  -0.551  0.00  0.00     0.079 C 
ATOM     26  H   LIG d   1      10.062  10.388  -1.170  0.00  0.00     0.066 H 
ATOM     27  H   LIG d   1       8.693   9.259  -1.033  0.00  0.00     0.066 H 
ATOM     28  H   LIG d   1       9.355  10.035   0.425  0.00  0.00     0.066 H 
ENDBRANCH  24  25
ENDBRANCH   4  24
TORSDOF 8
ENDMDL
MODEL 8
REMARK VINA RESULT:      -4.3      2.112      4.264
REMARK  8 active torsions:
REMARK  status: ('A' for Active; 'I' for Inactive)
REMARK    1  A    between atoms: C_1  and  C_2 
REMARK    2  A    between atoms: C_2  and  C_4 
REMARK    3  A    between atoms: C_5  and  O_16 
REMARK    4  A    between atoms: C_7  and  O_14 
REMARK    5  A    between atoms: C_8  and  C_11 
REMARK    6  A    between atoms: C_9  and  O_10 
REMARK    7  A    between atoms: C_11  and  C_13 
REMARK    8  A    between atoms: O_14  and  C_15 
ROOT
ATOM      1  C   LIG d   1       6.102  -2.484  -4.784  0.00  0.00     0.101 A 
ATOM      2  C   LIG d   1       6.815  -1.875  -3.731  0.00  0.00     0.134 A 
ATOM      3  C   LIG d   1       6.402  -0.653  -3.226  0.00  0.00     0.023 A 
ATOM      4  C   LIG d   1       5.288  -0.017  -3.749  0.00  0.00     0.138 A 
ATOM      5  C   LIG d   1       4.563  -0.609  -4.802  0.00  0.00     0.101 A 
ATOM      6  C   LIG d   1       4.969  -1.850  -5.317  0.00  0.00     0.145 A 
ATOM      7  H   LIG d   1       6.952  -0.193  -2.419  0.00  0.00     0.069 H 
ENDROOT
BRANCH   1   8
ATOM      8  C   LIG d   1       6.539  -3.774  -5.314  0.00  0.00     0.167 C 
ATOM      9  O   LIG d   1       5.884  -4.772  -5.098  0.00  0.00    -0.292 OA
BRANCH   8  10
ATOM     10  C   LIG d   1       7.803  -3.865  -6.131  0.00  0.00    -0.001 C 
ATOM     11  H   LIG d   1       7.604  -4.311  -7.003  0.00  0.00     0.031 H 
ATOM     12  H   LIG d   1       8.190  -2.863  -6.314  0.00  0.00     0.031 H 
ATOM     13  H   LIG d   1       8.546  -4.448  -5.586  0.00  0.00     0.031 H 
ENDBRANCH   8  10
ENDBRANCH   1   8
BRANCH   6  14
ATOM     14  O   LIG d   1       4.276  -2.430  -6.324  0.00  0.00    -0.505 OA
ATOM     15  H   LIG d   1       3.507  -1.921  -6.615  0.00  0.00     0.292 HD
ENDBRANCH   6  14
BRANCH   2  16
ATOM     16  O   LIG d   1       7.904  -2.487  -3.210  0.00  0.00    -0.506 OA
ATOM     17  H   LIG d   1       8.683  -1.918  -3.149  0.00  0.00     0.292 HD
ENDBRANCH   2  16
BRANCH   5  18
ATOM     18  C   LIG d   1       3.388   0.064  -5.352  0.00  0.00     0.167 C 
ATOM     19  O   LIG d   1       3.461   0.635  -6.420  0.00  0.00    -0.292 OA
BRANCH  18  20
ATOM     20  C   LIG d   1       2.087   0.048  -4.593  0.00  0.00    -0.001 C 
ATOM     21  H   LIG d   1       1.324   0.077  -5.239  0.00  0.00     0.031 H 
ATOM     22  H   LIG d   1       2.039   0.916  -3.936  0.00  0.00     0.031 H 
ATOM     23  H   LIG d   1       2.024  -0.863  -3.998  0.00  0.00     0.031 H 
ENDBRANCH  18  20
ENDBRANCH   5  18
BRANCH   4  24
ATOM     24  O   LIG d   1       4.895   1.177  -3.246  0.00  0.00    -0.494 OA
BRANCH  24  25
ATOM     25  C   LIG d   1       4.407   1.186  -1.903  0.00  0.00     0.079 C 
ATOM     26  H   LIG d   1       4.220   0.163  -1.577  0.00  0.00     0.066 H 
ATOM     27  H   LIG d   1       5.148   1.647  -1.251  0.00  0.00     0.066 H 
ATOM     28  H   LIG d   1       3.479   1.757  -1.858  0.00  0.00     0.066 H 
ENDBRANCH  24  25
ENDBRANCH   4  24
TORSDOF 8
ENDMDL
MODEL 9
REMARK VINA RESULT:      -4.2      8.614     10.517
REMARK  8 active torsions:
REMARK  status: ('A' for Active; 'I' for Inactive)
REMARK    1  A    between atoms: C_1  and  C_2 
REMARK    2  A    between atoms: C_2  and  C_4 
REMARK    3  A    between atoms: C_5  and  O_16 
REMARK    4  A    between atoms: C_7  and  O_14 
REMARK    5  A    between atoms: C_8  and  C_11 
REMARK    6  A    between atoms: C_9  and  O_10 
REMARK    7  A    between atoms: C_11  and  C_13 
REMARK    8  A    between atoms: O_14  and  C_15 
ROOT
ATOM      1  C   LIG d   1      10.888   6.230  -0.777  0.00  0.00     0.101 A 
ATOM      2  C   LIG d   1      10.340   7.445  -1.235  0.00  0.00     0.134 A 
ATOM      3  C   LIG d   1       9.649   7.490  -2.434  0.00  0.00     0.023 A 
ATOM      4  C   LIG d   1       9.489   6.343  -3.196  0.00  0.00     0.138 A 
ATOM      5  C   LIG d   1      10.030   5.119  -2.755  0.00  0.00     0.101 A 
ATOM      6  C   LIG d   1      10.726   5.062  -1.538  0.00  0.00     0.145 A 
ATOM      7  H   LIG d   1       9.232   8.424  -2.779  0.00  0.00     0.069 H 
ENDROOT
BRANCH   1   8
ATOM      8  C   LIG d   1      11.616   6.186   0.490  0.00  0.00     0.167 C 
ATOM      9  O   LIG d   1      12.759   6.588   0.547  0.00  0.00    -0.292 OA
BRANCH   8  10
ATOM     10  C   LIG d   1      10.947   5.641   1.725  0.00  0.00    -0.001 C 
ATOM     11  H   LIG d   1      10.243   6.281   2.033  0.00  0.00     0.031 H 
ATOM     12  H   LIG d   1      10.489   4.679   1.497  0.00  0.00     0.031 H 
ATOM     13  H   LIG d   1      11.689   5.512   2.514  0.00  0.00     0.031 H 
ENDBRANCH   8  10
ENDBRANCH   1   8
BRANCH   6  14
ATOM     14  O   LIG d   1      11.243   3.890  -1.103  0.00  0.00    -0.505 OA
ATOM     15  H   LIG d   1      11.795   3.438  -1.756  0.00  0.00     0.292 HD
ENDBRANCH   6  14
BRANCH   2  16
ATOM     16  O   LIG d   1      10.489   8.573  -0.500  0.00  0.00    -0.506 OA
ATOM     17  H   LIG d   1       9.696   8.832  -0.012  0.00  0.00     0.292 HD
ENDBRANCH   2  16
BRANCH   5  18
ATOM     18  C   LIG d   1       9.859   3.911  -3.560  0.00  0.00     0.167 C 
ATOM     19  O   LIG d   1       9.084   3.048  -3.201  0.00  0.00    -0.292 OA
BRANCH  18  20
ATOM     20  C   LIG d   1      10.644   3.737  -4.834  0.00  0.00    -0.001 C 
ATOM     21  H   LIG d   1      11.309   2.999  -4.718  0.00  0.00     0.031 H 
ATOM     22  H   LIG d   1      11.166   4.664  -5.068  0.00  0.00     0.031 H 
ATOM     23  H   LIG d   1       9.963   3.487  -5.648  0.00  0.00     0.031 H 
ENDBRANCH  18  20
ENDBRANCH   5  18
BRANCH   4  24
ATOM     24  O   LIG d   1       8.811   6.400  -4.366  0.00  0.00    -0.494 OA
BRANCH  24  25
ATOM     25  C   LIG d   1       9.328   7.272  -5.373  0.00  0.00     0.079 C 
ATOM     26  H   LIG d   1       8.582   7.406  -6.157  0.00  0.00     0.066 H 
ATOM     27  H   LIG d   1       9.566   8.239  -4.930  0.00  0.00     0.066 H 
ATOM     28  H   LIG d   1      10.231   6.838  -5.803  0.00  0.00     0.066 H 
ENDBRANCH  24  25
ENDBRANCH   4  24
TORSDOF 8
ENDMDL
MODEL 10
REMARK VINA RESULT:      -4.2     11.944     13.253
REMARK  8 active torsions:
REMARK  status: ('A' for Active; 'I' for Inactive)
REMARK    1  A    between atoms: C_1  and  C_2 
REMARK    2  A    between atoms: C_2  and  C_4 
REMARK    3  A    between atoms: C_5  and  O_16 
REMARK    4  A    between atoms: C_7  and  O_14 
REMARK    5  A    between atoms: C_8  and  C_11 
REMARK    6  A    between atoms: C_9  and  O_10 
REMARK    7  A    between atoms: C_11  and  C_13 
REMARK    8  A    between atoms: O_14  and  C_15 
ROOT
ATOM      1  C   LIG d   1      11.143  10.181   0.498  0.00  0.00     0.101 A 
ATOM      2  C   LIG d   1      10.113  10.397  -0.440  0.00  0.00     0.134 A 
ATOM      3  C   LIG d   1       9.461   9.320  -1.017  0.00  0.00     0.023 A 
ATOM      4  C   LIG d   1       9.814   8.023  -0.682  0.00  0.00     0.138 A 
ATOM      5  C   LIG d   1      10.841   7.787   0.254  0.00  0.00     0.101 A 
ATOM      6  C   LIG d   1      11.503   8.871   0.850  0.00  0.00     0.145 A 
ATOM      7  H   LIG d   1       8.673   9.492  -1.735  0.00  0.00     0.069 H 
ENDROOT
BRANCH   1   8
ATOM      8  C   LIG d   1      11.829  11.320   1.108  0.00  0.00     0.167 C 
ATOM      9  O   LIG d   1      11.548  11.664   2.237  0.00  0.00    -0.292 OA
BRANCH   8  10
ATOM     10  C   LIG d   1      12.886  12.065   0.334  0.00  0.00    -0.001 C 
ATOM     11  H   LIG d   1      12.665  12.040  -0.641  0.00  0.00     0.031 H 
ATOM     12  H   LIG d   1      12.921  13.101   0.673  0.00  0.00     0.031 H 
ATOM     13  H   LIG d   1      13.856  11.596   0.499  0.00  0.00     0.031 H 
ENDBRANCH   8  10
ENDBRANCH   1   8
BRANCH   6  14
ATOM     14  O   LIG d   1      12.487   8.656   1.753  0.00  0.00    -0.505 OA
ATOM     15  H   LIG d   1      12.986   9.450   1.988  0.00  0.00     0.292 HD
ENDBRANCH   6  14
BRANCH   2  16
ATOM     16  O   LIG d   1       9.758  11.659  -0.776  0.00  0.00    -0.506 OA
ATOM     17  H   LIG d   1       9.586  11.782  -1.719  0.00  0.00     0.292 HD
ENDBRANCH   2  16
BRANCH   5  18
ATOM     18  C   LIG d   1      11.210   6.418   0.606  0.00  0.00     0.167 C 
ATOM     19  O   LIG d   1      10.745   5.902   1.601  0.00  0.00    -0.292 OA
BRANCH  18  20
ATOM     20  C   LIG d   1      12.168   5.647  -0.264  0.00  0.00    -0.001 C 
ATOM     21  H   LIG d   1      12.745   5.065   0.308  0.00  0.00     0.031 H 
ATOM     22  H   LIG d   1      12.796   6.345  -0.820  0.00  0.00     0.031 H 
ATOM     23  H   LIG d   1      11.606   5.028  -0.963  0.00  0.00     0.031 H 
ENDBRANCH  18  20
ENDBRANCH   5  18
BRANCH   4  24
ATOM     24  O   LIG d   1       9.169   6.979  -1.253  0.00  0.00    -0.494 OA
BRANCH  24  25
ATOM     25  C   LIG d   1       9.444   6.723  -2.632  0.00  0.00     0.079 C 
ATOM     26  H   LIG d   1       8.632   7.116  -3.245  0.00  0.00     0.066 H 
ATOM     27  H   LIG d   1      10.379   7.207  -2.912  0.00  0.00     0.066 H 
ATOM     28  H   LIG d   1       9.531   5.648  -2.791  0.00  0.00     0.066 H 
ENDBRANCH  24  25
ENDBRANCH   4  24
TORSDOF 8
ENDMDL
