MODEL 1
REMARK VINA RESULT:      -7.9      0.000      0.000
REMARK  4 active torsions:
REMARK  status: ('A' for Active; 'I' for Inactive)
REMARK    1  A    between atoms: C_1  and  C_2 
REMARK    2  A    between atoms: C_7  and  C_8 
REMARK    3  A    between atoms: N_27  and  C_30 
REMARK    4  A    between atoms: C_30  and  C_31 
ROOT
ATOM      1  C   LIG d   1       5.975  -1.238  -5.547  0.00  0.00     0.093 C 
ATOM      2  H   LIG d   1       7.030  -0.969  -5.481  0.00  0.00     0.062 H 
ATOM      3  C   LIG d   1       5.370  -0.650  -6.801  0.00  0.00     0.046 A 
ATOM      4  C   LIG d   1       4.619  -1.361  -7.670  0.00  0.00    -0.015 A 
ATOM      5  C   LIG d   1       4.226  -0.453  -8.730  0.00  0.00     0.003 A 
ATOM      6  C   LIG d   1       3.455  -0.622  -9.884  0.00  0.00    -0.052 A 
ATOM      7  C   LIG d   1       3.284   0.481 -10.682  0.00  0.00    -0.061 A 
ATOM      8  C   LIG d   1       3.846   1.709 -10.372  0.00  0.00    -0.060 A 
ATOM      9  C   LIG d   1       4.612   1.904  -9.236  0.00  0.00    -0.038 A 
ATOM     10  C   LIG d   1       4.802   0.802  -8.405  0.00  0.00     0.047 A 
ATOM     11  N   LIG d   1       5.485   0.645  -7.234  0.00  0.00    -0.356 N 
ATOM     12  H   LIG d   1       5.977   1.344  -6.777  0.00  0.00     0.166 HD
ATOM     13  C   LIG d   1       4.285  -2.822  -7.521  0.00  0.00     0.002 C 
ATOM     14  C   LIG d   1       4.546  -3.245  -6.068  0.00  0.00     0.107 A 
ATOM     15  H   LIG d   1       3.760  -2.822  -5.443  0.00  0.00     0.060 H 
ATOM     16  N   LIG d   1       5.835  -2.707  -5.636  0.00  0.00    -0.276 N 
ATOM     17  C   LIG d   1       6.881  -3.477  -5.325  0.00  0.00     0.234 A 
ATOM     18  O   LIG d   1       7.924  -2.927  -5.043  0.00  0.00    -0.274 OA
ATOM     19  C   LIG d   1       6.851  -4.971  -5.303  0.00  0.00     0.092 A 
ATOM     20  N   LIG d   1       5.535  -5.497  -5.624  0.00  0.00    -0.286 N 
ATOM     21  C   LIG d   1       4.496  -4.736  -5.964  0.00  0.00     0.237 A 
ATOM     22  O   LIG d   1       3.443  -5.287  -6.203  0.00  0.00    -0.274 OA
ATOM     23  H   LIG d   1       3.013  -1.575 -10.134  0.00  0.00     0.062 H 
ATOM     24  H   LIG d   1       2.694   0.389 -11.582  0.00  0.00     0.062 H 
ATOM     25  H   LIG d   1       3.679   2.542 -11.038  0.00  0.00     0.062 H 
ATOM     26  H   LIG d   1       5.044   2.867  -9.005  0.00  0.00     0.064 H 
ATOM     27  H   LIG d   1       4.913  -3.410  -8.190  0.00  0.00     0.034 H 
ATOM     28  H   LIG d   1       3.236  -2.986  -7.766  0.00  0.00     0.034 H 
ATOM     29  H   LIG d   1       7.137  -5.315  -4.309  0.00  0.00     0.056 H 
ATOM     30  H   LIG d   1       7.571  -5.351  -6.028  0.00  0.00     0.056 H 
ENDROOT
BRANCH   1  31
ATOM     31  C   LIG d   1       5.240  -0.726  -4.334  0.00  0.00    -0.018 A 
ATOM     32  C   LIG d   1       5.837   0.204  -3.506  0.00  0.00    -0.045 A 
ATOM     33  C   LIG d   1       5.163   0.674  -2.395  0.00  0.00    -0.059 A 
ATOM     34  C   LIG d   1       3.892   0.209  -2.108  0.00  0.00    -0.061 A 
ATOM     35  H   LIG d   1       5.629   1.401  -1.746  0.00  0.00     0.062 H 
ATOM     36  C   LIG d   1       3.294  -0.720  -2.941  0.00  0.00    -0.061 A 
ATOM     37  H   LIG d   1       3.367   0.573  -1.238  0.00  0.00     0.062 H 
ATOM     38  C   LIG d   1       3.967  -1.188  -4.052  0.00  0.00    -0.056 A 
ATOM     39  H   LIG d   1       2.300  -1.081  -2.719  0.00  0.00     0.062 H 
ATOM     40  H   LIG d   1       3.501  -1.916  -4.699  0.00  0.00     0.062 H 
BRANCH  32  41
ATOM     41  C   LIG d   1       7.224   0.707  -3.814  0.00  0.00    -0.039 C 
ATOM     42  H   LIG d   1       7.710   1.023  -2.891  0.00  0.00     0.028 H 
ATOM     43  H   LIG d   1       7.806  -0.091  -4.275  0.00  0.00     0.028 H 
ATOM     44  H   LIG d   1       7.160   1.553  -4.499  0.00  0.00     0.028 H 
ENDBRANCH  32  41
ENDBRANCH   1  31
BRANCH  20  45
ATOM     45  C   LIG d   1       5.340  -6.947  -5.572  0.00  0.00     0.046 C 
ATOM     46  H   LIG d   1       5.664  -7.324  -4.602  0.00  0.00     0.052 H 
ATOM     47  H   LIG d   1       4.283  -7.177  -5.715  0.00  0.00     0.052 H 
BRANCH  45  48
ATOM     48  C   LIG d   1       6.148  -7.603  -6.662  0.00  0.00     0.007 A 
ATOM     49  S   LIG d   1       7.548  -8.701  -6.517  0.00  0.00    -0.100 SA
ATOM     50  C   LIG d   1       7.840  -8.966  -8.258  0.00  0.00    -0.024 A 
ATOM     51  C   LIG d   1       6.871  -8.207  -8.825  0.00  0.00    -0.054 A 
ATOM     52  H   LIG d   1       8.596  -9.573  -8.735  0.00  0.00     0.069 H 
ATOM     53  C   LIG d   1       6.003  -7.509  -8.007  0.00  0.00    -0.050 A 
ATOM     54  H   LIG d   1       6.778  -8.150  -9.899  0.00  0.00     0.062 H 
ATOM     55  H   LIG d   1       5.222  -6.895  -8.433  0.00  0.00     0.063 H 
ENDBRANCH  45  48
ENDBRANCH  20  45
TORSDOF 4
ENDMDL
MODEL 2
REMARK VINA RESULT:      -7.8      2.276      3.088
REMARK  4 active torsions:
REMARK  status: ('A' for Active; 'I' for Inactive)
REMARK    1  A    between atoms: C_1  and  C_2 
REMARK    2  A    between atoms: C_7  and  C_8 
REMARK    3  A    between atoms: N_27  and  C_30 
REMARK    4  A    between atoms: C_30  and  C_31 
ROOT
ATOM      1  C   LIG d   1       6.110  -0.782  -5.474  0.00  0.00     0.093 C 
ATOM      2  H   LIG d   1       6.745   0.091  -5.627  0.00  0.00     0.062 H 
ATOM      3  C   LIG d   1       5.061  -0.855  -6.560  0.00  0.00     0.046 A 
ATOM      4  C   LIG d   1       4.795  -1.976  -7.265  0.00  0.00    -0.015 A 
ATOM      5  C   LIG d   1       3.737  -1.646  -8.200  0.00  0.00     0.003 A 
ATOM      6  C   LIG d   1       3.061  -2.395  -9.168  0.00  0.00    -0.052 A 
ATOM      7  C   LIG d   1       2.092  -1.744  -9.890  0.00  0.00    -0.061 A 
ATOM      8  C   LIG d   1       1.790  -0.408  -9.680  0.00  0.00    -0.060 A 
ATOM      9  C   LIG d   1       2.442   0.356  -8.728  0.00  0.00    -0.038 A 
ATOM     10  C   LIG d   1       3.431  -0.278  -7.979  0.00  0.00     0.047 A 
ATOM     11  N   LIG d   1       4.250   0.166  -6.981  0.00  0.00    -0.356 N 
ATOM     12  H   LIG d   1       4.257   1.067  -6.624  0.00  0.00     0.166 HD
ATOM     13  C   LIG d   1       5.497  -3.295  -7.078  0.00  0.00     0.002 C 
ATOM     14  C   LIG d   1       6.217  -3.286  -5.722  0.00  0.00     0.107 A 
ATOM     15  H   LIG d   1       5.467  -3.376  -4.937  0.00  0.00     0.060 H 
ATOM     16  N   LIG d   1       6.922  -2.015  -5.562  0.00  0.00    -0.276 N 
ATOM     17  C   LIG d   1       8.252  -1.921  -5.493  0.00  0.00     0.234 A 
ATOM     18  O   LIG d   1       8.737  -0.812  -5.427  0.00  0.00    -0.274 OA
ATOM     19  C   LIG d   1       9.182  -3.090  -5.495  0.00  0.00     0.092 A 
ATOM     20  N   LIG d   1       8.468  -4.356  -5.542  0.00  0.00    -0.286 N 
ATOM     21  C   LIG d   1       7.144  -4.457  -5.640  0.00  0.00     0.237 A 
ATOM     22  O   LIG d   1       6.659  -5.568  -5.662  0.00  0.00    -0.274 OA
ATOM     23  H   LIG d   1       3.289  -3.437  -9.338  0.00  0.00     0.062 H 
ATOM     24  H   LIG d   1       1.549  -2.290 -10.647  0.00  0.00     0.062 H 
ATOM     25  H   LIG d   1       1.018   0.052 -10.279  0.00  0.00     0.062 H 
ATOM     26  H   LIG d   1       2.197   1.396  -8.574  0.00  0.00     0.064 H 
ATOM     27  H   LIG d   1       6.225  -3.438  -7.877  0.00  0.00     0.034 H 
ATOM     28  H   LIG d   1       4.769  -4.106  -7.099  0.00  0.00     0.034 H 
ATOM     29  H   LIG d   1       9.790  -3.060  -4.592  0.00  0.00     0.056 H 
ATOM     30  H   LIG d   1       9.837  -3.021  -6.364  0.00  0.00     0.056 H 
ENDROOT
BRANCH   1  31
ATOM     31  C   LIG d   1       5.445  -0.702  -4.123  0.00  0.00    -0.018 A 
ATOM     32  C   LIG d   1       5.755   0.332  -3.261  0.00  0.00    -0.045 A 
ATOM     33  C   LIG d   1       5.145   0.406  -2.023  0.00  0.00    -0.059 A 
ATOM     34  C   LIG d   1       4.228  -0.557  -1.645  0.00  0.00    -0.061 A 
ATOM     35  H   LIG d   1       5.387   1.214  -1.349  0.00  0.00     0.062 H 
ATOM     36  C   LIG d   1       3.915  -1.590  -2.511  0.00  0.00    -0.061 A 
ATOM     37  H   LIG d   1       3.754  -0.501  -0.676  0.00  0.00     0.062 H 
ATOM     38  C   LIG d   1       4.524  -1.663  -3.748  0.00  0.00    -0.056 A 
ATOM     39  H   LIG d   1       3.196  -2.340  -2.217  0.00  0.00     0.062 H 
ATOM     40  H   LIG d   1       4.282  -2.471  -4.422  0.00  0.00     0.062 H 
BRANCH  32  41
ATOM     41  C   LIG d   1       6.759   1.379  -3.670  0.00  0.00    -0.039 C 
ATOM     42  H   LIG d   1       7.640   0.894  -4.091  0.00  0.00     0.028 H 
ATOM     43  H   LIG d   1       6.314   2.036  -4.418  0.00  0.00     0.028 H 
ATOM     44  H   LIG d   1       7.048   1.966  -2.798  0.00  0.00     0.028 H 
ENDBRANCH  32  41
ENDBRANCH   1  31
BRANCH  20  45
ATOM     45  C   LIG d   1       9.251  -5.592  -5.480  0.00  0.00     0.046 C 
ATOM     46  H   LIG d   1       8.719  -6.387  -6.003  0.00  0.00     0.052 H 
ATOM     47  H   LIG d   1      10.220  -5.433  -5.954  0.00  0.00     0.052 H 
BRANCH  45  48
ATOM     48  C   LIG d   1       9.455  -5.988  -4.040  0.00  0.00     0.007 A 
ATOM     49  S   LIG d   1       9.554  -7.620  -3.326  0.00  0.00    -0.100 SA
ATOM     50  C   LIG d   1       9.799  -7.136  -1.625  0.00  0.00    -0.024 A 
ATOM     51  C   LIG d   1       9.783  -5.784  -1.712  0.00  0.00    -0.054 A 
ATOM     52  H   LIG d   1       9.924  -7.760  -0.752  0.00  0.00     0.069 H 
ATOM     53  C   LIG d   1       9.607  -5.195  -2.951  0.00  0.00    -0.050 A 
ATOM     54  H   LIG d   1       9.906  -5.175  -0.828  0.00  0.00     0.062 H 
ATOM     55  H   LIG d   1       9.590  -4.119  -3.048  0.00  0.00     0.063 H 
ENDBRANCH  45  48
ENDBRANCH  20  45
TORSDOF 4
ENDMDL
MODEL 3
REMARK VINA RESULT:      -7.7      3.513      7.340
REMARK  4 active torsions:
REMARK  status: ('A' for Active; 'I' for Inactive)
REMARK    1  A    between atoms: C_1  and  C_2 
REMARK    2  A    between atoms: C_7  and  C_8 
REMARK    3  A    between atoms: N_27  and  C_30 
REMARK    4  A    between atoms: C_30  and  C_31 
ROOT
ATOM      1  C   LIG d   1       5.107  -1.122  -5.804  0.00  0.00     0.093 C 
ATOM      2  H   LIG d   1       4.350  -0.901  -6.556  0.00  0.00     0.062 H 
ATOM      3  C   LIG d   1       5.335  -2.615  -5.726  0.00  0.00     0.046 A 
ATOM      4  C   LIG d   1       6.561  -3.183  -5.745  0.00  0.00    -0.015 A 
ATOM      5  C   LIG d   1       6.364  -4.616  -5.649  0.00  0.00     0.003 A 
ATOM      6  C   LIG d   1       7.254  -5.694  -5.621  0.00  0.00    -0.052 A 
ATOM      7  C   LIG d   1       6.705  -6.948  -5.522  0.00  0.00    -0.061 A 
ATOM      8  C   LIG d   1       5.336  -7.149  -5.456  0.00  0.00    -0.060 A 
ATOM      9  C   LIG d   1       4.433  -6.100  -5.482  0.00  0.00    -0.038 A 
ATOM     10  C   LIG d   1       4.961  -4.815  -5.580  0.00  0.00     0.047 A 
ATOM     11  N   LIG d   1       4.373  -3.584  -5.628  0.00  0.00    -0.356 N 
ATOM     12  H   LIG d   1       3.418  -3.421  -5.598  0.00  0.00     0.166 HD
ATOM     13  C   LIG d   1       7.858  -2.423  -5.850  0.00  0.00     0.002 C 
ATOM     14  C   LIG d   1       7.600  -0.951  -5.499  0.00  0.00     0.107 A 
ATOM     15  H   LIG d   1       7.443  -0.879  -4.422  0.00  0.00     0.060 H 
ATOM     16  N   LIG d   1       6.392  -0.498  -6.185  0.00  0.00    -0.276 N 
ATOM     17  C   LIG d   1       6.399   0.442  -7.133  0.00  0.00     0.234 A 
ATOM     18  O   LIG d   1       5.349   0.696  -7.685  0.00  0.00    -0.274 OA
ATOM     19  C   LIG d   1       7.613   1.202  -7.559  0.00  0.00     0.092 A 
ATOM     20  N   LIG d   1       8.790   0.826  -6.793  0.00  0.00    -0.286 N 
ATOM     21  C   LIG d   1       8.796  -0.132  -5.868  0.00  0.00     0.237 A 
ATOM     22  O   LIG d   1       9.838  -0.353  -5.287  0.00  0.00    -0.274 OA
ATOM     23  H   LIG d   1       8.323  -5.547  -5.671  0.00  0.00     0.062 H 
ATOM     24  H   LIG d   1       7.361  -7.805  -5.497  0.00  0.00     0.062 H 
ATOM     25  H   LIG d   1       4.960  -8.159  -5.381  0.00  0.00     0.062 H 
ATOM     26  H   LIG d   1       3.368  -6.271  -5.429  0.00  0.00     0.064 H 
ATOM     27  H   LIG d   1       8.241  -2.494  -6.868  0.00  0.00     0.034 H 
ATOM     28  H   LIG d   1       8.586  -2.842  -5.155  0.00  0.00     0.034 H 
ATOM     29  H   LIG d   1       7.429   2.267  -7.424  0.00  0.00     0.056 H 
ATOM     30  H   LIG d   1       7.801   1.007  -8.615  0.00  0.00     0.056 H 
ENDROOT
BRANCH   1  31
ATOM     31  C   LIG d   1       4.663  -0.601  -4.461  0.00  0.00    -0.018 A 
ATOM     32  C   LIG d   1       3.494   0.129  -4.355  0.00  0.00    -0.045 A 
ATOM     33  C   LIG d   1       3.087   0.607  -3.124  0.00  0.00    -0.059 A 
ATOM     34  C   LIG d   1       3.851   0.358  -1.998  0.00  0.00    -0.061 A 
ATOM     35  H   LIG d   1       2.174   1.178  -3.041  0.00  0.00     0.062 H 
ATOM     36  C   LIG d   1       5.018  -0.376  -2.104  0.00  0.00    -0.061 A 
ATOM     37  H   LIG d   1       3.534   0.735  -1.037  0.00  0.00     0.062 H 
ATOM     38  C   LIG d   1       5.425  -0.854  -3.335  0.00  0.00    -0.056 A 
ATOM     39  H   LIG d   1       5.613  -0.573  -1.225  0.00  0.00     0.062 H 
ATOM     40  H   LIG d   1       6.337  -1.425  -3.418  0.00  0.00     0.062 H 
BRANCH  32  41
ATOM     41  C   LIG d   1       2.665   0.405  -5.583  0.00  0.00    -0.039 C 
ATOM     42  H   LIG d   1       2.673  -0.470  -6.232  0.00  0.00     0.028 H 
ATOM     43  H   LIG d   1       1.640   0.628  -5.286  0.00  0.00     0.028 H 
ATOM     44  H   LIG d   1       3.081   1.259  -6.118  0.00  0.00     0.028 H 
ENDBRANCH  32  41
ENDBRANCH   1  31
BRANCH  20  45
ATOM     45  C   LIG d   1      10.041   1.539  -7.056  0.00  0.00     0.046 C 
ATOM     46  H   LIG d   1      10.858   1.050  -6.524  0.00  0.00     0.052 H 
ATOM     47  H   LIG d   1      10.248   1.528  -8.126  0.00  0.00     0.052 H 
BRANCH  45  48
ATOM     48  C   LIG d   1       9.917   2.965  -6.583  0.00  0.00     0.007 A 
ATOM     49  S   LIG d   1      10.082   4.477  -7.516  0.00  0.00    -0.100 SA
ATOM     50  C   LIG d   1       9.783   5.628  -6.184  0.00  0.00    -0.024 A 
ATOM     51  C   LIG d   1       9.587   4.796  -5.132  0.00  0.00    -0.054 A 
ATOM     52  H   LIG d   1       9.766   6.708  -6.209  0.00  0.00     0.069 H 
ATOM     53  C   LIG d   1       9.655   3.431  -5.336  0.00  0.00    -0.050 A 
ATOM     54  H   LIG d   1       9.380   5.194  -4.149  0.00  0.00     0.062 H 
ATOM     55  H   LIG d   1       9.504   2.745  -4.515  0.00  0.00     0.063 H 
ENDBRANCH  45  48
ENDBRANCH  20  45
TORSDOF 4
ENDMDL
MODEL 4
REMARK VINA RESULT:      -7.2      3.104      5.686
REMARK  4 active torsions:
REMARK  status: ('A' for Active; 'I' for Inactive)
REMARK    1  A    between atoms: C_1  and  C_2 
REMARK    2  A    between atoms: C_7  and  C_8 
REMARK    3  A    between atoms: N_27  and  C_30 
REMARK    4  A    between atoms: C_30  and  C_31 
ROOT
ATOM      1  C   LIG d   1       3.614  -0.327  -7.551  0.00  0.00     0.093 C 
ATOM      2  H   LIG d   1       2.619   0.065  -7.766  0.00  0.00     0.062 H 
ATOM      3  C   LIG d   1       3.812  -0.439  -6.056  0.00  0.00     0.046 A 
ATOM      4  C   LIG d   1       4.290  -1.547  -5.449  0.00  0.00    -0.015 A 
ATOM      5  C   LIG d   1       4.336  -1.264  -4.028  0.00  0.00     0.003 A 
ATOM      6  C   LIG d   1       4.738  -2.022  -2.924  0.00  0.00    -0.052 A 
ATOM      7  C   LIG d   1       4.645  -1.421  -1.693  0.00  0.00    -0.061 A 
ATOM      8  C   LIG d   1       4.173  -0.128  -1.539  0.00  0.00    -0.060 A 
ATOM      9  C   LIG d   1       3.769   0.644  -2.614  0.00  0.00    -0.038 A 
ATOM     10  C   LIG d   1       3.854   0.062  -3.877  0.00  0.00     0.047 A 
ATOM     11  N   LIG d   1       3.548   0.528  -5.123  0.00  0.00    -0.356 N 
ATOM     12  H   LIG d   1       3.197   1.410  -5.318  0.00  0.00     0.166 HD
ATOM     13  C   LIG d   1       4.684  -2.815  -6.162  0.00  0.00     0.002 C 
ATOM     14  C   LIG d   1       4.869  -2.508  -7.654  0.00  0.00     0.107 A 
ATOM     15  H   LIG d   1       5.795  -1.946  -7.775  0.00  0.00     0.060 H 
ATOM     16  N   LIG d   1       3.752  -1.686  -8.117  0.00  0.00    -0.276 N 
ATOM     17  C   LIG d   1       2.860  -2.105  -9.018  0.00  0.00     0.234 A 
ATOM     18  O   LIG d   1       1.934  -1.368  -9.282  0.00  0.00    -0.274 OA
ATOM     19  C   LIG d   1       2.926  -3.423  -9.720  0.00  0.00     0.092 A 
ATOM     20  N   LIG d   1       4.101  -4.188  -9.338  0.00  0.00    -0.286 N 
ATOM     21  C   LIG d   1       4.978  -3.789  -8.419  0.00  0.00     0.237 A 
ATOM     22  O   LIG d   1       5.927  -4.509  -8.188  0.00  0.00    -0.274 OA
ATOM     23  H   LIG d   1       5.108  -3.031  -3.035  0.00  0.00     0.062 H 
ATOM     24  H   LIG d   1       4.946  -1.976  -0.817  0.00  0.00     0.062 H 
ATOM     25  H   LIG d   1       4.119   0.292  -0.546  0.00  0.00     0.062 H 
ATOM     26  H   LIG d   1       3.404   1.652  -2.480  0.00  0.00     0.064 H 
ATOM     27  H   LIG d   1       3.900  -3.562  -6.038  0.00  0.00     0.034 H 
ATOM     28  H   LIG d   1       5.618  -3.194  -5.748  0.00  0.00     0.034 H 
ATOM     29  H   LIG d   1       2.951  -3.249 -10.796  0.00  0.00     0.056 H 
ATOM     30  H   LIG d   1       2.034  -4.000  -9.477  0.00  0.00     0.056 H 
ENDROOT
BRANCH   1  31
ATOM     31  C   LIG d   1       4.661   0.582  -8.140  0.00  0.00    -0.018 A 
ATOM     32  C   LIG d   1       4.282   1.735  -8.802  0.00  0.00    -0.045 A 
ATOM     33  C   LIG d   1       5.243   2.569  -9.342  0.00  0.00    -0.059 A 
ATOM     34  C   LIG d   1       6.583   2.249  -9.224  0.00  0.00    -0.061 A 
ATOM     35  H   LIG d   1       4.948   3.469  -9.860  0.00  0.00     0.062 H 
ATOM     36  C   LIG d   1       6.962   1.097  -8.558  0.00  0.00    -0.061 A 
ATOM     37  H   LIG d   1       7.333   2.899  -9.650  0.00  0.00     0.062 H 
ATOM     38  C   LIG d   1       6.002   0.264  -8.018  0.00  0.00    -0.056 A 
ATOM     39  H   LIG d   1       8.008   0.849  -8.463  0.00  0.00     0.062 H 
ATOM     40  H   LIG d   1       6.297  -0.636  -7.501  0.00  0.00     0.062 H 
BRANCH  32  41
ATOM     41  C   LIG d   1       2.822   2.081  -8.936  0.00  0.00    -0.039 C 
ATOM     42  H   LIG d   1       2.234   1.165  -8.993  0.00  0.00     0.028 H 
ATOM     43  H   LIG d   1       2.506   2.662  -8.070  0.00  0.00     0.028 H 
ATOM     44  H   LIG d   1       2.669   2.668  -9.842  0.00  0.00     0.028 H 
ENDBRANCH  32  41
ENDBRANCH   1  31
BRANCH  20  45
ATOM     45  C   LIG d   1       4.333  -5.473 -10.000  0.00  0.00     0.046 C 
ATOM     46  H   LIG d   1       5.187  -5.971  -9.539  0.00  0.00     0.052 H 
ATOM     47  H   LIG d   1       3.448  -6.102  -9.894  0.00  0.00     0.052 H 
BRANCH  45  48
ATOM     48  C   LIG d   1       4.614  -5.243 -11.463  0.00  0.00     0.007 A 
ATOM     49  S   LIG d   1       3.664  -5.755 -12.884  0.00  0.00    -0.100 SA
ATOM     50  C   LIG d   1       4.718  -5.067 -14.151  0.00  0.00    -0.024 A 
ATOM     51  C   LIG d   1       5.711  -4.508 -13.418  0.00  0.00    -0.054 A 
ATOM     52  H   LIG d   1       4.596  -5.093 -15.224  0.00  0.00     0.069 H 
ATOM     53  C   LIG d   1       5.658  -4.598 -12.039  0.00  0.00    -0.050 A 
ATOM     54  H   LIG d   1       6.531  -3.999 -13.903  0.00  0.00     0.062 H 
ATOM     55  H   LIG d   1       6.437  -4.162 -11.431  0.00  0.00     0.063 H 
ENDBRANCH  45  48
ENDBRANCH  20  45
TORSDOF 4
ENDMDL
MODEL 5
REMARK VINA RESULT:      -7.1      1.766      4.957
REMARK  4 active torsions:
REMARK  status: ('A' for Active; 'I' for Inactive)
REMARK    1  A    between atoms: C_1  and  C_2 
REMARK    2  A    between atoms: C_7  and  C_8 
REMARK    3  A    between atoms: N_27  and  C_30 
REMARK    4  A    between atoms: C_30  and  C_31 
ROOT
ATOM      1  C   LIG d   1       4.328  -1.771  -7.452  0.00  0.00     0.093 C 
ATOM      2  H   LIG d   1       3.322  -1.809  -7.870  0.00  0.00     0.062 H 
ATOM      3  C   LIG d   1       4.283  -1.210  -6.049  0.00  0.00     0.046 A 
ATOM      4  C   LIG d   1       4.900  -1.787  -4.996  0.00  0.00    -0.015 A 
ATOM      5  C   LIG d   1       4.627  -0.958  -3.839  0.00  0.00     0.003 A 
ATOM      6  C   LIG d   1       5.001  -1.054  -2.495  0.00  0.00    -0.052 A 
ATOM      7  C   LIG d   1       4.550  -0.067  -1.654  0.00  0.00    -0.061 A 
ATOM      8  C   LIG d   1       3.759   0.979  -2.103  0.00  0.00    -0.060 A 
ATOM      9  C   LIG d   1       3.376   1.098  -3.428  0.00  0.00    -0.038 A 
ATOM     10  C   LIG d   1       3.819   0.112  -4.305  0.00  0.00     0.047 A 
ATOM     11  N   LIG d   1       3.633  -0.074  -5.644  0.00  0.00    -0.356 N 
ATOM     12  H   LIG d   1       3.118   0.510  -6.222  0.00  0.00     0.166 HD
ATOM     13  C   LIG d   1       5.708  -3.057  -5.064  0.00  0.00     0.002 C 
ATOM     14  C   LIG d   1       6.072  -3.335  -6.529  0.00  0.00     0.107 A 
ATOM     15  H   LIG d   1       6.841  -2.624  -6.831  0.00  0.00     0.060 H 
ATOM     16  N   LIG d   1       4.889  -3.136  -7.364  0.00  0.00    -0.276 N 
ATOM     17  C   LIG d   1       4.297  -4.123  -8.040  0.00  0.00     0.234 A 
ATOM     18  O   LIG d   1       3.282  -3.862  -8.649  0.00  0.00    -0.274 OA
ATOM     19  C   LIG d   1       4.802  -5.529  -8.096  0.00  0.00     0.092 A 
ATOM     20  N   LIG d   1       6.042  -5.694  -7.355  0.00  0.00    -0.286 N 
ATOM     21  C   LIG d   1       6.621  -4.721  -6.654  0.00  0.00     0.237 A 
ATOM     22  O   LIG d   1       7.660  -4.974  -6.082  0.00  0.00    -0.274 OA
ATOM     23  H   LIG d   1       5.617  -1.865  -2.136  0.00  0.00     0.062 H 
ATOM     24  H   LIG d   1       4.819  -0.108  -0.609  0.00  0.00     0.062 H 
ATOM     25  H   LIG d   1       3.432   1.726  -1.396  0.00  0.00     0.062 H 
ATOM     26  H   LIG d   1       2.759   1.919  -3.765  0.00  0.00     0.064 H 
ATOM     27  H   LIG d   1       5.119  -3.886  -4.671  0.00  0.00     0.034 H 
ATOM     28  H   LIG d   1       6.619  -2.945  -4.476  0.00  0.00     0.034 H 
ATOM     29  H   LIG d   1       4.973  -5.802  -9.137  0.00  0.00     0.056 H 
ATOM     30  H   LIG d   1       4.048  -6.194  -7.675  0.00  0.00     0.056 H 
ENDROOT
BRANCH   1  31
ATOM     31  C   LIG d   1       5.211  -0.910  -8.320  0.00  0.00    -0.018 A 
ATOM     32  C   LIG d   1       4.681  -0.268  -9.422  0.00  0.00    -0.045 A 
ATOM     33  C   LIG d   1       5.490   0.522 -10.217  0.00  0.00    -0.059 A 
ATOM     34  C   LIG d   1       6.831   0.665  -9.913  0.00  0.00    -0.061 A 
ATOM     35  H   LIG d   1       5.076   1.024 -11.080  0.00  0.00     0.062 H 
ATOM     36  C   LIG d   1       7.360   0.025  -8.806  0.00  0.00    -0.061 A 
ATOM     37  H   LIG d   1       7.464   1.279 -10.537  0.00  0.00     0.062 H 
ATOM     38  C   LIG d   1       6.551  -0.763  -8.012  0.00  0.00    -0.056 A 
ATOM     39  H   LIG d   1       8.407   0.140  -8.567  0.00  0.00     0.062 H 
ATOM     40  H   LIG d   1       6.965  -1.265  -7.150  0.00  0.00     0.062 H 
BRANCH  32  41
ATOM     41  C   LIG d   1       3.221  -0.428  -9.758  0.00  0.00    -0.039 C 
ATOM     42  H   LIG d   1       3.062  -0.202 -10.813  0.00  0.00     0.028 H 
ATOM     43  H   LIG d   1       2.912  -1.454  -9.557  0.00  0.00     0.028 H 
ATOM     44  H   LIG d   1       2.630   0.255  -9.147  0.00  0.00     0.028 H 
ENDBRANCH  32  41
ENDBRANCH   1  31
BRANCH  20  45
ATOM     45  C   LIG d   1       6.691  -7.006  -7.379  0.00  0.00     0.046 C 
ATOM     46  H   LIG d   1       6.749  -7.365  -8.407  0.00  0.00     0.052 H 
ATOM     47  H   LIG d   1       7.697  -6.922  -6.967  0.00  0.00     0.052 H 
BRANCH  45  48
ATOM     48  C   LIG d   1       5.890  -7.979  -6.553  0.00  0.00     0.007 A 
ATOM     49  S   LIG d   1       5.140  -9.522  -7.046  0.00  0.00    -0.100 SA
ATOM     50  C   LIG d   1       4.429  -9.971  -5.471  0.00  0.00    -0.024 A 
ATOM     51  C   LIG d   1       4.799  -8.928  -4.688  0.00  0.00    -0.054 A 
ATOM     52  H   LIG d   1       3.851 -10.845  -5.211  0.00  0.00     0.069 H 
ATOM     53  C   LIG d   1       5.549  -7.908  -5.242  0.00  0.00    -0.050 A 
ATOM     54  H   LIG d   1       4.514  -8.896  -3.647  0.00  0.00     0.062 H 
ATOM     55  H   LIG d   1       5.856  -7.064  -4.641  0.00  0.00     0.063 H 
ENDBRANCH  45  48
ENDBRANCH  20  45
TORSDOF 4
ENDMDL
MODEL 6
REMARK VINA RESULT:      -7.0      2.047      5.117
REMARK  4 active torsions:
REMARK  status: ('A' for Active; 'I' for Inactive)
REMARK    1  A    between atoms: C_1  and  C_2 
REMARK    2  A    between atoms: C_7  and  C_8 
REMARK    3  A    between atoms: N_27  and  C_30 
REMARK    4  A    between atoms: C_30  and  C_31 
ROOT
ATOM      1  C   LIG d   1       4.292  -2.799  -7.164  0.00  0.00     0.093 C 
ATOM      2  H   LIG d   1       3.301  -2.899  -7.606  0.00  0.00     0.062 H 
ATOM      3  C   LIG d   1       4.202  -2.033  -5.863  0.00  0.00     0.046 A 
ATOM      4  C   LIG d   1       4.779  -2.446  -4.714  0.00  0.00    -0.015 A 
ATOM      5  C   LIG d   1       4.472  -1.451  -3.705  0.00  0.00     0.003 A 
ATOM      6  C   LIG d   1       4.799  -1.344  -2.350  0.00  0.00    -0.052 A 
ATOM      7  C   LIG d   1       4.326  -0.240  -1.684  0.00  0.00    -0.061 A 
ATOM      8  C   LIG d   1       3.558   0.727  -2.313  0.00  0.00    -0.060 A 
ATOM      9  C   LIG d   1       3.221   0.645  -3.653  0.00  0.00    -0.038 A 
ATOM     10  C   LIG d   1       3.688  -0.463  -4.355  0.00  0.00     0.047 A 
ATOM     11  N   LIG d   1       3.546  -0.848  -5.657  0.00  0.00    -0.356 N 
ATOM     12  H   LIG d   1       3.056  -0.358  -6.334  0.00  0.00     0.166 HD
ATOM     13  C   LIG d   1       5.581  -3.712  -4.562  0.00  0.00     0.002 C 
ATOM     14  C   LIG d   1       5.993  -4.209  -5.954  0.00  0.00     0.107 A 
ATOM     15  H   LIG d   1       6.777  -3.552  -6.333  0.00  0.00     0.060 H 
ATOM     16  N   LIG d   1       4.840  -4.136  -6.850  0.00  0.00    -0.276 N 
ATOM     17  C   LIG d   1       4.266  -5.214  -7.391  0.00  0.00     0.234 A 
ATOM     18  O   LIG d   1       3.274  -5.046  -8.067  0.00  0.00    -0.274 OA
ATOM     19  C   LIG d   1       4.763  -6.612  -7.216  0.00  0.00     0.092 A 
ATOM     20  N   LIG d   1       5.976  -6.665  -6.416  0.00  0.00    -0.286 N 
ATOM     21  C   LIG d   1       6.537  -5.598  -5.850  0.00  0.00     0.237 A 
ATOM     22  O   LIG d   1       7.554  -5.764  -5.210  0.00  0.00    -0.274 OA
ATOM     23  H   LIG d   1       5.397  -2.092  -1.852  0.00  0.00     0.062 H 
ATOM     24  H   LIG d   1       4.558  -0.124  -0.636  0.00  0.00     0.062 H 
ATOM     25  H   LIG d   1       3.212   1.573  -1.738  0.00  0.00     0.062 H 
ATOM     26  H   LIG d   1       2.622   1.407  -4.131  0.00  0.00     0.064 H 
ATOM     27  H   LIG d   1       4.973  -4.471  -4.069  0.00  0.00     0.034 H 
ATOM     28  H   LIG d   1       6.472  -3.514  -3.966  0.00  0.00     0.034 H 
ATOM     29  H   LIG d   1       4.968  -7.040  -8.197  0.00  0.00     0.056 H 
ATOM     30  H   LIG d   1       3.991  -7.205  -6.727  0.00  0.00     0.056 H 
ENDROOT
BRANCH   1  31
ATOM     31  C   LIG d   1       5.210  -2.081  -8.119  0.00  0.00    -0.018 A 
ATOM     32  C   LIG d   1       4.740  -1.672  -9.353  0.00  0.00    -0.045 A 
ATOM     33  C   LIG d   1       5.581  -1.013 -10.229  0.00  0.00    -0.059 A 
ATOM     34  C   LIG d   1       6.895  -0.766  -9.874  0.00  0.00    -0.061 A 
ATOM     35  H   LIG d   1       5.215  -0.694 -11.193  0.00  0.00     0.062 H 
ATOM     36  C   LIG d   1       7.363  -1.171  -8.637  0.00  0.00    -0.061 A 
ATOM     37  H   LIG d   1       7.553  -0.254 -10.560  0.00  0.00     0.062 H 
ATOM     38  C   LIG d   1       6.522  -1.830  -7.761  0.00  0.00    -0.056 A 
ATOM     39  H   LIG d   1       8.388  -0.975  -8.358  0.00  0.00     0.062 H 
ATOM     40  H   LIG d   1       6.889  -2.149  -6.797  0.00  0.00     0.062 H 
BRANCH  32  41
ATOM     41  C   LIG d   1       3.311  -1.947  -9.743  0.00  0.00    -0.039 C 
ATOM     42  H   LIG d   1       3.184  -1.768 -10.811  0.00  0.00     0.028 H 
ATOM     43  H   LIG d   1       3.065  -2.984  -9.516  0.00  0.00     0.028 H 
ATOM     44  H   LIG d   1       2.648  -1.286  -9.183  0.00  0.00     0.028 H 
ENDBRANCH  32  41
ENDBRANCH   1  31
BRANCH  20  45
ATOM     45  C   LIG d   1       6.616  -7.967  -6.219  0.00  0.00     0.046 C 
ATOM     46  H   LIG d   1       6.906  -8.380  -7.186  0.00  0.00     0.052 H 
ATOM     47  H   LIG d   1       7.504  -7.845  -5.597  0.00  0.00     0.052 H 
BRANCH  45  48
ATOM     48  C   LIG d   1       5.652  -8.905  -5.540  0.00  0.00     0.007 A 
ATOM     49  S   LIG d   1       4.823 -10.340  -6.204  0.00  0.00    -0.100 SA
ATOM     50  C   LIG d   1       3.918 -10.808  -4.738  0.00  0.00    -0.024 A 
ATOM     51  C   LIG d   1       4.297  -9.851  -3.856  0.00  0.00    -0.054 A 
ATOM     52  H   LIG d   1       3.242 -11.637  -4.593  0.00  0.00     0.069 H 
ATOM     53  C   LIG d   1       5.187  -8.876  -4.267  0.00  0.00    -0.050 A 
ATOM     54  H   LIG d   1       3.911  -9.851  -2.847  0.00  0.00     0.062 H 
ATOM     55  H   LIG d   1       5.505  -8.101  -3.584  0.00  0.00     0.063 H 
ENDBRANCH  45  48
ENDBRANCH  20  45
TORSDOF 4
ENDMDL
MODEL 7
REMARK VINA RESULT:      -7.0      2.938      6.251
REMARK  4 active torsions:
REMARK  status: ('A' for Active; 'I' for Inactive)
REMARK    1  A    between atoms: C_1  and  C_2 
REMARK    2  A    between atoms: C_7  and  C_8 
REMARK    3  A    between atoms: N_27  and  C_30 
REMARK    4  A    between atoms: C_30  and  C_31 
ROOT
ATOM      1  C   LIG d   1       5.767  -2.075  -6.879  0.00  0.00     0.093 C 
ATOM      2  H   LIG d   1       6.838  -1.938  -7.028  0.00  0.00     0.062 H 
ATOM      3  C   LIG d   1       5.308  -1.282  -5.676  0.00  0.00     0.046 A 
ATOM      4  C   LIG d   1       4.231  -0.466  -5.689  0.00  0.00    -0.015 A 
ATOM      5  C   LIG d   1       4.118   0.105  -4.361  0.00  0.00     0.003 A 
ATOM      6  C   LIG d   1       3.211   1.003  -3.791  0.00  0.00    -0.052 A 
ATOM      7  C   LIG d   1       3.411   1.333  -2.473  0.00  0.00    -0.061 A 
ATOM      8  C   LIG d   1       4.460   0.810  -1.734  0.00  0.00    -0.060 A 
ATOM      9  C   LIG d   1       5.372  -0.080  -2.274  0.00  0.00    -0.038 A 
ATOM     10  C   LIG d   1       5.193  -0.435  -3.609  0.00  0.00     0.047 A 
ATOM     11  N   LIG d   1       5.889  -1.269  -4.436  0.00  0.00    -0.356 N 
ATOM     12  H   LIG d   1       6.677  -1.775  -4.185  0.00  0.00     0.166 HD
ATOM     13  C   LIG d   1       3.348  -0.227  -6.886  0.00  0.00     0.002 C 
ATOM     14  C   LIG d   1       3.589  -1.345  -7.911  0.00  0.00     0.107 A 
ATOM     15  H   LIG d   1       3.128  -2.258  -7.534  0.00  0.00     0.060 H 
ATOM     16  N   LIG d   1       5.027  -1.564  -8.053  0.00  0.00    -0.276 N 
ATOM     17  C   LIG d   1       5.694  -1.323  -9.184  0.00  0.00     0.234 A 
ATOM     18  O   LIG d   1       6.897  -1.476  -9.174  0.00  0.00    -0.274 OA
ATOM     19  C   LIG d   1       5.058  -0.877 -10.460  0.00  0.00     0.092 A 
ATOM     20  N   LIG d   1       3.614  -0.770 -10.343  0.00  0.00    -0.286 N 
ATOM     21  C   LIG d   1       2.945  -0.979  -9.210  0.00  0.00     0.237 A 
ATOM     22  O   LIG d   1       1.738  -0.868  -9.235  0.00  0.00    -0.274 OA
ATOM     23  H   LIG d   1       2.390   1.415  -4.358  0.00  0.00     0.062 H 
ATOM     24  H   LIG d   1       2.730   2.023  -1.999  0.00  0.00     0.062 H 
ATOM     25  H   LIG d   1       4.569   1.107  -0.702  0.00  0.00     0.062 H 
ATOM     26  H   LIG d   1       6.185  -0.481  -1.687  0.00  0.00     0.064 H 
ATOM     27  H   LIG d   1       3.593   0.736  -7.333  0.00  0.00     0.034 H 
ATOM     28  H   LIG d   1       2.303  -0.232  -6.579  0.00  0.00     0.034 H 
ATOM     29  H   LIG d   1       5.297  -1.595 -11.244  0.00  0.00     0.056 H 
ATOM     30  H   LIG d   1       5.464   0.096 -10.738  0.00  0.00     0.056 H 
ENDROOT
BRANCH   1  31
ATOM     31  C   LIG d   1       5.460  -3.537  -6.677  0.00  0.00    -0.018 A 
ATOM     32  C   LIG d   1       6.466  -4.408  -6.303  0.00  0.00    -0.045 A 
ATOM     33  C   LIG d   1       6.184  -5.748  -6.117  0.00  0.00    -0.059 A 
ATOM     34  C   LIG d   1       4.898  -6.219  -6.310  0.00  0.00    -0.061 A 
ATOM     35  H   LIG d   1       6.969  -6.430  -5.826  0.00  0.00     0.062 H 
ATOM     36  C   LIG d   1       3.892  -5.345  -6.679  0.00  0.00    -0.061 A 
ATOM     37  H   LIG d   1       4.680  -7.267  -6.168  0.00  0.00     0.062 H 
ATOM     38  C   LIG d   1       4.173  -4.005  -6.864  0.00  0.00    -0.056 A 
ATOM     39  H   LIG d   1       2.887  -5.711  -6.826  0.00  0.00     0.062 H 
ATOM     40  H   LIG d   1       3.388  -3.324  -7.156  0.00  0.00     0.062 H 
BRANCH  32  41
ATOM     41  C   LIG d   1       7.868  -3.897  -6.100  0.00  0.00    -0.039 C 
ATOM     42  H   LIG d   1       8.105  -3.896  -5.035  0.00  0.00     0.028 H 
ATOM     43  H   LIG d   1       8.571  -4.543  -6.627  0.00  0.00     0.028 H 
ATOM     44  H   LIG d   1       7.946  -2.882  -6.490  0.00  0.00     0.028 H 
ENDBRANCH  32  41
ENDBRANCH   1  31
BRANCH  20  45
ATOM     45  C   LIG d   1       2.849  -0.408 -11.538  0.00  0.00     0.046 C 
ATOM     46  H   LIG d   1       1.808  -0.232 -11.265  0.00  0.00     0.052 H 
ATOM     47  H   LIG d   1       3.267   0.499 -11.976  0.00  0.00     0.052 H 
BRANCH  45  48
ATOM     48  C   LIG d   1       2.922  -1.530 -12.541  0.00  0.00     0.007 A 
ATOM     49  S   LIG d   1       2.541  -3.260 -12.323  0.00  0.00    -0.100 SA
ATOM     50  C   LIG d   1       2.900  -3.808 -13.984  0.00  0.00    -0.024 A 
ATOM     51  C   LIG d   1       3.287  -2.655 -14.583  0.00  0.00    -0.054 A 
ATOM     52  H   LIG d   1       2.831  -4.801 -14.402  0.00  0.00     0.069 H 
ATOM     53  C   LIG d   1       3.297  -1.487 -13.844  0.00  0.00    -0.050 A 
ATOM     54  H   LIG d   1       3.581  -2.649 -15.622  0.00  0.00     0.062 H 
ATOM     55  H   LIG d   1       3.602  -0.555 -14.296  0.00  0.00     0.063 H 
ENDBRANCH  45  48
ENDBRANCH  20  45
TORSDOF 4
ENDMDL
MODEL 8
REMARK VINA RESULT:      -6.9      3.092      6.429
REMARK  4 active torsions:
REMARK  status: ('A' for Active; 'I' for Inactive)
REMARK    1  A    between atoms: C_1  and  C_2 
REMARK    2  A    between atoms: C_7  and  C_8 
REMARK    3  A    between atoms: N_27  and  C_30 
REMARK    4  A    between atoms: C_30  and  C_31 
ROOT
ATOM      1  C   LIG d   1       6.388  -2.889  -4.365  0.00  0.00     0.093 C 
ATOM      2  H   LIG d   1       5.830  -3.610  -3.768  0.00  0.00     0.062 H 
ATOM      3  C   LIG d   1       7.863  -3.218  -4.324  0.00  0.00     0.046 A 
ATOM      4  C   LIG d   1       8.641  -3.292  -5.426  0.00  0.00    -0.015 A 
ATOM      5  C   LIG d   1       9.979  -3.623  -4.978  0.00  0.00     0.003 A 
ATOM      6  C   LIG d   1      11.183  -3.825  -5.659  0.00  0.00    -0.052 A 
ATOM      7  C   LIG d   1      12.283  -4.133  -4.896  0.00  0.00    -0.061 A 
ATOM      8  C   LIG d   1      12.214  -4.243  -3.517  0.00  0.00    -0.060 A 
ATOM      9  C   LIG d   1      11.036  -4.048  -2.818  0.00  0.00    -0.038 A 
ATOM     10  C   LIG d   1       9.903  -3.733  -3.565  0.00  0.00     0.047 A 
ATOM     11  N   LIG d   1       8.610  -3.481  -3.207  0.00  0.00    -0.356 N 
ATOM     12  H   LIG d   1       8.272  -3.487  -2.299  0.00  0.00     0.166 HD
ATOM     13  C   LIG d   1       8.158  -3.066  -6.835  0.00  0.00     0.002 C 
ATOM     14  C   LIG d   1       6.808  -2.336  -6.786  0.00  0.00     0.107 A 
ATOM     15  H   LIG d   1       6.991  -1.301  -6.497  0.00  0.00     0.060 H 
ATOM     16  N   LIG d   1       5.958  -2.967  -5.778  0.00  0.00    -0.276 N 
ATOM     17  C   LIG d   1       4.824  -3.605  -6.075  0.00  0.00     0.234 A 
ATOM     18  O   LIG d   1       4.229  -4.150  -5.170  0.00  0.00    -0.274 OA
ATOM     19  C   LIG d   1       4.240  -3.693  -7.447  0.00  0.00     0.092 A 
ATOM     20  N   LIG d   1       5.032  -2.968  -8.426  0.00  0.00    -0.286 N 
ATOM     21  C   LIG d   1       6.180  -2.355  -8.143  0.00  0.00     0.237 A 
ATOM     22  O   LIG d   1       6.750  -1.773  -9.041  0.00  0.00    -0.274 OA
ATOM     23  H   LIG d   1      11.246  -3.740  -6.733  0.00  0.00     0.062 H 
ATOM     24  H   LIG d   1      13.230  -4.295  -5.388  0.00  0.00     0.062 H 
ATOM     25  H   LIG d   1      13.111  -4.490  -2.968  0.00  0.00     0.062 H 
ATOM     26  H   LIG d   1      10.996  -4.137  -1.742  0.00  0.00     0.064 H 
ATOM     27  H   LIG d   1       8.035  -4.026  -7.337  0.00  0.00     0.034 H 
ATOM     28  H   LIG d   1       8.882  -2.459  -7.379  0.00  0.00     0.034 H 
ATOM     29  H   LIG d   1       3.232  -3.279  -7.430  0.00  0.00     0.056 H 
ATOM     30  H   LIG d   1       4.185  -4.741  -7.743  0.00  0.00     0.056 H 
ENDROOT
BRANCH   1  31
ATOM     31  C   LIG d   1       6.158  -1.496  -3.836  0.00  0.00    -0.018 A 
ATOM     32  C   LIG d   1       5.082  -1.241  -3.008  0.00  0.00    -0.045 A 
ATOM     33  C   LIG d   1       4.871   0.036  -2.522  0.00  0.00    -0.059 A 
ATOM     34  C   LIG d   1       5.735   1.059  -2.869  0.00  0.00    -0.061 A 
ATOM     35  H   LIG d   1       4.030   0.236  -1.876  0.00  0.00     0.062 H 
ATOM     36  C   LIG d   1       6.814   0.802  -3.694  0.00  0.00    -0.061 A 
ATOM     37  H   LIG d   1       5.568   2.057  -2.492  0.00  0.00     0.062 H 
ATOM     38  C   LIG d   1       7.025  -0.475  -4.179  0.00  0.00    -0.056 A 
ATOM     39  H   LIG d   1       7.490   1.600  -3.962  0.00  0.00     0.062 H 
ATOM     40  H   LIG d   1       7.866  -0.674  -4.826  0.00  0.00     0.062 H 
BRANCH  32  41
ATOM     41  C   LIG d   1       4.138  -2.354  -2.635  0.00  0.00    -0.039 C 
ATOM     42  H   LIG d   1       4.199  -2.540  -1.562  0.00  0.00     0.028 H 
ATOM     43  H   LIG d   1       3.118  -2.069  -2.896  0.00  0.00     0.028 H 
ATOM     44  H   LIG d   1       4.411  -3.260  -3.177  0.00  0.00     0.028 H 
ENDBRANCH  32  41
ENDBRANCH   1  31
BRANCH  20  45
ATOM     45  C   LIG d   1       4.542  -2.910  -9.805  0.00  0.00     0.046 C 
ATOM     46  H   LIG d   1       5.332  -2.537 -10.457  0.00  0.00     0.052 H 
ATOM     47  H   LIG d   1       4.247  -3.909 -10.128  0.00  0.00     0.052 H 
BRANCH  45  48
ATOM     48  C   LIG d   1       3.352  -1.987  -9.878  0.00  0.00     0.007 A 
ATOM     49  S   LIG d   1       1.687  -2.340 -10.412  0.00  0.00    -0.100 SA
ATOM     50  C   LIG d   1       0.994  -0.713 -10.167  0.00  0.00    -0.024 A 
ATOM     51  C   LIG d   1       2.063  -0.018  -9.708  0.00  0.00    -0.054 A 
ATOM     52  H   LIG d   1      -0.015  -0.370 -10.343  0.00  0.00     0.069 H 
ATOM     53  C   LIG d   1       3.272  -0.672  -9.559  0.00  0.00    -0.050 A 
ATOM     54  H   LIG d   1       1.972   1.029  -9.461  0.00  0.00     0.062 H 
ATOM     55  H   LIG d   1       4.141  -0.141  -9.196  0.00  0.00     0.063 H 
ENDBRANCH  45  48
ENDBRANCH  20  45
TORSDOF 4
ENDMDL
MODEL 9
REMARK VINA RESULT:      -6.9      3.256      4.942
REMARK  4 active torsions:
REMARK  status: ('A' for Active; 'I' for Inactive)
REMARK    1  A    between atoms: C_1  and  C_2 
REMARK    2  A    between atoms: C_7  and  C_8 
REMARK    3  A    between atoms: N_27  and  C_30 
REMARK    4  A    between atoms: C_30  and  C_31 
ROOT
ATOM      1  C   LIG d   1       7.820  -2.556  -5.502  0.00  0.00     0.093 C 
ATOM      2  H   LIG d   1       8.233  -1.912  -6.279  0.00  0.00     0.062 H 
ATOM      3  C   LIG d   1       6.812  -1.787  -4.677  0.00  0.00     0.046 A 
ATOM      4  C   LIG d   1       5.580  -2.255  -4.381  0.00  0.00    -0.015 A 
ATOM      5  C   LIG d   1       4.924  -1.240  -3.579  0.00  0.00     0.003 A 
ATOM      6  C   LIG d   1       3.657  -1.170  -2.992  0.00  0.00    -0.052 A 
ATOM      7  C   LIG d   1       3.364  -0.030  -2.285  0.00  0.00    -0.061 A 
ATOM      8  C   LIG d   1       4.271   1.009  -2.155  0.00  0.00    -0.060 A 
ATOM      9  C   LIG d   1       5.532   0.965  -2.725  0.00  0.00    -0.038 A 
ATOM     10  C   LIG d   1       5.858  -0.180  -3.448  0.00  0.00     0.047 A 
ATOM     11  N   LIG d   1       6.986  -0.547  -4.123  0.00  0.00    -0.356 N 
ATOM     12  H   LIG d   1       7.790  -0.010  -4.199  0.00  0.00     0.166 HD
ATOM     13  C   LIG d   1       5.036  -3.586  -4.828  0.00  0.00     0.002 C 
ATOM     14  C   LIG d   1       6.206  -4.475  -5.274  0.00  0.00     0.107 A 
ATOM     15  H   LIG d   1       6.747  -4.798  -4.385  0.00  0.00     0.060 H 
ATOM     16  N   LIG d   1       7.107  -3.694  -6.120  0.00  0.00    -0.276 N 
ATOM     17  C   LIG d   1       7.310  -3.961  -7.412  0.00  0.00     0.234 A 
ATOM     18  O   LIG d   1       8.027  -3.209  -8.038  0.00  0.00    -0.274 OA
ATOM     19  C   LIG d   1       6.712  -5.122  -8.138  0.00  0.00     0.092 A 
ATOM     20  N   LIG d   1       5.908  -5.958  -7.263  0.00  0.00    -0.286 N 
ATOM     21  C   LIG d   1       5.676  -5.682  -5.981  0.00  0.00     0.237 A 
ATOM     22  O   LIG d   1       4.995  -6.459  -5.347  0.00  0.00    -0.274 OA
ATOM     23  H   LIG d   1       2.944  -1.975  -3.088  0.00  0.00     0.062 H 
ATOM     24  H   LIG d   1       2.395   0.060  -1.818  0.00  0.00     0.062 H 
ATOM     25  H   LIG d   1       3.985   1.883  -1.588  0.00  0.00     0.062 H 
ATOM     26  H   LIG d   1       6.230   1.782  -2.615  0.00  0.00     0.064 H 
ATOM     27  H   LIG d   1       4.351  -3.440  -5.664  0.00  0.00     0.034 H 
ATOM     28  H   LIG d   1       4.509  -4.064  -4.003  0.00  0.00     0.034 H 
ATOM     29  H   LIG d   1       7.515  -5.724  -8.564  0.00  0.00     0.056 H 
ATOM     30  H   LIG d   1       6.085  -4.749  -8.948  0.00  0.00     0.056 H 
ENDROOT
BRANCH   1  31
ATOM     31  C   LIG d   1       8.927  -3.064  -4.615  0.00  0.00    -0.018 A 
ATOM     32  C   LIG d   1      10.245  -2.796  -4.933  0.00  0.00    -0.045 A 
ATOM     33  C   LIG d   1      11.260  -3.262  -4.119  0.00  0.00    -0.059 A 
ATOM     34  C   LIG d   1      10.958  -4.002  -2.990  0.00  0.00    -0.061 A 
ATOM     35  H   LIG d   1      12.290  -3.053  -4.367  0.00  0.00     0.062 H 
ATOM     36  C   LIG d   1       9.639  -4.266  -2.671  0.00  0.00    -0.061 A 
ATOM     37  H   LIG d   1      11.752  -4.369  -2.357  0.00  0.00     0.062 H 
ATOM     38  C   LIG d   1       8.624  -3.800  -3.484  0.00  0.00    -0.056 A 
ATOM     39  H   LIG d   1       9.403  -4.841  -1.788  0.00  0.00     0.062 H 
ATOM     40  H   LIG d   1       7.594  -4.010  -3.236  0.00  0.00     0.062 H 
BRANCH  32  41
ATOM     41  C   LIG d   1      10.574  -1.995  -6.166  0.00  0.00    -0.039 C 
ATOM     42  H   LIG d   1      10.815  -0.970  -5.881  0.00  0.00     0.028 H 
ATOM     43  H   LIG d   1      11.431  -2.442  -6.671  0.00  0.00     0.028 H 
ATOM     44  H   LIG d   1       9.716  -1.993  -6.838  0.00  0.00     0.028 H 
ENDBRANCH  32  41
ENDBRANCH   1  31
BRANCH  20  45
ATOM     45  C   LIG d   1       5.314  -7.174  -7.825  0.00  0.00     0.046 C 
ATOM     46  H   LIG d   1       6.046  -7.676  -8.459  0.00  0.00     0.052 H 
ATOM     47  H   LIG d   1       5.018  -7.841  -7.015  0.00  0.00     0.052 H 
BRANCH  45  48
ATOM     48  C   LIG d   1       4.103  -6.811  -8.645  0.00  0.00     0.007 A 
ATOM     49  S   LIG d   1       3.322  -5.220  -8.854  0.00  0.00    -0.100 SA
ATOM     50  C   LIG d   1       2.012  -5.726  -9.957  0.00  0.00    -0.024 A 
ATOM     51  C   LIG d   1       2.250  -7.054 -10.085  0.00  0.00    -0.054 A 
ATOM     52  H   LIG d   1       1.231  -5.128 -10.403  0.00  0.00     0.069 H 
ATOM     53  C   LIG d   1       3.322  -7.610  -9.413  0.00  0.00    -0.050 A 
ATOM     54  H   LIG d   1       1.612  -7.668 -10.703  0.00  0.00     0.062 H 
ATOM     55  H   LIG d   1       3.534  -8.667  -9.497  0.00  0.00     0.063 H 
ENDBRANCH  45  48
ENDBRANCH  20  45
TORSDOF 4
ENDMDL
