MODEL 1
REMARK VINA RESULT:      -7.1      0.000      0.000
REMARK  12 active torsions:
REMARK  status: ('A' for Active; 'I' for Inactive)
REMARK    1  A    between atoms: C_1  and  C_2 
REMARK    2  A    between atoms: C_4  and  C_26 
REMARK    3  A    between atoms: C_6  and  C_23 
REMARK    4  A    between atoms: C_9  and  C_11 
REMARK    5  A    between atoms: C_11  and  C_12 
REMARK       I    between atoms: C_12  and  N_14 
REMARK    6  A    between atoms: N_14  and  C_15 
REMARK    7  A    between atoms: C_15  and  C_16 
REMARK    8  A    between atoms: C_16  and  N_17 
REMARK    9  A    between atoms: C_23  and  C_24 
REMARK   10  A    between atoms: C_23  and  C_25 
REMARK   11  A    between atoms: C_26  and  N_27 
REMARK       I    between atoms: N_27  and  C_28 
REMARK       I    between atoms: C_28  and  N_30 
REMARK   12  A    between atoms: N_30  and  C_31 
ROOT
ATOM      1  C   LIG d   1       6.901  -3.190  -4.207  0.00  0.00    -0.073 C 
ATOM      2  C   LIG d   1       7.319  -1.996  -3.934  0.00  0.00    -0.080 C 
ATOM      3  C   LIG d   1       6.422  -0.857  -3.548  0.00  0.00    -0.004 C 
ATOM      4  H   LIG d   1       6.495  -0.721  -2.459  0.00  0.00     0.036 H 
ATOM      5  C   LIG d   1       4.975  -1.174  -3.930  0.00  0.00    -0.030 C 
ATOM      6  H   LIG d   1       4.858  -1.137  -5.023  0.00  0.00     0.031 H 
ATOM      7  C   LIG d   1       4.630  -2.574  -3.406  0.00  0.00    -0.042 C 
ATOM      8  C   LIG d   1       5.457  -3.600  -4.184  0.00  0.00    -0.012 C 
ATOM      9  H   LIG d   1       5.389  -4.580  -3.689  0.00  0.00     0.035 H 
ATOM     10  H   LIG d   1       8.395  -1.768  -3.979  0.00  0.00     0.058 H 
ATOM     11  H   LIG d   1       4.870  -2.634  -2.334  0.00  0.00     0.027 H 
ATOM     12  H   LIG d   1       3.557  -2.766  -3.553  0.00  0.00     0.027 H 
ENDROOT
BRANCH   8  13
ATOM     13  C   LIG d   1       4.933  -3.690  -5.619  0.00  0.00     0.030 C 
ATOM     14  H   LIG d   1       4.091  -2.993  -5.746  0.00  0.00     0.036 H 
ATOM     15  H   LIG d   1       5.737  -3.424  -6.320  0.00  0.00     0.036 H 
BRANCH  13  16
ATOM     16  C   LIG d   1       4.467  -5.097  -5.897  0.00  0.00     0.214 C 
ATOM     17  O   LIG d   1       3.363  -5.288  -6.358  0.00  0.00    -0.276 OA
ATOM     18  N   LIG d   1       5.278  -6.140  -5.633  0.00  0.00    -0.314 N 
ATOM     19  H   LIG d   1       6.280  -5.965  -5.214  0.00  0.00     0.149 HD
BRANCH  18  20
ATOM     20  C   LIG d   1       4.825  -7.506  -5.903  0.00  0.00     0.024 C 
ATOM     21  H   LIG d   1       3.851  -7.672  -5.419  0.00  0.00     0.047 H 
ATOM     22  H   LIG d   1       4.724  -7.651  -6.989  0.00  0.00     0.047 H 
BRANCH  20  23
ATOM     23  C   LIG d   1       5.847  -8.501  -5.349  0.00  0.00     0.015 C 
ATOM     24  H   LIG d   1       6.616  -8.699  -6.110  0.00  0.00     0.044 H 
ATOM     25  H   LIG d   1       6.319  -8.079  -4.450  0.00  0.00     0.044 H 
BRANCH  23  26
ATOM     26  N   LIG d   1       5.167  -9.757  -5.001  0.00  0.00    -0.296 N 
ATOM     27  C   LIG d   1       4.183  -9.544  -3.929  0.00  0.00     0.022 C 
ATOM     28  C   LIG d   1       3.542 -10.884  -3.558  0.00  0.00     0.060 C 
ATOM     29  H   LIG d   1       4.686  -9.119  -3.049  0.00  0.00     0.045 H 
ATOM     30  H   LIG d   1       3.406  -8.847  -4.279  0.00  0.00     0.045 H 
ATOM     31  O   LIG d   1       2.954 -11.465  -4.725  0.00  0.00    -0.377 OA
ATOM     32  H   LIG d   1       2.765 -10.722  -2.797  0.00  0.00     0.057 H 
ATOM     33  H   LIG d   1       4.311 -11.561  -3.158  0.00  0.00     0.057 H 
ATOM     34  C   LIG d   1       3.885 -11.686  -5.788  0.00  0.00     0.060 C 
ATOM     35  C   LIG d   1       4.529 -10.355  -6.183  0.00  0.00     0.022 C 
ATOM     36  H   LIG d   1       3.358 -12.111  -6.656  0.00  0.00     0.057 H 
ATOM     37  H   LIG d   1       4.665 -12.387  -5.455  0.00  0.00     0.057 H 
ATOM     38  H   LIG d   1       3.757  -9.672  -6.568  0.00  0.00     0.045 H 
ATOM     39  H   LIG d   1       5.287 -10.528  -6.961  0.00  0.00     0.045 H 
ENDBRANCH  23  26
ENDBRANCH  20  23
ENDBRANCH  18  20
ENDBRANCH  13  16
ENDBRANCH   8  13
BRANCH   1  40
ATOM     40  C   LIG d   1       7.925  -4.234  -4.569  0.00  0.00    -0.043 C 
ATOM     41  H   LIG d   1       7.729  -4.601  -5.587  0.00  0.00     0.027 H 
ATOM     42  H   LIG d   1       7.863  -5.071  -3.859  0.00  0.00     0.027 H 
ATOM     43  H   LIG d   1       8.931  -3.791  -4.526  0.00  0.00     0.027 H 
ENDBRANCH   1  40
BRANCH   5  44
ATOM     44  C   LIG d   1       4.035  -0.144  -3.301  0.00  0.00    -0.043 C 
ATOM     45  H   LIG d   1       4.156   0.822  -3.812  0.00  0.00     0.030 H 
BRANCH  44  46
ATOM     46  C   LIG d   1       2.588  -0.619  -3.444  0.00  0.00    -0.062 C 
ATOM     47  H   LIG d   1       2.170  -0.245  -4.391  0.00  0.00     0.023 H 
ATOM     48  H   LIG d   1       1.991  -0.236  -2.603  0.00  0.00     0.023 H 
ATOM     49  H   LIG d   1       2.561  -1.719  -3.440  0.00  0.00     0.023 H 
ENDBRANCH  44  46
BRANCH  44  50
ATOM     50  C   LIG d   1       4.375   0.018  -1.818  0.00  0.00    -0.062 C 
ATOM     51  H   LIG d   1       3.452  -0.045  -1.221  0.00  0.00     0.023 H 
ATOM     52  H   LIG d   1       4.850   0.997  -1.656  0.00  0.00     0.023 H 
ATOM     53  H   LIG d   1       5.066  -0.781  -1.511  0.00  0.00     0.023 H 
ENDBRANCH  44  50
ENDBRANCH   5  44
BRANCH   3  54
ATOM     54  C   LIG d   1       6.872   0.411  -4.275  0.00  0.00     0.020 C 
ATOM     55  H   LIG d   1       6.977   0.201  -5.349  0.00  0.00     0.047 H 
ATOM     56  H   LIG d   1       6.122   1.203  -4.128  0.00  0.00     0.047 H 
BRANCH  54  57
ATOM     57  N   LIG d   1       8.161   0.853  -3.735  0.00  0.00    -0.299 N 
ATOM     58  C   LIG d   1       8.604   2.101  -3.984  0.00  0.00     0.304 C 
ATOM     59  O   LIG d   1       7.935   2.861  -4.657  0.00  0.00    -0.253 OA
ATOM     60  N   LIG d   1       9.789   2.507  -3.487  0.00  0.00    -0.270 N 
ATOM     61  H   LIG d   1      10.431   1.796  -2.946  0.00  0.00     0.156 HD
ATOM     62  H   LIG d   1       8.766   0.165  -3.126  0.00  0.00     0.150 HD
BRANCH  60  63
ATOM     63  C   LIG d   1      10.204   3.832  -3.661  0.00  0.00     0.035 A 
ATOM     64  C   LIG d   1       9.909   4.786  -2.695  0.00  0.00    -0.040 A 
ATOM     65  C   LIG d   1      10.320   6.092  -2.869  0.00  0.00    -0.060 A 
ATOM     66  H   LIG d   1       9.358   4.505  -1.810  0.00  0.00     0.064 H 
ATOM     67  C   LIG d   1      11.024   6.452  -4.004  0.00  0.00    -0.062 A 
ATOM     68  H   LIG d   1      10.091   6.835  -2.119  0.00  0.00     0.062 H 
ATOM     69  C   LIG d   1      11.318   5.505  -4.967  0.00  0.00    -0.060 A 
ATOM     70  H   LIG d   1      11.344   7.475  -4.137  0.00  0.00     0.062 H 
ATOM     71  C   LIG d   1      10.916   4.196  -4.796  0.00  0.00    -0.040 A 
ATOM     72  H   LIG d   1      11.869   5.789  -5.852  0.00  0.00     0.062 H 
ATOM     73  H   LIG d   1      11.151   3.456  -5.547  0.00  0.00     0.064 H 
ENDBRANCH  60  63
ENDBRANCH  54  57
ENDBRANCH   3  54
TORSDOF 12
ENDMDL
MODEL 2
REMARK VINA RESULT:      -6.9      5.352     13.721
REMARK  12 active torsions:
REMARK  status: ('A' for Active; 'I' for Inactive)
REMARK    1  A    between atoms: C_1  and  C_2 
REMARK    2  A    between atoms: C_4  and  C_26 
REMARK    3  A    between atoms: C_6  and  C_23 
REMARK    4  A    between atoms: C_9  and  C_11 
REMARK    5  A    between atoms: C_11  and  C_12 
REMARK       I    between atoms: C_12  and  N_14 
REMARK    6  A    between atoms: N_14  and  C_15 
REMARK    7  A    between atoms: C_15  and  C_16 
REMARK    8  A    between atoms: C_16  and  N_17 
REMARK    9  A    between atoms: C_23  and  C_24 
REMARK   10  A    between atoms: C_23  and  C_25 
REMARK   11  A    between atoms: C_26  and  N_27 
REMARK       I    between atoms: N_27  and  C_28 
REMARK       I    between atoms: C_28  and  N_30 
REMARK   12  A    between atoms: N_30  and  C_31 
ROOT
ATOM      1  C   LIG d   1      10.206   4.842  -3.629  0.00  0.00    -0.073 C 
ATOM      2  C   LIG d   1       9.892   3.638  -3.983  0.00  0.00    -0.080 C 
ATOM      3  C   LIG d   1       9.865   3.159  -5.405  0.00  0.00    -0.004 C 
ATOM      4  H   LIG d   1      10.775   2.567  -5.581  0.00  0.00     0.036 H 
ATOM      5  C   LIG d   1       9.835   4.352  -6.362  0.00  0.00    -0.030 C 
ATOM      6  H   LIG d   1       8.853   4.846  -6.316  0.00  0.00     0.031 H 
ATOM      7  C   LIG d   1      10.942   5.331  -5.953  0.00  0.00    -0.042 C 
ATOM      8  C   LIG d   1      10.578   5.932  -4.593  0.00  0.00    -0.012 C 
ATOM      9  H   LIG d   1      11.446   6.467  -4.182  0.00  0.00     0.035 H 
ATOM     10  H   LIG d   1       9.622   2.894  -3.219  0.00  0.00     0.058 H 
ATOM     11  H   LIG d   1      11.899   4.794  -5.881  0.00  0.00     0.027 H 
ATOM     12  H   LIG d   1      11.024   6.128  -6.706  0.00  0.00     0.027 H 
ENDROOT
BRANCH   8  13
ATOM     13  C   LIG d   1       9.394   6.886  -4.761  0.00  0.00     0.030 C 
ATOM     14  H   LIG d   1       8.919   6.712  -5.738  0.00  0.00     0.036 H 
ATOM     15  H   LIG d   1       8.662   6.707  -3.960  0.00  0.00     0.036 H 
BRANCH  13  16
ATOM     16  C   LIG d   1       9.882   8.311  -4.686  0.00  0.00     0.214 C 
ATOM     17  O   LIG d   1      10.988   8.550  -4.250  0.00  0.00    -0.276 OA
ATOM     18  N   LIG d   1       9.090   9.317  -5.104  0.00  0.00    -0.314 N 
ATOM     19  H   LIG d   1       8.086   9.099  -5.500  0.00  0.00     0.149 HD
BRANCH  18  20
ATOM     20  C   LIG d   1       9.563  10.701  -5.032  0.00  0.00     0.024 C 
ATOM     21  H   LIG d   1      10.651  10.708  -4.864  0.00  0.00     0.047 H 
ATOM     22  H   LIG d   1       9.335  11.216  -5.976  0.00  0.00     0.047 H 
BRANCH  20  23
ATOM     23  C   LIG d   1       8.864  11.420  -3.876  0.00  0.00     0.015 C 
ATOM     24  H   LIG d   1       8.681  12.468  -4.155  0.00  0.00     0.044 H 
ATOM     25  H   LIG d   1       7.907  10.924  -3.662  0.00  0.00     0.044 H 
BRANCH  23  26
ATOM     26  N   LIG d   1       9.719  11.372  -2.682  0.00  0.00    -0.296 N 
ATOM     27  C   LIG d   1       9.911  12.717  -2.118  0.00  0.00     0.022 C 
ATOM     28  C   LIG d   1      10.853  12.630  -0.914  0.00  0.00     0.060 C 
ATOM     29  H   LIG d   1      10.348  13.376  -2.882  0.00  0.00     0.045 H 
ATOM     30  H   LIG d   1       8.939  13.121  -1.797  0.00  0.00     0.045 H 
ATOM     31  O   LIG d   1      10.313  11.714   0.042  0.00  0.00    -0.377 OA
ATOM     32  H   LIG d   1      10.955  13.623  -0.453  0.00  0.00     0.057 H 
ATOM     33  H   LIG d   1      11.841  12.276  -1.244  0.00  0.00     0.057 H 
ATOM     34  C   LIG d   1      10.114  10.394  -0.474  0.00  0.00     0.060 C 
ATOM     35  C   LIG d   1       9.165  10.458  -1.674  0.00  0.00     0.022 C 
ATOM     36  H   LIG d   1       9.676   9.755   0.307  0.00  0.00     0.057 H 
ATOM     37  H   LIG d   1      11.080   9.974  -0.793  0.00  0.00     0.057 H 
ATOM     38  H   LIG d   1       8.181  10.827  -1.345  0.00  0.00     0.045 H 
ATOM     39  H   LIG d   1       9.054   9.455  -2.110  0.00  0.00     0.045 H 
ENDBRANCH  23  26
ENDBRANCH  20  23
ENDBRANCH  18  20
ENDBRANCH  13  16
ENDBRANCH   8  13
BRANCH   1  40
ATOM     40  C   LIG d   1      10.199   5.173  -2.159  0.00  0.00    -0.043 C 
ATOM     41  H   LIG d   1      10.784   6.089  -1.988  0.00  0.00     0.027 H 
ATOM     42  H   LIG d   1      10.644   4.342  -1.594  0.00  0.00     0.027 H 
ATOM     43  H   LIG d   1       9.163   5.331  -1.824  0.00  0.00     0.027 H 
ENDBRANCH   1  40
BRANCH   5  44
ATOM     44  C   LIG d   1      10.077   3.873  -7.795  0.00  0.00    -0.043 C 
ATOM     45  H   LIG d   1       9.771   2.820  -7.886  0.00  0.00     0.030 H 
BRANCH  44  46
ATOM     46  C   LIG d   1       9.257   4.728  -8.764  0.00  0.00    -0.062 C 
ATOM     47  H   LIG d   1       9.568   5.780  -8.678  0.00  0.00     0.023 H 
ATOM     48  H   LIG d   1       8.189   4.640  -8.516  0.00  0.00     0.023 H 
ATOM     49  H   LIG d   1       9.425   4.378  -9.793  0.00  0.00     0.023 H 
ENDBRANCH  44  46
BRANCH  44  50
ATOM     50  C   LIG d   1      11.563   4.003  -8.133  0.00  0.00    -0.062 C 
ATOM     51  H   LIG d   1      11.851   5.066  -8.116  0.00  0.00     0.023 H 
ATOM     52  H   LIG d   1      11.749   3.589  -9.134  0.00  0.00     0.023 H 
ATOM     53  H   LIG d   1      12.158   3.451  -7.389  0.00  0.00     0.023 H 
ENDBRANCH  44  50
ENDBRANCH   5  44
BRANCH   3  54
ATOM     54  C   LIG d   1       8.619   2.300  -5.627  0.00  0.00     0.020 C 
ATOM     55  H   LIG d   1       8.015   2.732  -6.438  0.00  0.00     0.047 H 
ATOM     56  H   LIG d   1       8.921   1.278  -5.899  0.00  0.00     0.047 H 
BRANCH  54  57
ATOM     57  N   LIG d   1       7.825   2.262  -4.395  0.00  0.00    -0.299 N 
ATOM     58  C   LIG d   1       6.809   1.388  -4.274  0.00  0.00     0.304 C 
ATOM     59  O   LIG d   1       6.547   0.629  -5.188  0.00  0.00    -0.253 OA
ATOM     60  N   LIG d   1       6.079   1.354  -3.141  0.00  0.00    -0.270 N 
ATOM     61  H   LIG d   1       6.263   2.092  -2.347  0.00  0.00     0.156 HD
ATOM     62  H   LIG d   1       8.062   2.949  -3.568  0.00  0.00     0.150 HD
BRANCH  60  63
ATOM     63  C   LIG d   1       5.088   0.379  -2.976  0.00  0.00     0.035 A 
ATOM     64  C   LIG d   1       3.752   0.704  -3.175  0.00  0.00    -0.040 A 
ATOM     65  C   LIG d   1       2.778  -0.260  -3.012  0.00  0.00    -0.060 A 
ATOM     66  H   LIG d   1       3.477   1.709  -3.458  0.00  0.00     0.064 H 
ATOM     67  C   LIG d   1       3.129  -1.547  -2.649  0.00  0.00    -0.062 A 
ATOM     68  H   LIG d   1       1.739  -0.009  -3.167  0.00  0.00     0.062 H 
ATOM     69  C   LIG d   1       4.458  -1.873  -2.449  0.00  0.00    -0.060 A 
ATOM     70  H   LIG d   1       2.365  -2.299  -2.522  0.00  0.00     0.062 H 
ATOM     71  C   LIG d   1       5.438  -0.916  -2.617  0.00  0.00    -0.040 A 
ATOM     72  H   LIG d   1       4.730  -2.880  -2.166  0.00  0.00     0.062 H 
ATOM     73  H   LIG d   1       6.476  -1.172  -2.465  0.00  0.00     0.064 H 
ENDBRANCH  60  63
ENDBRANCH  54  57
ENDBRANCH   3  54
TORSDOF 12
ENDMDL
MODEL 3
REMARK VINA RESULT:      -6.9      4.110     10.496
REMARK  12 active torsions:
REMARK  status: ('A' for Active; 'I' for Inactive)
REMARK    1  A    between atoms: C_1  and  C_2 
REMARK    2  A    between atoms: C_4  and  C_26 
REMARK    3  A    between atoms: C_6  and  C_23 
REMARK    4  A    between atoms: C_9  and  C_11 
REMARK    5  A    between atoms: C_11  and  C_12 
REMARK       I    between atoms: C_12  and  N_14 
REMARK    6  A    between atoms: N_14  and  C_15 
REMARK    7  A    between atoms: C_15  and  C_16 
REMARK    8  A    between atoms: C_16  and  N_17 
REMARK    9  A    between atoms: C_23  and  C_24 
REMARK   10  A    between atoms: C_23  and  C_25 
REMARK   11  A    between atoms: C_26  and  N_27 
REMARK       I    between atoms: N_27  and  C_28 
REMARK       I    between atoms: C_28  and  N_30 
REMARK   12  A    between atoms: N_30  and  C_31 
ROOT
ATOM      1  C   LIG d   1       5.410  -0.130  -2.659  0.00  0.00    -0.073 C 
ATOM      2  C   LIG d   1       4.889  -1.260  -3.013  0.00  0.00    -0.080 C 
ATOM      3  C   LIG d   1       5.614  -2.311  -3.801  0.00  0.00    -0.004 C 
ATOM      4  H   LIG d   1       5.924  -3.104  -3.105  0.00  0.00     0.036 H 
ATOM      5  C   LIG d   1       6.849  -1.707  -4.472  0.00  0.00    -0.030 C 
ATOM      6  H   LIG d   1       6.543  -1.041  -5.293  0.00  0.00     0.031 H 
ATOM      7  C   LIG d   1       7.640  -0.922  -3.419  0.00  0.00    -0.042 C 
ATOM      8  C   LIG d   1       6.810   0.293  -2.996  0.00  0.00    -0.012 C 
ATOM      9  H   LIG d   1       7.253   0.748  -2.098  0.00  0.00     0.035 H 
ATOM     10  H   LIG d   1       3.851  -1.497  -2.735  0.00  0.00     0.058 H 
ATOM     11  H   LIG d   1       7.831  -1.567  -2.548  0.00  0.00     0.027 H 
ATOM     12  H   LIG d   1       8.597  -0.592  -3.848  0.00  0.00     0.027 H 
ENDROOT
BRANCH   8  13
ATOM     13  C   LIG d   1       6.772   1.305  -4.143  0.00  0.00     0.030 C 
ATOM     14  H   LIG d   1       6.398   0.813  -5.053  0.00  0.00     0.036 H 
ATOM     15  H   LIG d   1       6.106   2.137  -3.876  0.00  0.00     0.036 H 
BRANCH  13  16
ATOM     16  C   LIG d   1       8.162   1.833  -4.394  0.00  0.00     0.214 C 
ATOM     17  O   LIG d   1       8.684   1.674  -5.477  0.00  0.00    -0.276 OA
ATOM     18  N   LIG d   1       8.823   2.482  -3.415  0.00  0.00    -0.314 N 
ATOM     19  H   LIG d   1       8.349   2.625  -2.433  0.00  0.00     0.149 HD
BRANCH  18  20
ATOM     20  C   LIG d   1      10.173   2.995  -3.659  0.00  0.00     0.024 C 
ATOM     21  H   LIG d   1      10.803   2.803  -2.777  0.00  0.00     0.047 H 
ATOM     22  H   LIG d   1      10.605   2.488  -4.534  0.00  0.00     0.047 H 
BRANCH  20  23
ATOM     23  C   LIG d   1      10.107   4.501  -3.921  0.00  0.00     0.015 C 
ATOM     24  H   LIG d   1      11.052   4.835  -4.376  0.00  0.00     0.044 H 
ATOM     25  H   LIG d   1       9.274   4.717  -4.605  0.00  0.00     0.044 H 
BRANCH  23  26
ATOM     26  N   LIG d   1       9.897   5.210  -2.651  0.00  0.00    -0.296 N 
ATOM     27  C   LIG d   1      11.060   5.057  -1.765  0.00  0.00     0.022 C 
ATOM     28  C   LIG d   1      10.776   5.759  -0.434  0.00  0.00     0.060 C 
ATOM     29  H   LIG d   1      11.248   3.989  -1.586  0.00  0.00     0.045 H 
ATOM     30  H   LIG d   1      11.944   5.511  -2.239  0.00  0.00     0.045 H 
ATOM     31  O   LIG d   1      10.460   7.131  -0.682  0.00  0.00    -0.377 OA
ATOM     32  H   LIG d   1      11.664   5.698   0.212  0.00  0.00     0.057 H 
ATOM     33  H   LIG d   1       9.925   5.271   0.065  0.00  0.00     0.057 H 
ATOM     34  C   LIG d   1       9.332   7.316  -1.542  0.00  0.00     0.060 C 
ATOM     35  C   LIG d   1       9.601   6.630  -2.884  0.00  0.00     0.022 C 
ATOM     36  H   LIG d   1       9.165   8.391  -1.706  0.00  0.00     0.057 H 
ATOM     37  H   LIG d   1       8.438   6.873  -1.077  0.00  0.00     0.057 H 
ATOM     38  H   LIG d   1      10.461   7.109  -3.375  0.00  0.00     0.045 H 
ATOM     39  H   LIG d   1       8.714   6.720  -3.528  0.00  0.00     0.045 H 
ENDBRANCH  23  26
ENDBRANCH  20  23
ENDBRANCH  18  20
ENDBRANCH  13  16
ENDBRANCH   8  13
BRANCH   1  40
ATOM     40  C   LIG d   1       4.559   0.822  -1.858  0.00  0.00    -0.043 C 
ATOM     41  H   LIG d   1       5.192   1.627  -1.455  0.00  0.00     0.027 H 
ATOM     42  H   LIG d   1       4.081   0.280  -1.030  0.00  0.00     0.027 H 
ATOM     43  H   LIG d   1       3.784   1.256  -2.508  0.00  0.00     0.027 H 
ENDBRANCH   1  40
BRANCH   5  44
ATOM     44  C   LIG d   1       7.725  -2.822  -5.047  0.00  0.00    -0.043 C 
ATOM     45  H   LIG d   1       7.088  -3.573  -5.536  0.00  0.00     0.030 H 
BRANCH  44  46
ATOM     46  C   LIG d   1       8.696  -2.232  -6.071  0.00  0.00    -0.062 C 
ATOM     47  H   LIG d   1       9.686  -2.102  -5.606  0.00  0.00     0.023 H 
ATOM     48  H   LIG d   1       8.321  -1.255  -6.412  0.00  0.00     0.023 H 
ATOM     49  H   LIG d   1       8.781  -2.912  -6.931  0.00  0.00     0.023 H 
ENDBRANCH  44  46
BRANCH  44  50
ATOM     50  C   LIG d   1       8.516  -3.483  -3.916  0.00  0.00    -0.062 C 
ATOM     51  H   LIG d   1       9.526  -3.048  -3.872  0.00  0.00     0.023 H 
ATOM     52  H   LIG d   1       8.590  -4.564  -4.105  0.00  0.00     0.023 H 
ATOM     53  H   LIG d   1       8.000  -3.312  -2.959  0.00  0.00     0.023 H 
ENDBRANCH  44  50
ENDBRANCH   5  44
BRANCH   3  54
ATOM     54  C   LIG d   1       4.680  -2.876  -4.873  0.00  0.00     0.020 C 
ATOM     55  H   LIG d   1       5.277  -3.288  -5.700  0.00  0.00     0.047 H 
ATOM     56  H   LIG d   1       4.060  -3.672  -4.436  0.00  0.00     0.047 H 
BRANCH  54  57
ATOM     57  N   LIG d   1       3.816  -1.807  -5.380  0.00  0.00    -0.299 N 
ATOM     58  C   LIG d   1       4.035  -1.285  -6.602  0.00  0.00     0.304 C 
ATOM     59  O   LIG d   1       4.951  -1.700  -7.285  0.00  0.00    -0.253 OA
ATOM     60  N   LIG d   1       3.240  -0.302  -7.069  0.00  0.00    -0.270 N 
ATOM     61  H   LIG d   1       2.461   0.128  -6.421  0.00  0.00     0.156 HD
ATOM     62  H   LIG d   1       2.987  -1.431  -4.762  0.00  0.00     0.150 HD
BRANCH  60  63
ATOM     63  C   LIG d   1       3.404   0.171  -8.376  0.00  0.00     0.035 A 
ATOM     64  C   LIG d   1       4.143   1.323  -8.611  0.00  0.00    -0.040 A 
ATOM     65  C   LIG d   1       4.303   1.786  -9.901  0.00  0.00    -0.060 A 
ATOM     66  H   LIG d   1       4.591   1.855  -7.786  0.00  0.00     0.064 H 
ATOM     67  C   LIG d   1       3.729   1.105 -10.959  0.00  0.00    -0.062 A 
ATOM     68  H   LIG d   1       4.878   2.682 -10.086  0.00  0.00     0.062 H 
ATOM     69  C   LIG d   1       2.992  -0.041 -10.728  0.00  0.00    -0.060 A 
ATOM     70  H   LIG d   1       3.856   1.470 -11.968  0.00  0.00     0.062 H 
ATOM     71  C   LIG d   1       2.833  -0.513  -9.440  0.00  0.00    -0.040 A 
ATOM     72  H   LIG d   1       2.544  -0.572 -11.556  0.00  0.00     0.062 H 
ATOM     73  H   LIG d   1       2.261  -1.412  -9.260  0.00  0.00     0.064 H 
ENDBRANCH  60  63
ENDBRANCH  54  57
ENDBRANCH   3  54
TORSDOF 12
ENDMDL
MODEL 4
REMARK VINA RESULT:      -6.9      5.983      7.988
REMARK  12 active torsions:
REMARK  status: ('A' for Active; 'I' for Inactive)
REMARK    1  A    between atoms: C_1  and  C_2 
REMARK    2  A    between atoms: C_4  and  C_26 
REMARK    3  A    between atoms: C_6  and  C_23 
REMARK    4  A    between atoms: C_9  and  C_11 
REMARK    5  A    between atoms: C_11  and  C_12 
REMARK       I    between atoms: C_12  and  N_14 
REMARK    6  A    between atoms: N_14  and  C_15 
REMARK    7  A    between atoms: C_15  and  C_16 
REMARK    8  A    between atoms: C_16  and  N_17 
REMARK    9  A    between atoms: C_23  and  C_24 
REMARK   10  A    between atoms: C_23  and  C_25 
REMARK   11  A    between atoms: C_26  and  N_27 
REMARK       I    between atoms: N_27  and  C_28 
REMARK       I    between atoms: C_28  and  N_30 
REMARK   12  A    between atoms: N_30  and  C_31 
ROOT
ATOM      1  C   LIG d   1       2.364  -1.336 -11.078  0.00  0.00    -0.073 C 
ATOM      2  C   LIG d   1       2.985  -0.266 -10.700  0.00  0.00    -0.080 C 
ATOM      3  C   LIG d   1       4.368  -0.256 -10.116  0.00  0.00    -0.004 C 
ATOM      4  H   LIG d   1       5.065   0.073 -10.901  0.00  0.00     0.036 H 
ATOM      5  C   LIG d   1       4.750  -1.661  -9.646  0.00  0.00    -0.030 C 
ATOM      6  H   LIG d   1       4.173  -1.926  -8.747  0.00  0.00     0.031 H 
ATOM      7  C   LIG d   1       4.452  -2.651 -10.779  0.00  0.00    -0.042 C 
ATOM      8  C   LIG d   1       2.936  -2.720 -10.976  0.00  0.00    -0.012 C 
ATOM      9  H   LIG d   1       2.709  -3.251 -11.912  0.00  0.00     0.035 H 
ATOM     10  H   LIG d   1       2.497   0.716 -10.799  0.00  0.00     0.058 H 
ATOM     11  H   LIG d   1       4.935  -2.304 -11.705  0.00  0.00     0.027 H 
ATOM     12  H   LIG d   1       4.842  -3.643 -10.512  0.00  0.00     0.027 H 
ENDROOT
BRANCH   8  13
ATOM     13  C   LIG d   1       2.303  -3.444  -9.786  0.00  0.00     0.030 C 
ATOM     14  H   LIG d   1       3.071  -3.632  -9.021  0.00  0.00     0.036 H 
ATOM     15  H   LIG d   1       1.506  -2.819  -9.358  0.00  0.00     0.036 H 
BRANCH  13  16
ATOM     16  C   LIG d   1       1.721  -4.756 -10.246  0.00  0.00     0.214 C 
ATOM     17  O   LIG d   1       1.898  -5.760  -9.590  0.00  0.00    -0.276 OA
ATOM     18  N   LIG d   1       1.004  -4.813 -11.386  0.00  0.00    -0.314 N 
ATOM     19  H   LIG d   1       0.844  -3.901 -11.980  0.00  0.00     0.149 HD
BRANCH  18  20
ATOM     20  C   LIG d   1       0.439  -6.088 -11.833  0.00  0.00     0.024 C 
ATOM     21  H   LIG d   1       1.063  -6.503 -12.638  0.00  0.00     0.047 H 
ATOM     22  H   LIG d   1       0.413  -6.793 -10.989  0.00  0.00     0.047 H 
BRANCH  20  23
ATOM     23  C   LIG d   1      -0.981  -5.861 -12.354  0.00  0.00     0.015 C 
ATOM     24  H   LIG d   1      -1.098  -4.810 -12.655  0.00  0.00     0.044 H 
ATOM     25  H   LIG d   1      -1.161  -6.513 -13.221  0.00  0.00     0.044 H 
BRANCH  23  26
ATOM     26  N   LIG d   1      -1.948  -6.178 -11.293  0.00  0.00    -0.296 N 
ATOM     27  C   LIG d   1      -1.343  -7.050 -10.275  0.00  0.00     0.022 C 
ATOM     28  C   LIG d   1      -2.398  -7.403  -9.222  0.00  0.00     0.060 C 
ATOM     29  H   LIG d   1      -0.975  -7.970 -10.751  0.00  0.00     0.045 H 
ATOM     30  H   LIG d   1      -0.504  -6.525  -9.794  0.00  0.00     0.045 H 
ATOM     31  O   LIG d   1      -2.925  -6.198  -8.660  0.00  0.00    -0.377 OA
ATOM     32  H   LIG d   1      -1.937  -8.008  -8.428  0.00  0.00     0.057 H 
ATOM     33  H   LIG d   1      -3.212  -7.974  -9.693  0.00  0.00     0.057 H 
ATOM     34  C   LIG d   1      -3.521  -5.326  -9.625  0.00  0.00     0.060 C 
ATOM     35  C   LIG d   1      -2.478  -4.952 -10.681  0.00  0.00     0.022 C 
ATOM     36  H   LIG d   1      -3.880  -4.414  -9.124  0.00  0.00     0.057 H 
ATOM     37  H   LIG d   1      -4.367  -5.835 -10.109  0.00  0.00     0.057 H 
ATOM     38  H   LIG d   1      -1.657  -4.393 -10.206  0.00  0.00     0.045 H 
ATOM     39  H   LIG d   1      -2.946  -4.328 -11.456  0.00  0.00     0.045 H 
ENDBRANCH  23  26
ENDBRANCH  20  23
ENDBRANCH  18  20
ENDBRANCH  13  16
ENDBRANCH   8  13
BRANCH   1  40
ATOM     40  C   LIG d   1       0.980  -1.185 -11.657  0.00  0.00    -0.043 C 
ATOM     41  H   LIG d   1       0.312  -1.933 -11.205  0.00  0.00     0.027 H 
ATOM     42  H   LIG d   1       1.019  -1.337 -12.745  0.00  0.00     0.027 H 
ATOM     43  H   LIG d   1       0.601  -0.175 -11.441  0.00  0.00     0.027 H 
ENDBRANCH   1  40
BRANCH   5  44
ATOM     44  C   LIG d   1       6.240  -1.705  -9.303  0.00  0.00    -0.043 C 
ATOM     45  H   LIG d   1       6.583  -0.697  -9.026  0.00  0.00     0.030 H 
BRANCH  44  46
ATOM     46  C   LIG d   1       6.465  -2.661  -8.130  0.00  0.00    -0.062 C 
ATOM     47  H   LIG d   1       5.523  -3.177  -7.890  0.00  0.00     0.023 H 
ATOM     48  H   LIG d   1       6.804  -2.090  -7.252  0.00  0.00     0.023 H 
ATOM     49  H   LIG d   1       7.231  -3.402  -8.402  0.00  0.00     0.023 H 
ENDBRANCH  44  46
BRANCH  44  50
ATOM     50  C   LIG d   1       7.029  -2.196 -10.519  0.00  0.00    -0.062 C 
ATOM     51  H   LIG d   1       7.631  -1.369 -10.923  0.00  0.00     0.023 H 
ATOM     52  H   LIG d   1       6.330  -2.552 -11.290  0.00  0.00     0.023 H 
ATOM     53  H   LIG d   1       7.693  -3.020 -10.216  0.00  0.00     0.023 H 
ENDBRANCH  44  50
ENDBRANCH   5  44
BRANCH   3  54
ATOM     54  C   LIG d   1       4.409   0.705  -8.927  0.00  0.00     0.020 C 
ATOM     55  H   LIG d   1       5.429   0.738  -8.517  0.00  0.00     0.047 H 
ATOM     56  H   LIG d   1       4.115   1.712  -9.260  0.00  0.00     0.047 H 
BRANCH  54  57
ATOM     57  N   LIG d   1       3.481   0.243  -7.892  0.00  0.00    -0.299 N 
ATOM     58  C   LIG d   1       3.920   0.041  -6.635  0.00  0.00     0.304 C 
ATOM     59  O   LIG d   1       5.087   0.242  -6.358  0.00  0.00    -0.253 OA
ATOM     60  N   LIG d   1       3.066  -0.385  -5.682  0.00  0.00    -0.270 N 
ATOM     61  H   LIG d   1       2.030  -0.643  -5.949  0.00  0.00     0.156 HD
ATOM     62  H   LIG d   1       2.425   0.060  -8.142  0.00  0.00     0.150 HD
BRANCH  60  63
ATOM     63  C   LIG d   1       3.497  -0.499  -4.356  0.00  0.00     0.035 A 
ATOM     64  C   LIG d   1       3.932  -1.724  -3.868  0.00  0.00    -0.040 A 
ATOM     65  C   LIG d   1       4.357  -1.832  -2.559  0.00  0.00    -0.060 A 
ATOM     66  H   LIG d   1       3.938  -2.590  -4.512  0.00  0.00     0.064 H 
ATOM     67  C   LIG d   1       4.350  -0.722  -1.733  0.00  0.00    -0.062 A 
ATOM     68  H   LIG d   1       4.696  -2.784  -2.178  0.00  0.00     0.062 H 
ATOM     69  C   LIG d   1       3.916   0.498  -2.216  0.00  0.00    -0.060 A 
ATOM     70  H   LIG d   1       4.682  -0.810  -0.710  0.00  0.00     0.062 H 
ATOM     71  C   LIG d   1       3.495   0.615  -3.526  0.00  0.00    -0.040 A 
ATOM     72  H   LIG d   1       3.911   1.364  -1.569  0.00  0.00     0.062 H 
ATOM     73  H   LIG d   1       3.162   1.570  -3.904  0.00  0.00     0.064 H 
ENDBRANCH  60  63
ENDBRANCH  54  57
ENDBRANCH   3  54
TORSDOF 12
ENDMDL
MODEL 5
REMARK VINA RESULT:      -6.8      5.341     12.811
REMARK  12 active torsions:
REMARK  status: ('A' for Active; 'I' for Inactive)
REMARK    1  A    between atoms: C_1  and  C_2 
REMARK    2  A    between atoms: C_4  and  C_26 
REMARK    3  A    between atoms: C_6  and  C_23 
REMARK    4  A    between atoms: C_9  and  C_11 
REMARK    5  A    between atoms: C_11  and  C_12 
REMARK       I    between atoms: C_12  and  N_14 
REMARK    6  A    between atoms: N_14  and  C_15 
REMARK    7  A    between atoms: C_15  and  C_16 
REMARK    8  A    between atoms: C_16  and  N_17 
REMARK    9  A    between atoms: C_23  and  C_24 
REMARK   10  A    between atoms: C_23  and  C_25 
REMARK   11  A    between atoms: C_26  and  N_27 
REMARK       I    between atoms: N_27  and  C_28 
REMARK       I    between atoms: C_28  and  N_30 
REMARK   12  A    between atoms: N_30  and  C_31 
ROOT
ATOM      1  C   LIG d   1      10.299   4.623  -3.785  0.00  0.00    -0.073 C 
ATOM      2  C   LIG d   1       9.970   3.439  -4.188  0.00  0.00    -0.080 C 
ATOM      3  C   LIG d   1       9.828   3.049  -5.631  0.00  0.00    -0.004 C 
ATOM      4  H   LIG d   1      10.727   2.485  -5.920  0.00  0.00     0.036 H 
ATOM      5  C   LIG d   1       9.705   4.300  -6.503  0.00  0.00    -0.030 C 
ATOM      6  H   LIG d   1       8.724   4.774  -6.344  0.00  0.00     0.031 H 
ATOM      7  C   LIG d   1      10.831   5.270  -6.125  0.00  0.00    -0.042 C 
ATOM      8  C   LIG d   1      10.576   5.777  -4.704  0.00  0.00    -0.012 C 
ATOM      9  H   LIG d   1      11.470   6.300  -4.333  0.00  0.00     0.035 H 
ATOM     10  H   LIG d   1       9.773   2.643  -3.453  0.00  0.00     0.058 H 
ATOM     11  H   LIG d   1      11.797   4.745  -6.169  0.00  0.00     0.027 H 
ATOM     12  H   LIG d   1      10.841   6.114  -6.830  0.00  0.00     0.027 H 
ENDROOT
BRANCH   8  13
ATOM     13  C   LIG d   1       9.372   6.720  -4.711  0.00  0.00     0.030 C 
ATOM     14  H   LIG d   1       8.897   6.701  -5.703  0.00  0.00     0.036 H 
ATOM     15  H   LIG d   1       8.646   6.395  -3.952  0.00  0.00     0.036 H 
BRANCH  13  16
ATOM     16  C   LIG d   1       9.830   8.123  -4.401  0.00  0.00     0.214 C 
ATOM     17  O   LIG d   1      10.267   8.827  -5.286  0.00  0.00    -0.276 OA
ATOM     18  N   LIG d   1       9.752   8.594  -3.141  0.00  0.00    -0.314 N 
ATOM     19  H   LIG d   1       9.355   7.955  -2.338  0.00  0.00     0.149 HD
BRANCH  18  20
ATOM     20  C   LIG d   1      10.197   9.957  -2.839  0.00  0.00     0.024 C 
ATOM     21  H   LIG d   1      10.940  10.273  -3.586  0.00  0.00     0.047 H 
ATOM     22  H   LIG d   1       9.334  10.639  -2.869  0.00  0.00     0.047 H 
BRANCH  20  23
ATOM     23  C   LIG d   1      10.827   9.991  -1.446  0.00  0.00     0.015 C 
ATOM     24  H   LIG d   1      11.708  10.650  -1.459  0.00  0.00     0.044 H 
ATOM     25  H   LIG d   1      10.094  10.374  -0.721  0.00  0.00     0.044 H 
BRANCH  23  26
ATOM     26  N   LIG d   1      11.235   8.633  -1.059  0.00  0.00    -0.296 N 
ATOM     27  C   LIG d   1      12.688   8.460  -1.205  0.00  0.00     0.022 C 
ATOM     28  C   LIG d   1      13.063   7.018  -0.851  0.00  0.00     0.060 C 
ATOM     29  H   LIG d   1      12.981   8.672  -2.243  0.00  0.00     0.045 H 
ATOM     30  H   LIG d   1      13.210   9.153  -0.528  0.00  0.00     0.045 H 
ATOM     31  O   LIG d   1      12.613   6.726   0.475  0.00  0.00    -0.377 OA
ATOM     32  H   LIG d   1      14.155   6.898  -0.902  0.00  0.00     0.057 H 
ATOM     33  H   LIG d   1      12.584   6.328  -1.561  0.00  0.00     0.057 H 
ATOM     34  C   LIG d   1      11.202   6.885   0.652  0.00  0.00     0.060 C 
ATOM     35  C   LIG d   1      10.809   8.325   0.312  0.00  0.00     0.022 C 
ATOM     36  H   LIG d   1      10.935   6.668   1.697  0.00  0.00     0.057 H 
ATOM     37  H   LIG d   1      10.667   6.192  -0.015  0.00  0.00     0.057 H 
ATOM     38  H   LIG d   1      11.300   9.016   1.014  0.00  0.00     0.045 H 
ATOM     39  H   LIG d   1       9.717   8.438   0.391  0.00  0.00     0.045 H 
ENDBRANCH  23  26
ENDBRANCH  20  23
ENDBRANCH  18  20
ENDBRANCH  13  16
ENDBRANCH   8  13
BRANCH   1  40
ATOM     40  C   LIG d   1      10.412   4.860  -2.301  0.00  0.00    -0.043 C 
ATOM     41  H   LIG d   1      11.435   4.627  -1.971  0.00  0.00     0.027 H 
ATOM     42  H   LIG d   1       9.698   4.213  -1.770  0.00  0.00     0.027 H 
ATOM     43  H   LIG d   1      10.186   5.914  -2.080  0.00  0.00     0.027 H 
ENDBRANCH   1  40
BRANCH   5  44
ATOM     44  C   LIG d   1       9.830   3.917  -7.979  0.00  0.00    -0.043 C 
ATOM     45  H   LIG d   1       9.181   3.054  -8.190  0.00  0.00     0.030 H 
BRANCH  44  46
ATOM     46  C   LIG d   1       9.407   5.100  -8.851  0.00  0.00    -0.062 C 
ATOM     47  H   LIG d   1       9.731   6.039  -8.378  0.00  0.00     0.023 H 
ATOM     48  H   LIG d   1       8.312   5.103  -8.959  0.00  0.00     0.023 H 
ATOM     49  H   LIG d   1       9.873   5.010  -9.844  0.00  0.00     0.023 H 
ENDBRANCH  44  46
BRANCH  44  50
ATOM     50  C   LIG d   1      11.283   3.549  -8.289  0.00  0.00    -0.062 C 
ATOM     51  H   LIG d   1      11.806   4.429  -8.692  0.00  0.00     0.023 H 
ATOM     52  H   LIG d   1      11.305   2.738  -9.031  0.00  0.00     0.023 H 
ATOM     53  H   LIG d   1      11.781   3.216  -7.366  0.00  0.00     0.023 H 
ENDBRANCH  44  50
ENDBRANCH   5  44
BRANCH   3  54
ATOM     54  C   LIG d   1       8.577   2.186  -5.802  0.00  0.00     0.020 C 
ATOM     55  H   LIG d   1       7.955   2.597  -6.611  0.00  0.00     0.047 H 
ATOM     56  H   LIG d   1       8.874   1.157  -6.055  0.00  0.00     0.047 H 
BRANCH  54  57
ATOM     57  N   LIG d   1       7.812   2.180  -4.553  0.00  0.00    -0.299 N 
ATOM     58  C   LIG d   1       6.790   1.317  -4.392  0.00  0.00     0.304 C 
ATOM     59  O   LIG d   1       6.503   0.542  -5.284  0.00  0.00    -0.253 OA
ATOM     60  N   LIG d   1       6.086   1.313  -3.242  0.00  0.00    -0.270 N 
ATOM     61  H   LIG d   1       6.295   2.065  -2.468  0.00  0.00     0.156 HD
ATOM     62  H   LIG d   1       8.072   2.881  -3.746  0.00  0.00     0.150 HD
BRANCH  60  63
ATOM     63  C   LIG d   1       5.091   0.351  -3.035  0.00  0.00     0.035 A 
ATOM     64  C   LIG d   1       5.436  -0.932  -2.630  0.00  0.00    -0.040 A 
ATOM     65  C   LIG d   1       4.452  -1.878  -2.426  0.00  0.00    -0.060 A 
ATOM     66  H   LIG d   1       6.473  -1.189  -2.475  0.00  0.00     0.064 H 
ATOM     67  C   LIG d   1       3.123  -1.550  -2.625  0.00  0.00    -0.062 A 
ATOM     68  H   LIG d   1       4.719  -2.876  -2.111  0.00  0.00     0.062 H 
ATOM     69  C   LIG d   1       2.776  -0.274  -3.029  0.00  0.00    -0.060 A 
ATOM     70  H   LIG d   1       2.355  -2.292  -2.465  0.00  0.00     0.062 H 
ATOM     71  C   LIG d   1       3.756   0.679  -3.229  0.00  0.00    -0.040 A 
ATOM     72  H   LIG d   1       1.737  -0.020  -3.183  0.00  0.00     0.062 H 
ATOM     73  H   LIG d   1       3.483   1.677  -3.539  0.00  0.00     0.064 H 
ENDBRANCH  60  63
ENDBRANCH  54  57
ENDBRANCH   3  54
TORSDOF 12
ENDMDL
MODEL 6
REMARK VINA RESULT:      -6.8      3.560     10.177
REMARK  12 active torsions:
REMARK  status: ('A' for Active; 'I' for Inactive)
REMARK    1  A    between atoms: C_1  and  C_2 
REMARK    2  A    between atoms: C_4  and  C_26 
REMARK    3  A    between atoms: C_6  and  C_23 
REMARK    4  A    between atoms: C_9  and  C_11 
REMARK    5  A    between atoms: C_11  and  C_12 
REMARK       I    between atoms: C_12  and  N_14 
REMARK    6  A    between atoms: N_14  and  C_15 
REMARK    7  A    between atoms: C_15  and  C_16 
REMARK    8  A    between atoms: C_16  and  N_17 
REMARK    9  A    between atoms: C_23  and  C_24 
REMARK   10  A    between atoms: C_23  and  C_25 
REMARK   11  A    between atoms: C_26  and  N_27 
REMARK       I    between atoms: N_27  and  C_28 
REMARK       I    between atoms: C_28  and  N_30 
REMARK   12  A    between atoms: N_30  and  C_31 
ROOT
ATOM      1  C   LIG d   1       4.877  -1.973  -3.525  0.00  0.00    -0.073 C 
ATOM      2  C   LIG d   1       4.625  -3.068  -4.167  0.00  0.00    -0.080 C 
ATOM      3  C   LIG d   1       5.651  -3.848  -4.937  0.00  0.00    -0.004 C 
ATOM      4  H   LIG d   1       5.942  -4.718  -4.330  0.00  0.00     0.036 H 
ATOM      5  C   LIG d   1       6.879  -2.977  -5.208  0.00  0.00    -0.030 C 
ATOM      6  H   LIG d   1       6.636  -2.206  -5.955  0.00  0.00     0.031 H 
ATOM      7  C   LIG d   1       7.311  -2.322  -3.890  0.00  0.00    -0.042 C 
ATOM      8  C   LIG d   1       6.229  -1.324  -3.468  0.00  0.00    -0.012 C 
ATOM      9  H   LIG d   1       6.409  -1.002  -2.432  0.00  0.00     0.035 H 
ATOM     10  H   LIG d   1       3.605  -3.481  -4.170  0.00  0.00     0.058 H 
ATOM     11  H   LIG d   1       7.430  -3.096  -3.118  0.00  0.00     0.027 H 
ATOM     12  H   LIG d   1       8.268  -1.800  -4.036  0.00  0.00     0.027 H 
ENDROOT
BRANCH   8  13
ATOM     13  C   LIG d   1       6.254  -0.121  -4.412  0.00  0.00     0.030 C 
ATOM     14  H   LIG d   1       6.711  -0.414  -5.369  0.00  0.00     0.036 H 
ATOM     15  H   LIG d   1       5.227   0.228  -4.589  0.00  0.00     0.036 H 
BRANCH  13  16
ATOM     16  C   LIG d   1       7.062   0.990  -3.790  0.00  0.00     0.214 C 
ATOM     17  O   LIG d   1       6.523   1.796  -3.062  0.00  0.00    -0.276 OA
ATOM     18  N   LIG d   1       8.383   1.086  -4.041  0.00  0.00    -0.314 N 
ATOM     19  H   LIG d   1       8.871   0.354  -4.702  0.00  0.00     0.149 HD
BRANCH  18  20
ATOM     20  C   LIG d   1       9.167   2.165  -3.437  0.00  0.00     0.024 C 
ATOM     21  H   LIG d   1       8.533   2.734  -2.742  0.00  0.00     0.047 H 
ATOM     22  H   LIG d   1      10.018   1.736  -2.888  0.00  0.00     0.047 H 
BRANCH  20  23
ATOM     23  C   LIG d   1       9.685   3.096  -4.535  0.00  0.00     0.015 C 
ATOM     24  H   LIG d   1      10.777   2.996  -4.615  0.00  0.00     0.044 H 
ATOM     25  H   LIG d   1       9.220   2.825  -5.494  0.00  0.00     0.044 H 
BRANCH  23  26
ATOM     26  N   LIG d   1       9.342   4.485  -4.199  0.00  0.00    -0.296 N 
ATOM     27  C   LIG d   1       9.972   4.890  -2.933  0.00  0.00     0.022 C 
ATOM     28  C   LIG d   1       9.543   6.320  -2.590  0.00  0.00     0.060 C 
ATOM     29  H   LIG d   1       9.655   4.208  -2.131  0.00  0.00     0.045 H 
ATOM     30  H   LIG d   1      11.067   4.849  -3.038  0.00  0.00     0.045 H 
ATOM     31  O   LIG d   1       9.892   7.189  -3.671  0.00  0.00    -0.377 OA
ATOM     32  H   LIG d   1      10.055   6.649  -1.675  0.00  0.00     0.057 H 
ATOM     33  H   LIG d   1       8.455   6.350  -2.433  0.00  0.00     0.057 H 
ATOM     34  C   LIG d   1       9.297   6.823  -4.919  0.00  0.00     0.060 C 
ATOM     35  C   LIG d   1       9.723   5.399  -5.285  0.00  0.00     0.022 C 
ATOM     36  H   LIG d   1       9.629   7.519  -5.704  0.00  0.00     0.057 H 
ATOM     37  H   LIG d   1       8.201   6.867  -4.831  0.00  0.00     0.057 H 
ATOM     38  H   LIG d   1      10.813   5.367  -5.428  0.00  0.00     0.045 H 
ATOM     39  H   LIG d   1       9.221   5.092  -6.215  0.00  0.00     0.045 H 
ENDBRANCH  23  26
ENDBRANCH  20  23
ENDBRANCH  18  20
ENDBRANCH  13  16
ENDBRANCH   8  13
BRANCH   1  40
ATOM     40  C   LIG d   1       3.744  -1.308  -2.788  0.00  0.00    -0.043 C 
ATOM     41  H   LIG d   1       2.860  -1.262  -3.441  0.00  0.00     0.027 H 
ATOM     42  H   LIG d   1       4.041  -0.289  -2.500  0.00  0.00     0.027 H 
ATOM     43  H   LIG d   1       3.503  -1.888  -1.885  0.00  0.00     0.027 H 
ENDBRANCH   1  40
BRANCH   5  44
ATOM     44  C   LIG d   1       8.019  -3.842  -5.749  0.00  0.00    -0.043 C 
ATOM     45  H   LIG d   1       7.682  -4.366  -6.656  0.00  0.00     0.030 H 
BRANCH  44  46
ATOM     46  C   LIG d   1       9.217  -2.954  -6.089  0.00  0.00    -0.062 C 
ATOM     47  H   LIG d   1       9.803  -3.420  -6.896  0.00  0.00     0.023 H 
ATOM     48  H   LIG d   1       9.851  -2.836  -5.198  0.00  0.00     0.023 H 
ATOM     49  H   LIG d   1       8.860  -1.966  -6.418  0.00  0.00     0.023 H 
ENDBRANCH  44  46
BRANCH  44  50
ATOM     50  C   LIG d   1       8.429  -4.867  -4.690  0.00  0.00    -0.062 C 
ATOM     51  H   LIG d   1       7.682  -4.878  -3.881  0.00  0.00     0.023 H 
ATOM     52  H   LIG d   1       9.412  -4.596  -4.279  0.00  0.00     0.023 H 
ATOM     53  H   LIG d   1       8.485  -5.866  -5.149  0.00  0.00     0.023 H 
ENDBRANCH  44  50
ENDBRANCH   5  44
BRANCH   3  54
ATOM     54  C   LIG d   1       5.049  -4.303  -6.267  0.00  0.00     0.020 C 
ATOM     55  H   LIG d   1       5.825  -4.287  -7.046  0.00  0.00     0.047 H 
ATOM     56  H   LIG d   1       4.655  -5.324  -6.161  0.00  0.00     0.047 H 
BRANCH  54  57
ATOM     57  N   LIG d   1       3.960  -3.398  -6.646  0.00  0.00    -0.299 N 
ATOM     58  C   LIG d   1       4.204  -2.354  -7.461  0.00  0.00     0.304 C 
ATOM     59  O   LIG d   1       5.327  -2.161  -7.883  0.00  0.00    -0.253 OA
ATOM     60  N   LIG d   1       3.202  -1.521  -7.809  0.00  0.00    -0.270 N 
ATOM     61  H   LIG d   1       2.204  -1.648  -7.365  0.00  0.00     0.156 HD
ATOM     62  H   LIG d   1       2.943  -3.571  -6.263  0.00  0.00     0.150 HD
BRANCH  60  63
ATOM     63  C   LIG d   1       3.433  -0.497  -8.734  0.00  0.00     0.035 A 
ATOM     64  C   LIG d   1       3.388  -0.765 -10.096  0.00  0.00    -0.040 A 
ATOM     65  C   LIG d   1       3.615   0.247 -11.005  0.00  0.00    -0.060 A 
ATOM     66  H   LIG d   1       3.176  -1.766 -10.442  0.00  0.00     0.064 H 
ATOM     67  C   LIG d   1       3.888   1.529 -10.562  0.00  0.00    -0.062 A 
ATOM     68  H   LIG d   1       3.581   0.040 -12.065  0.00  0.00     0.062 H 
ATOM     69  C   LIG d   1       3.933   1.800  -9.207  0.00  0.00    -0.060 A 
ATOM     70  H   LIG d   1       4.065   2.320 -11.277  0.00  0.00     0.062 H 
ATOM     71  C   LIG d   1       3.701   0.792  -8.292  0.00  0.00    -0.040 A 
ATOM     72  H   LIG d   1       4.146   2.802  -8.864  0.00  0.00     0.062 H 
ATOM     73  H   LIG d   1       3.732   1.005  -7.234  0.00  0.00     0.064 H 
ENDBRANCH  60  63
ENDBRANCH  54  57
ENDBRANCH   3  54
TORSDOF 12
ENDMDL
MODEL 7
REMARK VINA RESULT:      -6.8      4.838     14.141
REMARK  12 active torsions:
REMARK  status: ('A' for Active; 'I' for Inactive)
REMARK    1  A    between atoms: C_1  and  C_2 
REMARK    2  A    between atoms: C_4  and  C_26 
REMARK    3  A    between atoms: C_6  and  C_23 
REMARK    4  A    between atoms: C_9  and  C_11 
REMARK    5  A    between atoms: C_11  and  C_12 
REMARK       I    between atoms: C_12  and  N_14 
REMARK    6  A    between atoms: N_14  and  C_15 
REMARK    7  A    between atoms: C_15  and  C_16 
REMARK    8  A    between atoms: C_16  and  N_17 
REMARK    9  A    between atoms: C_23  and  C_24 
REMARK   10  A    between atoms: C_23  and  C_25 
REMARK   11  A    between atoms: C_26  and  N_27 
REMARK       I    between atoms: N_27  and  C_28 
REMARK       I    between atoms: C_28  and  N_30 
REMARK   12  A    between atoms: N_30  and  C_31 
ROOT
ATOM      1  C   LIG d   1      10.320   4.544  -3.899  0.00  0.00    -0.073 C 
ATOM      2  C   LIG d   1      10.089   3.346  -4.331  0.00  0.00    -0.080 C 
ATOM      3  C   LIG d   1       9.991   2.978  -5.783  0.00  0.00    -0.004 C 
ATOM      4  H   LIG d   1      10.934   2.493  -6.074  0.00  0.00     0.036 H 
ATOM      5  C   LIG d   1       9.776   4.234  -6.630  0.00  0.00    -0.030 C 
ATOM      6  H   LIG d   1       8.760   4.625  -6.471  0.00  0.00     0.031 H 
ATOM      7  C   LIG d   1      10.819   5.281  -6.220  0.00  0.00    -0.042 C 
ATOM      8  C   LIG d   1      10.512   5.736  -4.791  0.00  0.00    -0.012 C 
ATOM      9  H   LIG d   1      11.359   6.320  -4.400  0.00  0.00     0.035 H 
ATOM     10  H   LIG d   1       9.950   2.522  -3.615  0.00  0.00     0.058 H 
ATOM     11  H   LIG d   1      11.824   4.835  -6.265  0.00  0.00     0.027 H 
ATOM     12  H   LIG d   1      10.768   6.138  -6.907  0.00  0.00     0.027 H 
ENDROOT
BRANCH   8  13
ATOM     13  C   LIG d   1       9.237   6.581  -4.791  0.00  0.00     0.030 C 
ATOM     14  H   LIG d   1       8.769   6.537  -5.785  0.00  0.00     0.036 H 
ATOM     15  H   LIG d   1       8.537   6.189  -4.039  0.00  0.00     0.036 H 
BRANCH  13  16
ATOM     16  C   LIG d   1       9.582   8.011  -4.461  0.00  0.00     0.214 C 
ATOM     17  O   LIG d   1      10.215   8.265  -3.458  0.00  0.00    -0.276 OA
ATOM     18  N   LIG d   1       9.186   9.006  -5.279  0.00  0.00    -0.314 N 
ATOM     19  H   LIG d   1       8.612   8.774  -6.188  0.00  0.00     0.149 HD
BRANCH  18  20
ATOM     20  C   LIG d   1       9.520  10.395  -4.958  0.00  0.00     0.024 C 
ATOM     21  H   LIG d   1       8.664  11.043  -5.196  0.00  0.00     0.047 H 
ATOM     22  H   LIG d   1       9.755  10.477  -3.886  0.00  0.00     0.047 H 
BRANCH  20  23
ATOM     23  C   LIG d   1      10.734  10.832  -5.781  0.00  0.00     0.015 C 
ATOM     24  H   LIG d   1      11.646  10.722  -5.175  0.00  0.00     0.044 H 
ATOM     25  H   LIG d   1      10.812  10.203  -6.680  0.00  0.00     0.044 H 
BRANCH  23  26
ATOM     26  N   LIG d   1      10.575  12.238  -6.179  0.00  0.00    -0.296 N 
ATOM     27  C   LIG d   1       9.932  12.341  -7.497  0.00  0.00     0.022 C 
ATOM     28  C   LIG d   1       9.839  13.816  -7.899  0.00  0.00     0.060 C 
ATOM     29  H   LIG d   1      10.527  11.793  -8.241  0.00  0.00     0.045 H 
ATOM     30  H   LIG d   1       8.921  11.909  -7.446  0.00  0.00     0.045 H 
ATOM     31  O   LIG d   1       9.126  14.536  -6.890  0.00  0.00    -0.377 OA
ATOM     32  H   LIG d   1       9.307  13.904  -8.857  0.00  0.00     0.057 H 
ATOM     33  H   LIG d   1      10.851  14.234  -8.002  0.00  0.00     0.057 H 
ATOM     34  C   LIG d   1       9.726  14.456  -5.593  0.00  0.00     0.060 C 
ATOM     35  C   LIG d   1       9.817  12.988  -5.168  0.00  0.00     0.022 C 
ATOM     36  H   LIG d   1       9.111  15.011  -4.868  0.00  0.00     0.057 H 
ATOM     37  H   LIG d   1      10.735  14.892  -5.627  0.00  0.00     0.057 H 
ATOM     38  H   LIG d   1       8.804  12.567  -5.080  0.00  0.00     0.045 H 
ATOM     39  H   LIG d   1      10.330  12.917  -4.197  0.00  0.00     0.045 H 
ENDBRANCH  23  26
ENDBRANCH  20  23
ENDBRANCH  18  20
ENDBRANCH  13  16
ENDBRANCH   8  13
BRANCH   1  40
ATOM     40  C   LIG d   1      10.401   4.757  -2.410  0.00  0.00    -0.043 C 
ATOM     41  H   LIG d   1      11.385   4.427  -2.047  0.00  0.00     0.027 H 
ATOM     42  H   LIG d   1       9.612   4.175  -1.912  0.00  0.00     0.027 H 
ATOM     43  H   LIG d   1      10.266   5.825  -2.184  0.00  0.00     0.027 H 
ENDBRANCH   1  40
BRANCH   5  44
ATOM     44  C   LIG d   1       9.945   3.893  -8.112  0.00  0.00    -0.043 C 
ATOM     45  H   LIG d   1       9.565   2.879  -8.301  0.00  0.00     0.030 H 
BRANCH  44  46
ATOM     46  C   LIG d   1       9.160   4.898  -8.958  0.00  0.00    -0.062 C 
ATOM     47  H   LIG d   1       8.132   4.532  -9.102  0.00  0.00     0.023 H 
ATOM     48  H   LIG d   1       9.648   5.013  -9.937  0.00  0.00     0.023 H 
ATOM     49  H   LIG d   1       9.135   5.870  -8.445  0.00  0.00     0.023 H 
ENDBRANCH  44  46
BRANCH  44  50
ATOM     50  C   LIG d   1      11.427   3.961  -8.486  0.00  0.00    -0.062 C 
ATOM     51  H   LIG d   1      11.544   3.752  -9.560  0.00  0.00     0.023 H 
ATOM     52  H   LIG d   1      11.986   3.214  -7.903  0.00  0.00     0.023 H 
ATOM     53  H   LIG d   1      11.816   4.966  -8.263  0.00  0.00     0.023 H 
ENDBRANCH  44  50
ENDBRANCH   5  44
BRANCH   3  54
ATOM     54  C   LIG d   1       8.814   2.022  -5.985  0.00  0.00     0.020 C 
ATOM     55  H   LIG d   1       7.893   2.603  -6.144  0.00  0.00     0.047 H 
ATOM     56  H   LIG d   1       9.005   1.388  -6.864  0.00  0.00     0.047 H 
BRANCH  54  57
ATOM     57  N   LIG d   1       8.661   1.178  -4.798  0.00  0.00    -0.299 N 
ATOM     58  C   LIG d   1       7.457   0.657  -4.492  0.00  0.00     0.304 C 
ATOM     59  O   LIG d   1       6.497   0.888  -5.201  0.00  0.00    -0.253 OA
ATOM     60  N   LIG d   1       7.315  -0.120  -3.399  0.00  0.00    -0.270 N 
ATOM     61  H   LIG d   1       8.164  -0.264  -2.715  0.00  0.00     0.156 HD
ATOM     62  H   LIG d   1       9.530   0.969  -4.155  0.00  0.00     0.150 HD
BRANCH  60  63
ATOM     63  C   LIG d   1       6.090  -0.742  -3.137  0.00  0.00     0.035 A 
ATOM     64  C   LIG d   1       5.817  -1.995  -3.669  0.00  0.00    -0.040 A 
ATOM     65  C   LIG d   1       4.607  -2.606  -3.408  0.00  0.00    -0.060 A 
ATOM     66  H   LIG d   1       6.550  -2.490  -4.288  0.00  0.00     0.064 H 
ATOM     67  C   LIG d   1       3.667  -1.972  -2.616  0.00  0.00    -0.062 A 
ATOM     68  H   LIG d   1       4.394  -3.581  -3.821  0.00  0.00     0.062 H 
ATOM     69  C   LIG d   1       3.935  -0.724  -2.085  0.00  0.00    -0.060 A 
ATOM     70  H   LIG d   1       2.721  -2.452  -2.413  0.00  0.00     0.062 H 
ATOM     71  C   LIG d   1       5.146  -0.110  -2.338  0.00  0.00    -0.040 A 
ATOM     72  H   LIG d   1       3.199  -0.231  -1.467  0.00  0.00     0.062 H 
ATOM     73  H   LIG d   1       5.357   0.863  -1.919  0.00  0.00     0.064 H 
ENDBRANCH  60  63
ENDBRANCH  54  57
ENDBRANCH   3  54
TORSDOF 12
ENDMDL
MODEL 8
REMARK VINA RESULT:      -6.5      5.418     10.953
REMARK  12 active torsions:
REMARK  status: ('A' for Active; 'I' for Inactive)
REMARK    1  A    between atoms: C_1  and  C_2 
REMARK    2  A    between atoms: C_4  and  C_26 
REMARK    3  A    between atoms: C_6  and  C_23 
REMARK    4  A    between atoms: C_9  and  C_11 
REMARK    5  A    between atoms: C_11  and  C_12 
REMARK       I    between atoms: C_12  and  N_14 
REMARK    6  A    between atoms: N_14  and  C_15 
REMARK    7  A    between atoms: C_15  and  C_16 
REMARK    8  A    between atoms: C_16  and  N_17 
REMARK    9  A    between atoms: C_23  and  C_24 
REMARK   10  A    between atoms: C_23  and  C_25 
REMARK   11  A    between atoms: C_26  and  N_27 
REMARK       I    between atoms: N_27  and  C_28 
REMARK       I    between atoms: C_28  and  N_30 
REMARK   12  A    between atoms: N_30  and  C_31 
ROOT
ATOM      1  C   LIG d   1       4.683  -2.981 -10.298  0.00  0.00    -0.073 C 
ATOM      2  C   LIG d   1       3.967  -2.475 -11.249  0.00  0.00    -0.080 C 
ATOM      3  C   LIG d   1       3.310  -1.127 -11.183  0.00  0.00    -0.004 C 
ATOM      4  H   LIG d   1       3.913  -0.426 -11.779  0.00  0.00     0.036 H 
ATOM      5  C   LIG d   1       3.245  -0.645  -9.733  0.00  0.00    -0.030 C 
ATOM      6  H   LIG d   1       2.505  -1.237  -9.173  0.00  0.00     0.031 H 
ATOM      7  C   LIG d   1       4.635  -0.801  -9.105  0.00  0.00    -0.042 C 
ATOM      8  C   LIG d   1       4.950  -2.294  -8.990  0.00  0.00    -0.012 C 
ATOM      9  H   LIG d   1       6.014  -2.429  -8.745  0.00  0.00     0.035 H 
ATOM     10  H   LIG d   1       3.809  -3.043 -12.179  0.00  0.00     0.058 H 
ATOM     11  H   LIG d   1       5.383  -0.308  -9.744  0.00  0.00     0.027 H 
ATOM     12  H   LIG d   1       4.642  -0.337  -8.108  0.00  0.00     0.027 H 
ENDROOT
BRANCH   8  13
ATOM     13  C   LIG d   1       4.070  -2.915  -7.903  0.00  0.00     0.030 C 
ATOM     14  H   LIG d   1       3.167  -2.302  -7.768  0.00  0.00     0.036 H 
ATOM     15  H   LIG d   1       3.780  -3.933  -8.202  0.00  0.00     0.036 H 
BRANCH  13  16
ATOM     16  C   LIG d   1       4.837  -2.971  -6.606  0.00  0.00     0.214 C 
ATOM     17  O   LIG d   1       6.047  -2.883  -6.614  0.00  0.00    -0.276 OA
ATOM     18  N   LIG d   1       4.179  -3.118  -5.440  0.00  0.00    -0.314 N 
ATOM     19  H   LIG d   1       3.082  -3.197  -5.434  0.00  0.00     0.149 HD
BRANCH  18  20
ATOM     20  C   LIG d   1       4.924  -3.172  -4.180  0.00  0.00     0.024 C 
ATOM     21  H   LIG d   1       5.001  -4.217  -3.844  0.00  0.00     0.047 H 
ATOM     22  H   LIG d   1       5.933  -2.763  -4.333  0.00  0.00     0.047 H 
BRANCH  20  23
ATOM     23  C   LIG d   1       4.194  -2.347  -3.119  0.00  0.00     0.015 C 
ATOM     24  H   LIG d   1       3.108  -2.469  -3.244  0.00  0.00     0.044 H 
ATOM     25  H   LIG d   1       4.489  -2.694  -2.118  0.00  0.00     0.044 H 
BRANCH  23  26
ATOM     26  N   LIG d   1       4.549  -0.929  -3.271  0.00  0.00    -0.296 N 
ATOM     27  C   LIG d   1       3.845  -0.101  -2.281  0.00  0.00     0.022 C 
ATOM     28  C   LIG d   1       4.196   1.371  -2.512  0.00  0.00     0.060 C 
ATOM     29  H   LIG d   1       2.760  -0.243  -2.389  0.00  0.00     0.045 H 
ATOM     30  H   LIG d   1       4.154  -0.399  -1.268  0.00  0.00     0.045 H 
ATOM     31  O   LIG d   1       5.616   1.534  -2.443  0.00  0.00    -0.377 OA
ATOM     32  H   LIG d   1       3.718   1.990  -1.739  0.00  0.00     0.057 H 
ATOM     33  H   LIG d   1       3.840   1.683  -3.505  0.00  0.00     0.057 H 
ATOM     34  C   LIG d   1       6.333   0.741  -3.394  0.00  0.00     0.060 C 
ATOM     35  C   LIG d   1       6.003  -0.737  -3.172  0.00  0.00     0.022 C 
ATOM     36  H   LIG d   1       7.414   0.900  -3.266  0.00  0.00     0.057 H 
ATOM     37  H   LIG d   1       6.039   1.033  -4.413  0.00  0.00     0.057 H 
ATOM     38  H   LIG d   1       6.347  -1.045  -2.173  0.00  0.00     0.045 H 
ATOM     39  H   LIG d   1       6.506  -1.346  -3.937  0.00  0.00     0.045 H 
ENDBRANCH  23  26
ENDBRANCH  20  23
ENDBRANCH  18  20
ENDBRANCH  13  16
ENDBRANCH   8  13
BRANCH   1  40
ATOM     40  C   LIG d   1       5.289  -4.344 -10.515  0.00  0.00    -0.043 C 
ATOM     41  H   LIG d   1       6.109  -4.267 -11.245  0.00  0.00     0.027 H 
ATOM     42  H   LIG d   1       4.520  -5.031 -10.898  0.00  0.00     0.027 H 
ATOM     43  H   LIG d   1       5.681  -4.727  -9.561  0.00  0.00     0.027 H 
ENDBRANCH   1  40
BRANCH   5  44
ATOM     44  C   LIG d   1       2.825   0.826  -9.694  0.00  0.00    -0.043 C 
ATOM     45  H   LIG d   1       1.809   0.928 -10.102  0.00  0.00     0.030 H 
BRANCH  44  46
ATOM     46  C   LIG d   1       2.848   1.325  -8.248  0.00  0.00    -0.062 C 
ATOM     47  H   LIG d   1       2.889   0.465  -7.563  0.00  0.00     0.023 H 
ATOM     48  H   LIG d   1       1.939   1.910  -8.048  0.00  0.00     0.023 H 
ATOM     49  H   LIG d   1       3.733   1.960  -8.093  0.00  0.00     0.023 H 
ENDBRANCH  44  46
BRANCH  44  50
ATOM     50  C   LIG d   1       3.797   1.656 -10.535  0.00  0.00    -0.062 C 
ATOM     51  H   LIG d   1       3.231   2.271 -11.250  0.00  0.00     0.023 H 
ATOM     52  H   LIG d   1       4.473   0.983 -11.085  0.00  0.00     0.023 H 
ATOM     53  H   LIG d   1       4.387   2.310  -9.875  0.00  0.00     0.023 H 
ENDBRANCH  44  50
ENDBRANCH   5  44
BRANCH   3  54
ATOM     54  C   LIG d   1       1.893  -1.226 -11.749  0.00  0.00     0.020 C 
ATOM     55  H   LIG d   1       1.487  -0.215 -11.902  0.00  0.00     0.047 H 
ATOM     56  H   LIG d   1       1.918  -1.761 -12.710  0.00  0.00     0.047 H 
BRANCH  54  57
ATOM     57  N   LIG d   1       1.040  -1.956 -10.807  0.00  0.00    -0.299 N 
ATOM     58  C   LIG d   1       0.580  -3.182 -11.125  0.00  0.00     0.304 C 
ATOM     59  O   LIG d   1       0.871  -3.682 -12.194  0.00  0.00    -0.253 OA
ATOM     60  N   LIG d   1      -0.205  -3.853 -10.258  0.00  0.00    -0.270 N 
ATOM     61  H   LIG d   1      -0.533  -3.370  -9.327  0.00  0.00     0.156 HD
ATOM     62  H   LIG d   1       0.776  -1.504  -9.839  0.00  0.00     0.150 HD
BRANCH  60  63
ATOM     63  C   LIG d   1      -0.601  -5.165 -10.544  0.00  0.00     0.035 A 
ATOM     64  C   LIG d   1       0.204  -6.232 -10.170  0.00  0.00    -0.040 A 
ATOM     65  C   LIG d   1      -0.190  -7.524 -10.453  0.00  0.00    -0.060 A 
ATOM     66  H   LIG d   1       1.137  -6.051  -9.658  0.00  0.00     0.064 H 
ATOM     67  C   LIG d   1      -1.385  -7.757 -11.109  0.00  0.00    -0.062 A 
ATOM     68  H   LIG d   1       0.435  -8.356 -10.162  0.00  0.00     0.062 H 
ATOM     69  C   LIG d   1      -2.189  -6.696 -11.484  0.00  0.00    -0.060 A 
ATOM     70  H   LIG d   1      -1.691  -8.769 -11.330  0.00  0.00     0.062 H 
ATOM     71  C   LIG d   1      -1.803  -5.401 -11.198  0.00  0.00    -0.040 A 
ATOM     72  H   LIG d   1      -3.122  -6.880 -11.996  0.00  0.00     0.062 H 
ATOM     73  H   LIG d   1      -2.434  -4.573 -11.487  0.00  0.00     0.064 H 
ENDBRANCH  60  63
ENDBRANCH  54  57
ENDBRANCH   3  54
TORSDOF 12
ENDMDL
MODEL 9
REMARK VINA RESULT:      -6.4      8.560     11.139
REMARK  12 active torsions:
REMARK  status: ('A' for Active; 'I' for Inactive)
REMARK    1  A    between atoms: C_1  and  C_2 
REMARK    2  A    between atoms: C_4  and  C_26 
REMARK    3  A    between atoms: C_6  and  C_23 
REMARK    4  A    between atoms: C_9  and  C_11 
REMARK    5  A    between atoms: C_11  and  C_12 
REMARK       I    between atoms: C_12  and  N_14 
REMARK    6  A    between atoms: N_14  and  C_15 
REMARK    7  A    between atoms: C_15  and  C_16 
REMARK    8  A    between atoms: C_16  and  N_17 
REMARK    9  A    between atoms: C_23  and  C_24 
REMARK   10  A    between atoms: C_23  and  C_25 
REMARK   11  A    between atoms: C_26  and  N_27 
REMARK       I    between atoms: N_27  and  C_28 
REMARK       I    between atoms: C_28  and  N_30 
REMARK   12  A    between atoms: N_30  and  C_31 
ROOT
ATOM      1  C   LIG d   1       3.041  -2.191 -11.605  0.00  0.00    -0.073 C 
ATOM      2  C   LIG d   1       3.160  -2.437 -10.340  0.00  0.00    -0.080 C 
ATOM      3  C   LIG d   1       3.442  -1.390  -9.302  0.00  0.00    -0.004 C 
ATOM      4  H   LIG d   1       2.500  -1.165  -8.782  0.00  0.00     0.036 H 
ATOM      5  C   LIG d   1       3.979  -0.121  -9.966  0.00  0.00    -0.030 C 
ATOM      6  H   LIG d   1       5.001  -0.293 -10.335  0.00  0.00     0.031 H 
ATOM      7  C   LIG d   1       3.049   0.249 -11.128  0.00  0.00    -0.042 C 
ATOM      8  C   LIG d   1       3.178  -0.825 -12.211  0.00  0.00    -0.012 C 
ATOM      9  H   LIG d   1       2.374  -0.700 -12.952  0.00  0.00     0.035 H 
ATOM     10  H   LIG d   1       3.055  -3.467  -9.969  0.00  0.00     0.058 H 
ATOM     11  H   LIG d   1       2.011   0.295 -10.768  0.00  0.00     0.027 H 
ATOM     12  H   LIG d   1       3.340   1.229 -11.534  0.00  0.00     0.027 H 
ENDROOT
BRANCH   8  13
ATOM     13  C   LIG d   1       4.546  -0.704 -12.885  0.00  0.00     0.030 C 
ATOM     14  H   LIG d   1       5.056   0.199 -12.518  0.00  0.00     0.036 H 
ATOM     15  H   LIG d   1       5.152  -1.590 -12.646  0.00  0.00     0.036 H 
BRANCH  13  16
ATOM     16  C   LIG d   1       4.365  -0.606 -14.379  0.00  0.00     0.214 C 
ATOM     17  O   LIG d   1       3.397  -1.113 -14.906  0.00  0.00    -0.276 OA
ATOM     18  N   LIG d   1       5.277   0.044 -15.127  0.00  0.00    -0.314 N 
ATOM     19  H   LIG d   1       6.155   0.503 -14.648  0.00  0.00     0.149 HD
BRANCH  18  20
ATOM     20  C   LIG d   1       5.101   0.139 -16.578  0.00  0.00     0.024 C 
ATOM     21  H   LIG d   1       6.061  -0.060 -17.078  0.00  0.00     0.047 H 
ATOM     22  H   LIG d   1       4.358  -0.603 -16.906  0.00  0.00     0.047 H 
BRANCH  20  23
ATOM     23  C   LIG d   1       4.617   1.543 -16.943  0.00  0.00     0.015 C 
ATOM     24  H   LIG d   1       4.071   1.975 -16.092  0.00  0.00     0.044 H 
ATOM     25  H   LIG d   1       5.483   2.178 -17.184  0.00  0.00     0.044 H 
BRANCH  23  26
ATOM     26  N   LIG d   1       3.726   1.466 -18.109  0.00  0.00    -0.296 N 
ATOM     27  C   LIG d   1       2.456   0.814 -17.758  0.00  0.00     0.022 C 
ATOM     28  C   LIG d   1       1.583   0.701 -19.011  0.00  0.00     0.060 C 
ATOM     29  H   LIG d   1       2.656  -0.189 -17.356  0.00  0.00     0.045 H 
ATOM     30  H   LIG d   1       1.934   1.416 -16.998  0.00  0.00     0.045 H 
ATOM     31  O   LIG d   1       1.388   2.003 -19.570  0.00  0.00    -0.377 OA
ATOM     32  H   LIG d   1       0.609   0.267 -18.743  0.00  0.00     0.057 H 
ATOM     33  H   LIG d   1       2.082   0.056 -19.750  0.00  0.00     0.057 H 
ATOM     34  C   LIG d   1       2.606   2.666 -19.923  0.00  0.00     0.060 C 
ATOM     35  C   LIG d   1       3.489   2.799 -18.680  0.00  0.00     0.022 C 
ATOM     36  H   LIG d   1       2.378   3.666 -20.322  0.00  0.00     0.057 H 
ATOM     37  H   LIG d   1       3.136   2.079 -20.688  0.00  0.00     0.057 H 
ATOM     38  H   LIG d   1       2.982   3.432 -17.936  0.00  0.00     0.045 H 
ATOM     39  H   LIG d   1       4.450   3.256 -18.958  0.00  0.00     0.045 H 
ENDBRANCH  23  26
ENDBRANCH  20  23
ENDBRANCH  18  20
ENDBRANCH  13  16
ENDBRANCH   8  13
BRANCH   1  40
ATOM     40  C   LIG d   1       2.746  -3.346 -12.526  0.00  0.00    -0.043 C 
ATOM     41  H   LIG d   1       3.629  -3.552 -13.148  0.00  0.00     0.027 H 
ATOM     42  H   LIG d   1       1.893  -3.092 -13.171  0.00  0.00     0.027 H 
ATOM     43  H   LIG d   1       2.501  -4.237 -11.929  0.00  0.00     0.027 H 
ENDBRANCH   1  40
BRANCH   5  44
ATOM     44  C   LIG d   1       4.011   1.022  -8.950  0.00  0.00    -0.043 C 
ATOM     45  H   LIG d   1       4.163   0.611  -7.941  0.00  0.00     0.030 H 
BRANCH  44  46
ATOM     46  C   LIG d   1       5.158   1.976  -9.290  0.00  0.00    -0.062 C 
ATOM     47  H   LIG d   1       5.780   2.136  -8.397  0.00  0.00     0.023 H 
ATOM     48  H   LIG d   1       4.746   2.938  -9.628  0.00  0.00     0.023 H 
ATOM     49  H   LIG d   1       5.772   1.539 -10.091  0.00  0.00     0.023 H 
ENDBRANCH  44  46
BRANCH  44  50
ATOM     50  C   LIG d   1       2.684   1.783  -8.996  0.00  0.00    -0.062 C 
ATOM     51  H   LIG d   1       2.443   2.162  -7.991  0.00  0.00     0.023 H 
ATOM     52  H   LIG d   1       1.885   1.107  -9.334  0.00  0.00     0.023 H 
ATOM     53  H   LIG d   1       2.771   2.628  -9.696  0.00  0.00     0.023 H 
ENDBRANCH  44  50
ENDBRANCH   5  44
BRANCH   3  54
ATOM     54  C   LIG d   1       4.482  -1.924  -8.314  0.00  0.00     0.020 C 
ATOM     55  H   LIG d   1       4.889  -2.875  -8.687  0.00  0.00     0.047 H 
ATOM     56  H   LIG d   1       5.297  -1.192  -8.209  0.00  0.00     0.047 H 
BRANCH  54  57
ATOM     57  N   LIG d   1       3.851  -2.141  -7.010  0.00  0.00    -0.299 N 
ATOM     58  C   LIG d   1       4.166  -1.347  -5.968  0.00  0.00     0.304 C 
ATOM     59  O   LIG d   1       4.975  -0.451  -6.109  0.00  0.00    -0.253 OA
ATOM     60  N   LIG d   1       3.585  -1.548  -4.768  0.00  0.00    -0.270 N 
ATOM     61  H   LIG d   1       2.914  -2.406  -4.619  0.00  0.00     0.156 HD
ATOM     62  H   LIG d   1       3.118  -2.952  -6.882  0.00  0.00     0.150 HD
BRANCH  60  63
ATOM     63  C   LIG d   1       3.836  -0.663  -3.712  0.00  0.00     0.035 A 
ATOM     64  C   LIG d   1       4.574  -1.083  -2.613  0.00  0.00    -0.040 A 
ATOM     65  C   LIG d   1       4.820  -0.208  -1.575  0.00  0.00    -0.060 A 
ATOM     66  H   LIG d   1       4.955  -2.092  -2.572  0.00  0.00     0.064 H 
ATOM     67  C   LIG d   1       4.332   1.085  -1.627  0.00  0.00    -0.062 A 
ATOM     68  H   LIG d   1       5.395  -0.532  -0.720  0.00  0.00     0.062 H 
ATOM     69  C   LIG d   1       3.597   1.506  -2.719  0.00  0.00    -0.060 A 
ATOM     70  H   LIG d   1       4.526   1.768  -0.813  0.00  0.00     0.062 H 
ATOM     71  C   LIG d   1       3.352   0.637  -3.764  0.00  0.00    -0.040 A 
ATOM     72  H   LIG d   1       3.217   2.516  -2.758  0.00  0.00     0.062 H 
ATOM     73  H   LIG d   1       2.781   0.968  -4.620  0.00  0.00     0.064 H 
ENDBRANCH  60  63
ENDBRANCH  54  57
ENDBRANCH   3  54
TORSDOF 12
ENDMDL
