MODEL 1
REMARK VINA RESULT:      -7.0      0.000      0.000
REMARK  8 active torsions:
REMARK  status: ('A' for Active; 'I' for Inactive)
REMARK    1  A    between atoms: C_1  and  N_52 
REMARK    2  A    between atoms: C_2  and  C_18 
REMARK    3  A    between atoms: C_7  and  C_9 
REMARK    4  A    between atoms: C_9  and  C_10 
REMARK    5  A    between atoms: C_10  and  C_12 
REMARK    6  A    between atoms: C_18  and  C_19 
REMARK    7  A    between atoms: C_19  and  C_21 
REMARK    8  A    between atoms: C_19  and  O_27 
ROOT
ATOM      1  C   LIG d   1       4.174  -2.899  -7.637  0.00  0.00    -0.018 C 
ATOM      2  H   LIG d   1       3.428  -2.391  -7.026  0.00  0.00     0.085 H 
ATOM      3  C   LIG d   1       4.002  -4.414  -7.497  0.00  0.00    -0.009 C 
ATOM      4  C   LIG d   1       4.203  -4.813  -6.032  0.00  0.00    -0.043 C 
ATOM      5  C   LIG d   1       5.592  -4.358  -5.575  0.00  0.00    -0.009 C 
ATOM      6  C   LIG d   1       5.718  -2.845  -5.770  0.00  0.00    -0.014 C 
ATOM      7  H   LIG d   1       4.965  -2.337  -5.169  0.00  0.00     0.086 H 
ATOM      8  H   LIG d   1       4.739  -4.923  -8.117  0.00  0.00     0.032 H 
ATOM      9  H   LIG d   1       2.998  -4.697  -7.816  0.00  0.00     0.032 H 
ATOM     10  H   LIG d   1       4.124  -5.895  -5.935  0.00  0.00     0.027 H 
ATOM     11  H   LIG d   1       3.442  -4.334  -5.416  0.00  0.00     0.027 H 
ATOM     12  H   LIG d   1       6.354  -4.866  -6.165  0.00  0.00     0.032 H 
ATOM     13  H   LIG d   1       5.726  -4.600  -4.520  0.00  0.00     0.032 H 
ATOM     14  N   LIG d   1       5.539  -2.530  -7.203  0.00  0.00     0.238 N 
ATOM     15  H   LIG d   1       6.219  -3.069  -7.751  0.00  0.00     0.204 HD
ENDROOT
BRANCH   1  16
ATOM     16  C   LIG d   1       3.993  -2.499  -9.102  0.00  0.00     0.021 C 
ATOM     17  H   LIG d   1       4.825  -1.867  -9.412  0.00  0.00     0.035 H 
ATOM     18  H   LIG d   1       3.966  -3.395  -9.723  0.00  0.00     0.035 H 
BRANCH  16  19
ATOM     19  C   LIG d   1       2.681  -1.729  -9.262  0.00  0.00     0.085 C 
ATOM     20  H   LIG d   1       2.063  -1.875  -8.376  0.00  0.00     0.065 H 
BRANCH  19  21
ATOM     21  C   LIG d   1       2.978  -0.261  -9.430  0.00  0.00    -0.019 A 
ATOM     22  C   LIG d   1       2.647   0.631  -8.427  0.00  0.00    -0.056 A 
ATOM     23  C   LIG d   1       2.920   1.978  -8.581  0.00  0.00    -0.061 A 
ATOM     24  H   LIG d   1       2.176   0.275  -7.522  0.00  0.00     0.062 H 
ATOM     25  C   LIG d   1       3.523   2.433  -9.738  0.00  0.00    -0.062 A 
ATOM     26  H   LIG d   1       2.661   2.673  -7.796  0.00  0.00     0.062 H 
ATOM     27  C   LIG d   1       3.853   1.541 -10.742  0.00  0.00    -0.061 A 
ATOM     28  H   LIG d   1       3.735   3.484  -9.858  0.00  0.00     0.062 H 
ATOM     29  C   LIG d   1       3.586   0.194 -10.585  0.00  0.00    -0.056 A 
ATOM     30  H   LIG d   1       4.324   1.897 -11.646  0.00  0.00     0.062 H 
ATOM     31  H   LIG d   1       3.848  -0.502 -11.367  0.00  0.00     0.062 H 
ENDBRANCH  19  21
BRANCH  19  32
ATOM     32  O   LIG d   1       1.984  -2.208 -10.414  0.00  0.00    -0.387 OA
ATOM     33  H   LIG d   1       2.052  -1.630 -11.185  0.00  0.00     0.210 HD
ENDBRANCH  19  32
ENDBRANCH  16  19
ENDBRANCH   1  16
BRANCH  14  34
ATOM     34  C   LIG d   1       5.769  -1.089  -7.436  0.00  0.00    -0.043 C 
ATOM     35  H   LIG d   1       6.785  -0.841  -7.128  0.00  0.00     0.078 H 
ATOM     36  H   LIG d   1       5.649  -0.878  -8.498  0.00  0.00     0.078 H 
ATOM     37  H   LIG d   1       5.060  -0.491  -6.864  0.00  0.00     0.078 H 
ENDBRANCH  14  34
BRANCH   6  38
ATOM     38  C   LIG d   1       7.112  -2.390  -5.333  0.00  0.00     0.053 C 
ATOM     39  H   LIG d   1       7.341  -1.531  -5.791  0.00  0.00     0.040 H 
ATOM     40  H   LIG d   1       7.844  -3.151  -5.601  0.00  0.00     0.040 H 
BRANCH  38  41
ATOM     41  C   LIG d   1       7.127  -2.182  -3.840  0.00  0.00     0.169 C 
ATOM     42  O   LIG d   1       7.893  -2.816  -3.146  0.00  0.00    -0.292 OA
BRANCH  41  43
ATOM     43  C   LIG d   1       6.211  -1.208  -3.224  0.00  0.00     0.018 A 
ATOM     44  C   LIG d   1       6.428   0.164  -3.390  0.00  0.00    -0.051 A 
ATOM     45  C   LIG d   1       5.569   1.070  -2.804  0.00  0.00    -0.061 A 
ATOM     46  H   LIG d   1       7.270   0.513  -3.969  0.00  0.00     0.062 H 
ATOM     47  C   LIG d   1       4.490   0.625  -2.062  0.00  0.00    -0.062 A 
ATOM     48  H   LIG d   1       5.738   2.129  -2.927  0.00  0.00     0.062 H 
ATOM     49  C   LIG d   1       4.264  -0.731  -1.898  0.00  0.00    -0.061 A 
ATOM     50  H   LIG d   1       3.820   1.339  -1.606  0.00  0.00     0.062 H 
ATOM     51  C   LIG d   1       5.115  -1.649  -2.477  0.00  0.00    -0.051 A 
ATOM     52  H   LIG d   1       3.419  -1.070  -1.317  0.00  0.00     0.062 H 
ATOM     53  H   LIG d   1       4.938  -2.707  -2.348  0.00  0.00     0.062 H 
ENDBRANCH  41  43
ENDBRANCH  38  41
ENDBRANCH   6  38
TORSDOF 8
ENDMDL
MODEL 2
REMARK VINA RESULT:      -6.9      2.851      4.687
REMARK  8 active torsions:
REMARK  status: ('A' for Active; 'I' for Inactive)
REMARK    1  A    between atoms: C_1  and  N_52 
REMARK    2  A    between atoms: C_2  and  C_18 
REMARK    3  A    between atoms: C_7  and  C_9 
REMARK    4  A    between atoms: C_9  and  C_10 
REMARK    5  A    between atoms: C_10  and  C_12 
REMARK    6  A    between atoms: C_18  and  C_19 
REMARK    7  A    between atoms: C_19  and  C_21 
REMARK    8  A    between atoms: C_19  and  O_27 
ROOT
ATOM      1  C   LIG d   1       4.268   0.097  -9.568  0.00  0.00    -0.018 C 
ATOM      2  H   LIG d   1       5.265   0.289  -9.172  0.00  0.00     0.085 H 
ATOM      3  C   LIG d   1       3.712   1.380 -10.191  0.00  0.00    -0.009 C 
ATOM      4  C   LIG d   1       3.620   2.467  -9.116  0.00  0.00    -0.043 C 
ATOM      5  C   LIG d   1       2.735   1.966  -7.970  0.00  0.00    -0.009 C 
ATOM      6  C   LIG d   1       3.319   0.667  -7.412  0.00  0.00    -0.014 C 
ATOM      7  H   LIG d   1       4.322   0.855  -7.026  0.00  0.00     0.086 H 
ATOM      8  H   LIG d   1       2.720   1.186 -10.598  0.00  0.00     0.032 H 
ATOM      9  H   LIG d   1       4.375   1.714 -10.989  0.00  0.00     0.032 H 
ATOM     10  H   LIG d   1       3.184   3.368  -9.545  0.00  0.00     0.027 H 
ATOM     11  H   LIG d   1       4.616   2.688  -8.735  0.00  0.00     0.027 H 
ATOM     12  H   LIG d   1       1.727   1.781  -8.344  0.00  0.00     0.032 H 
ATOM     13  H   LIG d   1       2.700   2.718  -7.182  0.00  0.00     0.032 H 
ATOM     14  N   LIG d   1       3.359  -0.345  -8.489  0.00  0.00     0.238 N 
ATOM     15  H   LIG d   1       2.414  -0.456  -8.876  0.00  0.00     0.204 HD
ENDROOT
BRANCH   1  16
ATOM     16  C   LIG d   1       4.344  -0.996 -10.634  0.00  0.00     0.021 C 
ATOM     17  H   LIG d   1       5.158  -0.775 -11.324  0.00  0.00     0.035 H 
ATOM     18  H   LIG d   1       4.524  -1.959 -10.156  0.00  0.00     0.035 H 
BRANCH  16  19
ATOM     19  C   LIG d   1       3.023  -1.049 -11.404  0.00  0.00     0.085 C 
ATOM     20  H   LIG d   1       2.450  -0.143 -11.207  0.00  0.00     0.065 H 
BRANCH  19  21
ATOM     21  C   LIG d   1       3.306  -1.153 -12.881  0.00  0.00    -0.019 A 
ATOM     22  C   LIG d   1       2.488  -1.920 -13.689  0.00  0.00    -0.056 A 
ATOM     23  C   LIG d   1       2.747  -2.014 -15.044  0.00  0.00    -0.061 A 
ATOM     24  H   LIG d   1       1.646  -2.445 -13.262  0.00  0.00     0.062 H 
ATOM     25  C   LIG d   1       3.824  -1.342 -15.590  0.00  0.00    -0.062 A 
ATOM     26  H   LIG d   1       2.107  -2.614 -15.675  0.00  0.00     0.062 H 
ATOM     27  C   LIG d   1       4.642  -0.576 -14.782  0.00  0.00    -0.061 A 
ATOM     28  H   LIG d   1       4.027  -1.417 -16.647  0.00  0.00     0.062 H 
ATOM     29  C   LIG d   1       4.380  -0.476 -13.428  0.00  0.00    -0.056 A 
ATOM     30  H   LIG d   1       5.484  -0.050 -15.208  0.00  0.00     0.062 H 
ATOM     31  H   LIG d   1       5.016   0.126 -12.798  0.00  0.00     0.062 H 
ENDBRANCH  19  21
BRANCH  19  32
ATOM     32  O   LIG d   1       2.271  -2.190 -10.982  0.00  0.00    -0.387 OA
ATOM     33  H   LIG d   1       1.319  -2.034 -10.923  0.00  0.00     0.210 HD
ENDBRANCH  19  32
ENDBRANCH  16  19
ENDBRANCH   1  16
BRANCH  14  34
ATOM     34  C   LIG d   1       3.813  -1.642  -7.948  0.00  0.00    -0.043 C 
ATOM     35  H   LIG d   1       4.323  -1.469  -7.000  0.00  0.00     0.078 H 
ATOM     36  H   LIG d   1       2.946  -2.281  -7.783  0.00  0.00     0.078 H 
ATOM     37  H   LIG d   1       4.495  -2.130  -8.643  0.00  0.00     0.078 H 
ENDBRANCH  14  34
BRANCH   6  38
ATOM     38  C   LIG d   1       2.427   0.152  -6.280  0.00  0.00     0.053 C 
ATOM     39  H   LIG d   1       2.626  -0.814  -6.112  0.00  0.00     0.040 H 
ATOM     40  H   LIG d   1       1.380   0.263  -6.564  0.00  0.00     0.040 H 
BRANCH  38  41
ATOM     41  C   LIG d   1       2.696   0.945  -5.028  0.00  0.00     0.169 C 
ATOM     42  O   LIG d   1       2.418   2.125  -4.985  0.00  0.00    -0.292 OA
BRANCH  41  43
ATOM     43  C   LIG d   1       3.297   0.288  -3.856  0.00  0.00     0.018 A 
ATOM     44  C   LIG d   1       3.988   1.045  -2.903  0.00  0.00    -0.051 A 
ATOM     45  C   LIG d   1       4.553   0.420  -1.811  0.00  0.00    -0.061 A 
ATOM     46  H   LIG d   1       4.083   2.113  -3.024  0.00  0.00     0.062 H 
ATOM     47  C   LIG d   1       4.432  -0.949  -1.653  0.00  0.00    -0.062 A 
ATOM     48  H   LIG d   1       5.090   1.001  -1.077  0.00  0.00     0.062 H 
ATOM     49  C   LIG d   1       3.745  -1.704  -2.588  0.00  0.00    -0.061 A 
ATOM     50  H   LIG d   1       4.876  -1.432  -0.795  0.00  0.00     0.062 H 
ATOM     51  C   LIG d   1       3.175  -1.094  -3.685  0.00  0.00    -0.051 A 
ATOM     52  H   LIG d   1       3.655  -2.772  -2.457  0.00  0.00     0.062 H 
ATOM     53  H   LIG d   1       2.639  -1.684  -4.415  0.00  0.00     0.062 H 
ENDBRANCH  41  43
ENDBRANCH  38  41
ENDBRANCH   6  38
TORSDOF 8
ENDMDL
MODEL 3
REMARK VINA RESULT:      -6.7      0.855      6.602
REMARK  8 active torsions:
REMARK  status: ('A' for Active; 'I' for Inactive)
REMARK    1  A    between atoms: C_1  and  N_52 
REMARK    2  A    between atoms: C_2  and  C_18 
REMARK    3  A    between atoms: C_7  and  C_9 
REMARK    4  A    between atoms: C_9  and  C_10 
REMARK    5  A    between atoms: C_10  and  C_12 
REMARK    6  A    between atoms: C_18  and  C_19 
REMARK    7  A    between atoms: C_19  and  C_21 
REMARK    8  A    between atoms: C_19  and  O_27 
ROOT
ATOM      1  C   LIG d   1       6.453  -1.887  -6.221  0.00  0.00    -0.018 C 
ATOM      2  H   LIG d   1       6.011  -0.933  -5.935  0.00  0.00     0.085 H 
ATOM      3  C   LIG d   1       7.726  -1.635  -7.033  0.00  0.00    -0.009 C 
ATOM      4  C   LIG d   1       7.372  -0.852  -8.300  0.00  0.00    -0.043 C 
ATOM      5  C   LIG d   1       6.337  -1.642  -9.106  0.00  0.00    -0.009 C 
ATOM      6  C   LIG d   1       5.104  -1.893  -8.234  0.00  0.00    -0.014 C 
ATOM      7  H   LIG d   1       4.667  -0.939  -7.938  0.00  0.00     0.086 H 
ATOM      8  H   LIG d   1       8.177  -2.589  -7.308  0.00  0.00     0.032 H 
ATOM      9  H   LIG d   1       8.431  -1.058  -6.433  0.00  0.00     0.032 H 
ATOM     10  H   LIG d   1       8.269  -0.708  -8.901  0.00  0.00     0.027 H 
ATOM     11  H   LIG d   1       6.957   0.117  -8.025  0.00  0.00     0.027 H 
ATOM     12  H   LIG d   1       6.766  -2.596  -9.413  0.00  0.00     0.032 H 
ATOM     13  H   LIG d   1       6.048  -1.070  -9.988  0.00  0.00     0.032 H 
ATOM     14  N   LIG d   1       5.507  -2.672  -7.044  0.00  0.00     0.238 N 
ATOM     15  H   LIG d   1       5.971  -3.534  -7.352  0.00  0.00     0.204 HD
ENDROOT
BRANCH   1  16
ATOM     16  C   LIG d   1       6.799  -2.686  -4.964  0.00  0.00     0.021 C 
ATOM     17  H   LIG d   1       5.898  -3.158  -4.573  0.00  0.00     0.035 H 
ATOM     18  H   LIG d   1       7.533  -3.453  -5.212  0.00  0.00     0.035 H 
BRANCH  16  19
ATOM     19  C   LIG d   1       7.382  -1.746  -3.907  0.00  0.00     0.085 C 
ATOM     20  H   LIG d   1       8.065  -1.043  -4.383  0.00  0.00     0.065 H 
BRANCH  19  21
ATOM     21  C   LIG d   1       6.265  -0.987  -3.239  0.00  0.00    -0.019 A 
ATOM     22  C   LIG d   1       5.225  -1.673  -2.641  0.00  0.00    -0.056 A 
ATOM     23  C   LIG d   1       4.200  -0.976  -2.027  0.00  0.00    -0.061 A 
ATOM     24  H   LIG d   1       5.212  -2.752  -2.653  0.00  0.00     0.062 H 
ATOM     25  C   LIG d   1       4.215   0.406  -2.012  0.00  0.00    -0.062 A 
ATOM     26  H   LIG d   1       3.387  -1.514  -1.560  0.00  0.00     0.062 H 
ATOM     27  C   LIG d   1       5.256   1.091  -2.610  0.00  0.00    -0.061 A 
ATOM     28  H   LIG d   1       3.415   0.949  -1.534  0.00  0.00     0.062 H 
ATOM     29  C   LIG d   1       6.284   0.395  -3.219  0.00  0.00    -0.056 A 
ATOM     30  H   LIG d   1       5.268   2.171  -2.599  0.00  0.00     0.062 H 
ATOM     31  H   LIG d   1       7.098   0.931  -3.682  0.00  0.00     0.062 H 
ENDBRANCH  19  21
BRANCH  19  32
ATOM     32  O   LIG d   1       8.091  -2.511  -2.928  0.00  0.00    -0.387 OA
ATOM     33  H   LIG d   1       8.480  -1.980  -2.221  0.00  0.00     0.210 HD
ENDBRANCH  19  32
ENDBRANCH  16  19
ENDBRANCH   1  16
BRANCH  14  34
ATOM     34  C   LIG d   1       4.317  -3.025  -6.244  0.00  0.00    -0.043 C 
ATOM     35  H   LIG d   1       3.779  -2.111  -5.990  0.00  0.00     0.078 H 
ATOM     36  H   LIG d   1       3.672  -3.674  -6.835  0.00  0.00     0.078 H 
ATOM     37  H   LIG d   1       4.609  -3.540  -5.329  0.00  0.00     0.078 H 
ENDBRANCH  14  34
BRANCH   6  38
ATOM     38  C   LIG d   1       4.075  -2.700  -9.029  0.00  0.00     0.053 C 
ATOM     39  H   LIG d   1       3.737  -3.456  -8.467  0.00  0.00     0.040 H 
ATOM     40  H   LIG d   1       4.542  -3.098  -9.930  0.00  0.00     0.040 H 
BRANCH  38  41
ATOM     41  C   LIG d   1       2.923  -1.806  -9.412  0.00  0.00     0.169 C 
ATOM     42  O   LIG d   1       1.842  -2.288  -9.674  0.00  0.00    -0.292 OA
BRANCH  41  43
ATOM     43  C   LIG d   1       3.112  -0.347  -9.468  0.00  0.00     0.018 A 
ATOM     44  C   LIG d   1       3.675   0.246 -10.602  0.00  0.00    -0.051 A 
ATOM     45  C   LIG d   1       3.853   1.613 -10.643  0.00  0.00    -0.061 A 
ATOM     46  H   LIG d   1       3.974  -0.365 -11.441  0.00  0.00     0.062 H 
ATOM     47  C   LIG d   1       3.470   2.397  -9.570  0.00  0.00    -0.062 A 
ATOM     48  H   LIG d   1       4.292   2.072 -11.517  0.00  0.00     0.062 H 
ATOM     49  C   LIG d   1       2.906   1.819  -8.447  0.00  0.00    -0.061 A 
ATOM     50  H   LIG d   1       3.612   3.467  -9.609  0.00  0.00     0.062 H 
ATOM     51  C   LIG d   1       2.722   0.453  -8.389  0.00  0.00    -0.051 A 
ATOM     52  H   LIG d   1       2.610   2.438  -7.613  0.00  0.00     0.062 H 
ATOM     53  H   LIG d   1       2.282   0.003  -7.511  0.00  0.00     0.062 H 
ENDBRANCH  41  43
ENDBRANCH  38  41
ENDBRANCH   6  38
TORSDOF 8
ENDMDL
MODEL 4
REMARK VINA RESULT:      -6.7      2.205      7.284
REMARK  8 active torsions:
REMARK  status: ('A' for Active; 'I' for Inactive)
REMARK    1  A    between atoms: C_1  and  N_52 
REMARK    2  A    between atoms: C_2  and  C_18 
REMARK    3  A    between atoms: C_7  and  C_9 
REMARK    4  A    between atoms: C_9  and  C_10 
REMARK    5  A    between atoms: C_10  and  C_12 
REMARK    6  A    between atoms: C_18  and  C_19 
REMARK    7  A    between atoms: C_19  and  C_21 
REMARK    8  A    between atoms: C_19  and  O_27 
ROOT
ATOM      1  C   LIG d   1       7.103   0.101  -5.933  0.00  0.00    -0.018 C 
ATOM      2  H   LIG d   1       6.363   0.754  -5.471  0.00  0.00     0.085 H 
ATOM      3  C   LIG d   1       8.472   0.784  -5.908  0.00  0.00    -0.009 C 
ATOM      4  C   LIG d   1       8.400   2.091  -6.702  0.00  0.00    -0.043 C 
ATOM      5  C   LIG d   1       7.947   1.786  -8.133  0.00  0.00    -0.009 C 
ATOM      6  C   LIG d   1       6.593   1.074  -8.093  0.00  0.00    -0.014 C 
ATOM      7  H   LIG d   1       5.855   1.722  -7.621  0.00  0.00     0.086 H 
ATOM      8  H   LIG d   1       9.215   0.126  -6.358  0.00  0.00     0.032 H 
ATOM      9  H   LIG d   1       8.752   1.000  -4.877  0.00  0.00     0.032 H 
ATOM     10  H   LIG d   1       9.383   2.560  -6.723  0.00  0.00     0.027 H 
ATOM     11  H   LIG d   1       7.684   2.765  -6.231  0.00  0.00     0.027 H 
ATOM     12  H   LIG d   1       8.682   1.143  -8.617  0.00  0.00     0.032 H 
ATOM     13  H   LIG d   1       7.852   2.717  -8.692  0.00  0.00     0.032 H 
ATOM     14  N   LIG d   1       6.736  -0.188  -7.336  0.00  0.00     0.238 N 
ATOM     15  H   LIG d   1       7.480  -0.751  -7.765  0.00  0.00     0.204 HD
ENDROOT
BRANCH   1  16
ATOM     16  C   LIG d   1       7.176  -1.216  -5.157  0.00  0.00     0.021 C 
ATOM     17  H   LIG d   1       6.303  -1.825  -5.391  0.00  0.00     0.035 H 
ATOM     18  H   LIG d   1       8.081  -1.754  -5.439  0.00  0.00     0.035 H 
BRANCH  16  19
ATOM     19  C   LIG d   1       7.205  -0.922  -3.656  0.00  0.00     0.085 C 
ATOM     20  H   LIG d   1       7.893  -0.099  -3.460  0.00  0.00     0.065 H 
BRANCH  19  21
ATOM     21  C   LIG d   1       5.823  -0.543  -3.192  0.00  0.00    -0.019 A 
ATOM     22  C   LIG d   1       5.575   0.737  -2.732  0.00  0.00    -0.056 A 
ATOM     23  C   LIG d   1       4.306   1.085  -2.307  0.00  0.00    -0.061 A 
ATOM     24  H   LIG d   1       6.372   1.465  -2.706  0.00  0.00     0.062 H 
ATOM     25  C   LIG d   1       3.286   0.153  -2.340  0.00  0.00    -0.062 A 
ATOM     26  H   LIG d   1       4.113   2.086  -1.947  0.00  0.00     0.062 H 
ATOM     27  C   LIG d   1       3.534  -1.127  -2.799  0.00  0.00    -0.061 A 
ATOM     28  H   LIG d   1       2.296   0.425  -2.007  0.00  0.00     0.062 H 
ATOM     29  C   LIG d   1       4.801  -1.473  -3.231  0.00  0.00    -0.056 A 
ATOM     30  H   LIG d   1       2.737  -1.855  -2.826  0.00  0.00     0.062 H 
ATOM     31  H   LIG d   1       4.993  -2.471  -3.594  0.00  0.00     0.062 H 
ENDBRANCH  19  21
BRANCH  19  32
ATOM     32  O   LIG d   1       7.642  -2.086  -2.951  0.00  0.00    -0.387 OA
ATOM     33  H   LIG d   1       8.598  -2.226  -2.976  0.00  0.00     0.210 HD
ENDBRANCH  19  32
ENDBRANCH  16  19
ENDBRANCH   1  16
BRANCH  14  34
ATOM     34  C   LIG d   1       5.471  -0.950  -7.380  0.00  0.00    -0.043 C 
ATOM     35  H   LIG d   1       5.560  -1.817  -6.724  0.00  0.00     0.078 H 
ATOM     36  H   LIG d   1       4.661  -0.312  -7.031  0.00  0.00     0.078 H 
ATOM     37  H   LIG d   1       5.260  -1.284  -8.395  0.00  0.00     0.078 H 
ENDBRANCH  14  34
BRANCH   6  38
ATOM     38  C   LIG d   1       6.147   0.748  -9.520  0.00  0.00     0.053 C 
ATOM     39  H   LIG d   1       6.073  -0.244  -9.628  0.00  0.00     0.040 H 
ATOM     40  H   LIG d   1       6.879   1.136 -10.227  0.00  0.00     0.040 H 
BRANCH  38  41
ATOM     41  C   LIG d   1       4.806   1.383  -9.784  0.00  0.00     0.169 C 
ATOM     42  O   LIG d   1       4.653   2.573  -9.609  0.00  0.00    -0.292 OA
BRANCH  41  43
ATOM     43  C   LIG d   1       3.681   0.558 -10.254  0.00  0.00     0.018 A 
ATOM     44  C   LIG d   1       2.569   0.351  -9.430  0.00  0.00    -0.051 A 
ATOM     45  C   LIG d   1       1.522  -0.429  -9.876  0.00  0.00    -0.061 A 
ATOM     46  H   LIG d   1       2.533   0.795  -8.447  0.00  0.00     0.062 H 
ATOM     47  C   LIG d   1       1.567  -0.998 -11.136  0.00  0.00    -0.062 A 
ATOM     48  H   LIG d   1       0.666  -0.593  -9.240  0.00  0.00     0.062 H 
ATOM     49  C   LIG d   1       2.660  -0.793 -11.959  0.00  0.00    -0.061 A 
ATOM     50  H   LIG d   1       0.743  -1.607 -11.479  0.00  0.00     0.062 H 
ATOM     51  C   LIG d   1       3.715  -0.017 -11.528  0.00  0.00    -0.051 A 
ATOM     52  H   LIG d   1       2.687  -1.241 -12.941  0.00  0.00     0.062 H 
ATOM     53  H   LIG d   1       4.568   0.142 -12.171  0.00  0.00     0.062 H 
ENDBRANCH  41  43
ENDBRANCH  38  41
ENDBRANCH   6  38
TORSDOF 8
ENDMDL
MODEL 5
REMARK VINA RESULT:      -6.6      2.345      6.291
REMARK  8 active torsions:
REMARK  status: ('A' for Active; 'I' for Inactive)
REMARK    1  A    between atoms: C_1  and  N_52 
REMARK    2  A    between atoms: C_2  and  C_18 
REMARK    3  A    between atoms: C_7  and  C_9 
REMARK    4  A    between atoms: C_9  and  C_10 
REMARK    5  A    between atoms: C_10  and  C_12 
REMARK    6  A    between atoms: C_18  and  C_19 
REMARK    7  A    between atoms: C_19  and  C_21 
REMARK    8  A    between atoms: C_19  and  O_27 
ROOT
ATOM      1  C   LIG d   1       6.427  -1.079  -4.891  0.00  0.00    -0.018 C 
ATOM      2  H   LIG d   1       5.486  -0.529  -4.910  0.00  0.00     0.085 H 
ATOM      3  C   LIG d   1       7.465  -0.284  -4.094  0.00  0.00    -0.009 C 
ATOM      4  C   LIG d   1       7.694   1.070  -4.772  0.00  0.00    -0.043 C 
ATOM      5  C   LIG d   1       8.147   0.838  -6.217  0.00  0.00    -0.009 C 
ATOM      6  C   LIG d   1       7.090   0.011  -6.951  0.00  0.00    -0.014 C 
ATOM      7  H   LIG d   1       6.145   0.555  -6.961  0.00  0.00     0.086 H 
ATOM      8  H   LIG d   1       8.402  -0.838  -4.063  0.00  0.00     0.032 H 
ATOM      9  H   LIG d   1       7.101  -0.125  -3.079  0.00  0.00     0.032 H 
ATOM     10  H   LIG d   1       8.463   1.622  -4.233  0.00  0.00     0.027 H 
ATOM     11  H   LIG d   1       6.766   1.641  -4.769  0.00  0.00     0.027 H 
ATOM     12  H   LIG d   1       9.096   0.301  -6.218  0.00  0.00     0.032 H 
ATOM     13  H   LIG d   1       8.271   1.798  -6.718  0.00  0.00     0.032 H 
ATOM     14  N   LIG d   1       6.934  -1.289  -6.264  0.00  0.00     0.238 N 
ATOM     15  H   LIG d   1       7.849  -1.750  -6.213  0.00  0.00     0.204 HD
ENDROOT
BRANCH   1  16
ATOM     16  C   LIG d   1       6.210  -2.440  -4.227  0.00  0.00     0.021 C 
ATOM     17  H   LIG d   1       6.330  -3.229  -4.969  0.00  0.00     0.035 H 
ATOM     18  H   LIG d   1       6.940  -2.576  -3.430  0.00  0.00     0.035 H 
BRANCH  16  19
ATOM     19  C   LIG d   1       4.798  -2.502  -3.641  0.00  0.00     0.085 C 
ATOM     20  H   LIG d   1       4.794  -3.159  -2.771  0.00  0.00     0.065 H 
BRANCH  19  21
ATOM     21  C   LIG d   1       4.366  -1.119  -3.227  0.00  0.00    -0.019 A 
ATOM     22  C   LIG d   1       3.539  -0.378  -4.050  0.00  0.00    -0.056 A 
ATOM     23  C   LIG d   1       3.142   0.891  -3.670  0.00  0.00    -0.061 A 
ATOM     24  H   LIG d   1       3.204  -0.790  -4.990  0.00  0.00     0.062 H 
ATOM     25  C   LIG d   1       3.571   1.419  -2.467  0.00  0.00    -0.062 A 
ATOM     26  H   LIG d   1       2.496   1.470  -4.315  0.00  0.00     0.062 H 
ATOM     27  C   LIG d   1       4.398   0.678  -1.644  0.00  0.00    -0.061 A 
ATOM     28  H   LIG d   1       3.262   2.409  -2.171  0.00  0.00     0.062 H 
ATOM     29  C   LIG d   1       4.791  -0.594  -2.021  0.00  0.00    -0.056 A 
ATOM     30  H   LIG d   1       4.733   1.090  -0.704  0.00  0.00     0.062 H 
ATOM     31  H   LIG d   1       5.432  -1.173  -1.375  0.00  0.00     0.062 H 
ENDBRANCH  19  21
BRANCH  19  32
ATOM     32  O   LIG d   1       3.894  -3.008  -4.626  0.00  0.00    -0.387 OA
ATOM     33  H   LIG d   1       3.604  -2.349  -5.270  0.00  0.00     0.210 HD
ENDBRANCH  19  32
ENDBRANCH  16  19
ENDBRANCH   1  16
BRANCH  14  34
ATOM     34  C   LIG d   1       6.002  -2.151  -7.018  0.00  0.00    -0.043 C 
ATOM     35  H   LIG d   1       6.462  -3.130  -7.156  0.00  0.00     0.078 H 
ATOM     36  H   LIG d   1       5.079  -2.259  -6.450  0.00  0.00     0.078 H 
ATOM     37  H   LIG d   1       5.779  -1.715  -7.992  0.00  0.00     0.078 H 
ENDBRANCH  14  34
BRANCH   6  38
ATOM     38  C   LIG d   1       7.548  -0.240  -8.389  0.00  0.00     0.053 C 
ATOM     39  H   LIG d   1       7.178  -1.113  -8.709  0.00  0.00     0.040 H 
ATOM     40  H   LIG d   1       8.637  -0.274  -8.422  0.00  0.00     0.040 H 
BRANCH  38  41
ATOM     41  C   LIG d   1       7.052   0.872  -9.276  0.00  0.00     0.169 C 
ATOM     42  O   LIG d   1       7.841   1.550  -9.900  0.00  0.00    -0.292 OA
BRANCH  41  43
ATOM     43  C   LIG d   1       5.608   1.137  -9.385  0.00  0.00     0.018 A 
ATOM     44  C   LIG d   1       5.110   2.424  -9.156  0.00  0.00    -0.051 A 
ATOM     45  C   LIG d   1       3.755   2.662  -9.254  0.00  0.00    -0.061 A 
ATOM     46  H   LIG d   1       5.783   3.227  -8.897  0.00  0.00     0.062 H 
ATOM     47  C   LIG d   1       2.890   1.634  -9.586  0.00  0.00    -0.062 A 
ATOM     48  H   LIG d   1       3.368   3.653  -9.073  0.00  0.00     0.062 H 
ATOM     49  C   LIG d   1       3.376   0.360  -9.820  0.00  0.00    -0.061 A 
ATOM     50  H   LIG d   1       1.830   1.827  -9.661  0.00  0.00     0.062 H 
ATOM     51  C   LIG d   1       4.727   0.105  -9.725  0.00  0.00    -0.051 A 
ATOM     52  H   LIG d   1       2.694  -0.438 -10.079  0.00  0.00     0.062 H 
ATOM     53  H   LIG d   1       5.105  -0.891  -9.908  0.00  0.00     0.062 H 
ENDBRANCH  41  43
ENDBRANCH  38  41
ENDBRANCH   6  38
TORSDOF 8
ENDMDL
MODEL 6
REMARK VINA RESULT:      -6.5      1.654      2.528
REMARK  8 active torsions:
REMARK  status: ('A' for Active; 'I' for Inactive)
REMARK    1  A    between atoms: C_1  and  N_52 
REMARK    2  A    between atoms: C_2  and  C_18 
REMARK    3  A    between atoms: C_7  and  C_9 
REMARK    4  A    between atoms: C_9  and  C_10 
REMARK    5  A    between atoms: C_10  and  C_12 
REMARK    6  A    between atoms: C_18  and  C_19 
REMARK    7  A    between atoms: C_19  and  C_21 
REMARK    8  A    between atoms: C_19  and  O_27 
ROOT
ATOM      1  C   LIG d   1       5.564  -0.573  -8.321  0.00  0.00    -0.018 C 
ATOM      2  H   LIG d   1       4.702  -0.184  -7.780  0.00  0.00     0.085 H 
ATOM      3  C   LIG d   1       5.263  -1.994  -8.804  0.00  0.00    -0.009 C 
ATOM      4  C   LIG d   1       4.988  -2.892  -7.595  0.00  0.00    -0.043 C 
ATOM      5  C   LIG d   1       6.200  -2.859  -6.659  0.00  0.00    -0.009 C 
ATOM      6  C   LIG d   1       6.473  -1.414  -6.238  0.00  0.00    -0.014 C 
ATOM      7  H   LIG d   1       5.606  -1.019  -5.707  0.00  0.00     0.086 H 
ATOM      8  H   LIG d   1       6.120  -2.380  -9.357  0.00  0.00     0.032 H 
ATOM      9  H   LIG d   1       4.387  -1.980  -9.453  0.00  0.00     0.032 H 
ATOM     10  H   LIG d   1       4.815  -3.914  -7.932  0.00  0.00     0.027 H 
ATOM     11  H   LIG d   1       4.108  -2.529  -7.064  0.00  0.00     0.027 H 
ATOM     12  H   LIG d   1       7.071  -3.259  -7.178  0.00  0.00     0.032 H 
ATOM     13  H   LIG d   1       5.993  -3.463  -5.775  0.00  0.00     0.032 H 
ATOM     14  N   LIG d   1       6.754  -0.607  -7.444  0.00  0.00     0.238 N 
ATOM     15  H   LIG d   1       7.533  -1.036  -7.958  0.00  0.00     0.204 HD
ENDROOT
BRANCH   1  16
ATOM     16  C   LIG d   1       5.859   0.323  -9.525  0.00  0.00     0.021 C 
ATOM     17  H   LIG d   1       6.735   0.936  -9.316  0.00  0.00     0.035 H 
ATOM     18  H   LIG d   1       6.049  -0.297 -10.401  0.00  0.00     0.035 H 
BRANCH  16  19
ATOM     19  C   LIG d   1       4.655   1.228  -9.794  0.00  0.00     0.085 C 
ATOM     20  H   LIG d   1       4.928   1.989 -10.525  0.00  0.00     0.065 H 
BRANCH  19  21
ATOM     21  C   LIG d   1       3.515   0.401 -10.331  0.00  0.00    -0.019 A 
ATOM     22  C   LIG d   1       3.613  -0.181 -11.581  0.00  0.00    -0.056 A 
ATOM     23  C   LIG d   1       2.567  -0.940 -12.074  0.00  0.00    -0.061 A 
ATOM     24  H   LIG d   1       4.506  -0.043 -12.173  0.00  0.00     0.062 H 
ATOM     25  C   LIG d   1       1.424  -1.116 -11.317  0.00  0.00    -0.062 A 
ATOM     26  H   LIG d   1       2.645  -1.394 -13.052  0.00  0.00     0.062 H 
ATOM     27  C   LIG d   1       1.327  -0.534 -10.067  0.00  0.00    -0.061 A 
ATOM     28  H   LIG d   1       0.609  -1.708 -11.702  0.00  0.00     0.062 H 
ATOM     29  C   LIG d   1       2.375   0.220  -9.572  0.00  0.00    -0.056 A 
ATOM     30  H   LIG d   1       0.434  -0.672  -9.476  0.00  0.00     0.062 H 
ATOM     31  H   LIG d   1       2.299   0.670  -8.594  0.00  0.00     0.062 H 
ENDBRANCH  19  21
BRANCH  19  32
ATOM     32  O   LIG d   1       4.252   1.859  -8.576  0.00  0.00    -0.387 OA
ATOM     33  H   LIG d   1       4.873   1.737  -7.845  0.00  0.00     0.210 HD
ENDBRANCH  19  32
ENDBRANCH  16  19
ENDBRANCH   1  16
BRANCH  14  34
ATOM     34  C   LIG d   1       7.134   0.767  -7.057  0.00  0.00    -0.043 C 
ATOM     35  H   LIG d   1       6.789   0.953  -6.039  0.00  0.00     0.078 H 
ATOM     36  H   LIG d   1       8.218   0.860  -7.096  0.00  0.00     0.078 H 
ATOM     37  H   LIG d   1       6.682   1.494  -7.731  0.00  0.00     0.078 H 
ENDBRANCH  14  34
BRANCH   6  38
ATOM     38  C   LIG d   1       7.696  -1.374  -5.319  0.00  0.00     0.053 C 
ATOM     39  H   LIG d   1       8.087  -0.453  -5.324  0.00  0.00     0.040 H 
ATOM     40  H   LIG d   1       8.440  -2.087  -5.673  0.00  0.00     0.040 H 
BRANCH  38  41
ATOM     41  C   LIG d   1       7.281  -1.735  -3.915  0.00  0.00     0.169 C 
ATOM     42  O   LIG d   1       7.804  -2.671  -3.349  0.00  0.00    -0.292 OA
BRANCH  41  43
ATOM     43  C   LIG d   1       6.239  -0.951  -3.232  0.00  0.00     0.018 A 
ATOM     44  C   LIG d   1       6.319   0.446  -3.198  0.00  0.00    -0.051 A 
ATOM     45  C   LIG d   1       5.341   1.172  -2.550  0.00  0.00    -0.061 A 
ATOM     46  H   LIG d   1       7.146   0.953  -3.672  0.00  0.00     0.062 H 
ATOM     47  C   LIG d   1       4.281   0.524  -1.942  0.00  0.00    -0.062 A 
ATOM     48  H   LIG d   1       5.404   2.249  -2.519  0.00  0.00     0.062 H 
ATOM     49  C   LIG d   1       4.191  -0.856  -1.977  0.00  0.00    -0.061 A 
ATOM     50  H   LIG d   1       3.519   1.099  -1.437  0.00  0.00     0.062 H 
ATOM     51  C   LIG d   1       5.161  -1.597  -2.620  0.00  0.00    -0.051 A 
ATOM     52  H   LIG d   1       3.360  -1.354  -1.500  0.00  0.00     0.062 H 
ATOM     53  H   LIG d   1       5.090  -2.675  -2.646  0.00  0.00     0.062 H 
ENDBRANCH  41  43
ENDBRANCH  38  41
ENDBRANCH   6  38
TORSDOF 8
ENDMDL
MODEL 7
REMARK VINA RESULT:      -6.4      3.054      8.541
REMARK  8 active torsions:
REMARK  status: ('A' for Active; 'I' for Inactive)
REMARK    1  A    between atoms: C_1  and  N_52 
REMARK    2  A    between atoms: C_2  and  C_18 
REMARK    3  A    between atoms: C_7  and  C_9 
REMARK    4  A    between atoms: C_9  and  C_10 
REMARK    5  A    between atoms: C_10  and  C_12 
REMARK    6  A    between atoms: C_18  and  C_19 
REMARK    7  A    between atoms: C_19  and  C_21 
REMARK    8  A    between atoms: C_19  and  O_27 
ROOT
ATOM      1  C   LIG d   1       3.268   0.300  -7.845  0.00  0.00    -0.018 C 
ATOM      2  H   LIG d   1       2.183   0.225  -7.783  0.00  0.00     0.085 H 
ATOM      3  C   LIG d   1       3.657   1.718  -8.274  0.00  0.00    -0.009 C 
ATOM      4  C   LIG d   1       3.059   2.010  -9.654  0.00  0.00    -0.043 C 
ATOM      5  C   LIG d   1       3.561   0.961 -10.650  0.00  0.00    -0.009 C 
ATOM      6  C   LIG d   1       3.175  -0.434 -10.152  0.00  0.00    -0.014 C 
ATOM      7  H   LIG d   1       2.090  -0.507 -10.079  0.00  0.00     0.086 H 
ATOM      8  H   LIG d   1       4.742   1.798  -8.323  0.00  0.00     0.032 H 
ATOM      9  H   LIG d   1       3.269   2.436  -7.551  0.00  0.00     0.032 H 
ATOM     10  H   LIG d   1       3.369   3.002  -9.982  0.00  0.00     0.027 H 
ATOM     11  H   LIG d   1       1.972   1.967  -9.597  0.00  0.00     0.027 H 
ATOM     12  H   LIG d   1       4.645   1.030 -10.736  0.00  0.00     0.032 H 
ATOM     13  H   LIG d   1       3.105   1.137 -11.625  0.00  0.00     0.032 H 
ATOM     14  N   LIG d   1       3.801  -0.663  -8.832  0.00  0.00     0.238 N 
ATOM     15  H   LIG d   1       4.815  -0.526  -8.916  0.00  0.00     0.204 HD
ENDROOT
BRANCH   1  16
ATOM     16  C   LIG d   1       3.879  -0.002  -6.475  0.00  0.00     0.021 C 
ATOM     17  H   LIG d   1       4.186  -1.048  -6.437  0.00  0.00     0.035 H 
ATOM     18  H   LIG d   1       4.748   0.637  -6.316  0.00  0.00     0.035 H 
BRANCH  16  19
ATOM     19  C   LIG d   1       2.842   0.266  -5.384  0.00  0.00     0.085 C 
ATOM     20  H   LIG d   1       1.942  -0.315  -5.586  0.00  0.00     0.065 H 
BRANCH  19  21
ATOM     21  C   LIG d   1       3.407  -0.134  -4.045  0.00  0.00    -0.019 A 
ATOM     22  C   LIG d   1       3.476  -1.470  -3.695  0.00  0.00    -0.056 A 
ATOM     23  C   LIG d   1       3.995  -1.837  -2.467  0.00  0.00    -0.061 A 
ATOM     24  H   LIG d   1       3.125  -2.226  -4.381  0.00  0.00     0.062 H 
ATOM     25  C   LIG d   1       4.444  -0.868  -1.589  0.00  0.00    -0.062 A 
ATOM     26  H   LIG d   1       4.048  -2.881  -2.194  0.00  0.00     0.062 H 
ATOM     27  C   LIG d   1       4.375   0.467  -1.939  0.00  0.00    -0.061 A 
ATOM     28  H   LIG d   1       4.848  -1.155  -0.630  0.00  0.00     0.062 H 
ATOM     29  C   LIG d   1       3.861   0.834  -3.169  0.00  0.00    -0.056 A 
ATOM     30  H   LIG d   1       4.726   1.224  -1.253  0.00  0.00     0.062 H 
ATOM     31  H   LIG d   1       3.812   1.877  -3.444  0.00  0.00     0.062 H 
ENDBRANCH  19  21
BRANCH  19  32
ATOM     32  O   LIG d   1       2.517   1.658  -5.367  0.00  0.00    -0.387 OA
ATOM     33  H   LIG d   1       3.250   2.236  -5.614  0.00  0.00     0.210 HD
ENDBRANCH  19  32
ENDBRANCH  16  19
ENDBRANCH   1  16
BRANCH  14  34
ATOM     34  C   LIG d   1       3.538  -2.044  -8.381  0.00  0.00    -0.043 C 
ATOM     35  H   LIG d   1       3.787  -2.122  -7.322  0.00  0.00     0.078 H 
ATOM     36  H   LIG d   1       2.482  -2.269  -8.524  0.00  0.00     0.078 H 
ATOM     37  H   LIG d   1       4.140  -2.754  -8.947  0.00  0.00     0.078 H 
ENDBRANCH  14  34
BRANCH   6  38
ATOM     38  C   LIG d   1       3.692  -1.487 -11.135  0.00  0.00     0.053 C 
ATOM     39  H   LIG d   1       3.820  -2.356 -10.656  0.00  0.00     0.040 H 
ATOM     40  H   LIG d   1       4.644  -1.158 -11.551  0.00  0.00     0.040 H 
BRANCH  38  41
ATOM     41  C   LIG d   1       2.692  -1.668 -12.248  0.00  0.00     0.169 C 
ATOM     42  O   LIG d   1       1.557  -2.010 -11.993  0.00  0.00    -0.292 OA
BRANCH  41  43
ATOM     43  C   LIG d   1       3.094  -1.431 -13.644  0.00  0.00     0.018 A 
ATOM     44  C   LIG d   1       4.218  -0.649 -13.929  0.00  0.00    -0.051 A 
ATOM     45  C   LIG d   1       4.583  -0.427 -15.240  0.00  0.00    -0.061 A 
ATOM     46  H   LIG d   1       4.794  -0.215 -13.125  0.00  0.00     0.062 H 
ATOM     47  C   LIG d   1       3.847  -0.981 -16.271  0.00  0.00    -0.062 A 
ATOM     48  H   LIG d   1       5.447   0.181 -15.462  0.00  0.00     0.062 H 
ATOM     49  C   LIG d   1       2.738  -1.762 -15.998  0.00  0.00    -0.061 A 
ATOM     50  H   LIG d   1       4.139  -0.804 -17.296  0.00  0.00     0.062 H 
ATOM     51  C   LIG d   1       2.358  -1.993 -14.692  0.00  0.00    -0.051 A 
ATOM     52  H   LIG d   1       2.168  -2.192 -16.808  0.00  0.00     0.062 H 
ATOM     53  H   LIG d   1       1.492  -2.603 -14.480  0.00  0.00     0.062 H 
ENDBRANCH  41  43
ENDBRANCH  38  41
ENDBRANCH   6  38
TORSDOF 8
ENDMDL
MODEL 8
REMARK VINA RESULT:      -6.4      1.863      2.245
REMARK  8 active torsions:
REMARK  status: ('A' for Active; 'I' for Inactive)
REMARK    1  A    between atoms: C_1  and  N_52 
REMARK    2  A    between atoms: C_2  and  C_18 
REMARK    3  A    between atoms: C_7  and  C_9 
REMARK    4  A    between atoms: C_9  and  C_10 
REMARK    5  A    between atoms: C_10  and  C_12 
REMARK    6  A    between atoms: C_18  and  C_19 
REMARK    7  A    between atoms: C_19  and  C_21 
REMARK    8  A    between atoms: C_19  and  O_27 
ROOT
ATOM      1  C   LIG d   1       5.947  -2.318  -8.406  0.00  0.00    -0.018 C 
ATOM      2  H   LIG d   1       4.863  -2.307  -8.513  0.00  0.00     0.085 H 
ATOM      3  C   LIG d   1       6.480  -3.707  -8.771  0.00  0.00    -0.009 C 
ATOM      4  C   LIG d   1       5.876  -4.746  -7.822  0.00  0.00    -0.043 C 
ATOM      5  C   LIG d   1       6.224  -4.369  -6.378  0.00  0.00    -0.009 C 
ATOM      6  C   LIG d   1       5.699  -2.962  -6.083  0.00  0.00    -0.014 C 
ATOM      7  H   LIG d   1       4.615  -2.946  -6.201  0.00  0.00     0.086 H 
ATOM      8  H   LIG d   1       7.565  -3.716  -8.678  0.00  0.00     0.032 H 
ATOM      9  H   LIG d   1       6.199  -3.946  -9.797  0.00  0.00     0.032 H 
ATOM     10  H   LIG d   1       6.285  -5.729  -8.050  0.00  0.00     0.027 H 
ATOM     11  H   LIG d   1       4.793  -4.764  -7.942  0.00  0.00     0.027 H 
ATOM     12  H   LIG d   1       7.306  -4.389  -6.248  0.00  0.00     0.032 H 
ATOM     13  H   LIG d   1       5.761  -5.081  -5.695  0.00  0.00     0.032 H 
ATOM     14  N   LIG d   1       6.336  -2.006  -7.014  0.00  0.00     0.238 N 
ATOM     15  H   LIG d   1       7.356  -2.087  -6.928  0.00  0.00     0.204 HD
ENDROOT
BRANCH   1  16
ATOM     16  C   LIG d   1       6.563  -1.275  -9.340  0.00  0.00     0.021 C 
ATOM     17  H   LIG d   1       6.833  -0.388  -8.767  0.00  0.00     0.035 H 
ATOM     18  H   LIG d   1       7.455  -1.690  -9.810  0.00  0.00     0.035 H 
BRANCH  16  19
ATOM     19  C   LIG d   1       5.548  -0.895 -10.420  0.00  0.00     0.085 C 
ATOM     20  H   LIG d   1       4.947  -1.767 -10.677  0.00  0.00     0.065 H 
BRANCH  19  21
ATOM     21  C   LIG d   1       4.650   0.199  -9.902  0.00  0.00    -0.019 A 
ATOM     22  C   LIG d   1       3.329  -0.075  -9.603  0.00  0.00    -0.056 A 
ATOM     23  C   LIG d   1       2.506   0.929  -9.127  0.00  0.00    -0.061 A 
ATOM     24  H   LIG d   1       2.940  -1.073  -9.740  0.00  0.00     0.062 H 
ATOM     25  C   LIG d   1       3.003   2.206  -8.952  0.00  0.00    -0.062 A 
ATOM     26  H   LIG d   1       1.473   0.713  -8.894  0.00  0.00     0.062 H 
ATOM     27  C   LIG d   1       4.324   2.480  -9.252  0.00  0.00    -0.061 A 
ATOM     28  H   LIG d   1       2.360   2.989  -8.582  0.00  0.00     0.062 H 
ATOM     29  C   LIG d   1       5.150   1.475  -9.722  0.00  0.00    -0.056 A 
ATOM     30  H   LIG d   1       4.713   3.478  -9.115  0.00  0.00     0.062 H 
ATOM     31  H   LIG d   1       6.183   1.689  -9.951  0.00  0.00     0.062 H 
ENDBRANCH  19  21
BRANCH  19  32
ATOM     32  O   LIG d   1       6.240  -0.434 -11.583  0.00  0.00    -0.387 OA
ATOM     33  H   LIG d   1       5.939  -0.839 -12.407  0.00  0.00     0.210 HD
ENDBRANCH  19  32
ENDBRANCH  16  19
ENDBRANCH   1  16
BRANCH  14  34
ATOM     34  C   LIG d   1       5.933  -0.626  -6.676  0.00  0.00    -0.043 C 
ATOM     35  H   LIG d   1       6.558  -0.268  -5.858  0.00  0.00     0.078 H 
ATOM     36  H   LIG d   1       6.077   0.009  -7.549  0.00  0.00     0.078 H 
ATOM     37  H   LIG d   1       4.887  -0.596  -6.374  0.00  0.00     0.078 H 
ENDBRANCH  14  34
BRANCH   6  38
ATOM     38  C   LIG d   1       6.062  -2.574  -4.649  0.00  0.00     0.053 C 
ATOM     39  H   LIG d   1       6.555  -1.703  -4.654  0.00  0.00     0.040 H 
ATOM     40  H   LIG d   1       6.694  -3.347  -4.212  0.00  0.00     0.040 H 
BRANCH  38  41
ATOM     41  C   LIG d   1       4.803  -2.432  -3.833  0.00  0.00     0.169 C 
ATOM     42  O   LIG d   1       4.128  -3.409  -3.584  0.00  0.00    -0.292 OA
BRANCH  41  43
ATOM     43  C   LIG d   1       4.392  -1.108  -3.338  0.00  0.00     0.018 A 
ATOM     44  C   LIG d   1       4.913  -0.613  -2.138  0.00  0.00    -0.051 A 
ATOM     45  C   LIG d   1       4.518   0.626  -1.679  0.00  0.00    -0.061 A 
ATOM     46  H   LIG d   1       5.619  -1.201  -1.570  0.00  0.00     0.062 H 
ATOM     47  C   LIG d   1       3.615   1.381  -2.405  0.00  0.00    -0.062 A 
ATOM     48  H   LIG d   1       4.916   1.007  -0.751  0.00  0.00     0.062 H 
ATOM     49  C   LIG d   1       3.099   0.902  -3.596  0.00  0.00    -0.061 A 
ATOM     50  H   LIG d   1       3.310   2.351  -2.040  0.00  0.00     0.062 H 
ATOM     51  C   LIG d   1       3.483  -0.335  -4.068  0.00  0.00    -0.051 A 
ATOM     52  H   LIG d   1       2.395   1.498  -4.157  0.00  0.00     0.062 H 
ATOM     53  H   LIG d   1       3.080  -0.709  -4.999  0.00  0.00     0.062 H 
ENDBRANCH  41  43
ENDBRANCH  38  41
ENDBRANCH   6  38
TORSDOF 8
ENDMDL
MODEL 9
REMARK VINA RESULT:      -6.3      2.178      3.490
REMARK  8 active torsions:
REMARK  status: ('A' for Active; 'I' for Inactive)
REMARK    1  A    between atoms: C_1  and  N_52 
REMARK    2  A    between atoms: C_2  and  C_18 
REMARK    3  A    between atoms: C_7  and  C_9 
REMARK    4  A    between atoms: C_9  and  C_10 
REMARK    5  A    between atoms: C_10  and  C_12 
REMARK    6  A    between atoms: C_18  and  C_19 
REMARK    7  A    between atoms: C_19  and  C_21 
REMARK    8  A    between atoms: C_19  and  O_27 
ROOT
ATOM      1  C   LIG d   1       3.223  -1.346  -9.082  0.00  0.00    -0.018 C 
ATOM      2  H   LIG d   1       4.125  -0.921  -9.521  0.00  0.00     0.085 H 
ATOM      3  C   LIG d   1       2.314  -0.215  -8.590  0.00  0.00    -0.009 C 
ATOM      4  C   LIG d   1       3.051   0.597  -7.522  0.00  0.00    -0.043 C 
ATOM      5  C   LIG d   1       3.463  -0.334  -6.378  0.00  0.00    -0.009 C 
ATOM      6  C   LIG d   1       4.338  -1.460  -6.933  0.00  0.00    -0.014 C 
ATOM      7  H   LIG d   1       5.235  -1.036  -7.383  0.00  0.00     0.086 H 
ATOM      8  H   LIG d   1       1.406  -0.639  -8.163  0.00  0.00     0.032 H 
ATOM      9  H   LIG d   1       2.056   0.434  -9.427  0.00  0.00     0.032 H 
ATOM     10  H   LIG d   1       2.393   1.376  -7.139  0.00  0.00     0.027 H 
ATOM     11  H   LIG d   1       3.940   1.052  -7.958  0.00  0.00     0.027 H 
ATOM     12  H   LIG d   1       2.572  -0.759  -5.916  0.00  0.00     0.032 H 
ATOM     13  H   LIG d   1       4.026   0.230  -5.634  0.00  0.00     0.032 H 
ATOM     14  N   LIG d   1       3.563  -2.219  -7.938  0.00  0.00     0.238 N 
ATOM     15  H   LIG d   1       2.694  -2.553  -7.506  0.00  0.00     0.204 HD
ENDROOT
BRANCH   1  16
ATOM     16  C   LIG d   1       2.483  -2.172 -10.136  0.00  0.00     0.021 C 
ATOM     17  H   LIG d   1       3.190  -2.821 -10.651  0.00  0.00     0.035 H 
ATOM     18  H   LIG d   1       1.718  -2.778  -9.650  0.00  0.00     0.035 H 
BRANCH  16  19
ATOM     19  C   LIG d   1       1.822  -1.233 -11.147  0.00  0.00     0.085 C 
ATOM     20  H   LIG d   1       1.838  -0.214 -10.762  0.00  0.00     0.065 H 
BRANCH  19  21
ATOM     21  C   LIG d   1       2.577  -1.289 -12.451  0.00  0.00    -0.019 A 
ATOM     22  C   LIG d   1       3.749  -0.572 -12.602  0.00  0.00    -0.056 A 
ATOM     23  C   LIG d   1       4.442  -0.624 -13.798  0.00  0.00    -0.061 A 
ATOM     24  H   LIG d   1       4.124   0.028 -11.786  0.00  0.00     0.062 H 
ATOM     25  C   LIG d   1       3.961  -1.392 -14.842  0.00  0.00    -0.062 A 
ATOM     26  H   LIG d   1       5.358  -0.063 -13.915  0.00  0.00     0.062 H 
ATOM     27  C   LIG d   1       2.789  -2.108 -14.691  0.00  0.00    -0.061 A 
ATOM     28  H   LIG d   1       4.502  -1.431 -15.775  0.00  0.00     0.062 H 
ATOM     29  C   LIG d   1       2.099  -2.061 -13.493  0.00  0.00    -0.056 A 
ATOM     30  H   LIG d   1       2.414  -2.708 -15.507  0.00  0.00     0.062 H 
ATOM     31  H   LIG d   1       1.187  -2.625 -13.374  0.00  0.00     0.062 H 
ENDBRANCH  19  21
BRANCH  19  32
ATOM     32  O   LIG d   1       0.469  -1.641 -11.363  0.00  0.00    -0.387 OA
ATOM     33  H   LIG d   1       0.327  -2.109 -12.196  0.00  0.00     0.210 HD
ENDBRANCH  19  32
ENDBRANCH  16  19
ENDBRANCH   1  16
BRANCH  14  34
ATOM     34  C   LIG d   1       4.345  -3.381  -8.407  0.00  0.00    -0.043 C 
ATOM     35  H   LIG d   1       3.658  -4.135  -8.792  0.00  0.00     0.078 H 
ATOM     36  H   LIG d   1       5.015  -3.060  -9.204  0.00  0.00     0.078 H 
ATOM     37  H   LIG d   1       4.928  -3.805  -7.591  0.00  0.00     0.078 H 
ENDBRANCH  14  34
BRANCH   6  38
ATOM     38  C   LIG d   1       4.734  -2.405  -5.797  0.00  0.00     0.053 C 
ATOM     39  H   LIG d   1       5.088  -3.258  -6.181  0.00  0.00     0.040 H 
ATOM     40  H   LIG d   1       3.862  -2.617  -5.180  0.00  0.00     0.040 H 
BRANCH  38  41
ATOM     41  C   LIG d   1       5.801  -1.754  -4.953  0.00  0.00     0.169 C 
ATOM     42  O   LIG d   1       6.972  -1.930  -5.214  0.00  0.00    -0.292 OA
BRANCH  41  43
ATOM     43  C   LIG d   1       5.421  -0.906  -3.812  0.00  0.00     0.018 A 
ATOM     44  C   LIG d   1       4.628  -1.426  -2.783  0.00  0.00    -0.051 A 
ATOM     45  C   LIG d   1       4.272  -0.622  -1.720  0.00  0.00    -0.061 A 
ATOM     46  H   LIG d   1       4.292  -2.451  -2.823  0.00  0.00     0.062 H 
ATOM     47  C   LIG d   1       4.701   0.691  -1.667  0.00  0.00    -0.062 A 
ATOM     48  H   LIG d   1       3.656  -1.020  -0.928  0.00  0.00     0.062 H 
ATOM     49  C   LIG d   1       5.491   1.211  -2.677  0.00  0.00    -0.061 A 
ATOM     50  H   LIG d   1       4.418   1.315  -0.832  0.00  0.00     0.062 H 
ATOM     51  C   LIG d   1       5.855   0.421  -3.747  0.00  0.00    -0.051 A 
ATOM     52  H   LIG d   1       5.822   2.238  -2.628  0.00  0.00     0.062 H 
ATOM     53  H   LIG d   1       6.471   0.828  -4.536  0.00  0.00     0.062 H 
ENDBRANCH  41  43
ENDBRANCH  38  41
ENDBRANCH   6  38
TORSDOF 8
ENDMDL
MODEL 10
REMARK VINA RESULT:      -6.2      1.880      7.368
REMARK  8 active torsions:
REMARK  status: ('A' for Active; 'I' for Inactive)
REMARK    1  A    between atoms: C_1  and  N_52 
REMARK    2  A    between atoms: C_2  and  C_18 
REMARK    3  A    between atoms: C_7  and  C_9 
REMARK    4  A    between atoms: C_9  and  C_10 
REMARK    5  A    between atoms: C_10  and  C_12 
REMARK    6  A    between atoms: C_18  and  C_19 
REMARK    7  A    between atoms: C_19  and  C_21 
REMARK    8  A    between atoms: C_19  and  O_27 
ROOT
ATOM      1  C   LIG d   1       4.733  -2.716  -6.736  0.00  0.00    -0.018 C 
ATOM      2  H   LIG d   1       5.673  -2.289  -7.084  0.00  0.00     0.085 H 
ATOM      3  C   LIG d   1       4.586  -4.139  -7.283  0.00  0.00    -0.009 C 
ATOM      4  C   LIG d   1       4.573  -4.093  -8.814  0.00  0.00    -0.043 C 
ATOM      5  C   LIG d   1       3.429  -3.187  -9.279  0.00  0.00    -0.009 C 
ATOM      6  C   LIG d   1       3.609  -1.794  -8.674  0.00  0.00    -0.014 C 
ATOM      7  H   LIG d   1       4.555  -1.369  -9.013  0.00  0.00     0.086 H 
ATOM      8  H   LIG d   1       3.653  -4.572  -6.924  0.00  0.00     0.032 H 
ATOM      9  H   LIG d   1       5.425  -4.747  -6.945  0.00  0.00     0.032 H 
ATOM     10  H   LIG d   1       4.426  -5.098  -9.207  0.00  0.00     0.027 H 
ATOM     11  H   LIG d   1       5.521  -3.695  -9.174  0.00  0.00     0.027 H 
ATOM     12  H   LIG d   1       2.478  -3.607  -8.951  0.00  0.00     0.032 H 
ATOM     13  H   LIG d   1       3.440  -3.116 -10.367  0.00  0.00     0.032 H 
ATOM     14  N   LIG d   1       3.588  -1.903  -7.200  0.00  0.00     0.238 N 
ATOM     15  H   LIG d   1       2.716  -2.363  -6.913  0.00  0.00     0.204 HD
ENDROOT
BRANCH   1  16
ATOM     16  C   LIG d   1       4.727  -2.756  -5.206  0.00  0.00     0.021 C 
ATOM     17  H   LIG d   1       3.822  -2.276  -4.834  0.00  0.00     0.035 H 
ATOM     18  H   LIG d   1       4.753  -3.793  -4.870  0.00  0.00     0.035 H 
BRANCH  16  19
ATOM     19  C   LIG d   1       5.954  -2.016  -4.672  0.00  0.00     0.085 C 
ATOM     20  H   LIG d   1       6.452  -1.498  -5.492  0.00  0.00     0.065 H 
BRANCH  19  21
ATOM     21  C   LIG d   1       5.523  -1.013  -3.633  0.00  0.00    -0.019 A 
ATOM     22  C   LIG d   1       4.707  -1.407  -2.589  0.00  0.00    -0.056 A 
ATOM     23  C   LIG d   1       4.312  -0.488  -1.635  0.00  0.00    -0.061 A 
ATOM     24  H   LIG d   1       4.378  -2.433  -2.519  0.00  0.00     0.062 H 
ATOM     25  C   LIG d   1       4.732   0.826  -1.725  0.00  0.00    -0.062 A 
ATOM     26  H   LIG d   1       3.673  -0.797  -0.820  0.00  0.00     0.062 H 
ATOM     27  C   LIG d   1       5.548   1.220  -2.769  0.00  0.00    -0.061 A 
ATOM     28  H   LIG d   1       4.423   1.543  -0.981  0.00  0.00     0.062 H 
ATOM     29  C   LIG d   1       5.948   0.299  -3.720  0.00  0.00    -0.056 A 
ATOM     30  H   LIG d   1       5.877   2.246  -2.839  0.00  0.00     0.062 H 
ATOM     31  H   LIG d   1       6.590   0.607  -4.532  0.00  0.00     0.062 H 
ENDBRANCH  19  21
BRANCH  19  32
ATOM     32  O   LIG d   1       6.858  -2.954  -4.083  0.00  0.00    -0.387 OA
ATOM     33  H   LIG d   1       6.696  -3.871  -4.341  0.00  0.00     0.210 HD
ENDBRANCH  19  32
ENDBRANCH  16  19
ENDBRANCH   1  16
BRANCH  14  34
ATOM     34  C   LIG d   1       3.647  -0.558  -6.592  0.00  0.00    -0.043 C 
ATOM     35  H   LIG d   1       3.626   0.188  -7.386  0.00  0.00     0.078 H 
ATOM     36  H   LIG d   1       2.781  -0.424  -5.944  0.00  0.00     0.078 H 
ATOM     37  H   LIG d   1       4.559  -0.441  -6.008  0.00  0.00     0.078 H 
ENDBRANCH  14  34
BRANCH   6  38
ATOM     38  C   LIG d   1       2.456  -0.892  -9.120  0.00  0.00     0.053 C 
ATOM     39  H   LIG d   1       2.139  -0.347  -8.343  0.00  0.00     0.040 H 
ATOM     40  H   LIG d   1       1.637  -1.506  -9.491  0.00  0.00     0.040 H 
BRANCH  38  41
ATOM     41  C   LIG d   1       2.933   0.027 -10.216  0.00  0.00     0.169 C 
ATOM     42  O   LIG d   1       3.179   1.188  -9.970  0.00  0.00    -0.292 OA
BRANCH  41  43
ATOM     43  C   LIG d   1       3.099  -0.487 -11.586  0.00  0.00     0.018 A 
ATOM     44  C   LIG d   1       4.238  -0.155 -12.328  0.00  0.00    -0.051 A 
ATOM     45  C   LIG d   1       4.383  -0.635 -13.612  0.00  0.00    -0.061 A 
ATOM     46  H   LIG d   1       4.998   0.481 -11.898  0.00  0.00     0.062 H 
ATOM     47  C   LIG d   1       3.410  -1.449 -14.164  0.00  0.00    -0.062 A 
ATOM     48  H   LIG d   1       5.259  -0.376 -14.188  0.00  0.00     0.062 H 
ATOM     49  C   LIG d   1       2.284  -1.788 -13.435  0.00  0.00    -0.061 A 
ATOM     50  H   LIG d   1       3.530  -1.822 -15.171  0.00  0.00     0.062 H 
ATOM     51  C   LIG d   1       2.124  -1.315 -12.150  0.00  0.00    -0.051 A 
ATOM     52  H   LIG d   1       1.530  -2.424 -13.873  0.00  0.00     0.062 H 
ATOM     53  H   LIG d   1       1.244  -1.580 -11.581  0.00  0.00     0.062 H 
ENDBRANCH  41  43
ENDBRANCH  38  41
ENDBRANCH   6  38
TORSDOF 8
ENDMDL
