MODEL 1
REMARK VINA RESULT:      -4.0      0.000      0.000
REMARK  2 active torsions:
REMARK  status: ('A' for Active; 'I' for Inactive)
REMARK    1  A    between atoms: C_3  and  N_8 
REMARK    2  A    between atoms: C_4  and  N_7 
ROOT
ATOM      1  C   LIG d   1       4.239   1.032  -2.142  0.00  0.00     0.117 C 
ATOM      2  N   LIG d   1       4.924   1.070  -1.237  0.00  0.00    -0.190 NA
ATOM      3  C   LIG d   1       3.376   0.984  -3.284  0.00  0.00     0.134 C 
ATOM      4  C   LIG d   1       2.912  -0.216  -3.738  0.00  0.00     0.134 C 
ATOM      5  C   LIG d   1       3.289  -1.428  -3.074  0.00  0.00     0.117 C 
ATOM      6  N   LIG d   1       3.587  -2.389  -2.547  0.00  0.00    -0.190 NA
ENDROOT
BRANCH   3   7
ATOM      7  N   LIG d   1       3.005   2.163  -3.927  0.00  0.00    -0.348 N 
ATOM      8  H   LIG d   1       3.321   2.345  -4.825  0.00  0.00     0.143 HD
ATOM      9  H   LIG d   1       2.428   2.800  -3.476  0.00  0.00     0.143 HD
ENDBRANCH   3   7
BRANCH   4  10
ATOM     10  N   LIG d   1       2.073  -0.264  -4.849  0.00  0.00    -0.348 N 
ATOM     11  H   LIG d   1       1.153   0.037  -4.775  0.00  0.00     0.143 HD
ATOM     12  H   LIG d   1       2.407  -0.597  -5.697  0.00  0.00     0.143 HD
ENDBRANCH   4  10
TORSDOF 2
ENDMDL
MODEL 2
REMARK VINA RESULT:      -3.7      1.459      3.578
REMARK  2 active torsions:
REMARK  status: ('A' for Active; 'I' for Inactive)
REMARK    1  A    between atoms: C_3  and  N_8 
REMARK    2  A    between atoms: C_4  and  N_7 
ROOT
ATOM      1  C   LIG d   1       3.413  -0.177  -5.177  0.00  0.00     0.117 C 
ATOM      2  N   LIG d   1       3.150   0.642  -5.921  0.00  0.00    -0.190 NA
ATOM      3  C   LIG d   1       3.744  -1.207  -4.240  0.00  0.00     0.134 C 
ATOM      4  C   LIG d   1       3.863  -0.911  -2.913  0.00  0.00     0.134 C 
ATOM      5  C   LIG d   1       3.657   0.432  -2.458  0.00  0.00     0.117 C 
ATOM      6  N   LIG d   1       3.493   1.496  -2.097  0.00  0.00    -0.190 NA
ENDROOT
BRANCH   3   7
ATOM      7  N   LIG d   1       3.939  -2.514  -4.682  0.00  0.00    -0.348 N 
ATOM      8  H   LIG d   1       4.823  -2.806  -4.955  0.00  0.00     0.143 HD
ATOM      9  H   LIG d   1       3.192  -3.131  -4.714  0.00  0.00     0.143 HD
ENDBRANCH   3   7
BRANCH   4  10
ATOM     10  N   LIG d   1       4.185  -1.913  -2.001  0.00  0.00    -0.348 N 
ATOM     11  H   LIG d   1       3.564  -2.141  -1.292  0.00  0.00     0.143 HD
ATOM     12  H   LIG d   1       5.031  -2.383  -2.074  0.00  0.00     0.143 HD
ENDBRANCH   4  10
TORSDOF 2
ENDMDL
MODEL 3
REMARK VINA RESULT:      -3.6      1.943      3.066
REMARK  2 active torsions:
REMARK  status: ('A' for Active; 'I' for Inactive)
REMARK    1  A    between atoms: C_3  and  N_8 
REMARK    2  A    between atoms: C_4  and  N_7 
ROOT
ATOM      1  C   LIG d   1       5.863   0.555  -3.337  0.00  0.00     0.117 C 
ATOM      2  N   LIG d   1       6.250   1.612  -3.188  0.00  0.00    -0.190 NA
ATOM      3  C   LIG d   1       5.373  -0.778  -3.525  0.00  0.00     0.134 C 
ATOM      4  C   LIG d   1       4.146  -0.981  -4.084  0.00  0.00     0.134 C 
ATOM      5  C   LIG d   1       3.346   0.138  -4.483  0.00  0.00     0.117 C 
ATOM      6  N   LIG d   1       2.711   1.026  -4.801  0.00  0.00    -0.190 NA
ENDROOT
BRANCH   3   7
ATOM      7  N   LIG d   1       6.153  -1.867  -3.142  0.00  0.00    -0.348 N 
ATOM      8  H   LIG d   1       5.798  -2.523  -2.522  0.00  0.00     0.143 HD
ATOM      9  H   LIG d   1       7.050  -1.969  -3.496  0.00  0.00     0.143 HD
ENDBRANCH   3   7
BRANCH   4  10
ATOM     10  N   LIG d   1       3.669  -2.277  -4.267  0.00  0.00    -0.348 N 
ATOM     11  H   LIG d   1       4.280  -2.988  -4.520  0.00  0.00     0.143 HD
ATOM     12  H   LIG d   1       2.726  -2.471  -4.141  0.00  0.00     0.143 HD
ENDBRANCH   4  10
TORSDOF 2
ENDMDL
MODEL 4
REMARK VINA RESULT:      -3.6      1.928      2.433
REMARK  2 active torsions:
REMARK  status: ('A' for Active; 'I' for Inactive)
REMARK    1  A    between atoms: C_3  and  N_8 
REMARK    2  A    between atoms: C_4  and  N_7 
ROOT
ATOM      1  C   LIG d   1       4.272   0.164  -2.272  0.00  0.00     0.117 C 
ATOM      2  N   LIG d   1       4.718   0.927  -1.558  0.00  0.00    -0.190 NA
ATOM      3  C   LIG d   1       3.711  -0.798  -3.173  0.00  0.00     0.134 C 
ATOM      4  C   LIG d   1       4.507  -1.756  -3.730  0.00  0.00     0.134 C 
ATOM      5  C   LIG d   1       5.904  -1.799  -3.416  0.00  0.00     0.117 C 
ATOM      6  N   LIG d   1       7.012  -1.834  -3.166  0.00  0.00    -0.190 NA
ENDROOT
BRANCH   3   7
ATOM      7  N   LIG d   1       2.352  -0.760  -3.474  0.00  0.00    -0.348 N 
ATOM      8  H   LIG d   1       1.762  -0.171  -2.977  0.00  0.00     0.143 HD
ATOM      9  H   LIG d   1       1.996  -1.321  -4.181  0.00  0.00     0.143 HD
ENDBRANCH   3   7
BRANCH   4  10
ATOM     10  N   LIG d   1       3.962  -2.692  -4.606  0.00  0.00    -0.348 N 
ATOM     11  H   LIG d   1       3.919  -2.499  -5.556  0.00  0.00     0.143 HD
ATOM     12  H   LIG d   1       3.626  -3.537  -4.268  0.00  0.00     0.143 HD
ENDBRANCH   4  10
TORSDOF 2
ENDMDL
MODEL 5
REMARK VINA RESULT:      -3.6      1.920      3.237
REMARK  2 active torsions:
REMARK  status: ('A' for Active; 'I' for Inactive)
REMARK    1  A    between atoms: C_3  and  N_8 
REMARK    2  A    between atoms: C_4  and  N_7 
ROOT
ATOM      1  C   LIG d   1       5.895  -1.814  -3.404  0.00  0.00     0.117 C 
ATOM      2  N   LIG d   1       7.001  -1.852  -3.148  0.00  0.00    -0.190 NA
ATOM      3  C   LIG d   1       4.500  -1.767  -3.726  0.00  0.00     0.134 C 
ATOM      4  C   LIG d   1       3.707  -0.800  -3.182  0.00  0.00     0.134 C 
ATOM      5  C   LIG d   1       4.268   0.168  -2.288  0.00  0.00     0.117 C 
ATOM      6  N   LIG d   1       4.713   0.937  -1.579  0.00  0.00    -0.190 NA
ENDROOT
BRANCH   3   7
ATOM      7  N   LIG d   1       3.955  -2.705  -4.600  0.00  0.00    -0.348 N 
ATOM      8  H   LIG d   1       4.291  -2.774  -5.507  0.00  0.00     0.143 HD
ATOM      9  H   LIG d   1       3.241  -3.290  -4.301  0.00  0.00     0.143 HD
ENDBRANCH   3   7
BRANCH   4  10
ATOM     10  N   LIG d   1       2.350  -0.753  -3.495  0.00  0.00    -0.348 N 
ATOM     11  H   LIG d   1       1.788  -1.527  -3.330  0.00  0.00     0.143 HD
ATOM     12  H   LIG d   1       1.966   0.052  -3.876  0.00  0.00     0.143 HD
ENDBRANCH   4  10
TORSDOF 2
ENDMDL
MODEL 6
REMARK VINA RESULT:      -3.4      9.077     10.004
REMARK  2 active torsions:
REMARK  status: ('A' for Active; 'I' for Inactive)
REMARK    1  A    between atoms: C_3  and  N_8 
REMARK    2  A    between atoms: C_4  and  N_7 
ROOT
ATOM      1  C   LIG d   1       9.417   7.454  -1.124  0.00  0.00     0.117 C 
ATOM      2  N   LIG d   1       8.890   8.417  -0.832  0.00  0.00    -0.190 NA
ATOM      3  C   LIG d   1      10.081   6.239  -1.492  0.00  0.00     0.134 C 
ATOM      4  C   LIG d   1      10.893   5.608  -0.595  0.00  0.00     0.134 C 
ATOM      5  C   LIG d   1      11.082   6.159   0.713  0.00  0.00     0.117 C 
ATOM      6  N   LIG d   1      11.231   6.596   1.751  0.00  0.00    -0.190 NA
ENDROOT
BRANCH   3   7
ATOM      7  N   LIG d   1       9.893   5.700  -2.762  0.00  0.00    -0.348 N 
ATOM      8  H   LIG d   1      10.640   5.639  -3.378  0.00  0.00     0.143 HD
ATOM      9  H   LIG d   1       9.016   5.383  -3.029  0.00  0.00     0.143 HD
ENDBRANCH   3   7
BRANCH   4  10
ATOM     10  N   LIG d   1      11.539   4.426  -0.952  0.00  0.00    -0.348 N 
ATOM     11  H   LIG d   1      11.342   4.003  -1.803  0.00  0.00     0.143 HD
ATOM     12  H   LIG d   1      12.187   4.026  -0.351  0.00  0.00     0.143 HD
ENDBRANCH   4  10
TORSDOF 2
ENDMDL
MODEL 7
REMARK VINA RESULT:      -3.4      9.073      9.987
REMARK  2 active torsions:
REMARK  status: ('A' for Active; 'I' for Inactive)
REMARK    1  A    between atoms: C_3  and  N_8 
REMARK    2  A    between atoms: C_4  and  N_7 
ROOT
ATOM      1  C   LIG d   1      11.075   6.137   0.694  0.00  0.00     0.117 C 
ATOM      2  N   LIG d   1      11.233   6.561   1.736  0.00  0.00    -0.190 NA
ATOM      3  C   LIG d   1      10.876   5.602  -0.620  0.00  0.00     0.134 C 
ATOM      4  C   LIG d   1      10.064   6.250  -1.504  0.00  0.00     0.134 C 
ATOM      5  C   LIG d   1       9.409   7.465  -1.118  0.00  0.00     0.117 C 
ATOM      6  N   LIG d   1       8.891   8.429  -0.814  0.00  0.00    -0.190 NA
ENDROOT
BRANCH   3   7
ATOM      7  N   LIG d   1      11.516   4.424  -0.996  0.00  0.00    -0.348 N 
ATOM      8  H   LIG d   1      12.474   4.333  -0.874  0.00  0.00     0.143 HD
ATOM      9  H   LIG d   1      11.004   3.694  -1.379  0.00  0.00     0.143 HD
ENDBRANCH   3   7
BRANCH   4  10
ATOM     10  N   LIG d   1       9.869   5.730  -2.782  0.00  0.00    -0.348 N 
ATOM     11  H   LIG d   1       9.932   6.312  -3.556  0.00  0.00     0.143 HD
ATOM     12  H   LIG d   1       9.671   4.788  -2.898  0.00  0.00     0.143 HD
ENDBRANCH   4  10
TORSDOF 2
ENDMDL
MODEL 8
REMARK VINA RESULT:      -3.4      1.990      3.097
REMARK  2 active torsions:
REMARK  status: ('A' for Active; 'I' for Inactive)
REMARK    1  A    between atoms: C_3  and  N_8 
REMARK    2  A    between atoms: C_4  and  N_7 
ROOT
ATOM      1  C   LIG d   1       3.689   0.684  -3.463  0.00  0.00     0.117 C 
ATOM      2  N   LIG d   1       3.708   1.814  -3.352  0.00  0.00    -0.190 NA
ATOM      3  C   LIG d   1       3.666  -0.741  -3.606  0.00  0.00     0.134 C 
ATOM      4  C   LIG d   1       4.115  -1.319  -4.757  0.00  0.00     0.134 C 
ATOM      5  C   LIG d   1       4.610  -0.502  -5.824  0.00  0.00     0.117 C 
ATOM      6  N   LIG d   1       5.003   0.147  -6.670  0.00  0.00    -0.190 NA
ENDROOT
BRANCH   3   7
ATOM      7  N   LIG d   1       3.190  -1.537  -2.566  0.00  0.00    -0.348 N 
ATOM      8  H   LIG d   1       2.247  -1.527  -2.340  0.00  0.00     0.143 HD
ATOM      9  H   LIG d   1       3.803  -2.102  -2.069  0.00  0.00     0.143 HD
ENDBRANCH   3   7
BRANCH   4  10
ATOM     10  N   LIG d   1       4.093  -2.705  -4.896  0.00  0.00    -0.348 N 
ATOM     11  H   LIG d   1       3.701  -3.256  -4.199  0.00  0.00     0.143 HD
ATOM     12  H   LIG d   1       4.468  -3.121  -5.688  0.00  0.00     0.143 HD
ENDBRANCH   4  10
TORSDOF 2
ENDMDL
MODEL 9
REMARK VINA RESULT:      -3.4     12.129     13.179
REMARK  2 active torsions:
REMARK  status: ('A' for Active; 'I' for Inactive)
REMARK    1  A    between atoms: C_3  and  N_8 
REMARK    2  A    between atoms: C_4  and  N_7 
ROOT
ATOM      1  C   LIG d   1      11.469  -8.293   3.023  0.00  0.00     0.117 C 
ATOM      2  N   LIG d   1      11.770  -8.102   4.102  0.00  0.00    -0.190 NA
ATOM      3  C   LIG d   1      11.090  -8.535   1.663  0.00  0.00     0.134 C 
ATOM      4  C   LIG d   1      10.768  -9.797   1.259  0.00  0.00     0.134 C 
ATOM      5  C   LIG d   1      10.810 -10.881   2.194  0.00  0.00     0.117 C 
ATOM      6  N   LIG d   1      10.843 -11.742   2.935  0.00  0.00    -0.190 NA
ENDROOT
BRANCH   3   7
ATOM      7  N   LIG d   1      11.043  -7.479   0.755  0.00  0.00    -0.348 N 
ATOM      8  H   LIG d   1      11.859  -7.017   0.507  0.00  0.00     0.143 HD
ATOM      9  H   LIG d   1      10.195  -7.207   0.371  0.00  0.00     0.143 HD
ENDBRANCH   3   7
BRANCH   4  10
ATOM     10  N   LIG d   1      10.399 -10.033  -0.064  0.00  0.00    -0.348 N 
ATOM     11  H   LIG d   1       9.938  -9.344  -0.569  0.00  0.00     0.143 HD
ATOM     12  H   LIG d   1      10.604 -10.884  -0.481  0.00  0.00     0.143 HD
ENDBRANCH   4  10
TORSDOF 2
ENDMDL
MODEL 10
REMARK VINA RESULT:      -3.4     10.312     12.112
REMARK  2 active torsions:
REMARK  status: ('A' for Active; 'I' for Inactive)
REMARK    1  A    between atoms: C_3  and  N_8 
REMARK    2  A    between atoms: C_4  and  N_7 
ROOT
ATOM      1  C   LIG d   1       9.269   8.333  -0.988  0.00  0.00     0.117 C 
ATOM      2  N   LIG d   1       9.350   7.206  -1.107  0.00  0.00    -0.190 NA
ATOM      3  C   LIG d   1       9.168   9.753  -0.837  0.00  0.00     0.134 C 
ATOM      4  C   LIG d   1       9.973  10.404   0.052  0.00  0.00     0.134 C 
ATOM      5  C   LIG d   1      10.920   9.667   0.834  0.00  0.00     0.117 C 
ATOM      6  N   LIG d   1      11.671   9.083   1.454  0.00  0.00    -0.190 NA
ENDROOT
BRANCH   3   7
ATOM      7  N   LIG d   1       8.251  10.471  -1.602  0.00  0.00    -0.348 N 
ATOM      8  H   LIG d   1       7.773  11.218  -1.210  0.00  0.00     0.143 HD
ATOM      9  H   LIG d   1       8.093  10.225  -2.527  0.00  0.00     0.143 HD
ENDBRANCH   3   7
BRANCH   4  10
ATOM     10  N   LIG d   1       9.875  11.786   0.199  0.00  0.00    -0.348 N 
ATOM     11  H   LIG d   1      10.660  12.306   0.433  0.00  0.00     0.143 HD
ATOM     12  H   LIG d   1       9.022  12.229   0.068  0.00  0.00     0.143 HD
ENDBRANCH   4  10
TORSDOF 2
ENDMDL
