MODEL 1
REMARK VINA RESULT:      -6.3      0.000      0.000
REMARK  11 active torsions:
REMARK  status: ('A' for Active; 'I' for Inactive)
REMARK    1  A    between atoms: C_1  and  C_2 
REMARK    2  A    between atoms: C_2  and  C_3 
REMARK    3  A    between atoms: C_3  and  C_4 
REMARK    4  A    between atoms: C_4  and  O_5 
REMARK    5  A    between atoms: O_5  and  C_6 
REMARK    6  A    between atoms: C_6  and  C_8 
REMARK    7  A    between atoms: C_8  and  O_9 
REMARK    8  A    between atoms: O_9  and  C_10 
REMARK    9  A    between atoms: C_15  and  C_16 
REMARK   10  A    between atoms: C_16  and  C_17 
REMARK   11  A    between atoms: C_18  and  C_23 
ROOT
ATOM      1  C   LIG d   1       3.557  -0.268  -7.982  0.00  0.00     0.128 A 
ATOM      2  C   LIG d   1       3.591  -1.646  -8.123  0.00  0.00     0.023 A 
ATOM      3  C   LIG d   1       2.862  -2.253  -9.134  0.00  0.00     0.143 A 
ATOM      4  C   LIG d   1       2.094  -1.457 -10.006  0.00  0.00     0.021 A 
ATOM      5  C   LIG d   1       2.066  -0.068  -9.844  0.00  0.00    -0.044 A 
ATOM      6  C   LIG d   1       2.794   0.514  -8.847  0.00  0.00    -0.005 A 
ATOM      7  C   LIG d   1       1.327  -2.108 -11.070  0.00  0.00    -0.033 A 
ATOM      8  C   LIG d   1       1.391  -3.462 -11.172  0.00  0.00     0.026 A 
ATOM      9  C   LIG d   1       2.182  -4.196 -10.264  0.00  0.00     0.338 A 
ATOM     10  O   LIG d   1       2.230  -5.409 -10.367  0.00  0.00    -0.245 OA
ATOM     11  O   LIG d   1       2.883  -3.594  -9.291  0.00  0.00    -0.422 OA
ATOM     12  H   LIG d   1       4.185  -2.245  -7.449  0.00  0.00     0.069 H 
ATOM     13  H   LIG d   1       1.473   0.543 -10.508  0.00  0.00     0.063 H 
ATOM     14  H   LIG d   1       0.839  -3.973 -11.947  0.00  0.00     0.069 H 
ENDROOT
BRANCH   1  15
ATOM     15  O   LIG d   1       4.272   0.325  -6.992  0.00  0.00    -0.480 OA
BRANCH  15  16
ATOM     16  C   LIG d   1       4.188  -0.261  -5.691  0.00  0.00     0.186 C 
ATOM     17  H   LIG d   1       4.109  -1.344  -5.784  0.00  0.00     0.082 H 
ATOM     18  H   LIG d   1       5.082  -0.009  -5.121  0.00  0.00     0.082 H 
BRANCH  16  19
ATOM     19  C   LIG d   1       2.971   0.271  -4.979  0.00  0.00     0.345 C 
ATOM     20  O   LIG d   1       2.676   1.439  -5.076  0.00  0.00    -0.247 OA
BRANCH  19  21
ATOM     21  O   LIG d   1       2.215  -0.552  -4.235  0.00  0.00    -0.462 OA
BRANCH  21  22
ATOM     22  C   LIG d   1       2.502  -0.606  -2.813  0.00  0.00     0.093 C 
ATOM     23  H   LIG d   1       2.906   0.352  -2.486  0.00  0.00     0.070 H 
ATOM     24  H   LIG d   1       1.584  -0.818  -2.265  0.00  0.00     0.070 H 
BRANCH  22  25
ATOM     25  C   LIG d   1       3.525  -1.711  -2.540  0.00  0.00    -0.019 C 
ATOM     26  H   LIG d   1       3.124  -2.403  -1.800  0.00  0.00     0.030 H 
ATOM     27  H   LIG d   1       3.735  -2.248  -3.465  0.00  0.00     0.030 H 
BRANCH  25  28
ATOM     28  C   LIG d   1       4.818  -1.088  -2.008  0.00  0.00    -0.053 C 
ATOM     29  H   LIG d   1       5.125  -1.610  -1.100  0.00  0.00     0.026 H 
ATOM     30  H   LIG d   1       5.601  -1.177  -2.760  0.00  0.00     0.026 H 
BRANCH  28  31
ATOM     31  C   LIG d   1       4.580   0.390  -1.691  0.00  0.00    -0.065 C 
ATOM     32  H   LIG d   1       5.447   0.793  -1.169  0.00  0.00     0.023 H 
ATOM     33  H   LIG d   1       4.426   0.940  -2.620  0.00  0.00     0.023 H 
ATOM     34  H   LIG d   1       3.697   0.489  -1.060  0.00  0.00     0.023 H 
ENDBRANCH  28  31
ENDBRANCH  25  28
ENDBRANCH  22  25
ENDBRANCH  21  22
ENDBRANCH  19  21
ENDBRANCH  16  19
ENDBRANCH  15  16
ENDBRANCH   1  15
BRANCH   6  35
ATOM     35  C   LIG d   1       2.769   2.011  -8.677  0.00  0.00    -0.027 C 
ATOM     36  H   LIG d   1       2.918   2.260  -7.626  0.00  0.00     0.031 H 
ATOM     37  H   LIG d   1       1.805   2.398  -9.009  0.00  0.00     0.031 H 
BRANCH  35  38
ATOM     38  C   LIG d   1       3.886   2.638  -9.514  0.00  0.00    -0.061 C 
ATOM     39  H   LIG d   1       4.298   1.888 -10.189  0.00  0.00     0.023 H 
ATOM     40  H   LIG d   1       4.673   3.004  -8.854  0.00  0.00     0.023 H 
ATOM     41  H   LIG d   1       3.483   3.468 -10.094  0.00  0.00     0.023 H 
ENDBRANCH  35  38
ENDBRANCH   6  35
BRANCH   7  42
ATOM     42  C   LIG d   1       0.492  -1.299 -12.028  0.00  0.00    -0.039 C 
ATOM     43  H   LIG d   1       1.102  -0.508 -12.464  0.00  0.00     0.028 H 
ATOM     44  H   LIG d   1       0.118  -1.947 -12.822  0.00  0.00     0.028 H 
ATOM     45  H   LIG d   1      -0.349  -0.857 -11.494  0.00  0.00     0.028 H 
ENDBRANCH   7  42
TORSDOF 11
ENDMDL
MODEL 2
REMARK VINA RESULT:      -6.0      3.130      5.731
REMARK  11 active torsions:
REMARK  status: ('A' for Active; 'I' for Inactive)
REMARK    1  A    between atoms: C_1  and  C_2 
REMARK    2  A    between atoms: C_2  and  C_3 
REMARK    3  A    between atoms: C_3  and  C_4 
REMARK    4  A    between atoms: C_4  and  O_5 
REMARK    5  A    between atoms: O_5  and  C_6 
REMARK    6  A    between atoms: C_6  and  C_8 
REMARK    7  A    between atoms: C_8  and  O_9 
REMARK    8  A    between atoms: O_9  and  C_10 
REMARK    9  A    between atoms: C_15  and  C_16 
REMARK   10  A    between atoms: C_16  and  C_17 
REMARK   11  A    between atoms: C_18  and  C_23 
ROOT
ATOM      1  C   LIG d   1       4.976  -1.388  -3.082  0.00  0.00     0.128 A 
ATOM      2  C   LIG d   1       4.298  -2.534  -3.464  0.00  0.00     0.023 A 
ATOM      3  C   LIG d   1       4.905  -3.439  -4.321  0.00  0.00     0.143 A 
ATOM      4  C   LIG d   1       6.206  -3.180  -4.792  0.00  0.00     0.021 A 
ATOM      5  C   LIG d   1       6.873  -2.014  -4.400  0.00  0.00    -0.044 A 
ATOM      6  C   LIG d   1       6.263  -1.136  -3.552  0.00  0.00    -0.005 A 
ATOM      7  C   LIG d   1       6.838  -4.143  -5.697  0.00  0.00    -0.033 A 
ATOM      8  C   LIG d   1       6.136  -5.253  -6.045  0.00  0.00     0.026 A 
ATOM      9  C   LIG d   1       4.836  -5.449  -5.534  0.00  0.00     0.338 A 
ATOM     10  O   LIG d   1       4.219  -6.449  -5.855  0.00  0.00    -0.245 OA
ATOM     11  O   LIG d   1       4.263  -4.563  -4.705  0.00  0.00    -0.422 OA
ATOM     12  H   LIG d   1       3.301  -2.722  -3.095  0.00  0.00     0.069 H 
ATOM     13  H   LIG d   1       7.869  -1.811  -4.765  0.00  0.00     0.063 H 
ATOM     14  H   LIG d   1       6.574  -5.984  -6.709  0.00  0.00     0.069 H 
ENDROOT
BRANCH   1  15
ATOM     15  O   LIG d   1       4.381  -0.503  -2.242  0.00  0.00    -0.480 OA
BRANCH  15  16
ATOM     16  C   LIG d   1       3.136   0.056  -2.665  0.00  0.00     0.186 C 
ATOM     17  H   LIG d   1       2.583  -0.683  -3.244  0.00  0.00     0.082 H 
ATOM     18  H   LIG d   1       2.551   0.345  -1.792  0.00  0.00     0.082 H 
BRANCH  16  19
ATOM     19  C   LIG d   1       3.395   1.270  -3.520  0.00  0.00     0.345 C 
ATOM     20  O   LIG d   1       4.153   2.129  -3.136  0.00  0.00    -0.247 OA
BRANCH  19  21
ATOM     21  O   LIG d   1       2.783   1.398  -4.708  0.00  0.00    -0.462 OA
BRANCH  21  22
ATOM     22  C   LIG d   1       2.426   0.173  -5.400  0.00  0.00     0.093 C 
ATOM     23  H   LIG d   1       2.809  -0.684  -4.846  0.00  0.00     0.070 H 
ATOM     24  H   LIG d   1       1.340   0.101  -5.474  0.00  0.00     0.070 H 
BRANCH  22  25
ATOM     25  C   LIG d   1       3.033   0.185  -6.805  0.00  0.00    -0.019 C 
ATOM     26  H   LIG d   1       2.352  -0.307  -7.499  0.00  0.00     0.030 H 
ATOM     27  H   LIG d   1       3.194   1.215  -7.122  0.00  0.00     0.030 H 
BRANCH  25  28
ATOM     28  C   LIG d   1       4.370  -0.560  -6.789  0.00  0.00    -0.053 C 
ATOM     29  H   LIG d   1       5.144   0.075  -7.222  0.00  0.00     0.026 H 
ATOM     30  H   LIG d   1       4.635  -0.808  -5.762  0.00  0.00     0.026 H 
BRANCH  28  31
ATOM     31  C   LIG d   1       4.247  -1.846  -7.610  0.00  0.00    -0.065 C 
ATOM     32  H   LIG d   1       4.902  -1.786  -8.478  0.00  0.00     0.023 H 
ATOM     33  H   LIG d   1       4.535  -2.698  -6.994  0.00  0.00     0.023 H 
ATOM     34  H   LIG d   1       3.215  -1.969  -7.940  0.00  0.00     0.023 H 
ENDBRANCH  28  31
ENDBRANCH  25  28
ENDBRANCH  22  25
ENDBRANCH  21  22
ENDBRANCH  19  21
ENDBRANCH  16  19
ENDBRANCH  15  16
ENDBRANCH   1  15
BRANCH   6  35
ATOM     35  C   LIG d   1       6.984   0.116  -3.125  0.00  0.00    -0.027 C 
ATOM     36  H   LIG d   1       7.892  -0.154  -2.586  0.00  0.00     0.031 H 
ATOM     37  H   LIG d   1       6.336   0.704  -2.474  0.00  0.00     0.031 H 
BRANCH  35  38
ATOM     38  C   LIG d   1       7.350   0.942  -4.360  0.00  0.00    -0.061 C 
ATOM     39  H   LIG d   1       6.539   0.886  -5.087  0.00  0.00     0.023 H 
ATOM     40  H   LIG d   1       8.264   0.547  -4.804  0.00  0.00     0.023 H 
ATOM     41  H   LIG d   1       7.506   1.981  -4.069  0.00  0.00     0.023 H 
ENDBRANCH  35  38
ENDBRANCH   6  35
BRANCH   7  42
ATOM     42  C   LIG d   1       8.229  -3.909  -6.226  0.00  0.00    -0.039 C 
ATOM     43  H   LIG d   1       8.959  -4.198  -5.470  0.00  0.00     0.028 H 
ATOM     44  H   LIG d   1       8.382  -4.508  -7.124  0.00  0.00     0.028 H 
ATOM     45  H   LIG d   1       8.355  -2.854  -6.468  0.00  0.00     0.028 H 
ENDBRANCH   7  42
TORSDOF 11
ENDMDL
MODEL 3
REMARK VINA RESULT:      -6.0      1.823      2.138
REMARK  11 active torsions:
REMARK  status: ('A' for Active; 'I' for Inactive)
REMARK    1  A    between atoms: C_1  and  C_2 
REMARK    2  A    between atoms: C_2  and  C_3 
REMARK    3  A    between atoms: C_3  and  C_4 
REMARK    4  A    between atoms: C_4  and  O_5 
REMARK    5  A    between atoms: O_5  and  C_6 
REMARK    6  A    between atoms: C_6  and  C_8 
REMARK    7  A    between atoms: C_8  and  O_9 
REMARK    8  A    between atoms: O_9  and  C_10 
REMARK    9  A    between atoms: C_15  and  C_16 
REMARK   10  A    between atoms: C_16  and  C_17 
REMARK   11  A    between atoms: C_18  and  C_23 
ROOT
ATOM      1  C   LIG d   1       3.129   0.686  -8.583  0.00  0.00     0.128 A 
ATOM      2  C   LIG d   1       2.222  -0.314  -8.897  0.00  0.00     0.023 A 
ATOM      3  C   LIG d   1       2.208  -0.854 -10.174  0.00  0.00     0.143 A 
ATOM      4  C   LIG d   1       3.117  -0.376 -11.137  0.00  0.00     0.021 A 
ATOM      5  C   LIG d   1       4.021   0.639 -10.804  0.00  0.00    -0.044 A 
ATOM      6  C   LIG d   1       4.026   1.155  -9.541  0.00  0.00    -0.005 A 
ATOM      7  C   LIG d   1       3.093  -0.953 -12.483  0.00  0.00    -0.033 A 
ATOM      8  C   LIG d   1       2.188  -1.931 -12.746  0.00  0.00     0.026 A 
ATOM      9  C   LIG d   1       1.307  -2.362 -11.732  0.00  0.00     0.338 A 
ATOM     10  O   LIG d   1       0.500  -3.240 -11.982  0.00  0.00    -0.245 OA
ATOM     11  O   LIG d   1       1.334  -1.829 -10.500  0.00  0.00    -0.422 OA
ATOM     12  H   LIG d   1       1.531  -0.672  -8.149  0.00  0.00     0.069 H 
ATOM     13  H   LIG d   1       4.716   1.009 -11.543  0.00  0.00     0.063 H 
ATOM     14  H   LIG d   1       2.145  -2.379 -13.728  0.00  0.00     0.069 H 
ENDROOT
BRANCH   1  15
ATOM     15  O   LIG d   1       3.143   1.213  -7.332  0.00  0.00    -0.480 OA
BRANCH  15  16
ATOM     16  C   LIG d   1       2.769   0.347  -6.259  0.00  0.00     0.186 C 
ATOM     17  H   LIG d   1       2.222   0.915  -5.506  0.00  0.00     0.082 H 
ATOM     18  H   LIG d   1       2.135  -0.453  -6.641  0.00  0.00     0.082 H 
BRANCH  16  19
ATOM     19  C   LIG d   1       4.007  -0.248  -5.638  0.00  0.00     0.345 C 
ATOM     20  O   LIG d   1       5.093   0.214  -5.895  0.00  0.00    -0.247 OA
BRANCH  19  21
ATOM     21  O   LIG d   1       3.903  -1.291  -4.801  0.00  0.00    -0.462 OA
BRANCH  21  22
ATOM     22  C   LIG d   1       3.112  -1.096  -3.599  0.00  0.00     0.093 C 
ATOM     23  H   LIG d   1       2.950  -0.030  -3.438  0.00  0.00     0.070 H 
ATOM     24  H   LIG d   1       2.149  -1.595  -3.712  0.00  0.00     0.070 H 
BRANCH  22  25
ATOM     25  C   LIG d   1       3.853  -1.686  -2.398  0.00  0.00    -0.019 C 
ATOM     26  H   LIG d   1       3.140  -2.174  -1.734  0.00  0.00     0.030 H 
ATOM     27  H   LIG d   1       4.585  -2.415  -2.745  0.00  0.00     0.030 H 
BRANCH  25  28
ATOM     28  C   LIG d   1       4.570  -0.566  -1.640  0.00  0.00    -0.053 C 
ATOM     29  H   LIG d   1       4.422  -0.700  -0.568  0.00  0.00     0.026 H 
ATOM     30  H   LIG d   1       5.636  -0.598  -1.867  0.00  0.00     0.026 H 
BRANCH  28  31
ATOM     31  C   LIG d   1       3.998   0.787  -2.068  0.00  0.00    -0.065 C 
ATOM     32  H   LIG d   1       2.929   0.688  -2.250  0.00  0.00     0.023 H 
ATOM     33  H   LIG d   1       4.167   1.519  -1.278  0.00  0.00     0.023 H 
ATOM     34  H   LIG d   1       4.493   1.118  -2.981  0.00  0.00     0.023 H 
ENDBRANCH  28  31
ENDBRANCH  25  28
ENDBRANCH  22  25
ENDBRANCH  21  22
ENDBRANCH  19  21
ENDBRANCH  16  19
ENDBRANCH  15  16
ENDBRANCH   1  15
BRANCH   6  35
ATOM     35  C   LIG d   1       5.004   2.243  -9.180  0.00  0.00    -0.027 C 
ATOM     36  H   LIG d   1       4.683   2.729  -8.259  0.00  0.00     0.031 H 
ATOM     37  H   LIG d   1       5.043   2.978  -9.984  0.00  0.00     0.031 H 
BRANCH  35  38
ATOM     38  C   LIG d   1       6.393   1.634  -8.978  0.00  0.00    -0.061 C 
ATOM     39  H   LIG d   1       6.585   0.899  -9.760  0.00  0.00     0.023 H 
ATOM     40  H   LIG d   1       6.439   1.147  -8.004  0.00  0.00     0.023 H 
ATOM     41  H   LIG d   1       7.146   2.421  -9.027  0.00  0.00     0.023 H 
ENDBRANCH  35  38
ENDBRANCH   6  35
BRANCH   7  42
ATOM     42  C   LIG d   1       4.047  -0.476 -13.546  0.00  0.00    -0.039 C 
ATOM     43  H   LIG d   1       3.788  -0.935 -14.500  0.00  0.00     0.028 H 
ATOM     44  H   LIG d   1       3.980   0.609 -13.636  0.00  0.00     0.028 H 
ATOM     45  H   LIG d   1       5.065  -0.755 -13.274  0.00  0.00     0.028 H 
ENDBRANCH   7  42
TORSDOF 11
ENDMDL
MODEL 4
REMARK VINA RESULT:      -5.7      7.687     11.757
REMARK  11 active torsions:
REMARK  status: ('A' for Active; 'I' for Inactive)
REMARK    1  A    between atoms: C_1  and  C_2 
REMARK    2  A    between atoms: C_2  and  C_3 
REMARK    3  A    between atoms: C_3  and  C_4 
REMARK    4  A    between atoms: C_4  and  O_5 
REMARK    5  A    between atoms: O_5  and  C_6 
REMARK    6  A    between atoms: C_6  and  C_8 
REMARK    7  A    between atoms: C_8  and  O_9 
REMARK    8  A    between atoms: O_9  and  C_10 
REMARK    9  A    between atoms: C_15  and  C_16 
REMARK   10  A    between atoms: C_16  and  C_17 
REMARK   11  A    between atoms: C_18  and  C_23 
ROOT
ATOM      1  C   LIG d   1       9.908   4.898  -3.305  0.00  0.00     0.128 A 
ATOM      2  C   LIG d   1      10.312   4.742  -1.989  0.00  0.00     0.023 A 
ATOM      3  C   LIG d   1      10.505   5.859  -1.191  0.00  0.00     0.143 A 
ATOM      4  C   LIG d   1      10.288   7.141  -1.731  0.00  0.00     0.021 A 
ATOM      5  C   LIG d   1       9.888   7.280  -3.064  0.00  0.00    -0.044 A 
ATOM      6  C   LIG d   1       9.697   6.170  -3.835  0.00  0.00    -0.005 A 
ATOM      7  C   LIG d   1      10.495   8.313  -0.879  0.00  0.00    -0.033 A 
ATOM      8  C   LIG d   1      10.890   8.112   0.405  0.00  0.00     0.026 A 
ATOM      9  C   LIG d   1      11.088   6.799   0.881  0.00  0.00     0.338 A 
ATOM     10  O   LIG d   1      11.443   6.634   2.034  0.00  0.00    -0.245 OA
ATOM     11  O   LIG d   1      10.896   5.728   0.095  0.00  0.00    -0.422 OA
ATOM     12  H   LIG d   1      10.474   3.753  -1.587  0.00  0.00     0.069 H 
ATOM     13  H   LIG d   1       9.726   8.263  -3.481  0.00  0.00     0.063 H 
ATOM     14  H   LIG d   1      11.050   8.956   1.061  0.00  0.00     0.069 H 
ENDROOT
BRANCH   1  15
ATOM     15  O   LIG d   1       9.719   3.804  -4.086  0.00  0.00    -0.480 OA
BRANCH  15  16
ATOM     16  C   LIG d   1       9.517   2.557  -3.417  0.00  0.00     0.186 C 
ATOM     17  H   LIG d   1      10.456   2.004  -3.389  0.00  0.00     0.082 H 
ATOM     18  H   LIG d   1       9.173   2.742  -2.400  0.00  0.00     0.082 H 
BRANCH  16  19
ATOM     19  C   LIG d   1       8.482   1.751  -4.159  0.00  0.00     0.345 C 
ATOM     20  O   LIG d   1       8.827   0.909  -4.953  0.00  0.00    -0.247 OA
BRANCH  19  21
ATOM     21  O   LIG d   1       7.176   1.970  -3.938  0.00  0.00    -0.462 OA
BRANCH  21  22
ATOM     22  C   LIG d   1       6.420   0.889  -3.331  0.00  0.00     0.093 C 
ATOM     23  H   LIG d   1       6.285   0.087  -4.056  0.00  0.00     0.070 H 
ATOM     24  H   LIG d   1       6.962   0.508  -2.465  0.00  0.00     0.070 H 
BRANCH  22  25
ATOM     25  C   LIG d   1       5.052   1.410  -2.887  0.00  0.00    -0.019 C 
ATOM     26  H   LIG d   1       5.115   2.482  -2.698  0.00  0.00     0.030 H 
ATOM     27  H   LIG d   1       4.319   1.221  -3.671  0.00  0.00     0.030 H 
BRANCH  25  28
ATOM     28  C   LIG d   1       4.623   0.692  -1.605  0.00  0.00    -0.053 C 
ATOM     29  H   LIG d   1       5.431   0.741  -0.874  0.00  0.00     0.026 H 
ATOM     30  H   LIG d   1       3.735   1.174  -1.198  0.00  0.00     0.026 H 
BRANCH  28  31
ATOM     31  C   LIG d   1       4.310  -0.772  -1.921  0.00  0.00    -0.065 C 
ATOM     32  H   LIG d   1       3.617  -0.822  -2.760  0.00  0.00     0.023 H 
ATOM     33  H   LIG d   1       5.231  -1.294  -2.179  0.00  0.00     0.023 H 
ATOM     34  H   LIG d   1       3.858  -1.243  -1.048  0.00  0.00     0.023 H 
ENDBRANCH  28  31
ENDBRANCH  25  28
ENDBRANCH  22  25
ENDBRANCH  21  22
ENDBRANCH  19  21
ENDBRANCH  16  19
ENDBRANCH  15  16
ENDBRANCH   1  15
BRANCH   6  35
ATOM     35  C   LIG d   1       9.258   6.320  -5.269  0.00  0.00    -0.027 C 
ATOM     36  H   LIG d   1       8.232   5.968  -5.373  0.00  0.00     0.031 H 
ATOM     37  H   LIG d   1       9.912   5.730  -5.911  0.00  0.00     0.031 H 
BRANCH  35  38
ATOM     38  C   LIG d   1       9.337   7.793  -5.675  0.00  0.00    -0.061 C 
ATOM     39  H   LIG d   1       9.141   8.420  -4.806  0.00  0.00     0.023 H 
ATOM     40  H   LIG d   1       8.594   7.997  -6.446  0.00  0.00     0.023 H 
ATOM     41  H   LIG d   1      10.332   8.010  -6.063  0.00  0.00     0.023 H 
ENDBRANCH  35  38
ENDBRANCH   6  35
BRANCH   7  42
ATOM     42  C   LIG d   1      10.275   9.705  -1.412  0.00  0.00    -0.039 C 
ATOM     43  H   LIG d   1       9.683   9.655  -2.325  0.00  0.00     0.028 H 
ATOM     44  H   LIG d   1       9.743  10.300  -0.668  0.00  0.00     0.028 H 
ATOM     45  H   LIG d   1      11.237  10.169  -1.627  0.00  0.00     0.028 H 
ENDBRANCH   7  42
TORSDOF 11
ENDMDL
MODEL 5
REMARK VINA RESULT:      -5.4      2.323      7.202
REMARK  11 active torsions:
REMARK  status: ('A' for Active; 'I' for Inactive)
REMARK    1  A    between atoms: C_1  and  C_2 
REMARK    2  A    between atoms: C_2  and  C_3 
REMARK    3  A    between atoms: C_3  and  C_4 
REMARK    4  A    between atoms: C_4  and  O_5 
REMARK    5  A    between atoms: O_5  and  C_6 
REMARK    6  A    between atoms: C_6  and  C_8 
REMARK    7  A    between atoms: C_8  and  O_9 
REMARK    8  A    between atoms: O_9  and  C_10 
REMARK    9  A    between atoms: C_15  and  C_16 
REMARK   10  A    between atoms: C_16  and  C_17 
REMARK   11  A    between atoms: C_18  and  C_23 
ROOT
ATOM      1  C   LIG d   1       4.770  -2.450  -6.913  0.00  0.00     0.128 A 
ATOM      2  C   LIG d   1       4.272  -1.166  -6.762  0.00  0.00     0.023 A 
ATOM      3  C   LIG d   1       4.015  -0.672  -5.493  0.00  0.00     0.143 A 
ATOM      4  C   LIG d   1       4.264  -1.485  -4.371  0.00  0.00     0.021 A 
ATOM      5  C   LIG d   1       4.761  -2.782  -4.543  0.00  0.00    -0.044 A 
ATOM      6  C   LIG d   1       5.014  -3.250  -5.799  0.00  0.00    -0.005 A 
ATOM      7  C   LIG d   1       3.989  -0.954  -3.034  0.00  0.00    -0.033 A 
ATOM      8  C   LIG d   1       3.501   0.310  -2.934  0.00  0.00     0.026 A 
ATOM      9  C   LIG d   1       3.276   1.069  -4.101  0.00  0.00     0.338 A 
ATOM     10  O   LIG d   1       2.838   2.202  -3.996  0.00  0.00    -0.245 OA
ATOM     11  O   LIG d   1       3.530   0.577  -5.323  0.00  0.00    -0.422 OA
ATOM     12  H   LIG d   1       4.086  -0.552  -7.631  0.00  0.00     0.069 H 
ATOM     13  H   LIG d   1       4.948  -3.409  -3.683  0.00  0.00     0.063 H 
ATOM     14  H   LIG d   1       3.289   0.733  -1.963  0.00  0.00     0.069 H 
ENDROOT
BRANCH   1  15
ATOM     15  O   LIG d   1       5.023  -2.932  -8.157  0.00  0.00    -0.480 OA
BRANCH  15  16
ATOM     16  C   LIG d   1       4.179  -2.471  -9.214  0.00  0.00     0.186 C 
ATOM     17  H   LIG d   1       3.598  -3.306  -9.606  0.00  0.00     0.082 H 
ATOM     18  H   LIG d   1       3.504  -1.705  -8.834  0.00  0.00     0.082 H 
BRANCH  16  19
ATOM     19  C   LIG d   1       5.028  -1.891 -10.316  0.00  0.00     0.345 C 
ATOM     20  O   LIG d   1       6.093  -2.392 -10.587  0.00  0.00    -0.247 OA
BRANCH  19  21
ATOM     21  O   LIG d   1       4.600  -0.816 -10.997  0.00  0.00    -0.462 OA
BRANCH  21  22
ATOM     22  C   LIG d   1       5.025   0.485 -10.511  0.00  0.00     0.093 C 
ATOM     23  H   LIG d   1       5.319   0.404  -9.464  0.00  0.00     0.070 H 
ATOM     24  H   LIG d   1       5.874   0.833 -11.100  0.00  0.00     0.070 H 
BRANCH  22  25
ATOM     25  C   LIG d   1       3.871   1.481 -10.641  0.00  0.00    -0.019 C 
ATOM     26  H   LIG d   1       3.964   2.023 -11.582  0.00  0.00     0.030 H 
ATOM     27  H   LIG d   1       2.923   0.943 -10.623  0.00  0.00     0.030 H 
BRANCH  25  28
ATOM     28  C   LIG d   1       3.918   2.471  -9.476  0.00  0.00    -0.053 C 
ATOM     29  H   LIG d   1       4.901   2.433  -9.005  0.00  0.00     0.026 H 
ATOM     30  H   LIG d   1       3.733   3.479  -9.848  0.00  0.00     0.026 H 
BRANCH  28  31
ATOM     31  C   LIG d   1       2.845   2.102  -8.449  0.00  0.00    -0.065 C 
ATOM     32  H   LIG d   1       2.387   3.011  -8.060  0.00  0.00     0.023 H 
ATOM     33  H   LIG d   1       2.084   1.485  -8.925  0.00  0.00     0.023 H 
ATOM     34  H   LIG d   1       3.303   1.547  -7.630  0.00  0.00     0.023 H 
ENDBRANCH  28  31
ENDBRANCH  25  28
ENDBRANCH  22  25
ENDBRANCH  21  22
ENDBRANCH  19  21
ENDBRANCH  16  19
ENDBRANCH  15  16
ENDBRANCH   1  15
BRANCH   6  35
ATOM     35  C   LIG d   1       5.556  -4.644  -5.984  0.00  0.00    -0.027 C 
ATOM     36  H   LIG d   1       6.313  -4.843  -5.225  0.00  0.00     0.031 H 
ATOM     37  H   LIG d   1       6.003  -4.732  -6.974  0.00  0.00     0.031 H 
BRANCH  35  38
ATOM     38  C   LIG d   1       4.417  -5.657  -5.847  0.00  0.00    -0.061 C 
ATOM     39  H   LIG d   1       4.759  -6.636  -6.185  0.00  0.00     0.023 H 
ATOM     40  H   LIG d   1       3.571  -5.338  -6.457  0.00  0.00     0.023 H 
ATOM     41  H   LIG d   1       4.110  -5.720  -4.803  0.00  0.00     0.023 H 
ENDBRANCH  35  38
ENDBRANCH   6  35
BRANCH   7  42
ATOM     42  C   LIG d   1       4.240  -1.786  -1.804  0.00  0.00    -0.039 C 
ATOM     43  H   LIG d   1       4.677  -1.160  -1.025  0.00  0.00     0.028 H 
ATOM     44  H   LIG d   1       3.298  -2.203  -1.448  0.00  0.00     0.028 H 
ATOM     45  H   LIG d   1       4.928  -2.596  -2.046  0.00  0.00     0.028 H 
ENDBRANCH   7  42
TORSDOF 11
ENDMDL
MODEL 6
REMARK VINA RESULT:      -5.1      7.253     10.589
REMARK  11 active torsions:
REMARK  status: ('A' for Active; 'I' for Inactive)
REMARK    1  A    between atoms: C_1  and  C_2 
REMARK    2  A    between atoms: C_2  and  C_3 
REMARK    3  A    between atoms: C_3  and  C_4 
REMARK    4  A    between atoms: C_4  and  O_5 
REMARK    5  A    between atoms: O_5  and  C_6 
REMARK    6  A    between atoms: C_6  and  C_8 
REMARK    7  A    between atoms: C_8  and  O_9 
REMARK    8  A    between atoms: O_9  and  C_10 
REMARK    9  A    between atoms: C_15  and  C_16 
REMARK   10  A    between atoms: C_16  and  C_17 
REMARK   11  A    between atoms: C_18  and  C_23 
ROOT
ATOM      1  C   LIG d   1       9.655   4.830  -4.703  0.00  0.00     0.128 A 
ATOM      2  C   LIG d   1       9.496   5.413  -5.949  0.00  0.00     0.023 A 
ATOM      3  C   LIG d   1       9.547   6.793  -6.075  0.00  0.00     0.143 A 
ATOM      4  C   LIG d   1       9.758   7.585  -4.931  0.00  0.00     0.021 A 
ATOM      5  C   LIG d   1       9.909   6.979  -3.679  0.00  0.00    -0.044 A 
ATOM      6  C   LIG d   1       9.863   5.619  -3.573  0.00  0.00    -0.005 A 
ATOM      7  C   LIG d   1       9.810   9.041  -5.075  0.00  0.00    -0.033 A 
ATOM      8  C   LIG d   1       9.650   9.569  -6.317  0.00  0.00     0.026 A 
ATOM      9  C   LIG d   1       9.442   8.716  -7.420  0.00  0.00     0.338 A 
ATOM     10  O   LIG d   1       9.300   9.203  -8.527  0.00  0.00    -0.245 OA
ATOM     11  O   LIG d   1       9.396   7.381  -7.281  0.00  0.00    -0.422 OA
ATOM     12  H   LIG d   1       9.335   4.795  -6.820  0.00  0.00     0.069 H 
ATOM     13  H   LIG d   1      10.067   7.585  -2.799  0.00  0.00     0.063 H 
ATOM     14  H   LIG d   1       9.684  10.640  -6.458  0.00  0.00     0.069 H 
ENDROOT
BRANCH   1  15
ATOM     15  O   LIG d   1       9.606   3.479  -4.580  0.00  0.00    -0.480 OA
BRANCH  15  16
ATOM     16  C   LIG d   1       8.454   2.821  -5.111  0.00  0.00     0.186 C 
ATOM     17  H   LIG d   1       7.658   3.549  -5.266  0.00  0.00     0.082 H 
ATOM     18  H   LIG d   1       8.708   2.353  -6.062  0.00  0.00     0.082 H 
BRANCH  16  19
ATOM     19  C   LIG d   1       7.987   1.766  -4.141  0.00  0.00     0.345 C 
ATOM     20  O   LIG d   1       8.663   0.785  -3.943  0.00  0.00    -0.247 OA
BRANCH  19  21
ATOM     21  O   LIG d   1       6.819   1.917  -3.497  0.00  0.00    -0.462 OA
BRANCH  21  22
ATOM     22  C   LIG d   1       6.094   0.706  -3.154  0.00  0.00     0.093 C 
ATOM     23  H   LIG d   1       5.656   0.276  -4.054  0.00  0.00     0.070 H 
ATOM     24  H   LIG d   1       6.780  -0.013  -2.705  0.00  0.00     0.070 H 
BRANCH  22  25
ATOM     25  C   LIG d   1       4.983   1.042  -2.157  0.00  0.00    -0.019 C 
ATOM     26  H   LIG d   1       5.373   0.976  -1.141  0.00  0.00     0.030 H 
ATOM     27  H   LIG d   1       4.621   2.053  -2.343  0.00  0.00     0.030 H 
BRANCH  25  28
ATOM     28  C   LIG d   1       3.830   0.049  -2.324  0.00  0.00    -0.053 C 
ATOM     29  H   LIG d   1       3.017   0.319  -1.649  0.00  0.00     0.026 H 
ATOM     30  H   LIG d   1       3.472   0.078  -3.353  0.00  0.00     0.026 H 
BRANCH  28  31
ATOM     31  C   LIG d   1       4.320  -1.362  -1.994  0.00  0.00    -0.065 C 
ATOM     32  H   LIG d   1       5.183  -1.301  -1.332  0.00  0.00     0.023 H 
ATOM     33  H   LIG d   1       3.523  -1.918  -1.501  0.00  0.00     0.023 H 
ATOM     34  H   LIG d   1       4.604  -1.873  -2.914  0.00  0.00     0.023 H 
ENDBRANCH  28  31
ENDBRANCH  25  28
ENDBRANCH  22  25
ENDBRANCH  21  22
ENDBRANCH  19  21
ENDBRANCH  16  19
ENDBRANCH  15  16
ENDBRANCH   1  15
BRANCH   6  35
ATOM     35  C   LIG d   1      10.033   4.966  -2.225  0.00  0.00    -0.027 C 
ATOM     36  H   LIG d   1      10.864   4.262  -2.265  0.00  0.00     0.031 H 
ATOM     37  H   LIG d   1       9.118   4.434  -1.962  0.00  0.00     0.031 H 
BRANCH  35  38
ATOM     38  C   LIG d   1      10.321   6.037  -1.172  0.00  0.00    -0.061 C 
ATOM     39  H   LIG d   1       9.513   6.769  -1.167  0.00  0.00     0.023 H 
ATOM     40  H   LIG d   1      11.261   6.537  -1.408  0.00  0.00     0.023 H 
ATOM     41  H   LIG d   1      10.394   5.571  -0.190  0.00  0.00     0.023 H 
ENDBRANCH  35  38
ENDBRANCH   6  35
BRANCH   7  42
ATOM     42  C   LIG d   1      10.035   9.930  -3.880  0.00  0.00    -0.039 C 
ATOM     43  H   LIG d   1      10.604  10.809  -4.183  0.00  0.00     0.028 H 
ATOM     44  H   LIG d   1       9.074  10.243  -3.473  0.00  0.00     0.028 H 
ATOM     45  H   LIG d   1      10.591   9.382  -3.118  0.00  0.00     0.028 H 
ENDBRANCH   7  42
TORSDOF 11
ENDMDL
MODEL 7
REMARK VINA RESULT:      -5.1      2.411      4.679
REMARK  11 active torsions:
REMARK  status: ('A' for Active; 'I' for Inactive)
REMARK    1  A    between atoms: C_1  and  C_2 
REMARK    2  A    between atoms: C_2  and  C_3 
REMARK    3  A    between atoms: C_3  and  C_4 
REMARK    4  A    between atoms: C_4  and  O_5 
REMARK    5  A    between atoms: O_5  and  C_6 
REMARK    6  A    between atoms: C_6  and  C_8 
REMARK    7  A    between atoms: C_8  and  O_9 
REMARK    8  A    between atoms: O_9  and  C_10 
REMARK    9  A    between atoms: C_15  and  C_16 
REMARK   10  A    between atoms: C_16  and  C_17 
REMARK   11  A    between atoms: C_18  and  C_23 
ROOT
ATOM      1  C   LIG d   1       3.890  -3.072  -8.410  0.00  0.00     0.128 A 
ATOM      2  C   LIG d   1       3.839  -1.771  -7.934  0.00  0.00     0.023 A 
ATOM      3  C   LIG d   1       3.883  -0.710  -8.824  0.00  0.00     0.143 A 
ATOM      4  C   LIG d   1       3.979  -0.968 -10.205  0.00  0.00     0.021 A 
ATOM      5  C   LIG d   1       4.036  -2.288 -10.667  0.00  0.00    -0.044 A 
ATOM      6  C   LIG d   1       3.986  -3.321  -9.778  0.00  0.00    -0.005 A 
ATOM      7  C   LIG d   1       4.024   0.161 -11.136  0.00  0.00    -0.033 A 
ATOM      8  C   LIG d   1       3.971   1.418 -10.624  0.00  0.00     0.026 A 
ATOM      9  C   LIG d   1       3.875   1.603  -9.229  0.00  0.00     0.338 A 
ATOM     10  O   LIG d   1       3.828   2.736  -8.784  0.00  0.00    -0.245 OA
ATOM     11  O   LIG d   1       3.833   0.565  -8.381  0.00  0.00    -0.422 OA
ATOM     12  H   LIG d   1       3.765  -1.586  -6.872  0.00  0.00     0.069 H 
ATOM     13  H   LIG d   1       4.114  -2.487 -11.726  0.00  0.00     0.063 H 
ATOM     14  H   LIG d   1       4.001   2.273 -11.284  0.00  0.00     0.069 H 
ENDROOT
BRANCH   1  15
ATOM     15  O   LIG d   1       3.846  -4.111  -7.538  0.00  0.00    -0.480 OA
BRANCH  15  16
ATOM     16  C   LIG d   1       4.958  -4.261  -6.653  0.00  0.00     0.186 C 
ATOM     17  H   LIG d   1       5.646  -5.004  -7.056  0.00  0.00     0.082 H 
ATOM     18  H   LIG d   1       5.473  -3.306  -6.550  0.00  0.00     0.082 H 
BRANCH  16  19
ATOM     19  C   LIG d   1       4.467  -4.714  -5.302  0.00  0.00     0.345 C 
ATOM     20  O   LIG d   1       4.068  -5.845  -5.152  0.00  0.00    -0.247 OA
BRANCH  19  21
ATOM     21  O   LIG d   1       4.472  -3.862  -4.265  0.00  0.00    -0.462 OA
BRANCH  21  22
ATOM     22  C   LIG d   1       5.198  -2.616  -4.439  0.00  0.00     0.093 C 
ATOM     23  H   LIG d   1       6.224  -2.832  -4.737  0.00  0.00     0.070 H 
ATOM     24  H   LIG d   1       4.714  -2.018  -5.211  0.00  0.00     0.070 H 
BRANCH  22  25
ATOM     25  C   LIG d   1       5.203  -1.840  -3.121  0.00  0.00    -0.019 C 
ATOM     26  H   LIG d   1       6.008  -2.209  -2.485  0.00  0.00     0.030 H 
ATOM     27  H   LIG d   1       5.356  -0.780  -3.324  0.00  0.00     0.030 H 
BRANCH  25  28
ATOM     28  C   LIG d   1       3.862  -2.034  -2.409  0.00  0.00    -0.053 C 
ATOM     29  H   LIG d   1       3.492  -3.042  -2.600  0.00  0.00     0.026 H 
ATOM     30  H   LIG d   1       3.997  -1.894  -1.336  0.00  0.00     0.026 H 
BRANCH  28  31
ATOM     31  C   LIG d   1       2.853  -1.012  -2.934  0.00  0.00    -0.065 C 
ATOM     32  H   LIG d   1       2.969  -0.907  -4.012  0.00  0.00     0.023 H 
ATOM     33  H   LIG d   1       1.842  -1.351  -2.709  0.00  0.00     0.023 H 
ATOM     34  H   LIG d   1       3.028  -0.049  -2.455  0.00  0.00     0.023 H 
ENDBRANCH  28  31
ENDBRANCH  25  28
ENDBRANCH  22  25
ENDBRANCH  21  22
ENDBRANCH  19  21
ENDBRANCH  16  19
ENDBRANCH  15  16
ENDBRANCH   1  15
BRANCH   6  35
ATOM     35  C   LIG d   1       4.040  -4.742 -10.277  0.00  0.00    -0.027 C 
ATOM     36  H   LIG d   1       4.358  -5.400  -9.468  0.00  0.00     0.031 H 
ATOM     37  H   LIG d   1       4.751  -4.810 -11.101  0.00  0.00     0.031 H 
BRANCH  35  38
ATOM     38  C   LIG d   1       2.653  -5.165 -10.764  0.00  0.00    -0.061 C 
ATOM     39  H   LIG d   1       2.734  -5.595 -11.762  0.00  0.00     0.023 H 
ATOM     40  H   LIG d   1       1.997  -4.295 -10.795  0.00  0.00     0.023 H 
ATOM     41  H   LIG d   1       2.239  -5.907 -10.081  0.00  0.00     0.023 H 
ENDBRANCH  35  38
ENDBRANCH   6  35
BRANCH   7  42
ATOM     42  C   LIG d   1       4.125  -0.066 -12.622  0.00  0.00    -0.039 C 
ATOM     43  H   LIG d   1       3.617  -0.994 -12.884  0.00  0.00     0.028 H 
ATOM     44  H   LIG d   1       3.657   0.765 -13.150  0.00  0.00     0.028 H 
ATOM     45  H   LIG d   1       5.174  -0.134 -12.910  0.00  0.00     0.028 H 
ENDBRANCH   7  42
TORSDOF 11
ENDMDL
MODEL 8
REMARK VINA RESULT:      -5.0      6.128      8.502
REMARK  11 active torsions:
REMARK  status: ('A' for Active; 'I' for Inactive)
REMARK    1  A    between atoms: C_1  and  C_2 
REMARK    2  A    between atoms: C_2  and  C_3 
REMARK    3  A    between atoms: C_3  and  C_4 
REMARK    4  A    between atoms: C_4  and  O_5 
REMARK    5  A    between atoms: O_5  and  C_6 
REMARK    6  A    between atoms: C_6  and  C_8 
REMARK    7  A    between atoms: C_8  and  O_9 
REMARK    8  A    between atoms: O_9  and  C_10 
REMARK    9  A    between atoms: C_15  and  C_16 
REMARK   10  A    between atoms: C_16  and  C_17 
REMARK   11  A    between atoms: C_18  and  C_23 
ROOT
ATOM      1  C   LIG d   1       8.568   0.430  -4.650  0.00  0.00     0.128 A 
ATOM      2  C   LIG d   1       7.682   1.203  -3.918  0.00  0.00     0.023 A 
ATOM      3  C   LIG d   1       6.504   0.642  -3.450  0.00  0.00     0.143 A 
ATOM      4  C   LIG d   1       6.223  -0.710  -3.727  0.00  0.00     0.021 A 
ATOM      5  C   LIG d   1       7.128  -1.473  -4.473  0.00  0.00    -0.044 A 
ATOM      6  C   LIG d   1       8.285  -0.907  -4.922  0.00  0.00    -0.005 A 
ATOM      7  C   LIG d   1       4.976  -1.292  -3.227  0.00  0.00    -0.033 A 
ATOM      8  C   LIG d   1       4.137  -0.497  -2.514  0.00  0.00     0.026 A 
ATOM      9  C   LIG d   1       4.481   0.849  -2.274  0.00  0.00     0.338 A 
ATOM     10  O   LIG d   1       3.719   1.550  -1.633  0.00  0.00    -0.245 OA
ATOM     11  O   LIG d   1       5.626   1.377  -2.734  0.00  0.00    -0.422 OA
ATOM     12  H   LIG d   1       7.908   2.238  -3.712  0.00  0.00     0.069 H 
ATOM     13  H   LIG d   1       6.912  -2.509  -4.690  0.00  0.00     0.063 H 
ATOM     14  H   LIG d   1       3.209  -0.896  -2.130  0.00  0.00     0.069 H 
ENDROOT
BRANCH   1  15
ATOM     15  O   LIG d   1       9.722   0.980  -5.107  0.00  0.00    -0.480 OA
BRANCH  15  16
ATOM     16  C   LIG d   1      10.021   2.310  -4.679  0.00  0.00     0.186 C 
ATOM     17  H   LIG d   1      10.464   2.867  -5.504  0.00  0.00     0.082 H 
ATOM     18  H   LIG d   1       9.104   2.803  -4.358  0.00  0.00     0.082 H 
BRANCH  16  19
ATOM     19  C   LIG d   1      10.993   2.260  -3.528  0.00  0.00     0.345 C 
ATOM     20  O   LIG d   1      11.884   1.444  -3.524  0.00  0.00    -0.247 OA
BRANCH  19  21
ATOM     21  O   LIG d   1      10.869   3.123  -2.507  0.00  0.00    -0.462 OA
BRANCH  21  22
ATOM     22  C   LIG d   1      10.052   4.302  -2.735  0.00  0.00     0.093 C 
ATOM     23  H   LIG d   1      10.222   4.672  -3.746  0.00  0.00     0.070 H 
ATOM     24  H   LIG d   1       9.000   4.043  -2.616  0.00  0.00     0.070 H 
BRANCH  22  25
ATOM     25  C   LIG d   1      10.429   5.387  -1.724  0.00  0.00    -0.019 C 
ATOM     26  H   LIG d   1      10.192   5.043  -0.717  0.00  0.00     0.030 H 
ATOM     27  H   LIG d   1      11.497   5.595  -1.796  0.00  0.00     0.030 H 
BRANCH  25  28
ATOM     28  C   LIG d   1       9.639   6.662  -2.026  0.00  0.00    -0.053 C 
ATOM     29  H   LIG d   1       8.601   6.528  -1.719  0.00  0.00     0.026 H 
ATOM     30  H   LIG d   1      10.075   7.498  -1.479  0.00  0.00     0.026 H 
BRANCH  28  31
ATOM     31  C   LIG d   1       9.693   6.952  -3.528  0.00  0.00    -0.065 C 
ATOM     32  H   LIG d   1       8.984   7.743  -3.770  0.00  0.00     0.023 H 
ATOM     33  H   LIG d   1      10.699   7.269  -3.800  0.00  0.00     0.023 H 
ATOM     34  H   LIG d   1       9.434   6.050  -4.081  0.00  0.00     0.023 H 
ENDBRANCH  28  31
ENDBRANCH  25  28
ENDBRANCH  22  25
ENDBRANCH  21  22
ENDBRANCH  19  21
ENDBRANCH  16  19
ENDBRANCH  15  16
ENDBRANCH   1  15
BRANCH   6  35
ATOM     35  C   LIG d   1       9.262  -1.732  -5.720  0.00  0.00    -0.027 C 
ATOM     36  H   LIG d   1      10.018  -1.078  -6.155  0.00  0.00     0.031 H 
ATOM     37  H   LIG d   1       8.731  -2.254  -6.516  0.00  0.00     0.031 H 
BRANCH  35  38
ATOM     38  C   LIG d   1       9.937  -2.753  -4.802  0.00  0.00    -0.061 C 
ATOM     39  H   LIG d   1       9.181  -3.254  -4.198  0.00  0.00     0.023 H 
ATOM     40  H   LIG d   1      10.645  -2.243  -4.148  0.00  0.00     0.023 H 
ATOM     41  H   LIG d   1      10.467  -3.490  -5.406  0.00  0.00     0.023 H 
ENDBRANCH  35  38
ENDBRANCH   6  35
BRANCH   7  42
ATOM     42  C   LIG d   1       4.633  -2.734  -3.497  0.00  0.00    -0.039 C 
ATOM     43  H   LIG d   1       3.611  -2.802  -3.868  0.00  0.00     0.028 H 
ATOM     44  H   LIG d   1       5.317  -3.138  -4.244  0.00  0.00     0.028 H 
ATOM     45  H   LIG d   1       4.723  -3.309  -2.575  0.00  0.00     0.028 H 
ENDBRANCH   7  42
TORSDOF 11
ENDMDL
MODEL 9
REMARK VINA RESULT:      -4.8      8.738     12.878
REMARK  11 active torsions:
REMARK  status: ('A' for Active; 'I' for Inactive)
REMARK    1  A    between atoms: C_1  and  C_2 
REMARK    2  A    between atoms: C_2  and  C_3 
REMARK    3  A    between atoms: C_3  and  C_4 
REMARK    4  A    between atoms: C_4  and  O_5 
REMARK    5  A    between atoms: O_5  and  C_6 
REMARK    6  A    between atoms: C_6  and  C_8 
REMARK    7  A    between atoms: C_8  and  O_9 
REMARK    8  A    between atoms: O_9  and  C_10 
REMARK    9  A    between atoms: C_15  and  C_16 
REMARK   10  A    between atoms: C_16  and  C_17 
REMARK   11  A    between atoms: C_18  and  C_23 
ROOT
ATOM      1  C   LIG d   1       9.958   5.685  -2.193  0.00  0.00     0.128 A 
ATOM      2  C   LIG d   1      10.422   5.813  -0.894  0.00  0.00     0.023 A 
ATOM      3  C   LIG d   1      10.707   7.070  -0.385  0.00  0.00     0.143 A 
ATOM      4  C   LIG d   1      10.522   8.204  -1.200  0.00  0.00     0.021 A 
ATOM      5  C   LIG d   1      10.060   8.055  -2.512  0.00  0.00    -0.044 A 
ATOM      6  C   LIG d   1       9.778   6.810  -2.995  0.00  0.00    -0.005 A 
ATOM      7  C   LIG d   1      10.827   9.527  -0.653  0.00  0.00    -0.033 A 
ATOM      8  C   LIG d   1      11.279   9.605   0.626  0.00  0.00     0.026 A 
ATOM      9  C   LIG d   1      11.440   8.428   1.386  0.00  0.00     0.338 A 
ATOM     10  O   LIG d   1      11.846   8.512   2.531  0.00  0.00    -0.245 OA
ATOM     11  O   LIG d   1      11.158   7.217   0.879  0.00  0.00    -0.422 OA
ATOM     12  H   LIG d   1      10.558   4.935  -0.279  0.00  0.00     0.069 H 
ATOM     13  H   LIG d   1       9.922   8.923  -3.139  0.00  0.00     0.063 H 
ATOM     14  H   LIG d   1      11.511  10.566   1.061  0.00  0.00     0.069 H 
ENDROOT
BRANCH   1  15
ATOM     15  O   LIG d   1       9.678   4.453  -2.690  0.00  0.00    -0.480 OA
BRANCH  15  16
ATOM     16  C   LIG d   1      10.738   3.495  -2.686  0.00  0.00     0.186 C 
ATOM     17  H   LIG d   1      11.617   3.924  -3.169  0.00  0.00     0.082 H 
ATOM     18  H   LIG d   1      10.983   3.228  -1.659  0.00  0.00     0.082 H 
BRANCH  16  19
ATOM     19  C   LIG d   1      10.305   2.263  -3.437  0.00  0.00     0.345 C 
ATOM     20  O   LIG d   1      11.132   1.525  -3.917  0.00  0.00    -0.247 OA
BRANCH  19  21
ATOM     21  O   LIG d   1       8.999   1.984  -3.573  0.00  0.00    -0.462 OA
BRANCH  21  22
ATOM     22  C   LIG d   1       8.645   0.907  -4.479  0.00  0.00     0.093 C 
ATOM     23  H   LIG d   1       8.532   1.302  -5.488  0.00  0.00     0.070 H 
ATOM     24  H   LIG d   1       9.432   0.152  -4.471  0.00  0.00     0.070 H 
BRANCH  22  25
ATOM     25  C   LIG d   1       7.326   0.274  -4.029  0.00  0.00    -0.019 C 
ATOM     26  H   LIG d   1       6.800  -0.125  -4.897  0.00  0.00     0.030 H 
ATOM     27  H   LIG d   1       7.532  -0.533  -3.326  0.00  0.00     0.030 H 
BRANCH  25  28
ATOM     28  C   LIG d   1       6.457   1.334  -3.349  0.00  0.00    -0.053 C 
ATOM     29  H   LIG d   1       7.078   1.949  -2.698  0.00  0.00     0.026 H 
ATOM     30  H   LIG d   1       5.991   1.962  -4.108  0.00  0.00     0.026 H 
BRANCH  28  31
ATOM     31  C   LIG d   1       5.371   0.647  -2.519  0.00  0.00    -0.065 C 
ATOM     32  H   LIG d   1       5.835  -0.042  -1.814  0.00  0.00     0.023 H 
ATOM     33  H   LIG d   1       4.802   1.398  -1.972  0.00  0.00     0.023 H 
ATOM     34  H   LIG d   1       4.703   0.095  -3.180  0.00  0.00     0.023 H 
ENDBRANCH  28  31
ENDBRANCH  25  28
ENDBRANCH  22  25
ENDBRANCH  21  22
ENDBRANCH  19  21
ENDBRANCH  16  19
ENDBRANCH  15  16
ENDBRANCH   1  15
BRANCH   6  35
ATOM     35  C   LIG d   1       9.273   6.651  -4.406  0.00  0.00    -0.027 C 
ATOM     36  H   LIG d   1       8.194   6.501  -4.390  0.00  0.00     0.031 H 
ATOM     37  H   LIG d   1       9.753   5.787  -4.867  0.00  0.00     0.031 H 
BRANCH  35  38
ATOM     38  C   LIG d   1       9.603   7.909  -5.211  0.00  0.00    -0.061 C 
ATOM     39  H   LIG d   1       9.556   8.781  -4.559  0.00  0.00     0.023 H 
ATOM     40  H   LIG d   1       8.882   8.022  -6.021  0.00  0.00     0.023 H 
ATOM     41  H   LIG d   1      10.606   7.821  -5.628  0.00  0.00     0.023 H 
ENDBRANCH  35  38
ENDBRANCH   6  35
BRANCH   7  42
ATOM     42  C   LIG d   1      10.644  10.770  -1.485  0.00  0.00    -0.039 C 
ATOM     43  H   LIG d   1      10.825  10.534  -2.534  0.00  0.00     0.028 H 
ATOM     44  H   LIG d   1       9.625  11.140  -1.367  0.00  0.00     0.028 H 
ATOM     45  H   LIG d   1      11.348  11.534  -1.159  0.00  0.00     0.028 H 
ENDBRANCH   7  42
TORSDOF 11
ENDMDL
MODEL 10
REMARK VINA RESULT:      -4.8     10.555     13.852
REMARK  11 active torsions:
REMARK  status: ('A' for Active; 'I' for Inactive)
REMARK    1  A    between atoms: C_1  and  C_2 
REMARK    2  A    between atoms: C_2  and  C_3 
REMARK    3  A    between atoms: C_3  and  C_4 
REMARK    4  A    between atoms: C_4  and  O_5 
REMARK    5  A    between atoms: O_5  and  C_6 
REMARK    6  A    between atoms: C_6  and  C_8 
REMARK    7  A    between atoms: C_8  and  O_9 
REMARK    8  A    between atoms: O_9  and  C_10 
REMARK    9  A    between atoms: C_15  and  C_16 
REMARK   10  A    between atoms: C_16  and  C_17 
REMARK   11  A    between atoms: C_18  and  C_23 
ROOT
ATOM      1  C   LIG d   1       9.992   5.437  -2.228  0.00  0.00     0.128 A 
ATOM      2  C   LIG d   1      10.484   5.588  -0.941  0.00  0.00     0.023 A 
ATOM      3  C   LIG d   1      10.675   6.859  -0.422  0.00  0.00     0.143 A 
ATOM      4  C   LIG d   1      10.367   7.983  -1.213  0.00  0.00     0.021 A 
ATOM      5  C   LIG d   1       9.878   7.811  -2.512  0.00  0.00    -0.044 A 
ATOM      6  C   LIG d   1       9.690   6.553  -3.006  0.00  0.00    -0.005 A 
ATOM      7  C   LIG d   1      10.572   9.321  -0.655  0.00  0.00    -0.033 A 
ATOM      8  C   LIG d   1      11.055   9.421   0.611  0.00  0.00     0.026 A 
ATOM      9  C   LIG d   1      11.342   8.252   1.347  0.00  0.00     0.338 A 
ATOM     10  O   LIG d   1      11.775   8.357   2.481  0.00  0.00    -0.245 OA
ATOM     11  O   LIG d   1      11.151   7.029   0.830  0.00  0.00    -0.422 OA
ATOM     12  H   LIG d   1      10.715   4.718  -0.344  0.00  0.00     0.069 H 
ATOM     13  H   LIG d   1       9.646   8.672  -3.122  0.00  0.00     0.063 H 
ATOM     14  H   LIG d   1      11.217  10.393   1.053  0.00  0.00     0.069 H 
ENDROOT
BRANCH   1  15
ATOM     15  O   LIG d   1       9.804   4.192  -2.735  0.00  0.00    -0.480 OA
BRANCH  15  16
ATOM     16  C   LIG d   1      10.914   3.293  -2.675  0.00  0.00     0.186 C 
ATOM     17  H   LIG d   1      11.419   3.402  -1.715  0.00  0.00     0.082 H 
ATOM     18  H   LIG d   1      10.558   2.269  -2.784  0.00  0.00     0.082 H 
BRANCH  16  19
ATOM     19  C   LIG d   1      11.878   3.611  -3.788  0.00  0.00     0.345 C 
ATOM     20  O   LIG d   1      11.535   3.487  -4.940  0.00  0.00    -0.247 OA
BRANCH  19  21
ATOM     21  O   LIG d   1      13.120   4.032  -3.501  0.00  0.00    -0.462 OA
BRANCH  21  22
ATOM     22  C   LIG d   1      13.512   5.331  -4.017  0.00  0.00     0.093 C 
ATOM     23  H   LIG d   1      14.499   5.259  -4.473  0.00  0.00     0.070 H 
ATOM     24  H   LIG d   1      12.790   5.658  -4.765  0.00  0.00     0.070 H 
BRANCH  22  25
ATOM     25  C   LIG d   1      13.553   6.344  -2.871  0.00  0.00    -0.019 C 
ATOM     26  H   LIG d   1      12.745   6.133  -2.170  0.00  0.00     0.030 H 
ATOM     27  H   LIG d   1      14.511   6.271  -2.355  0.00  0.00     0.030 H 
BRANCH  25  28
ATOM     28  C   LIG d   1      13.383   7.758  -3.432  0.00  0.00    -0.053 C 
ATOM     29  H   LIG d   1      13.997   7.870  -4.326  0.00  0.00     0.026 H 
ATOM     30  H   LIG d   1      12.336   7.923  -3.688  0.00  0.00     0.026 H 
BRANCH  28  31
ATOM     31  C   LIG d   1      13.819   8.780  -2.381  0.00  0.00    -0.065 C 
ATOM     32  H   LIG d   1      13.614   8.388  -1.386  0.00  0.00     0.023 H 
ATOM     33  H   LIG d   1      14.887   8.973  -2.484  0.00  0.00     0.023 H 
ATOM     34  H   LIG d   1      13.268   9.709  -2.527  0.00  0.00     0.023 H 
ENDBRANCH  28  31
ENDBRANCH  25  28
ENDBRANCH  22  25
ENDBRANCH  21  22
ENDBRANCH  19  21
ENDBRANCH  16  19
ENDBRANCH  15  16
ENDBRANCH   1  15
BRANCH   6  35
ATOM     35  C   LIG d   1       9.157   6.368  -4.403  0.00  0.00    -0.027 C 
ATOM     36  H   LIG d   1       8.074   6.252  -4.366  0.00  0.00     0.031 H 
ATOM     37  H   LIG d   1       9.603   5.477  -4.847  0.00  0.00     0.031 H 
BRANCH  35  38
ATOM     38  C   LIG d   1       9.511   7.591  -5.251  0.00  0.00    -0.061 C 
ATOM     39  H   LIG d   1      10.535   7.897  -5.037  0.00  0.00     0.023 H 
ATOM     40  H   LIG d   1       8.831   8.409  -5.011  0.00  0.00     0.023 H 
ATOM     41  H   LIG d   1       9.419   7.341  -6.308  0.00  0.00     0.023 H 
ENDBRANCH  35  38
ENDBRANCH   6  35
BRANCH   7  42
ATOM     42  C   LIG d   1      10.256  10.553  -1.462  0.00  0.00    -0.039 C 
ATOM     43  H   LIG d   1      10.965  11.343  -1.213  0.00  0.00     0.028 H 
ATOM     44  H   LIG d   1      10.331  10.321  -2.525  0.00  0.00     0.028 H 
ATOM     45  H   LIG d   1       9.244  10.888  -1.234  0.00  0.00     0.028 H 
ENDBRANCH   7  42
TORSDOF 11
ENDMDL
