MODEL 1
REMARK VINA RESULT:      -7.2      0.000      0.000
REMARK  4 active torsions:
REMARK  status: ('A' for Active; 'I' for Inactive)
REMARK    1  A    between atoms: C_7  and  C_13 
REMARK    2  A    between atoms: C_13  and  C_14 
REMARK       I    between atoms: C_14  and  N_16 
REMARK    3  A    between atoms: C_18  and  O_25 
REMARK    4  A    between atoms: C_21  and  C_23 
ROOT
ATOM      1  C   LIG d   1       6.579  -0.716  -6.402  0.00  0.00     0.069 C 
ATOM      2  H   LIG d   1       6.216  -1.740  -6.494  0.00  0.00     0.042 H 
ATOM      3  H   LIG d   1       7.665  -0.706  -6.484  0.00  0.00     0.042 H 
ENDROOT
BRANCH   1   4
ATOM      4  C   LIG d   1       6.171  -0.158  -5.062  0.00  0.00     0.078 A 
ATOM      5  C   LIG d   1       5.365  -0.968  -4.148  0.00  0.00     0.011 A 
ATOM      6  C   LIG d   1       5.000  -0.416  -2.899  0.00  0.00     0.050 A 
ATOM      7  C   LIG d   1       4.952  -2.260  -4.477  0.00  0.00    -0.052 A 
ATOM      8  C   LIG d   1       4.232  -1.166  -2.009  0.00  0.00    -0.049 A 
ATOM      9  C   LIG d   1       5.451   0.946  -2.583  0.00  0.00     0.273 A 
ATOM     10  C   LIG d   1       3.840  -2.438  -2.361  0.00  0.00    -0.061 A 
ATOM     11  H   LIG d   1       3.949  -0.752  -1.052  0.00  0.00     0.062 H 
ATOM     12  C   LIG d   1       4.199  -2.977  -3.589  0.00  0.00    -0.061 A 
ATOM     13  H   LIG d   1       3.245  -3.022  -1.674  0.00  0.00     0.062 H 
ATOM     14  H   LIG d   1       3.881  -3.977  -3.846  0.00  0.00     0.062 H 
ATOM     15  N   LIG d   1       6.192   1.611  -3.493  0.00  0.00    -0.242 N 
ATOM     16  O   LIG d   1       5.162   1.464  -1.519  0.00  0.00    -0.266 OA
ATOM     17  N   LIG d   1       6.541   1.039  -4.716  0.00  0.00    -0.175 NA
ATOM     18  H   LIG d   1       6.492   2.511  -3.291  0.00  0.00     0.192 HD
ATOM     19  H   LIG d   1       5.224  -2.692  -5.429  0.00  0.00     0.062 H 
ENDBRANCH   1   4
BRANCH   1  20
ATOM     20  C   LIG d   1       5.984   0.128  -7.499  0.00  0.00     0.222 C 
ATOM     21  O   LIG d   1       6.544   1.143  -7.855  0.00  0.00    -0.275 OA
ATOM     22  N   LIG d   1       4.826  -0.242  -8.081  0.00  0.00    -0.290 N 
ATOM     23  C   LIG d   1       4.132   0.491  -9.150  0.00  0.00     0.068 C 
ATOM     24  C   LIG d   1       4.042  -1.445  -7.747  0.00  0.00     0.041 C 
ATOM     25  C   LIG d   1       2.872  -0.320  -9.518  0.00  0.00    -0.001 C 
ATOM     26  H   LIG d   1       4.781   0.579 -10.021  0.00  0.00     0.056 H 
ATOM     27  C   LIG d   1       3.219  -1.750  -9.022  0.00  0.00     0.073 C 
ATOM     28  H   LIG d   1       2.707  -0.315 -10.595  0.00  0.00     0.031 H 
ATOM     29  H   LIG d   1       2.000   0.068  -8.991  0.00  0.00     0.031 H 
ATOM     30  H   LIG d   1       2.317  -2.310  -8.781  0.00  0.00     0.061 H 
ATOM     31  H   LIG d   1       4.707  -2.278  -7.516  0.00  0.00     0.049 H 
ATOM     32  H   LIG d   1       3.378  -1.244  -6.905  0.00  0.00     0.049 H 
BRANCH  23  33
ATOM     33  C   LIG d   1       3.738   1.860  -8.659  0.00  0.00     0.062 C 
ATOM     34  O   LIG d   1       4.174   2.846  -9.203  0.00  0.00    -0.548 OA
ATOM     35  O   LIG d   1       2.901   1.984  -7.616  0.00  0.00    -0.548 OA
ENDBRANCH  23  33
BRANCH  27  36
ATOM     36  O   LIG d   1       4.010  -2.449  -9.987  0.00  0.00    -0.390 OA
ATOM     37  H   LIG d   1       4.657  -3.054  -9.601  0.00  0.00     0.210 HD
ENDBRANCH  27  36
ENDBRANCH   1  20
TORSDOF 4
ENDMDL
MODEL 2
REMARK VINA RESULT:      -7.1      1.933      2.216
REMARK  4 active torsions:
REMARK  status: ('A' for Active; 'I' for Inactive)
REMARK    1  A    between atoms: C_7  and  C_13 
REMARK    2  A    between atoms: C_13  and  C_14 
REMARK       I    between atoms: C_14  and  N_16 
REMARK    3  A    between atoms: C_18  and  O_25 
REMARK    4  A    between atoms: C_21  and  C_23 
ROOT
ATOM      1  C   LIG d   1       2.819  -0.288  -6.647  0.00  0.00     0.069 C 
ATOM      2  H   LIG d   1       1.875   0.096  -7.038  0.00  0.00     0.042 H 
ATOM      3  H   LIG d   1       2.783  -1.376  -6.614  0.00  0.00     0.042 H 
ENDROOT
BRANCH   1   4
ATOM      4  C   LIG d   1       3.040   0.250  -5.256  0.00  0.00     0.078 A 
ATOM      5  C   LIG d   1       3.604  -0.615  -4.220  0.00  0.00     0.011 A 
ATOM      6  C   LIG d   1       3.800  -0.078  -2.926  0.00  0.00     0.050 A 
ATOM      7  C   LIG d   1       3.949  -1.943  -4.474  0.00  0.00    -0.052 A 
ATOM      8  C   LIG d   1       4.335  -0.881  -1.919  0.00  0.00    -0.049 A 
ATOM      9  C   LIG d   1       3.427   1.322  -2.690  0.00  0.00     0.273 A 
ATOM     10  C   LIG d   1       4.667  -2.187  -2.200  0.00  0.00    -0.061 A 
ATOM     11  H   LIG d   1       4.489  -0.479  -0.928  0.00  0.00     0.062 H 
ATOM     12  C   LIG d   1       4.472  -2.710  -3.471  0.00  0.00    -0.061 A 
ATOM     13  H   LIG d   1       5.083  -2.812  -1.422  0.00  0.00     0.062 H 
ATOM     14  H   LIG d   1       4.739  -3.738  -3.672  0.00  0.00     0.062 H 
ATOM     15  N   LIG d   1       2.915   2.037  -3.713  0.00  0.00    -0.242 N 
ATOM     16  O   LIG d   1       3.578   1.828  -1.592  0.00  0.00    -0.266 OA
ATOM     17  N   LIG d   1       2.737   1.484  -4.980  0.00  0.00    -0.175 NA
ATOM     18  H   LIG d   1       2.665   2.963  -3.564  0.00  0.00     0.192 HD
ATOM     19  H   LIG d   1       3.803  -2.363  -5.459  0.00  0.00     0.062 H 
ENDBRANCH   1   4
BRANCH   1  20
ATOM     20  C   LIG d   1       3.948   0.151  -7.541  0.00  0.00     0.222 C 
ATOM     21  O   LIG d   1       5.052   0.343  -7.075  0.00  0.00    -0.275 OA
ATOM     22  N   LIG d   1       3.732   0.337  -8.859  0.00  0.00    -0.290 N 
ATOM     23  C   LIG d   1       4.738   0.773  -9.839  0.00  0.00     0.068 C 
ATOM     24  C   LIG d   1       2.447   0.142  -9.554  0.00  0.00     0.041 C 
ATOM     25  C   LIG d   1       4.045   0.816 -11.217  0.00  0.00    -0.001 C 
ATOM     26  H   LIG d   1       5.564   0.062  -9.864  0.00  0.00     0.056 H 
ATOM     27  C   LIG d   1       2.832  -0.133 -11.029  0.00  0.00     0.073 C 
ATOM     28  H   LIG d   1       4.709   0.445 -11.998  0.00  0.00     0.031 H 
ATOM     29  H   LIG d   1       3.710   1.829 -11.444  0.00  0.00     0.031 H 
ATOM     30  H   LIG d   1       2.018   0.134 -11.702  0.00  0.00     0.061 H 
ATOM     31  H   LIG d   1       1.915  -0.712  -9.135  0.00  0.00     0.049 H 
ATOM     32  H   LIG d   1       1.837   1.043  -9.483  0.00  0.00     0.049 H 
BRANCH  23  33
ATOM     33  C   LIG d   1       5.247   2.143  -9.475  0.00  0.00     0.062 C 
ATOM     34  O   LIG d   1       6.435   2.344  -9.389  0.00  0.00    -0.548 OA
ATOM     35  O   LIG d   1       4.379   3.142  -9.245  0.00  0.00    -0.548 OA
ENDBRANCH  23  33
BRANCH  27  36
ATOM     36  O   LIG d   1       3.216  -1.498 -11.212  0.00  0.00    -0.390 OA
ATOM     37  H   LIG d   1       2.940  -1.874 -12.058  0.00  0.00     0.210 HD
ENDBRANCH  27  36
ENDBRANCH   1  20
TORSDOF 4
ENDMDL
MODEL 3
REMARK VINA RESULT:      -6.6      4.029      5.908
REMARK  4 active torsions:
REMARK  status: ('A' for Active; 'I' for Inactive)
REMARK    1  A    between atoms: C_7  and  C_13 
REMARK    2  A    between atoms: C_13  and  C_14 
REMARK       I    between atoms: C_14  and  N_16 
REMARK    3  A    between atoms: C_18  and  O_25 
REMARK    4  A    between atoms: C_21  and  C_23 
ROOT
ATOM      1  C   LIG d   1       5.722  -3.682  -4.732  0.00  0.00     0.069 C 
ATOM      2  H   LIG d   1       5.701  -3.782  -3.647  0.00  0.00     0.042 H 
ATOM      3  H   LIG d   1       6.753  -3.580  -5.068  0.00  0.00     0.042 H 
ENDROOT
BRANCH   1   4
ATOM      4  C   LIG d   1       4.938  -2.459  -5.138  0.00  0.00     0.078 A 
ATOM      5  C   LIG d   1       4.507  -1.498  -4.123  0.00  0.00     0.011 A 
ATOM      6  C   LIG d   1       3.775  -0.362  -4.537  0.00  0.00     0.050 A 
ATOM      7  C   LIG d   1       4.799  -1.674  -2.770  0.00  0.00    -0.052 A 
ATOM      8  C   LIG d   1       3.351   0.571  -3.590  0.00  0.00    -0.049 A 
ATOM      9  C   LIG d   1       3.484  -0.206  -5.968  0.00  0.00     0.273 A 
ATOM     10  C   LIG d   1       3.655   0.370  -2.262  0.00  0.00    -0.061 A 
ATOM     11  H   LIG d   1       2.792   1.442  -3.898  0.00  0.00     0.062 H 
ATOM     12  C   LIG d   1       4.374  -0.747  -1.859  0.00  0.00    -0.061 A 
ATOM     13  H   LIG d   1       3.329   1.091  -1.526  0.00  0.00     0.062 H 
ATOM     14  H   LIG d   1       4.601  -0.886  -0.812  0.00  0.00     0.062 H 
ATOM     15  N   LIG d   1       3.926  -1.148  -6.826  0.00  0.00    -0.242 N 
ATOM     16  O   LIG d   1       2.857   0.757  -6.373  0.00  0.00    -0.266 OA
ATOM     17  N   LIG d   1       4.652  -2.256  -6.389  0.00  0.00    -0.175 NA
ATOM     18  H   LIG d   1       3.737  -1.051  -7.772  0.00  0.00     0.192 HD
ATOM     19  H   LIG d   1       5.358  -2.538  -2.442  0.00  0.00     0.062 H 
ENDBRANCH   1   4
BRANCH   1  20
ATOM     20  C   LIG d   1       5.106  -4.904  -5.362  0.00  0.00     0.222 C 
ATOM     21  O   LIG d   1       4.036  -5.317  -4.966  0.00  0.00    -0.275 OA
ATOM     22  N   LIG d   1       5.747  -5.544  -6.361  0.00  0.00    -0.290 N 
ATOM     23  C   LIG d   1       5.267  -6.749  -7.053  0.00  0.00     0.068 C 
ATOM     24  C   LIG d   1       7.048  -5.154  -6.935  0.00  0.00     0.041 C 
ATOM     25  C   LIG d   1       6.310  -7.101  -8.134  0.00  0.00    -0.001 C 
ATOM     26  H   LIG d   1       4.304  -6.549  -7.521  0.00  0.00     0.056 H 
ATOM     27  C   LIG d   1       7.046  -5.753  -8.363  0.00  0.00     0.073 C 
ATOM     28  H   LIG d   1       5.823  -7.435  -9.050  0.00  0.00     0.031 H 
ATOM     29  H   LIG d   1       7.002  -7.859  -7.765  0.00  0.00     0.031 H 
ATOM     30  H   LIG d   1       8.062  -5.918  -8.719  0.00  0.00     0.061 H 
ATOM     31  H   LIG d   1       7.132  -4.068  -6.980  0.00  0.00     0.049 H 
ATOM     32  H   LIG d   1       7.863  -5.575  -6.347  0.00  0.00     0.049 H 
BRANCH  23  33
ATOM     33  C   LIG d   1       5.138  -7.885  -6.072  0.00  0.00     0.062 C 
ATOM     34  O   LIG d   1       4.146  -8.574  -6.071  0.00  0.00    -0.548 OA
ATOM     35  O   LIG d   1       6.127  -8.133  -5.197  0.00  0.00    -0.548 OA
ENDBRANCH  23  33
BRANCH  27  36
ATOM     36  O   LIG d   1       6.318  -4.920  -9.268  0.00  0.00    -0.390 OA
ATOM     37  H   LIG d   1       5.760  -4.262  -8.834  0.00  0.00     0.210 HD
ENDBRANCH  27  36
ENDBRANCH   1  20
TORSDOF 4
ENDMDL
MODEL 4
REMARK VINA RESULT:      -6.4      3.142      5.412
REMARK  4 active torsions:
REMARK  status: ('A' for Active; 'I' for Inactive)
REMARK    1  A    between atoms: C_7  and  C_13 
REMARK    2  A    between atoms: C_13  and  C_14 
REMARK       I    between atoms: C_14  and  N_16 
REMARK    3  A    between atoms: C_18  and  O_25 
REMARK    4  A    between atoms: C_21  and  C_23 
ROOT
ATOM      1  C   LIG d   1       7.139  -0.490  -5.471  0.00  0.00     0.069 C 
ATOM      2  H   LIG d   1       7.396  -1.245  -4.727  0.00  0.00     0.042 H 
ATOM      3  H   LIG d   1       7.433  -0.839  -6.460  0.00  0.00     0.042 H 
ENDROOT
BRANCH   1   4
ATOM      4  C   LIG d   1       7.866   0.793  -5.155  0.00  0.00     0.078 A 
ATOM      5  C   LIG d   1       8.396   1.619  -6.240  0.00  0.00     0.011 A 
ATOM      6  C   LIG d   1       9.071   2.816  -5.909  0.00  0.00     0.050 A 
ATOM      7  C   LIG d   1       8.252   1.257  -7.580  0.00  0.00    -0.052 A 
ATOM      8  C   LIG d   1       9.586   3.623  -6.923  0.00  0.00    -0.049 A 
ATOM      9  C   LIG d   1       9.205   3.169  -4.490  0.00  0.00     0.273 A 
ATOM     10  C   LIG d   1       9.428   3.240  -8.237  0.00  0.00    -0.061 A 
ATOM     11  H   LIG d   1      10.103   4.539  -6.680  0.00  0.00     0.062 H 
ATOM     12  C   LIG d   1       8.766   2.064  -8.558  0.00  0.00    -0.061 A 
ATOM     13  H   LIG d   1       9.826   3.863  -9.025  0.00  0.00     0.062 H 
ATOM     14  H   LIG d   1       8.653   1.780  -9.594  0.00  0.00     0.062 H 
ATOM     15  N   LIG d   1       8.681   2.340  -3.563  0.00  0.00    -0.242 N 
ATOM     16  O   LIG d   1       9.778   4.191  -4.156  0.00  0.00    -0.266 OA
ATOM     17  N   LIG d   1       8.015   1.168  -3.920  0.00  0.00    -0.175 NA
ATOM     18  H   LIG d   1       8.767   2.567  -2.624  0.00  0.00     0.192 HD
ATOM     19  H   LIG d   1       7.738   0.345  -7.844  0.00  0.00     0.062 H 
ENDBRANCH   1   4
BRANCH   1  20
ATOM     20  C   LIG d   1       5.653  -0.245  -5.445  0.00  0.00     0.222 C 
ATOM     21  O   LIG d   1       5.113   0.310  -6.380  0.00  0.00    -0.275 OA
ATOM     22  N   LIG d   1       4.924  -0.636  -4.381  0.00  0.00    -0.290 N 
ATOM     23  C   LIG d   1       3.474  -0.450  -4.221  0.00  0.00     0.068 C 
ATOM     24  C   LIG d   1       5.449  -1.316  -3.183  0.00  0.00     0.041 C 
ATOM     25  C   LIG d   1       3.079  -1.078  -2.868  0.00  0.00    -0.001 C 
ATOM     26  H   LIG d   1       2.944  -0.952  -5.030  0.00  0.00     0.056 H 
ATOM     27  C   LIG d   1       4.236  -2.077  -2.595  0.00  0.00     0.073 C 
ATOM     28  H   LIG d   1       2.127  -1.602  -2.947  0.00  0.00     0.031 H 
ATOM     29  H   LIG d   1       3.038  -0.315  -2.090  0.00  0.00     0.031 H 
ATOM     30  H   LIG d   1       4.361  -2.247  -1.526  0.00  0.00     0.061 H 
ATOM     31  H   LIG d   1       6.238  -2.016  -3.459  0.00  0.00     0.049 H 
ATOM     32  H   LIG d   1       5.823  -0.584  -2.466  0.00  0.00     0.049 H 
BRANCH  23  33
ATOM     33  C   LIG d   1       3.144   1.020  -4.222  0.00  0.00     0.062 C 
ATOM     34  O   LIG d   1       2.413   1.475  -5.069  0.00  0.00    -0.548 OA
ATOM     35  O   LIG d   1       3.663   1.826  -3.281  0.00  0.00    -0.548 OA
ENDBRANCH  23  33
BRANCH  27  36
ATOM     36  O   LIG d   1       4.021  -3.310  -3.285  0.00  0.00    -0.390 OA
ATOM     37  H   LIG d   1       4.580  -4.036  -2.976  0.00  0.00     0.210 HD
ENDBRANCH  27  36
ENDBRANCH   1  20
TORSDOF 4
ENDMDL
MODEL 5
REMARK VINA RESULT:      -6.4      2.134      6.462
REMARK  4 active torsions:
REMARK  status: ('A' for Active; 'I' for Inactive)
REMARK    1  A    between atoms: C_7  and  C_13 
REMARK    2  A    between atoms: C_13  and  C_14 
REMARK       I    between atoms: C_14  and  N_16 
REMARK    3  A    between atoms: C_18  and  O_25 
REMARK    4  A    between atoms: C_21  and  C_23 
ROOT
ATOM      1  C   LIG d   1       5.276  -0.772  -7.071  0.00  0.00     0.069 C 
ATOM      2  H   LIG d   1       5.644   0.043  -7.695  0.00  0.00     0.042 H 
ATOM      3  H   LIG d   1       6.118  -1.334  -6.671  0.00  0.00     0.042 H 
ENDROOT
BRANCH   1   4
ATOM      4  C   LIG d   1       4.410  -1.686  -7.900  0.00  0.00     0.078 A 
ATOM      5  C   LIG d   1       3.877  -1.223  -9.181  0.00  0.00     0.011 A 
ATOM      6  C   LIG d   1       3.069  -2.106  -9.935  0.00  0.00     0.050 A 
ATOM      7  C   LIG d   1       4.143   0.056  -9.672  0.00  0.00    -0.052 A 
ATOM      8  C   LIG d   1       2.548  -1.690 -11.160  0.00  0.00    -0.049 A 
ATOM      9  C   LIG d   1       2.808  -3.444  -9.391  0.00  0.00     0.273 A 
ATOM     10  C   LIG d   1       2.829  -0.423 -11.619  0.00  0.00    -0.061 A 
ATOM     11  H   LIG d   1       1.930  -2.358 -11.743  0.00  0.00     0.062 H 
ATOM     12  C   LIG d   1       3.621   0.441 -10.876  0.00  0.00    -0.061 A 
ATOM     13  H   LIG d   1       2.427  -0.098 -12.568  0.00  0.00     0.062 H 
ATOM     14  H   LIG d   1       3.830   1.432 -11.253  0.00  0.00     0.062 H 
ATOM     15  N   LIG d   1       3.346  -3.777  -8.200  0.00  0.00    -0.242 N 
ATOM     16  O   LIG d   1       2.118  -4.240 -10.005  0.00  0.00    -0.266 OA
ATOM     17  N   LIG d   1       4.144  -2.887  -7.481  0.00  0.00    -0.175 NA
ATOM     18  H   LIG d   1       3.177  -4.659  -7.834  0.00  0.00     0.192 HD
ATOM     19  H   LIG d   1       4.759   0.738  -9.105  0.00  0.00     0.062 H 
ENDBRANCH   1   4
BRANCH   1  20
ATOM     20  C   LIG d   1       4.464  -0.207  -5.935  0.00  0.00     0.222 C 
ATOM     21  O   LIG d   1       3.646   0.664  -6.147  0.00  0.00    -0.275 OA
ATOM     22  N   LIG d   1       4.650  -0.664  -4.680  0.00  0.00    -0.290 N 
ATOM     23  C   LIG d   1       3.937  -0.195  -3.482  0.00  0.00     0.068 C 
ATOM     24  C   LIG d   1       5.606  -1.713  -4.281  0.00  0.00     0.041 C 
ATOM     25  C   LIG d   1       4.457  -1.022  -2.288  0.00  0.00    -0.001 C 
ATOM     26  H   LIG d   1       2.866  -0.354  -3.603  0.00  0.00     0.056 H 
ATOM     27  C   LIG d   1       5.032  -2.294  -2.966  0.00  0.00     0.073 C 
ATOM     28  H   LIG d   1       3.643  -1.280  -1.610  0.00  0.00     0.031 H 
ATOM     29  H   LIG d   1       5.242  -0.479  -1.760  0.00  0.00     0.031 H 
ATOM     30  H   LIG d   1       5.818  -2.740  -2.359  0.00  0.00     0.061 H 
ATOM     31  H   LIG d   1       5.660  -2.488  -5.047  0.00  0.00     0.049 H 
ATOM     32  H   LIG d   1       6.592  -1.281  -4.107  0.00  0.00     0.049 H 
BRANCH  23  33
ATOM     33  C   LIG d   1       4.220   1.267  -3.259  0.00  0.00     0.062 C 
ATOM     34  O   LIG d   1       3.332   2.079  -3.365  0.00  0.00    -0.548 OA
ATOM     35  O   LIG d   1       5.462   1.670  -2.941  0.00  0.00    -0.548 OA
ENDBRANCH  23  33
BRANCH  27  36
ATOM     36  O   LIG d   1       3.997  -3.244  -3.235  0.00  0.00    -0.390 OA
ATOM     37  H   LIG d   1       3.424  -3.002  -3.974  0.00  0.00     0.210 HD
ENDBRANCH  27  36
ENDBRANCH   1  20
TORSDOF 4
ENDMDL
MODEL 6
REMARK VINA RESULT:      -6.3      1.687      2.639
REMARK  4 active torsions:
REMARK  status: ('A' for Active; 'I' for Inactive)
REMARK    1  A    between atoms: C_7  and  C_13 
REMARK    2  A    between atoms: C_13  and  C_14 
REMARK       I    between atoms: C_14  and  N_16 
REMARK    3  A    between atoms: C_18  and  O_25 
REMARK    4  A    between atoms: C_21  and  C_23 
ROOT
ATOM      1  C   LIG d   1       4.988  -1.812  -6.868  0.00  0.00     0.069 C 
ATOM      2  H   LIG d   1       4.484  -2.642  -6.371  0.00  0.00     0.042 H 
ATOM      3  H   LIG d   1       5.803  -2.196  -7.480  0.00  0.00     0.042 H 
ENDROOT
BRANCH   1   4
ATOM      4  C   LIG d   1       5.539  -0.867  -5.831  0.00  0.00     0.078 A 
ATOM      5  C   LIG d   1       5.081  -0.955  -4.445  0.00  0.00     0.011 A 
ATOM      6  C   LIG d   1       5.619  -0.054  -3.498  0.00  0.00     0.050 A 
ATOM      7  C   LIG d   1       4.135  -1.897  -4.040  0.00  0.00    -0.052 A 
ATOM      8  C   LIG d   1       5.199  -0.116  -2.169  0.00  0.00    -0.049 A 
ATOM      9  C   LIG d   1       6.612   0.925  -3.956  0.00  0.00     0.273 A 
ATOM     10  C   LIG d   1       4.265  -1.057  -1.799  0.00  0.00    -0.061 A 
ATOM     11  H   LIG d   1       5.605   0.568  -1.438  0.00  0.00     0.062 H 
ATOM     12  C   LIG d   1       3.738  -1.939  -2.732  0.00  0.00    -0.061 A 
ATOM     13  H   LIG d   1       3.938  -1.108  -0.770  0.00  0.00     0.062 H 
ATOM     14  H   LIG d   1       3.006  -2.670  -2.421  0.00  0.00     0.062 H 
ATOM     15  N   LIG d   1       6.970   0.925  -5.256  0.00  0.00    -0.242 N 
ATOM     16  O   LIG d   1       7.105   1.722  -3.176  0.00  0.00    -0.266 OA
ATOM     17  N   LIG d   1       6.427   0.021  -6.168  0.00  0.00    -0.175 NA
ATOM     18  H   LIG d   1       7.626   1.571  -5.566  0.00  0.00     0.192 HD
ATOM     19  H   LIG d   1       3.717  -2.590  -4.755  0.00  0.00     0.062 H 
ENDBRANCH   1   4
BRANCH   1  20
ATOM     20  C   LIG d   1       4.004  -1.079  -7.743  0.00  0.00     0.222 C 
ATOM     21  O   LIG d   1       2.891  -0.832  -7.330  0.00  0.00    -0.275 OA
ATOM     22  N   LIG d   1       4.359  -0.703  -8.988  0.00  0.00    -0.290 N 
ATOM     23  C   LIG d   1       3.498   0.005  -9.948  0.00  0.00     0.068 C 
ATOM     24  C   LIG d   1       5.672  -0.940  -9.616  0.00  0.00     0.041 C 
ATOM     25  C   LIG d   1       4.336   0.248 -11.221  0.00  0.00    -0.001 C 
ATOM     26  H   LIG d   1       3.181   0.959  -9.527  0.00  0.00     0.056 H 
ATOM     27  C   LIG d   1       5.796   0.157 -10.702  0.00  0.00     0.073 C 
ATOM     28  H   LIG d   1       4.134   1.235 -11.635  0.00  0.00     0.031 H 
ATOM     29  H   LIG d   1       4.141  -0.529 -11.960  0.00  0.00     0.031 H 
ATOM     30  H   LIG d   1       6.475  -0.154 -11.495  0.00  0.00     0.061 H 
ATOM     31  H   LIG d   1       6.469  -0.835  -8.878  0.00  0.00     0.049 H 
ATOM     32  H   LIG d   1       5.702  -1.930 -10.070  0.00  0.00     0.049 H 
BRANCH  23  33
ATOM     33  C   LIG d   1       2.295  -0.840 -10.276  0.00  0.00     0.062 C 
ATOM     34  O   LIG d   1       1.183  -0.412 -10.079  0.00  0.00    -0.548 OA
ATOM     35  O   LIG d   1       2.459  -2.072 -10.788  0.00  0.00    -0.548 OA
ENDBRANCH  23  33
BRANCH  27  36
ATOM     36  O   LIG d   1       6.215   1.399 -10.131  0.00  0.00    -0.390 OA
ATOM     37  H   LIG d   1       5.699   2.161 -10.425  0.00  0.00     0.210 HD
ENDBRANCH  27  36
ENDBRANCH   1  20
TORSDOF 4
ENDMDL
MODEL 7
REMARK VINA RESULT:      -6.2      3.373      4.420
REMARK  4 active torsions:
REMARK  status: ('A' for Active; 'I' for Inactive)
REMARK    1  A    between atoms: C_7  and  C_13 
REMARK    2  A    between atoms: C_13  and  C_14 
REMARK       I    between atoms: C_14  and  N_16 
REMARK    3  A    between atoms: C_18  and  O_25 
REMARK    4  A    between atoms: C_21  and  C_23 
ROOT
ATOM      1  C   LIG d   1       5.640  -3.164  -4.379  0.00  0.00     0.069 C 
ATOM      2  H   LIG d   1       4.761  -3.349  -3.761  0.00  0.00     0.042 H 
ATOM      3  H   LIG d   1       6.409  -3.899  -4.147  0.00  0.00     0.042 H 
ENDROOT
BRANCH   1   4
ATOM      4  C   LIG d   1       6.166  -1.779  -4.100  0.00  0.00     0.078 A 
ATOM      5  C   LIG d   1       5.301  -0.782  -3.469  0.00  0.00     0.011 A 
ATOM      6  C   LIG d   1       5.826   0.507  -3.221  0.00  0.00     0.050 A 
ATOM      7  C   LIG d   1       3.983  -1.071  -3.111  0.00  0.00    -0.052 A 
ATOM      8  C   LIG d   1       5.023   1.476  -2.620  0.00  0.00    -0.049 A 
ATOM      9  C   LIG d   1       7.215   0.778  -3.610  0.00  0.00     0.273 A 
ATOM     10  C   LIG d   1       3.727   1.162  -2.277  0.00  0.00    -0.061 A 
ATOM     11  H   LIG d   1       5.415   2.464  -2.426  0.00  0.00     0.062 H 
ATOM     12  C   LIG d   1       3.215  -0.104  -2.523  0.00  0.00    -0.061 A 
ATOM     13  H   LIG d   1       3.102   1.911  -1.811  0.00  0.00     0.062 H 
ATOM     14  H   LIG d   1       2.195  -0.331  -2.247  0.00  0.00     0.062 H 
ATOM     15  N   LIG d   1       7.932  -0.209  -4.185  0.00  0.00    -0.242 N 
ATOM     16  O   LIG d   1       7.712   1.874  -3.415  0.00  0.00    -0.266 OA
ATOM     17  N   LIG d   1       7.390  -1.473  -4.414  0.00  0.00    -0.175 NA
ATOM     18  H   LIG d   1       8.851  -0.036  -4.446  0.00  0.00     0.192 HD
ATOM     19  H   LIG d   1       3.572  -2.052  -3.296  0.00  0.00     0.062 H 
ENDBRANCH   1   4
BRANCH   1  20
ATOM     20  C   LIG d   1       5.263  -3.274  -5.834  0.00  0.00     0.222 C 
ATOM     21  O   LIG d   1       4.538  -2.442  -6.338  0.00  0.00    -0.275 OA
ATOM     22  N   LIG d   1       5.727  -4.301  -6.574  0.00  0.00    -0.290 N 
ATOM     23  C   LIG d   1       5.430  -4.535  -7.995  0.00  0.00     0.068 C 
ATOM     24  C   LIG d   1       6.611  -5.378  -6.092  0.00  0.00     0.041 C 
ATOM     25  C   LIG d   1       6.198  -5.804  -8.420  0.00  0.00    -0.001 C 
ATOM     26  H   LIG d   1       5.765  -3.685  -8.589  0.00  0.00     0.056 H 
ATOM     27  C   LIG d   1       7.329  -5.900  -7.360  0.00  0.00     0.073 C 
ATOM     28  H   LIG d   1       6.616  -5.689  -9.421  0.00  0.00     0.031 H 
ATOM     29  H   LIG d   1       5.549  -6.678  -8.371  0.00  0.00     0.031 H 
ATOM     30  H   LIG d   1       7.655  -6.931  -7.229  0.00  0.00     0.061 H 
ATOM     31  H   LIG d   1       7.337  -4.983  -5.381  0.00  0.00     0.049 H 
ATOM     32  H   LIG d   1       6.023  -6.174  -5.634  0.00  0.00     0.049 H 
BRANCH  23  33
ATOM     33  C   LIG d   1       3.950  -4.742  -8.182  0.00  0.00     0.062 C 
ATOM     34  O   LIG d   1       3.335  -4.052  -8.959  0.00  0.00    -0.548 OA
ATOM     35  O   LIG d   1       3.312  -5.695  -7.482  0.00  0.00    -0.548 OA
ENDBRANCH  23  33
BRANCH  27  36
ATOM     36  O   LIG d   1       8.430  -5.058  -7.709  0.00  0.00    -0.390 OA
ATOM     37  H   LIG d   1       9.238  -5.540  -7.932  0.00  0.00     0.210 HD
ENDBRANCH  27  36
ENDBRANCH   1  20
TORSDOF 4
ENDMDL
MODEL 8
REMARK VINA RESULT:      -6.2      3.018      3.716
REMARK  4 active torsions:
REMARK  status: ('A' for Active; 'I' for Inactive)
REMARK    1  A    between atoms: C_7  and  C_13 
REMARK    2  A    between atoms: C_13  and  C_14 
REMARK       I    between atoms: C_14  and  N_16 
REMARK    3  A    between atoms: C_18  and  O_25 
REMARK    4  A    between atoms: C_21  and  C_23 
ROOT
ATOM      1  C   LIG d   1       6.990  -3.444  -4.543  0.00  0.00     0.069 C 
ATOM      2  H   LIG d   1       6.044  -3.822  -4.156  0.00  0.00     0.042 H 
ATOM      3  H   LIG d   1       7.815  -3.980  -4.077  0.00  0.00     0.042 H 
ENDROOT
BRANCH   1   4
ATOM      4  C   LIG d   1       7.107  -1.973  -4.232  0.00  0.00     0.078 A 
ATOM      5  C   LIG d   1       6.072  -1.309  -3.440  0.00  0.00     0.011 A 
ATOM      6  C   LIG d   1       6.212   0.070  -3.166  0.00  0.00     0.050 A 
ATOM      7  C   LIG d   1       4.960  -1.999  -2.954  0.00  0.00    -0.052 A 
ATOM      8  C   LIG d   1       5.239   0.728  -2.413  0.00  0.00    -0.049 A 
ATOM      9  C   LIG d   1       7.393   0.767  -3.692  0.00  0.00     0.273 A 
ATOM     10  C   LIG d   1       4.154   0.021  -1.946  0.00  0.00    -0.061 A 
ATOM     11  H   LIG d   1       5.338   1.782  -2.198  0.00  0.00     0.062 H 
ATOM     12  C   LIG d   1       4.019  -1.333  -2.218  0.00  0.00    -0.061 A 
ATOM     13  H   LIG d   1       3.398   0.527  -1.362  0.00  0.00     0.062 H 
ATOM     14  H   LIG d   1       3.160  -1.870  -1.843  0.00  0.00     0.062 H 
ATOM     15  N   LIG d   1       8.292   0.065  -4.411  0.00  0.00    -0.242 N 
ATOM     16  O   LIG d   1       7.557   1.956  -3.480  0.00  0.00    -0.266 OA
ATOM     17  N   LIG d   1       8.130  -1.297  -4.662  0.00  0.00    -0.175 NA
ATOM     18  H   LIG d   1       9.074   0.520  -4.762  0.00  0.00     0.192 HD
ATOM     19  H   LIG d   1       4.843  -3.053  -3.158  0.00  0.00     0.062 H 
ENDBRANCH   1   4
BRANCH   1  20
ATOM     20  C   LIG d   1       7.039  -3.646  -6.035  0.00  0.00     0.222 C 
ATOM     21  O   LIG d   1       8.102  -3.604  -6.619  0.00  0.00    -0.275 OA
ATOM     22  N   LIG d   1       5.901  -3.869  -6.723  0.00  0.00    -0.290 N 
ATOM     23  C   LIG d   1       5.804  -4.071  -8.176  0.00  0.00     0.068 C 
ATOM     24  C   LIG d   1       4.548  -3.944  -6.143  0.00  0.00     0.041 C 
ATOM     25  C   LIG d   1       4.316  -4.317  -8.505  0.00  0.00    -0.001 C 
ATOM     26  H   LIG d   1       6.395  -4.938  -8.471  0.00  0.00     0.056 H 
ATOM     27  C   LIG d   1       3.732  -4.793  -7.148  0.00  0.00     0.073 C 
ATOM     28  H   LIG d   1       4.210  -5.092  -9.265  0.00  0.00     0.031 H 
ATOM     29  H   LIG d   1       3.838  -3.392  -8.827  0.00  0.00     0.031 H 
ATOM     30  H   LIG d   1       2.669  -4.567  -7.079  0.00  0.00     0.061 H 
ATOM     31  H   LIG d   1       4.579  -4.434  -5.170  0.00  0.00     0.049 H 
ATOM     32  H   LIG d   1       4.118  -2.946  -6.053  0.00  0.00     0.049 H 
BRANCH  23  33
ATOM     33  C   LIG d   1       6.294  -2.843  -8.898  0.00  0.00     0.062 C 
ATOM     34  O   LIG d   1       5.767  -1.774  -8.701  0.00  0.00    -0.548 OA
ATOM     35  O   LIG d   1       7.319  -2.936  -9.761  0.00  0.00    -0.548 OA
ENDBRANCH  23  33
BRANCH  27  36
ATOM     36  O   LIG d   1       3.969  -6.189  -6.950  0.00  0.00    -0.390 OA
ATOM     37  H   LIG d   1       3.464  -6.574  -6.221  0.00  0.00     0.210 HD
ENDBRANCH  27  36
ENDBRANCH   1  20
TORSDOF 4
ENDMDL
MODEL 9
REMARK VINA RESULT:      -6.1      4.574      6.437
REMARK  4 active torsions:
REMARK  status: ('A' for Active; 'I' for Inactive)
REMARK    1  A    between atoms: C_7  and  C_13 
REMARK    2  A    between atoms: C_13  and  C_14 
REMARK       I    between atoms: C_14  and  N_16 
REMARK    3  A    between atoms: C_18  and  O_25 
REMARK    4  A    between atoms: C_21  and  C_23 
ROOT
ATOM      1  C   LIG d   1       7.733   2.418  -4.139  0.00  0.00     0.069 C 
ATOM      2  H   LIG d   1       7.085   2.912  -3.413  0.00  0.00     0.042 H 
ATOM      3  H   LIG d   1       7.470   2.746  -5.143  0.00  0.00     0.042 H 
ENDROOT
BRANCH   1   4
ATOM      4  C   LIG d   1       7.557   0.925  -4.035  0.00  0.00     0.078 A 
ATOM      5  C   LIG d   1       6.416   0.373  -3.303  0.00  0.00     0.011 A 
ATOM      6  C   LIG d   1       6.280  -1.032  -3.225  0.00  0.00     0.050 A 
ATOM      7  C   LIG d   1       5.469   1.192  -2.687  0.00  0.00    -0.052 A 
ATOM      8  C   LIG d   1       5.202  -1.585  -2.534  0.00  0.00    -0.049 A 
ATOM      9  C   LIG d   1       7.293  -1.866  -3.884  0.00  0.00     0.273 A 
ATOM     10  C   LIG d   1       4.283  -0.751  -1.937  0.00  0.00    -0.061 A 
ATOM     11  H   LIG d   1       5.090  -2.657  -2.470  0.00  0.00     0.062 H 
ATOM     12  C   LIG d   1       4.421   0.628  -2.015  0.00  0.00    -0.061 A 
ATOM     13  H   LIG d   1       3.446  -1.176  -1.401  0.00  0.00     0.062 H 
ATOM     14  H   LIG d   1       3.689   1.265  -1.539  0.00  0.00     0.062 H 
ATOM     15  N   LIG d   1       8.308  -1.261  -4.535  0.00  0.00    -0.242 N 
ATOM     16  O   LIG d   1       7.217  -3.082  -3.845  0.00  0.00    -0.266 OA
ATOM     17  N   LIG d   1       8.414   0.128  -4.600  0.00  0.00    -0.175 NA
ATOM     18  H   LIG d   1       8.981  -1.806  -4.972  0.00  0.00     0.192 HD
ATOM     19  H   LIG d   1       5.564   2.267  -2.740  0.00  0.00     0.062 H 
ENDBRANCH   1   4
BRANCH   1  20
ATOM     20  C   LIG d   1       9.169   2.775  -3.854  0.00  0.00     0.222 C 
ATOM     21  O   LIG d   1       9.616   2.644  -2.734  0.00  0.00    -0.275 OA
ATOM     22  N   LIG d   1       9.955   3.247  -4.842  0.00  0.00    -0.290 N 
ATOM     23  C   LIG d   1      11.364   3.643  -4.701  0.00  0.00     0.068 C 
ATOM     24  C   LIG d   1       9.543   3.457  -6.242  0.00  0.00     0.041 C 
ATOM     25  C   LIG d   1      11.856   4.088  -6.094  0.00  0.00    -0.001 C 
ATOM     26  H   LIG d   1      11.955   2.795  -4.355  0.00  0.00     0.056 H 
ATOM     27  C   LIG d   1      10.858   3.392  -7.057  0.00  0.00     0.073 C 
ATOM     28  H   LIG d   1      12.874   3.742  -6.275  0.00  0.00     0.031 H 
ATOM     29  H   LIG d   1      11.794   5.172  -6.192  0.00  0.00     0.031 H 
ATOM     30  H   LIG d   1      10.766   3.944  -7.992  0.00  0.00     0.061 H 
ATOM     31  H   LIG d   1       8.861   2.668  -6.559  0.00  0.00     0.049 H 
ATOM     32  H   LIG d   1       9.073   4.434  -6.356  0.00  0.00     0.049 H 
BRANCH  23  33
ATOM     33  C   LIG d   1      11.480   4.784  -3.724  0.00  0.00     0.062 C 
ATOM     34  O   LIG d   1      10.890   5.818  -3.930  0.00  0.00    -0.548 OA
ATOM     35  O   LIG d   1      12.240   4.653  -2.625  0.00  0.00    -0.548 OA
ENDBRANCH  23  33
BRANCH  27  36
ATOM     36  O   LIG d   1      11.242   2.037  -7.301  0.00  0.00    -0.390 OA
ATOM     37  H   LIG d   1      11.687   1.901  -8.148  0.00  0.00     0.210 HD
ENDBRANCH  27  36
ENDBRANCH   1  20
TORSDOF 4
ENDMDL
MODEL 10
REMARK VINA RESULT:      -6.1      2.333      6.135
REMARK  4 active torsions:
REMARK  status: ('A' for Active; 'I' for Inactive)
REMARK    1  A    between atoms: C_7  and  C_13 
REMARK    2  A    between atoms: C_13  and  C_14 
REMARK       I    between atoms: C_14  and  N_16 
REMARK    3  A    between atoms: C_18  and  O_25 
REMARK    4  A    between atoms: C_21  and  C_23 
ROOT
ATOM      1  C   LIG d   1       4.655  -0.200  -7.250  0.00  0.00     0.069 C 
ATOM      2  H   LIG d   1       5.119   0.745  -7.534  0.00  0.00     0.042 H 
ATOM      3  H   LIG d   1       5.418  -0.973  -7.179  0.00  0.00     0.042 H 
ENDROOT
BRANCH   1   4
ATOM      4  C   LIG d   1       3.638  -0.592  -8.293  0.00  0.00     0.078 A 
ATOM      5  C   LIG d   1       3.436  -2.003  -8.623  0.00  0.00     0.011 A 
ATOM      6  C   LIG d   1       2.475  -2.336  -9.604  0.00  0.00     0.050 A 
ATOM      7  C   LIG d   1       4.162  -3.017  -7.997  0.00  0.00    -0.052 A 
ATOM      8  C   LIG d   1       2.262  -3.673  -9.938  0.00  0.00    -0.049 A 
ATOM      9  C   LIG d   1       1.728  -1.245 -10.244  0.00  0.00     0.273 A 
ATOM     10  C   LIG d   1       2.993  -4.652  -9.304  0.00  0.00    -0.061 A 
ATOM     11  H   LIG d   1       1.529  -3.937 -10.687  0.00  0.00     0.062 H 
ATOM     12  C   LIG d   1       3.937  -4.322  -8.341  0.00  0.00    -0.061 A 
ATOM     13  H   LIG d   1       2.831  -5.690  -9.559  0.00  0.00     0.062 H 
ATOM     14  H   LIG d   1       4.500  -5.105  -7.855  0.00  0.00     0.062 H 
ATOM     15  N   LIG d   1       1.987   0.025  -9.869  0.00  0.00    -0.242 N 
ATOM     16  O   LIG d   1       0.889  -1.483 -11.095  0.00  0.00    -0.266 OA
ATOM     17  N   LIG d   1       2.938   0.323  -8.894  0.00  0.00    -0.175 NA
ATOM     18  H   LIG d   1       1.497   0.750 -10.288  0.00  0.00     0.192 HD
ATOM     19  H   LIG d   1       4.899  -2.774  -7.246  0.00  0.00     0.062 H 
ENDBRANCH   1   4
BRANCH   1  20
ATOM     20  C   LIG d   1       3.971  -0.044  -5.917  0.00  0.00     0.222 C 
ATOM     21  O   LIG d   1       3.044   0.730  -5.797  0.00  0.00    -0.275 OA
ATOM     22  N   LIG d   1       4.393  -0.760  -4.855  0.00  0.00    -0.290 N 
ATOM     23  C   LIG d   1       3.826  -0.697  -3.500  0.00  0.00     0.068 C 
ATOM     24  C   LIG d   1       5.503  -1.730  -4.859  0.00  0.00     0.041 C 
ATOM     25  C   LIG d   1       4.605  -1.706  -2.631  0.00  0.00    -0.001 C 
ATOM     26  H   LIG d   1       2.771  -0.969  -3.526  0.00  0.00     0.056 H 
ATOM     27  C   LIG d   1       5.199  -2.685  -3.679  0.00  0.00     0.073 C 
ATOM     28  H   LIG d   1       3.935  -2.230  -1.949  0.00  0.00     0.031 H 
ATOM     29  H   LIG d   1       5.400  -1.203  -2.080  0.00  0.00     0.031 H 
ATOM     30  H   LIG d   1       6.111  -3.150  -3.307  0.00  0.00     0.061 H 
ATOM     31  H   LIG d   1       5.520  -2.282  -5.799  0.00  0.00     0.049 H 
ATOM     32  H   LIG d   1       6.453  -1.220  -4.700  0.00  0.00     0.049 H 
BRANCH  23  33
ATOM     33  C   LIG d   1       3.986   0.694  -2.942  0.00  0.00     0.062 C 
ATOM     34  O   LIG d   1       3.120   1.171  -2.248  0.00  0.00    -0.548 OA
ATOM     35  O   LIG d   1       5.092   1.404  -3.218  0.00  0.00    -0.548 OA
ENDBRANCH  23  33
BRANCH  27  36
ATOM     36  O   LIG d   1       4.240  -3.676  -4.056  0.00  0.00    -0.390 OA
ATOM     37  H   LIG d   1       3.678  -3.417  -4.798  0.00  0.00     0.210 HD
ENDBRANCH  27  36
ENDBRANCH   1  20
TORSDOF 4
ENDMDL
