MODEL 1
REMARK VINA RESULT:      -8.4      0.000      0.000
REMARK  5 active torsions:
REMARK  status: ('A' for Active; 'I' for Inactive)
REMARK    1  A    between atoms: C_5  and  C_7 
REMARK    2  A    between atoms: C_7  and  N_8 
REMARK    3  A    between atoms: C_13  and  C_30 
REMARK    4  A    between atoms: C_30  and  C_31 
REMARK    5  A    between atoms: C_31  and  C_32 
ROOT
ATOM      1  N   LIG d   1       3.862  -1.083  -6.804  0.00  0.00    -0.237 N 
ATOM      2  C   LIG d   1       4.115  -0.505  -5.625  0.00  0.00     0.232 A 
ATOM      3  O   LIG d   1       3.433   0.353  -5.105  0.00  0.00    -0.275 OA
ATOM      4  C   LIG d   1       5.382  -1.086  -5.041  0.00  0.00     0.096 A 
ATOM      5  H   LIG d   1       6.144  -0.329  -4.854  0.00  0.00     0.046 H 
ATOM      6  C   LIG d   1       5.034  -1.901  -3.777  0.00  0.00    -0.009 C 
ATOM      7  H   LIG d   1       5.893  -1.945  -3.106  0.00  0.00     0.086 H 
ATOM      8  N   LIG d   1       4.700  -3.260  -4.279  0.00  0.00     0.245 N 
ATOM      9  C   LIG d   1       5.666  -3.489  -5.370  0.00  0.00     0.106 A 
ATOM     10  C   LIG d   1       5.820  -2.133  -6.103  0.00  0.00     0.111 A 
ATOM     11  H   LIG d   1       6.829  -1.959  -6.477  0.00  0.00     0.047 H 
ATOM     12  C   LIG d   1       4.754  -2.013  -7.169  0.00  0.00     0.233 A 
ATOM     13  O   LIG d   1       4.715  -2.656  -8.195  0.00  0.00    -0.275 OA
ATOM     14  C   LIG d   1       6.986  -3.978  -4.845  0.00  0.00     0.034 A 
ATOM     15  C   LIG d   1       7.907  -3.458  -3.963  0.00  0.00    -0.051 A 
ATOM     16  C   LIG d   1       9.060  -4.165  -3.670  0.00  0.00    -0.061 A 
ATOM     17  C   LIG d   1       9.285  -5.393  -4.264  0.00  0.00    -0.060 A 
ATOM     18  C   LIG d   1       8.364  -5.918  -5.147  0.00  0.00    -0.040 A 
ATOM     19  C   LIG d   1       7.201  -5.214  -5.448  0.00  0.00     0.043 A 
ATOM     20  N   LIG d   1       6.137  -5.530  -6.296  0.00  0.00    -0.280 N 
ATOM     21  C   LIG d   1       5.193  -4.568  -6.305  0.00  0.00     0.274 A 
ATOM     22  O   LIG d   1       4.162  -4.573  -6.944  0.00  0.00    -0.269 OA
ATOM     23  H   LIG d   1       4.823  -3.946  -3.550  0.00  0.00     0.203 HD
ATOM     24  H   LIG d   1       7.730  -2.498  -3.502  0.00  0.00     0.062 H 
ATOM     25  H   LIG d   1       9.783  -3.757  -2.979  0.00  0.00     0.062 H 
ATOM     26  H   LIG d   1      10.185  -5.945  -4.034  0.00  0.00     0.062 H 
ATOM     27  H   LIG d   1       8.547  -6.878  -5.606  0.00  0.00     0.064 H 
ATOM     28  H   LIG d   1       6.083  -6.346  -6.816  0.00  0.00     0.155 HD
ATOM     29  H   LIG d   1       3.756  -3.284  -4.634  0.00  0.00     0.203 HD
ENDROOT
BRANCH   1  30
ATOM     30  C   LIG d   1       2.702  -0.733  -7.626  0.00  0.00     0.049 C 
ATOM     31  H   LIG d   1       1.926  -0.302  -6.994  0.00  0.00     0.052 H 
ATOM     32  H   LIG d   1       2.317  -1.630  -8.112  0.00  0.00     0.052 H 
BRANCH  30  33
ATOM     33  C   LIG d   1       3.112   0.268  -8.675  0.00  0.00    -0.011 A 
ATOM     34  C   LIG d   1       3.171  -0.106 -10.004  0.00  0.00     0.046 A 
ATOM     35  C   LIG d   1       3.548   0.814 -10.966  0.00  0.00    -0.043 A 
ATOM     36 CL   LIG d   1       2.772  -1.731 -10.468  0.00  0.00    -0.083 Cl
ATOM     37  C   LIG d   1       3.866   2.107 -10.597  0.00  0.00    -0.060 A 
ATOM     38  H   LIG d   1       3.594   0.522 -12.006  0.00  0.00     0.063 H 
ATOM     39  C   LIG d   1       3.806   2.481  -9.268  0.00  0.00    -0.061 A 
ATOM     40  H   LIG d   1       4.159   2.826 -11.348  0.00  0.00     0.062 H 
ATOM     41  C   LIG d   1       3.430   1.563  -8.307  0.00  0.00    -0.056 A 
ATOM     42  H   LIG d   1       4.058   3.492  -8.979  0.00  0.00     0.062 H 
ATOM     43  H   LIG d   1       3.383   1.856  -7.268  0.00  0.00     0.062 H 
ENDBRANCH  30  33
ENDBRANCH   1  30
BRANCH   6  44
ATOM     44  C   LIG d   1       3.831  -1.285  -3.061  0.00  0.00    -0.004 C 
ATOM     45  H   LIG d   1       3.361  -0.547  -3.710  0.00  0.00     0.032 H 
ATOM     46  H   LIG d   1       3.112  -2.068  -2.820  0.00  0.00     0.032 H 
BRANCH  44  47
ATOM     47  C   LIG d   1       4.298  -0.606  -1.771  0.00  0.00    -0.008 C 
ATOM     48  H   LIG d   1       3.575  -0.798  -0.978  0.00  0.00     0.033 H 
ATOM     49  H   LIG d   1       5.269  -1.006  -1.481  0.00  0.00     0.033 H 
BRANCH  47  50
ATOM     50  C   LIG d   1       4.413   0.879  -1.998  0.00  0.00     0.042 C 
ATOM     51  O   LIG d   1       3.414   1.577  -1.981  0.00  0.00    -0.550 OA
ATOM     52  O   LIG d   1       5.504   1.381  -2.201  0.00  0.00    -0.550 OA
ENDBRANCH  47  50
ENDBRANCH  44  47
ENDBRANCH   6  44
TORSDOF 5
ENDMDL
MODEL 2
REMARK VINA RESULT:      -8.1      1.197      1.593
REMARK  5 active torsions:
REMARK  status: ('A' for Active; 'I' for Inactive)
REMARK    1  A    between atoms: C_5  and  C_7 
REMARK    2  A    between atoms: C_7  and  N_8 
REMARK    3  A    between atoms: C_13  and  C_30 
REMARK    4  A    between atoms: C_30  and  C_31 
REMARK    5  A    between atoms: C_31  and  C_32 
ROOT
ATOM      1  N   LIG d   1       3.440  -0.852  -7.435  0.00  0.00    -0.237 N 
ATOM      2  C   LIG d   1       3.605  -0.137  -6.316  0.00  0.00     0.232 A 
ATOM      3  O   LIG d   1       2.876   0.758  -5.943  0.00  0.00    -0.275 OA
ATOM      4  C   LIG d   1       4.838  -0.620  -5.588  0.00  0.00     0.096 A 
ATOM      5  H   LIG d   1       5.574   0.171  -5.441  0.00  0.00     0.046 H 
ATOM      6  C   LIG d   1       4.419  -1.293  -4.265  0.00  0.00    -0.009 C 
ATOM      7  H   LIG d   1       5.231  -1.242  -3.539  0.00  0.00     0.086 H 
ATOM      8  N   LIG d   1       4.140  -2.708  -4.628  0.00  0.00     0.245 N 
ATOM      9  C   LIG d   1       5.180  -3.037  -5.621  0.00  0.00     0.106 A 
ATOM     10  C   LIG d   1       5.362  -1.770  -6.493  0.00  0.00     0.111 A 
ATOM     11  H   LIG d   1       6.391  -1.617  -6.819  0.00  0.00     0.047 H 
ATOM     12  C   LIG d   1       4.368  -1.796  -7.632  0.00  0.00     0.233 A 
ATOM     13  O   LIG d   1       4.407  -2.552  -8.579  0.00  0.00    -0.275 OA
ATOM     14  C   LIG d   1       6.470  -3.434  -4.959  0.00  0.00     0.034 A 
ATOM     15  C   LIG d   1       7.321  -2.796  -4.085  0.00  0.00    -0.051 A 
ATOM     16  C   LIG d   1       8.463  -3.439  -3.638  0.00  0.00    -0.061 A 
ATOM     17  C   LIG d   1       8.746  -4.720  -4.072  0.00  0.00    -0.060 A 
ATOM     18  C   LIG d   1       7.894  -5.364  -4.947  0.00  0.00    -0.040 A 
ATOM     19  C   LIG d   1       6.743  -4.724  -5.402  0.00  0.00     0.043 A 
ATOM     20  N   LIG d   1       5.742  -5.159  -6.274  0.00  0.00    -0.280 N 
ATOM     21  C   LIG d   1       4.787  -4.226  -6.455  0.00  0.00     0.274 A 
ATOM     22  O   LIG d   1       3.801  -4.326  -7.154  0.00  0.00    -0.269 OA
ATOM     23  H   LIG d   1       4.224  -3.304  -3.819  0.00  0.00     0.203 HD
ATOM     24  H   LIG d   1       7.099  -1.794  -3.749  0.00  0.00     0.062 H 
ATOM     25  H   LIG d   1       9.131  -2.938  -2.954  0.00  0.00     0.062 H 
ATOM     26  H   LIG d   1       9.636  -5.222  -3.723  0.00  0.00     0.062 H 
ATOM     27  H   LIG d   1       8.121  -6.365  -5.280  0.00  0.00     0.064 H 
ATOM     28  H   LIG d   1       5.736  -6.029  -6.700  0.00  0.00     0.155 HD
ATOM     29  H   LIG d   1       3.222  -2.793  -5.038  0.00  0.00     0.203 HD
ENDROOT
BRANCH   1  30
ATOM     30  C   LIG d   1       2.332  -0.624  -8.365  0.00  0.00     0.049 C 
ATOM     31  H   LIG d   1       1.757   0.243  -8.040  0.00  0.00     0.052 H 
ATOM     32  H   LIG d   1       1.686  -1.502  -8.383  0.00  0.00     0.052 H 
BRANCH  30  33
ATOM     33  C   LIG d   1       2.878  -0.375  -9.747  0.00  0.00    -0.011 A 
ATOM     34  C   LIG d   1       3.466   0.840 -10.050  0.00  0.00     0.046 A 
ATOM     35  C   LIG d   1       3.967   1.068 -11.320  0.00  0.00    -0.043 A 
ATOM     36 CL   LIG d   1       3.576   2.078  -8.839  0.00  0.00    -0.083 Cl
ATOM     37  C   LIG d   1       3.880   0.082 -12.284  0.00  0.00    -0.060 A 
ATOM     38  H   LIG d   1       4.428   2.016 -11.557  0.00  0.00     0.063 H 
ATOM     39  C   LIG d   1       3.293  -1.132 -11.980  0.00  0.00    -0.061 A 
ATOM     40  H   LIG d   1       4.272   0.260 -13.274  0.00  0.00     0.062 H 
ATOM     41  C   LIG d   1       2.792  -1.360 -10.713  0.00  0.00    -0.056 A 
ATOM     42  H   LIG d   1       3.221  -1.901 -12.735  0.00  0.00     0.062 H 
ATOM     43  H   LIG d   1       2.333  -2.309 -10.476  0.00  0.00     0.062 H 
ENDBRANCH  30  33
ENDBRANCH   1  30
BRANCH   6  44
ATOM     44  C   LIG d   1       3.161  -0.628  -3.703  0.00  0.00    -0.004 C 
ATOM     45  H   LIG d   1       2.796   0.114  -4.412  0.00  0.00     0.032 H 
ATOM     46  H   LIG d   1       2.393  -1.383  -3.540  0.00  0.00     0.032 H 
BRANCH  44  47
ATOM     47  C   LIG d   1       3.496   0.055  -2.375  0.00  0.00    -0.008 C 
ATOM     48  H   LIG d   1       2.572   0.304  -1.852  0.00  0.00     0.033 H 
ATOM     49  H   LIG d   1       4.092  -0.618  -1.760  0.00  0.00     0.033 H 
BRANCH  47  50
ATOM     50  C   LIG d   1       4.278   1.316  -2.642  0.00  0.00     0.042 C 
ATOM     51  O   LIG d   1       3.770   2.226  -3.274  0.00  0.00    -0.550 OA
ATOM     52  O   LIG d   1       5.418   1.424  -2.226  0.00  0.00    -0.550 OA
ENDBRANCH  47  50
ENDBRANCH  44  47
ENDBRANCH   6  44
TORSDOF 5
ENDMDL
MODEL 3
REMARK VINA RESULT:      -8.1      2.891      6.834
REMARK  5 active torsions:
REMARK  status: ('A' for Active; 'I' for Inactive)
REMARK    1  A    between atoms: C_5  and  C_7 
REMARK    2  A    between atoms: C_7  and  N_8 
REMARK    3  A    between atoms: C_13  and  C_30 
REMARK    4  A    between atoms: C_30  and  C_31 
REMARK    5  A    between atoms: C_31  and  C_32 
ROOT
ATOM      1  N   LIG d   1       6.860  -1.611  -5.656  0.00  0.00    -0.237 N 
ATOM      2  C   LIG d   1       6.847  -2.907  -5.987  0.00  0.00     0.232 A 
ATOM      3  O   LIG d   1       7.287  -3.809  -5.306  0.00  0.00    -0.275 OA
ATOM      4  C   LIG d   1       6.198  -3.073  -7.343  0.00  0.00     0.096 A 
ATOM      5  H   LIG d   1       6.857  -3.551  -8.067  0.00  0.00     0.046 H 
ATOM      6  C   LIG d   1       4.858  -3.820  -7.178  0.00  0.00    -0.009 C 
ATOM      7  H   LIG d   1       4.597  -4.339  -8.101  0.00  0.00     0.086 H 
ATOM      8  N   LIG d   1       3.861  -2.756  -6.886  0.00  0.00     0.245 N 
ATOM      9  C   LIG d   1       4.269  -1.632  -7.750  0.00  0.00     0.106 A 
ATOM     10  C   LIG d   1       5.818  -1.619  -7.739  0.00  0.00     0.111 A 
ATOM     11  H   LIG d   1       6.251  -1.314  -8.691  0.00  0.00     0.047 H 
ATOM     12  C   LIG d   1       6.306  -0.800  -6.565  0.00  0.00     0.233 A 
ATOM     13  O   LIG d   1       6.214   0.404  -6.465  0.00  0.00    -0.275 OA
ATOM     14  C   LIG d   1       3.734  -1.787  -9.145  0.00  0.00     0.034 A 
ATOM     15  C   LIG d   1       3.878  -2.755 -10.114  0.00  0.00    -0.051 A 
ATOM     16  C   LIG d   1       3.243  -2.612 -11.335  0.00  0.00    -0.061 A 
ATOM     17  C   LIG d   1       2.464  -1.497 -11.579  0.00  0.00    -0.060 A 
ATOM     18  C   LIG d   1       2.315  -0.525 -10.611  0.00  0.00    -0.040 A 
ATOM     19  C   LIG d   1       2.951  -0.660  -9.379  0.00  0.00     0.043 A 
ATOM     20  N   LIG d   1       2.955   0.173  -8.258  0.00  0.00    -0.280 N 
ATOM     21  C   LIG d   1       3.705  -0.328  -7.257  0.00  0.00     0.274 A 
ATOM     22  O   LIG d   1       3.889   0.177  -6.169  0.00  0.00    -0.269 OA
ATOM     23  H   LIG d   1       2.932  -3.066  -7.126  0.00  0.00     0.203 HD
ATOM     24  H   LIG d   1       4.489  -3.624  -9.921  0.00  0.00     0.062 H 
ATOM     25  H   LIG d   1       3.357  -3.371 -12.095  0.00  0.00     0.062 H 
ATOM     26  H   LIG d   1       1.967  -1.386 -12.532  0.00  0.00     0.062 H 
ATOM     27  H   LIG d   1       1.704   0.343 -10.809  0.00  0.00     0.064 H 
ATOM     28  H   LIG d   1       2.474   1.013  -8.206  0.00  0.00     0.155 HD
ATOM     29  H   LIG d   1       3.905  -2.487  -5.914  0.00  0.00     0.203 HD
ENDROOT
BRANCH   1  30
ATOM     30  C   LIG d   1       7.427  -1.121  -4.398  0.00  0.00     0.049 C 
ATOM     31  H   LIG d   1       8.057  -0.254  -4.597  0.00  0.00     0.052 H 
ATOM     32  H   LIG d   1       8.026  -1.907  -3.938  0.00  0.00     0.052 H 
BRANCH  30  33
ATOM     33  C   LIG d   1       6.313  -0.727  -3.463  0.00  0.00    -0.011 A 
ATOM     34  C   LIG d   1       6.170   0.591  -3.071  0.00  0.00     0.046 A 
ATOM     35  C   LIG d   1       5.147   0.951  -2.213  0.00  0.00    -0.043 A 
ATOM     36 CL   LIG d   1       7.275   1.795  -3.657  0.00  0.00    -0.083 Cl
ATOM     37  C   LIG d   1       4.267  -0.007  -1.746  0.00  0.00    -0.060 A 
ATOM     38  H   LIG d   1       5.034   1.982  -1.907  0.00  0.00     0.063 H 
ATOM     39  C   LIG d   1       4.410  -1.325  -2.138  0.00  0.00    -0.061 A 
ATOM     40  H   LIG d   1       3.468   0.274  -1.077  0.00  0.00     0.062 H 
ATOM     41  C   LIG d   1       5.432  -1.686  -2.996  0.00  0.00    -0.056 A 
ATOM     42  H   LIG d   1       3.725  -2.075  -1.771  0.00  0.00     0.062 H 
ATOM     43  H   LIG d   1       5.543  -2.715  -3.302  0.00  0.00     0.062 H 
ENDBRANCH  30  33
ENDBRANCH   1  30
BRANCH   6  44
ATOM     44  C   LIG d   1       4.939  -4.811  -6.015  0.00  0.00    -0.004 C 
ATOM     45  H   LIG d   1       5.978  -4.934  -5.715  0.00  0.00     0.032 H 
ATOM     46  H   LIG d   1       4.360  -4.430  -5.173  0.00  0.00     0.032 H 
BRANCH  44  47
ATOM     47  C   LIG d   1       4.371  -6.162  -6.456  0.00  0.00    -0.008 C 
ATOM     48  H   LIG d   1       3.294  -6.176  -6.288  0.00  0.00     0.033 H 
ATOM     49  H   LIG d   1       4.576  -6.314  -7.515  0.00  0.00     0.033 H 
BRANCH  47  50
ATOM     50  C   LIG d   1       5.018  -7.263  -5.656  0.00  0.00     0.042 C 
ATOM     51  O   LIG d   1       6.192  -7.176  -5.338  0.00  0.00    -0.550 OA
ATOM     52  O   LIG d   1       4.368  -8.240  -5.327  0.00  0.00    -0.550 OA
ENDBRANCH  47  50
ENDBRANCH  44  47
ENDBRANCH   6  44
TORSDOF 5
ENDMDL
MODEL 4
REMARK VINA RESULT:      -7.4      3.236      6.874
REMARK  5 active torsions:
REMARK  status: ('A' for Active; 'I' for Inactive)
REMARK    1  A    between atoms: C_5  and  C_7 
REMARK    2  A    between atoms: C_7  and  N_8 
REMARK    3  A    between atoms: C_13  and  C_30 
REMARK    4  A    between atoms: C_30  and  C_31 
REMARK    5  A    between atoms: C_31  and  C_32 
ROOT
ATOM      1  N   LIG d   1       5.837  -0.556  -6.720  0.00  0.00    -0.237 N 
ATOM      2  C   LIG d   1       6.415  -1.705  -7.090  0.00  0.00     0.232 A 
ATOM      3  O   LIG d   1       7.174  -2.359  -6.407  0.00  0.00    -0.275 OA
ATOM      4  C   LIG d   1       5.975  -2.061  -8.492  0.00  0.00     0.096 A 
ATOM      5  H   LIG d   1       6.813  -2.157  -9.182  0.00  0.00     0.046 H 
ATOM      6  C   LIG d   1       5.097  -3.329  -8.444  0.00  0.00    -0.009 C 
ATOM      7  H   LIG d   1       5.139  -3.856  -9.397  0.00  0.00     0.086 H 
ATOM      8  N   LIG d   1       3.719  -2.830  -8.191  0.00  0.00     0.245 N 
ATOM      9  C   LIG d   1       3.631  -1.593  -8.991  0.00  0.00     0.106 A 
ATOM     10  C   LIG d   1       5.011  -0.902  -8.871  0.00  0.00     0.111 A 
ATOM     11  H   LIG d   1       5.312  -0.382  -9.781  0.00  0.00     0.047 H 
ATOM     12  C   LIG d   1       5.028  -0.020  -7.642  0.00  0.00     0.233 A 
ATOM     13  O   LIG d   1       4.409   1.013  -7.513  0.00  0.00    -0.275 OA
ATOM     14  C   LIG d   1       3.290  -1.887 -10.424  0.00  0.00     0.034 A 
ATOM     15  C   LIG d   1       3.895  -2.635 -11.408  0.00  0.00    -0.051 A 
ATOM     16  C   LIG d   1       3.324  -2.717 -12.666  0.00  0.00    -0.061 A 
ATOM     17  C   LIG d   1       2.145  -2.045 -12.932  0.00  0.00    -0.060 A 
ATOM     18  C   LIG d   1       1.534  -1.295 -11.948  0.00  0.00    -0.040 A 
ATOM     19  C   LIG d   1       2.102  -1.207 -10.679  0.00  0.00     0.043 A 
ATOM     20  N   LIG d   1       1.681  -0.523  -9.536  0.00  0.00    -0.280 N 
ATOM     21  C   LIG d   1       2.525  -0.700  -8.500  0.00  0.00     0.274 A 
ATOM     22  O   LIG d   1       2.412  -0.229  -7.388  0.00  0.00    -0.269 OA
ATOM     23  H   LIG d   1       3.036  -3.502  -8.504  0.00  0.00     0.203 HD
ATOM     24  H   LIG d   1       4.817  -3.157 -11.199  0.00  0.00     0.062 H 
ATOM     25  H   LIG d   1       3.799  -3.303 -13.439  0.00  0.00     0.062 H 
ATOM     26  H   LIG d   1       1.699  -2.110 -13.913  0.00  0.00     0.062 H 
ATOM     27  H   LIG d   1       0.613  -0.774 -12.162  0.00  0.00     0.064 H 
ATOM     28  H   LIG d   1       0.877   0.016  -9.493  0.00  0.00     0.155 HD
ATOM     29  H   LIG d   1       3.592  -2.625  -7.211  0.00  0.00     0.203 HD
ENDROOT
BRANCH   1  30
ATOM     30  C   LIG d   1       6.066   0.061  -5.412  0.00  0.00     0.049 C 
ATOM     31  H   LIG d   1       5.933   1.139  -5.491  0.00  0.00     0.052 H 
ATOM     32  H   LIG d   1       7.081  -0.157  -5.080  0.00  0.00     0.052 H 
BRANCH  30  33
ATOM     33  C   LIG d   1       5.082  -0.495  -4.415  0.00  0.00    -0.011 A 
ATOM     34  C   LIG d   1       5.514  -1.355  -3.422  0.00  0.00     0.046 A 
ATOM     35  C   LIG d   1       4.610  -1.866  -2.507  0.00  0.00    -0.043 A 
ATOM     36 CL   LIG d   1       7.190  -1.794  -3.322  0.00  0.00    -0.083 Cl
ATOM     37  C   LIG d   1       3.275  -1.516  -2.587  0.00  0.00    -0.060 A 
ATOM     38  H   LIG d   1       4.946  -2.537  -1.730  0.00  0.00     0.063 H 
ATOM     39  C   LIG d   1       2.844  -0.656  -3.580  0.00  0.00    -0.061 A 
ATOM     40  H   LIG d   1       2.569  -1.914  -1.873  0.00  0.00     0.062 H 
ATOM     41  C   LIG d   1       3.746  -0.146  -4.494  0.00  0.00    -0.056 A 
ATOM     42  H   LIG d   1       1.800  -0.386  -3.645  0.00  0.00     0.062 H 
ATOM     43  H   LIG d   1       3.409   0.526  -5.269  0.00  0.00     0.062 H 
ENDBRANCH  30  33
ENDBRANCH   1  30
BRANCH   6  44
ATOM     44  C   LIG d   1       5.549  -4.248  -7.308  0.00  0.00    -0.004 C 
ATOM     45  H   LIG d   1       6.620  -4.128  -7.149  0.00  0.00     0.032 H 
ATOM     46  H   LIG d   1       5.015  -3.987  -6.395  0.00  0.00     0.032 H 
BRANCH  44  47
ATOM     47  C   LIG d   1       5.248  -5.702  -7.678  0.00  0.00    -0.008 C 
ATOM     48  H   LIG d   1       4.941  -5.755  -8.722  0.00  0.00     0.033 H 
ATOM     49  H   LIG d   1       6.142  -6.307  -7.530  0.00  0.00     0.033 H 
BRANCH  47  50
ATOM     50  C   LIG d   1       4.139  -6.223  -6.801  0.00  0.00     0.042 C 
ATOM     51  O   LIG d   1       3.401  -5.444  -6.224  0.00  0.00    -0.550 OA
ATOM     52  O   LIG d   1       3.980  -7.424  -6.669  0.00  0.00    -0.550 OA
ENDBRANCH  47  50
ENDBRANCH  44  47
ENDBRANCH   6  44
TORSDOF 5
ENDMDL
MODEL 5
REMARK VINA RESULT:      -7.4      4.270      6.460
REMARK  5 active torsions:
REMARK  status: ('A' for Active; 'I' for Inactive)
REMARK    1  A    between atoms: C_5  and  C_7 
REMARK    2  A    between atoms: C_7  and  N_8 
REMARK    3  A    between atoms: C_13  and  C_30 
REMARK    4  A    between atoms: C_30  and  C_31 
REMARK    5  A    between atoms: C_31  and  C_32 
ROOT
ATOM      1  N   LIG d   1       6.650  -1.592  -5.508  0.00  0.00    -0.237 N 
ATOM      2  C   LIG d   1       7.055  -1.505  -6.779  0.00  0.00     0.232 A 
ATOM      3  O   LIG d   1       6.484  -1.992  -7.732  0.00  0.00    -0.275 OA
ATOM      4  C   LIG d   1       8.335  -0.703  -6.846  0.00  0.00     0.096 A 
ATOM      5  H   LIG d   1       9.157  -1.262  -7.291  0.00  0.00     0.046 H 
ATOM      6  C   LIG d   1       8.063   0.631  -7.572  0.00  0.00    -0.009 C 
ATOM      7  H   LIG d   1       8.980   1.009  -8.027  0.00  0.00     0.086 H 
ATOM      8  N   LIG d   1       7.596   1.558  -6.507  0.00  0.00     0.245 N 
ATOM      9  C   LIG d   1       8.432   1.218  -5.341  0.00  0.00     0.106 A 
ATOM     10  C   LIG d   1       8.597  -0.322  -5.362  0.00  0.00     0.111 A 
ATOM     11  H   LIG d   1       9.573  -0.654  -5.007  0.00  0.00     0.047 H 
ATOM     12  C   LIG d   1       7.440  -0.963  -4.629  0.00  0.00     0.233 A 
ATOM     13  O   LIG d   1       7.258  -0.918  -3.432  0.00  0.00    -0.275 OA
ATOM     14  C   LIG d   1       9.764   1.911  -5.395  0.00  0.00     0.034 A 
ATOM     15  C   LIG d   1      10.799   1.904  -6.304  0.00  0.00    -0.051 A 
ATOM     16  C   LIG d   1      11.928   2.669  -6.071  0.00  0.00    -0.061 A 
ATOM     17  C   LIG d   1      12.015   3.439  -4.926  0.00  0.00    -0.060 A 
ATOM     18  C   LIG d   1      10.979   3.449  -4.013  0.00  0.00    -0.040 A 
ATOM     19  C   LIG d   1       9.839   2.682  -4.240  0.00  0.00     0.043 A 
ATOM     20  N   LIG d   1       8.677   2.528  -3.479  0.00  0.00    -0.280 N 
ATOM     21  C   LIG d   1       7.801   1.685  -4.058  0.00  0.00     0.274 A 
ATOM     22  O   LIG d   1       6.713   1.365  -3.627  0.00  0.00    -0.269 OA
ATOM     23  H   LIG d   1       7.746   2.517  -6.781  0.00  0.00     0.203 HD
ATOM     24  H   LIG d   1      10.730   1.301  -7.196  0.00  0.00     0.062 H 
ATOM     25  H   LIG d   1      12.741   2.663  -6.783  0.00  0.00     0.062 H 
ATOM     26  H   LIG d   1      12.896   4.036  -4.745  0.00  0.00     0.062 H 
ATOM     27  H   LIG d   1      11.054   4.053  -3.122  0.00  0.00     0.064 H 
ATOM     28  H   LIG d   1       8.521   2.976  -2.634  0.00  0.00     0.155 HD
ATOM     29  H   LIG d   1       6.621   1.397  -6.301  0.00  0.00     0.203 HD
ENDROOT
BRANCH   1  30
ATOM     30  C   LIG d   1       5.438  -2.311  -5.109  0.00  0.00     0.049 C 
ATOM     31  H   LIG d   1       5.612  -2.819  -4.161  0.00  0.00     0.052 H 
ATOM     32  H   LIG d   1       5.184  -3.047  -5.873  0.00  0.00     0.052 H 
BRANCH  30  33
ATOM     33  C   LIG d   1       4.301  -1.335  -4.955  0.00  0.00    -0.011 A 
ATOM     34  C   LIG d   1       3.626  -1.242  -3.752  0.00  0.00     0.046 A 
ATOM     35  C   LIG d   1       2.582  -0.345  -3.611  0.00  0.00    -0.043 A 
ATOM     36 CL   LIG d   1       4.089  -2.250  -2.416  0.00  0.00    -0.083 Cl
ATOM     37  C   LIG d   1       2.214   0.458  -4.674  0.00  0.00    -0.060 A 
ATOM     38  H   LIG d   1       2.055  -0.271  -2.671  0.00  0.00     0.063 H 
ATOM     39  C   LIG d   1       2.889   0.365  -5.877  0.00  0.00    -0.061 A 
ATOM     40  H   LIG d   1       1.400   1.159  -4.565  0.00  0.00     0.062 H 
ATOM     41  C   LIG d   1       3.932  -0.531  -6.018  0.00  0.00    -0.056 A 
ATOM     42  H   LIG d   1       2.598   0.990  -6.709  0.00  0.00     0.062 H 
ATOM     43  H   LIG d   1       4.459  -0.603  -6.958  0.00  0.00     0.062 H 
ENDBRANCH  30  33
ENDBRANCH   1  30
BRANCH   6  44
ATOM     44  C   LIG d   1       6.979   0.448  -8.636  0.00  0.00    -0.004 C 
ATOM     45  H   LIG d   1       7.389  -0.100  -9.482  0.00  0.00     0.032 H 
ATOM     46  H   LIG d   1       6.144  -0.111  -8.211  0.00  0.00     0.032 H 
BRANCH  44  47
ATOM     47  C   LIG d   1       6.488   1.820  -9.105  0.00  0.00    -0.008 C 
ATOM     48  H   LIG d   1       6.646   2.553  -8.313  0.00  0.00     0.033 H 
ATOM     49  H   LIG d   1       7.042   2.119  -9.994  0.00  0.00     0.033 H 
BRANCH  47  50
ATOM     50  C   LIG d   1       5.019   1.742  -9.431  0.00  0.00     0.042 C 
ATOM     51  O   LIG d   1       4.189   1.986  -8.572  0.00  0.00    -0.550 OA
ATOM     52  O   LIG d   1       4.660   1.435 -10.555  0.00  0.00    -0.550 OA
ENDBRANCH  47  50
ENDBRANCH  44  47
ENDBRANCH   6  44
TORSDOF 5
ENDMDL
MODEL 6
REMARK VINA RESULT:      -7.2      3.334      6.113
REMARK  5 active torsions:
REMARK  status: ('A' for Active; 'I' for Inactive)
REMARK    1  A    between atoms: C_5  and  C_7 
REMARK    2  A    between atoms: C_7  and  N_8 
REMARK    3  A    between atoms: C_13  and  C_30 
REMARK    4  A    between atoms: C_30  and  C_31 
REMARK    5  A    between atoms: C_31  and  C_32 
ROOT
ATOM      1  N   LIG d   1       7.478  -1.323  -5.795  0.00  0.00    -0.237 N 
ATOM      2  C   LIG d   1       6.441  -1.867  -5.149  0.00  0.00     0.232 A 
ATOM      3  O   LIG d   1       6.433  -2.184  -3.979  0.00  0.00    -0.275 OA
ATOM      4  C   LIG d   1       5.280  -2.023  -6.104  0.00  0.00     0.096 A 
ATOM      5  H   LIG d   1       4.946  -3.057  -6.193  0.00  0.00     0.046 H 
ATOM      6  C   LIG d   1       4.143  -1.068  -5.685  0.00  0.00    -0.009 C 
ATOM      7  H   LIG d   1       3.181  -1.448  -6.030  0.00  0.00     0.086 H 
ATOM      8  N   LIG d   1       4.459   0.221  -6.358  0.00  0.00     0.245 N 
ATOM      9  C   LIG d   1       4.979  -0.181  -7.679  0.00  0.00     0.106 A 
ATOM     10  C   LIG d   1       5.833  -1.451  -7.439  0.00  0.00     0.111 A 
ATOM     11  H   LIG d   1       5.779  -2.166  -8.260  0.00  0.00     0.047 H 
ATOM     12  C   LIG d   1       7.247  -1.048  -7.085  0.00  0.00     0.233 A 
ATOM     13  O   LIG d   1       8.047  -0.556  -7.850  0.00  0.00    -0.275 OA
ATOM     14  C   LIG d   1       3.867  -0.447  -8.653  0.00  0.00     0.034 A 
ATOM     15  C   LIG d   1       2.803  -1.321  -8.661  0.00  0.00    -0.051 A 
ATOM     16  C   LIG d   1       1.923  -1.331  -9.729  0.00  0.00    -0.061 A 
ATOM     17  C   LIG d   1       2.114  -0.461 -10.786  0.00  0.00    -0.060 A 
ATOM     18  C   LIG d   1       3.178   0.418 -10.781  0.00  0.00    -0.040 A 
ATOM     19  C   LIG d   1       4.069   0.434  -9.711  0.00  0.00     0.043 A 
ATOM     20  N   LIG d   1       5.202   1.217  -9.479  0.00  0.00    -0.280 N 
ATOM     21  C   LIG d   1       5.793   0.917  -8.306  0.00  0.00     0.274 A 
ATOM     22  O   LIG d   1       6.789   1.435  -7.845  0.00  0.00    -0.269 OA
ATOM     23  H   LIG d   1       3.626   0.779  -6.463  0.00  0.00     0.203 HD
ATOM     24  H   LIG d   1       2.657  -2.001  -7.835  0.00  0.00     0.062 H 
ATOM     25  H   LIG d   1       1.089  -2.017  -9.736  0.00  0.00     0.062 H 
ATOM     26  H   LIG d   1       1.426  -0.468 -11.619  0.00  0.00     0.062 H 
ATOM     27  H   LIG d   1       3.320   1.095 -11.610  0.00  0.00     0.064 H 
ATOM     28  H   LIG d   1       5.525   1.896 -10.090  0.00  0.00     0.155 HD
ATOM     29  H   LIG d   1       5.163   0.726  -5.841  0.00  0.00     0.203 HD
ENDROOT
BRANCH   1  30
ATOM     30  C   LIG d   1       8.761  -1.046  -5.144  0.00  0.00     0.049 C 
ATOM     31  H   LIG d   1       9.574  -1.377  -5.789  0.00  0.00     0.052 H 
ATOM     32  H   LIG d   1       8.809  -1.580  -4.195  0.00  0.00     0.052 H 
BRANCH  30  33
ATOM     33  C   LIG d   1       8.888   0.434  -4.894  0.00  0.00    -0.011 A 
ATOM     34  C   LIG d   1       9.939   1.142  -5.449  0.00  0.00     0.046 A 
ATOM     35  C   LIG d   1      10.056   2.501  -5.218  0.00  0.00    -0.043 A 
ATOM     36 CL   LIG d   1      11.112   0.325  -6.434  0.00  0.00    -0.083 Cl
ATOM     37  C   LIG d   1       9.122   3.151  -4.434  0.00  0.00    -0.060 A 
ATOM     38  H   LIG d   1      10.876   3.055  -5.652  0.00  0.00     0.063 H 
ATOM     39  C   LIG d   1       8.072   2.444  -3.880  0.00  0.00    -0.061 A 
ATOM     40  H   LIG d   1       9.212   4.212  -4.255  0.00  0.00     0.062 H 
ATOM     41  C   LIG d   1       7.954   1.086  -4.110  0.00  0.00    -0.056 A 
ATOM     42  H   LIG d   1       7.344   2.951  -3.264  0.00  0.00     0.062 H 
ATOM     43  H   LIG d   1       7.134   0.533  -3.677  0.00  0.00     0.062 H 
ENDBRANCH  30  33
ENDBRANCH   1  30
BRANCH   6  44
ATOM     44  C   LIG d   1       4.130  -0.888  -4.166  0.00  0.00    -0.004 C 
ATOM     45  H   LIG d   1       4.002  -1.857  -3.687  0.00  0.00     0.032 H 
ATOM     46  H   LIG d   1       5.073  -0.446  -3.845  0.00  0.00     0.032 H 
BRANCH  44  47
ATOM     47  C   LIG d   1       2.974   0.034  -3.771  0.00  0.00    -0.008 C 
ATOM     48  H   LIG d   1       2.490   0.416  -4.671  0.00  0.00     0.033 H 
ATOM     49  H   LIG d   1       2.250  -0.525  -3.179  0.00  0.00     0.033 H 
BRANCH  47  50
ATOM     50  C   LIG d   1       3.506   1.186  -2.959  0.00  0.00     0.042 C 
ATOM     51  O   LIG d   1       3.780   1.028  -1.782  0.00  0.00    -0.550 OA
ATOM     52  O   LIG d   1       3.661   2.278  -3.479  0.00  0.00    -0.550 OA
ENDBRANCH  47  50
ENDBRANCH  44  47
ENDBRANCH   6  44
TORSDOF 5
ENDMDL
MODEL 7
REMARK VINA RESULT:      -7.2      1.458      1.955
REMARK  5 active torsions:
REMARK  status: ('A' for Active; 'I' for Inactive)
REMARK    1  A    between atoms: C_5  and  C_7 
REMARK    2  A    between atoms: C_7  and  N_8 
REMARK    3  A    between atoms: C_13  and  C_30 
REMARK    4  A    between atoms: C_30  and  C_31 
REMARK    5  A    between atoms: C_31  and  C_32 
ROOT
ATOM      1  N   LIG d   1       4.281  -1.845  -7.313  0.00  0.00    -0.237 N 
ATOM      2  C   LIG d   1       5.118  -1.185  -6.505  0.00  0.00     0.232 A 
ATOM      3  O   LIG d   1       4.999  -0.025  -6.169  0.00  0.00    -0.275 OA
ATOM      4  C   LIG d   1       6.234  -2.108  -6.073  0.00  0.00     0.096 A 
ATOM      5  H   LIG d   1       7.219  -1.732  -6.348  0.00  0.00     0.046 H 
ATOM      6  C   LIG d   1       6.108  -2.390  -4.561  0.00  0.00    -0.009 C 
ATOM      7  H   LIG d   1       7.080  -2.648  -4.141  0.00  0.00     0.086 H 
ATOM      8  N   LIG d   1       5.178  -3.547  -4.464  0.00  0.00     0.245 N 
ATOM      9  C   LIG d   1       5.553  -4.406  -5.604  0.00  0.00     0.106 A 
ATOM     10  C   LIG d   1       5.882  -3.449  -6.776  0.00  0.00     0.111 A 
ATOM     11  H   LIG d   1       6.686  -3.814  -7.416  0.00  0.00     0.047 H 
ATOM     12  C   LIG d   1       4.614  -3.123  -7.532  0.00  0.00     0.233 A 
ATOM     13  O   LIG d   1       3.995  -3.897  -8.230  0.00  0.00    -0.275 OA
ATOM     14  C   LIG d   1       6.725  -5.285  -5.271  0.00  0.00     0.034 A 
ATOM     15  C   LIG d   1       8.017  -5.030  -4.870  0.00  0.00    -0.051 A 
ATOM     16  C   LIG d   1       8.888  -6.079  -4.632  0.00  0.00    -0.061 A 
ATOM     17  C   LIG d   1       8.457  -7.382  -4.797  0.00  0.00    -0.060 A 
ATOM     18  C   LIG d   1       7.162  -7.642  -5.197  0.00  0.00    -0.040 A 
ATOM     19  C   LIG d   1       6.279  -6.592  -5.439  0.00  0.00     0.043 A 
ATOM     20  N   LIG d   1       4.943  -6.600  -5.845  0.00  0.00    -0.280 N 
ATOM     21  C   LIG d   1       4.443  -5.354  -5.964  0.00  0.00     0.274 A 
ATOM     22  O   LIG d   1       3.314  -5.057  -6.298  0.00  0.00    -0.269 OA
ATOM     23  H   LIG d   1       5.314  -4.037  -3.594  0.00  0.00     0.203 HD
ATOM     24  H   LIG d   1       8.352  -4.011  -4.744  0.00  0.00     0.062 H 
ATOM     25  H   LIG d   1       9.902  -5.879  -4.319  0.00  0.00     0.062 H 
ATOM     26  H   LIG d   1       9.137  -8.201  -4.611  0.00  0.00     0.062 H 
ATOM     27  H   LIG d   1       6.833  -8.663  -5.323  0.00  0.00     0.064 H 
ATOM     28  H   LIG d   1       4.435  -7.406  -6.021  0.00  0.00     0.155 HD
ATOM     29  H   LIG d   1       4.221  -3.240  -4.554  0.00  0.00     0.203 HD
ENDROOT
BRANCH   1  30
ATOM     30  C   LIG d   1       3.095  -1.222  -7.905  0.00  0.00     0.049 C 
ATOM     31  H   LIG d   1       2.693  -0.479  -7.216  0.00  0.00     0.052 H 
ATOM     32  H   LIG d   1       2.341  -1.986  -8.096  0.00  0.00     0.052 H 
BRANCH  30  33
ATOM     33  C   LIG d   1       3.471  -0.554  -9.201  0.00  0.00    -0.011 A 
ATOM     34  C   LIG d   1       3.383   0.821  -9.323  0.00  0.00     0.046 A 
ATOM     35  C   LIG d   1       3.729   1.434 -10.514  0.00  0.00    -0.043 A 
ATOM     36 CL   LIG d   1       2.839   1.778  -7.981  0.00  0.00    -0.083 Cl
ATOM     37  C   LIG d   1       4.162   0.672 -11.582  0.00  0.00    -0.060 A 
ATOM     38  H   LIG d   1       3.661   2.508 -10.609  0.00  0.00     0.063 H 
ATOM     39  C   LIG d   1       4.251  -0.702 -11.460  0.00  0.00    -0.061 A 
ATOM     40  H   LIG d   1       4.433   1.150 -12.512  0.00  0.00     0.062 H 
ATOM     41  C   LIG d   1       3.906  -1.315 -10.271  0.00  0.00    -0.056 A 
ATOM     42  H   LIG d   1       4.586  -1.298 -12.297  0.00  0.00     0.062 H 
ATOM     43  H   LIG d   1       3.975  -2.389 -10.176  0.00  0.00     0.062 H 
ENDBRANCH  30  33
ENDBRANCH   1  30
BRANCH   6  44
ATOM     44  C   LIG d   1       5.523  -1.174  -3.840  0.00  0.00    -0.004 C 
ATOM     45  H   LIG d   1       6.313  -0.666  -3.287  0.00  0.00     0.032 H 
ATOM     46  H   LIG d   1       5.094  -0.489  -4.571  0.00  0.00     0.032 H 
BRANCH  44  47
ATOM     47  C   LIG d   1       4.433  -1.632  -2.869  0.00  0.00    -0.008 C 
ATOM     48  H   LIG d   1       4.012  -2.576  -3.215  0.00  0.00     0.033 H 
ATOM     49  H   LIG d   1       4.863  -1.767  -1.877  0.00  0.00     0.033 H 
BRANCH  47  50
ATOM     50  C   LIG d   1       3.346  -0.590  -2.807  0.00  0.00     0.042 C 
ATOM     51  O   LIG d   1       2.343  -0.714  -3.489  0.00  0.00    -0.550 OA
ATOM     52  O   LIG d   1       3.470   0.377  -2.076  0.00  0.00    -0.550 OA
ENDBRANCH  47  50
ENDBRANCH  44  47
ENDBRANCH   6  44
TORSDOF 5
ENDMDL
MODEL 8
REMARK VINA RESULT:      -7.1      3.228      5.144
REMARK  5 active torsions:
REMARK  status: ('A' for Active; 'I' for Inactive)
REMARK    1  A    between atoms: C_5  and  C_7 
REMARK    2  A    between atoms: C_7  and  N_8 
REMARK    3  A    between atoms: C_13  and  C_30 
REMARK    4  A    between atoms: C_30  and  C_31 
REMARK    5  A    between atoms: C_31  and  C_32 
ROOT
ATOM      1  N   LIG d   1       3.968  -0.469  -9.763  0.00  0.00    -0.237 N 
ATOM      2  C   LIG d   1       5.113  -1.134  -9.573  0.00  0.00     0.232 A 
ATOM      3  O   LIG d   1       6.009  -1.233 -10.384  0.00  0.00    -0.275 OA
ATOM      4  C   LIG d   1       5.117  -1.742  -8.189  0.00  0.00     0.096 A 
ATOM      5  H   LIG d   1       5.234  -2.825  -8.207  0.00  0.00     0.046 H 
ATOM      6  C   LIG d   1       6.192  -1.044  -7.328  0.00  0.00    -0.009 C 
ATOM      7  H   LIG d   1       6.532  -1.709  -6.534  0.00  0.00     0.086 H 
ATOM      8  N   LIG d   1       5.508   0.143  -6.751  0.00  0.00     0.245 N 
ATOM      9  C   LIG d   1       4.149  -0.340  -6.439  0.00  0.00     0.106 A 
ATOM     10  C   LIG d   1       3.753  -1.292  -7.595  0.00  0.00     0.111 A 
ATOM     11  H   LIG d   1       3.137  -2.130  -7.269  0.00  0.00     0.047 H 
ATOM     12  C   LIG d   1       3.133  -0.491  -8.717  0.00  0.00     0.233 A 
ATOM     13  O   LIG d   1       2.046   0.044  -8.678  0.00  0.00    -0.275 OA
ATOM     14  C   LIG d   1       4.105  -1.043  -5.113  0.00  0.00     0.034 A 
ATOM     15  C   LIG d   1       4.755  -2.144  -4.601  0.00  0.00    -0.051 A 
ATOM     16  C   LIG d   1       4.497  -2.561  -3.307  0.00  0.00    -0.061 A 
ATOM     17  C   LIG d   1       3.586  -1.870  -2.530  0.00  0.00    -0.060 A 
ATOM     18  C   LIG d   1       2.933  -0.765  -3.038  0.00  0.00    -0.040 A 
ATOM     19  C   LIG d   1       3.186  -0.339  -4.340  0.00  0.00     0.043 A 
ATOM     20  N   LIG d   1       2.662   0.731  -5.067  0.00  0.00    -0.280 N 
ATOM     21  C   LIG d   1       3.177   0.801  -6.310  0.00  0.00     0.274 A 
ATOM     22  O   LIG d   1       2.908   1.624  -7.160  0.00  0.00    -0.269 OA
ATOM     23  H   LIG d   1       5.975   0.448  -5.911  0.00  0.00     0.203 HD
ATOM     24  H   LIG d   1       5.465  -2.683  -5.211  0.00  0.00     0.062 H 
ATOM     25  H   LIG d   1       5.006  -3.425  -2.906  0.00  0.00     0.062 H 
ATOM     26  H   LIG d   1       3.385  -2.195  -1.519  0.00  0.00     0.062 H 
ATOM     27  H   LIG d   1       2.224  -0.231  -2.425  0.00  0.00     0.064 H 
ATOM     28  H   LIG d   1       2.004   1.352  -4.719  0.00  0.00     0.155 HD
ATOM     29  H   LIG d   1       5.469   0.892  -7.427  0.00  0.00     0.203 HD
ENDROOT
BRANCH   1  30
ATOM     30  C   LIG d   1       3.656   0.231 -11.012  0.00  0.00     0.049 C 
ATOM     31  H   LIG d   1       4.581   0.571 -11.477  0.00  0.00     0.052 H 
ATOM     32  H   LIG d   1       3.020   1.090 -10.797  0.00  0.00     0.052 H 
BRANCH  30  33
ATOM     33  C   LIG d   1       2.937  -0.705 -11.947  0.00  0.00    -0.011 A 
ATOM     34  C   LIG d   1       3.569  -1.165 -13.088  0.00  0.00     0.046 A 
ATOM     35  C   LIG d   1       2.907  -2.024 -13.947  0.00  0.00    -0.043 A 
ATOM     36 CL   LIG d   1       5.192  -0.663 -13.443  0.00  0.00    -0.083 Cl
ATOM     37  C   LIG d   1       1.615  -2.423 -13.664  0.00  0.00    -0.060 A 
ATOM     38  H   LIG d   1       3.401  -2.384 -14.838  0.00  0.00     0.063 H 
ATOM     39  C   LIG d   1       0.984  -1.964 -12.524  0.00  0.00    -0.061 A 
ATOM     40  H   LIG d   1       1.099  -3.095 -14.334  0.00  0.00     0.062 H 
ATOM     41  C   LIG d   1       1.644  -1.106 -11.665  0.00  0.00    -0.056 A 
ATOM     42  H   LIG d   1      -0.028  -2.273 -12.304  0.00  0.00     0.062 H 
ATOM     43  H   LIG d   1       1.150  -0.747 -10.774  0.00  0.00     0.062 H 
ENDBRANCH  30  33
ENDBRANCH   1  30
BRANCH   6  44
ATOM     44  C   LIG d   1       7.372  -0.610  -8.199  0.00  0.00    -0.004 C 
ATOM     45  H   LIG d   1       7.359  -1.169  -9.134  0.00  0.00     0.032 H 
ATOM     46  H   LIG d   1       7.294   0.456  -8.412  0.00  0.00     0.032 H 
BRANCH  44  47
ATOM     47  C   LIG d   1       8.682  -0.887  -7.458  0.00  0.00    -0.008 C 
ATOM     48  H   LIG d   1       8.637  -1.873  -6.996  0.00  0.00     0.033 H 
ATOM     49  H   LIG d   1       9.512  -0.853  -8.163  0.00  0.00     0.033 H 
BRANCH  47  50
ATOM     50  C   LIG d   1       8.886   0.158  -6.391  0.00  0.00     0.042 C 
ATOM     51  O   LIG d   1       8.573   1.317  -6.605  0.00  0.00    -0.550 OA
ATOM     52  O   LIG d   1       9.364  -0.155  -5.315  0.00  0.00    -0.550 OA
ENDBRANCH  47  50
ENDBRANCH  44  47
ENDBRANCH   6  44
TORSDOF 5
ENDMDL
MODEL 9
REMARK VINA RESULT:      -6.9      4.295      7.215
REMARK  5 active torsions:
REMARK  status: ('A' for Active; 'I' for Inactive)
REMARK    1  A    between atoms: C_5  and  C_7 
REMARK    2  A    between atoms: C_7  and  N_8 
REMARK    3  A    between atoms: C_13  and  C_30 
REMARK    4  A    between atoms: C_30  and  C_31 
REMARK    5  A    between atoms: C_31  and  C_32 
ROOT
ATOM      1  N   LIG d   1       8.982  -1.257  -6.556  0.00  0.00    -0.237 N 
ATOM      2  C   LIG d   1       8.601  -2.512  -6.293  0.00  0.00     0.232 A 
ATOM      3  O   LIG d   1       9.265  -3.505  -6.505  0.00  0.00    -0.275 OA
ATOM      4  C   LIG d   1       7.216  -2.501  -5.690  0.00  0.00     0.096 A 
ATOM      5  H   LIG d   1       6.501  -3.084  -6.271  0.00  0.00     0.046 H 
ATOM      6  C   LIG d   1       7.296  -2.959  -4.218  0.00  0.00    -0.009 C 
ATOM      7  H   LIG d   1       6.345  -3.386  -3.901  0.00  0.00     0.086 H 
ATOM      8  N   LIG d   1       7.588  -1.720  -3.449  0.00  0.00     0.245 N 
ATOM      9  C   LIG d   1       6.784  -0.681  -4.120  0.00  0.00     0.106 A 
ATOM     10  C   LIG d   1       6.859  -0.989  -5.636  0.00  0.00     0.111 A 
ATOM     11  H   LIG d   1       5.938  -0.753  -6.169  0.00  0.00     0.047 H 
ATOM     12  C   LIG d   1       8.082  -0.323  -6.226  0.00  0.00     0.233 A 
ATOM     13  O   LIG d   1       8.224   0.871  -6.379  0.00  0.00    -0.275 OA
ATOM     14  C   LIG d   1       5.363  -0.681  -3.633  0.00  0.00     0.034 A 
ATOM     15  C   LIG d   1       4.365  -1.630  -3.621  0.00  0.00    -0.051 A 
ATOM     16  C   LIG d   1       3.126  -1.324  -3.088  0.00  0.00    -0.061 A 
ATOM     17  C   LIG d   1       2.892  -0.065  -2.567  0.00  0.00    -0.060 A 
ATOM     18  C   LIG d   1       3.890   0.889  -2.575  0.00  0.00    -0.040 A 
ATOM     19  C   LIG d   1       5.141   0.589  -3.111  0.00  0.00     0.043 A 
ATOM     20  N   LIG d   1       6.291   1.371  -3.232  0.00  0.00    -0.280 N 
ATOM     21  C   LIG d   1       7.302   0.697  -3.814  0.00  0.00     0.274 A 
ATOM     22  O   LIG d   1       8.415   1.121  -4.046  0.00  0.00    -0.269 OA
ATOM     23  H   LIG d   1       7.298  -1.824  -2.488  0.00  0.00     0.203 HD
ATOM     24  H   LIG d   1       4.550  -2.612  -4.030  0.00  0.00     0.062 H 
ATOM     25  H   LIG d   1       2.343  -2.068  -3.080  0.00  0.00     0.062 H 
ATOM     26  H   LIG d   1       1.924   0.174  -2.150  0.00  0.00     0.062 H 
ATOM     27  H   LIG d   1       3.700   1.869  -2.166  0.00  0.00     0.064 H 
ATOM     28  H   LIG d   1       6.355   2.291  -2.932  0.00  0.00     0.155 HD
ATOM     29  H   LIG d   1       8.570  -1.494  -3.501  0.00  0.00     0.203 HD
ENDROOT
BRANCH   1  30
ATOM     30  C   LIG d   1      10.280  -0.931  -7.152  0.00  0.00     0.049 C 
ATOM     31  H   LIG d   1      10.163  -0.095  -7.841  0.00  0.00     0.052 H 
ATOM     32  H   LIG d   1      10.660  -1.798  -7.693  0.00  0.00     0.052 H 
BRANCH  30  33
ATOM     33  C   LIG d   1      11.252  -0.553  -6.064  0.00  0.00    -0.011 A 
ATOM     34  C   LIG d   1      11.774   0.727  -6.016  0.00  0.00     0.046 A 
ATOM     35  C   LIG d   1      12.666   1.073  -5.017  0.00  0.00    -0.043 A 
ATOM     36 CL   LIG d   1      11.310   1.899  -7.209  0.00  0.00    -0.083 Cl
ATOM     37  C   LIG d   1      13.035   0.139  -4.067  0.00  0.00    -0.060 A 
ATOM     38  H   LIG d   1      13.074   2.073  -4.978  0.00  0.00     0.063 H 
ATOM     39  C   LIG d   1      12.513  -1.139  -4.115  0.00  0.00    -0.061 A 
ATOM     40  H   LIG d   1      13.731   0.410  -3.286  0.00  0.00     0.062 H 
ATOM     41  C   LIG d   1      11.622  -1.486  -5.113  0.00  0.00    -0.056 A 
ATOM     42  H   LIG d   1      12.804  -1.871  -3.375  0.00  0.00     0.062 H 
ATOM     43  H   LIG d   1      11.214  -2.485  -5.150  0.00  0.00     0.062 H 
ENDBRANCH  30  33
ENDBRANCH   1  30
BRANCH   6  44
ATOM     44  C   LIG d   1       8.423  -3.977  -4.038  0.00  0.00    -0.004 C 
ATOM     45  H   LIG d   1       7.999  -4.977  -3.956  0.00  0.00     0.032 H 
ATOM     46  H   LIG d   1       9.092  -3.936  -4.898  0.00  0.00     0.032 H 
BRANCH  44  47
ATOM     47  C   LIG d   1       9.208  -3.650  -2.766  0.00  0.00    -0.008 C 
ATOM     48  H   LIG d   1       9.621  -2.644  -2.843  0.00  0.00     0.033 H 
ATOM     49  H   LIG d   1       8.543  -3.704  -1.905  0.00  0.00     0.033 H 
BRANCH  47  50
ATOM     50  C   LIG d   1      10.330  -4.642  -2.599  0.00  0.00     0.042 C 
ATOM     51  O   LIG d   1      10.141  -5.677  -1.983  0.00  0.00    -0.550 OA
ATOM     52  O   LIG d   1      11.426  -4.410  -3.079  0.00  0.00    -0.550 OA
ENDBRANCH  47  50
ENDBRANCH  44  47
ENDBRANCH   6  44
TORSDOF 5
ENDMDL
