MODEL 1
REMARK VINA RESULT:      -6.4      0.000      0.000
REMARK  14 active torsions:
REMARK  status: ('A' for Active; 'I' for Inactive)
REMARK    1  A    between atoms: C_1  and  C_2 
REMARK    2  A    between atoms: C_2  and  C_4 
REMARK    3  A    between atoms: C_2  and  C_19 
REMARK    4  A    between atoms: C_4  and  C_5 
REMARK    5  A    between atoms: C_5  and  C_6 
REMARK       I    between atoms: C_6  and  N_8 
REMARK    6  A    between atoms: N_8  and  C_9 
REMARK    7  A    between atoms: C_9  and  C_10 
REMARK    8  A    between atoms: C_10  and  C_11 
REMARK    9  A    between atoms: C_14  and  O_17 
REMARK   10  A    between atoms: O_17  and  C_18 
REMARK   11  A    between atoms: C_25  and  C_46 
REMARK   12  A    between atoms: C_32  and  O_45 
REMARK   13  A    between atoms: C_37  and  C_44 
REMARK   14  A    between atoms: C_40  and  O_43 
ROOT
ATOM      1  C   LIG d   1       6.043  -1.496  -9.253  0.00  0.00    -0.033 C 
ATOM      2  H   LIG d   1       5.587  -0.566  -9.591  0.00  0.00     0.031 H 
ATOM      3  C   LIG d   1       5.024  -2.659  -9.348  0.00  0.00    -0.049 C 
ATOM      4  C   LIG d   1       4.771  -3.140  -7.893  0.00  0.00    -0.049 C 
ATOM      5  C   LIG d   1       5.129  -1.906  -7.057  0.00  0.00    -0.030 C 
ATOM      6  H   LIG d   1       4.336  -1.161  -7.122  0.00  0.00     0.031 H 
ATOM      7  C   LIG d   1       6.410  -1.398  -7.775  0.00  0.00    -0.026 C 
ATOM      8  C   LIG d   1       6.713  -0.012  -7.243  0.00  0.00    -0.047 C 
ATOM      9  C   LIG d   1       7.042  -0.158  -5.747  0.00  0.00    -0.049 C 
ATOM     10  C   LIG d   1       5.895  -0.817  -4.988  0.00  0.00    -0.030 C 
ATOM     11  H   LIG d   1       5.025  -0.162  -5.026  0.00  0.00     0.031 H 
ATOM     12  C   LIG d   1       5.487  -2.170  -5.606  0.00  0.00    -0.008 C 
ATOM     13  H   LIG d   1       6.329  -2.859  -5.555  0.00  0.00     0.033 H 
ATOM     14  C   LIG d   1       4.282  -2.739  -4.856  0.00  0.00     0.059 C 
ATOM     15  H   LIG d   1       3.447  -2.042  -4.927  0.00  0.00     0.060 H 
ATOM     16  C   LIG d   1       4.650  -2.947  -3.386  0.00  0.00    -0.023 C 
ATOM     17  C   LIG d   1       5.049  -1.607  -2.764  0.00  0.00    -0.031 C 
ATOM     18  H   LIG d   1       5.308  -1.756  -1.715  0.00  0.00     0.031 H 
ATOM     19  C   LIG d   1       6.290  -1.031  -3.527  0.00  0.00    -0.026 C 
ATOM     20  C   LIG d   1       6.686   0.310  -2.904  0.00  0.00    -0.045 C 
ATOM     21  C   LIG d   1       5.505   1.279  -2.993  0.00  0.00    -0.026 C 
ATOM     22  C   LIG d   1       4.311   0.698  -2.232  0.00  0.00     0.056 C 
ATOM     23  H   LIG d   1       4.582   0.552  -1.187  0.00  0.00     0.059 H 
ATOM     24  C   LIG d   1       3.878  -0.628  -2.867  0.00  0.00    -0.023 C 
ATOM     25  H   LIG d   1       4.094  -2.307  -9.793  0.00  0.00     0.027 H 
ATOM     26  H   LIG d   1       5.439  -3.472  -9.943  0.00  0.00     0.027 H 
ATOM     27  H   LIG d   1       3.725  -3.411  -7.753  0.00  0.00     0.027 H 
ATOM     28  H   LIG d   1       5.424  -3.976  -7.644  0.00  0.00     0.027 H 
ATOM     29  H   LIG d   1       7.567   0.410  -7.772  0.00  0.00     0.027 H 
ATOM     30  H   LIG d   1       5.842   0.633  -7.370  0.00  0.00     0.027 H 
ATOM     31  H   LIG d   1       7.940  -0.768  -5.638  0.00  0.00     0.027 H 
ATOM     32  H   LIG d   1       7.229   0.829  -5.325  0.00  0.00     0.027 H 
ATOM     33  H   LIG d   1       3.791  -3.353  -2.851  0.00  0.00     0.029 H 
ATOM     34  H   LIG d   1       5.485  -3.644  -3.315  0.00  0.00     0.029 H 
ATOM     35  H   LIG d   1       6.957   0.160  -1.860  0.00  0.00     0.027 H 
ATOM     36  H   LIG d   1       7.538   0.724  -3.445  0.00  0.00     0.027 H 
ATOM     37  H   LIG d   1       5.787   2.235  -2.551  0.00  0.00     0.029 H 
ATOM     38  H   LIG d   1       5.233   1.427  -4.037  0.00  0.00     0.029 H 
ATOM     39  H   LIG d   1       3.618  -0.482  -3.915  0.00  0.00     0.029 H 
ATOM     40  H   LIG d   1       3.017  -1.034  -2.334  0.00  0.00     0.029 H 
ENDROOT
BRANCH   1  41
ATOM     41  C   LIG d   1       7.285  -1.810 -10.087  0.00  0.00    -0.040 C 
ATOM     42  H   LIG d   1       8.027  -2.308  -9.463  0.00  0.00     0.030 H 
BRANCH  41  43
ATOM     43  C   LIG d   1       7.872  -0.510 -10.639  0.00  0.00    -0.062 C 
ATOM     44  H   LIG d   1       8.898  -0.683 -10.966  0.00  0.00     0.023 H 
ATOM     45  H   LIG d   1       7.274  -0.170 -11.484  0.00  0.00     0.023 H 
ATOM     46  H   LIG d   1       7.864   0.252  -9.858  0.00  0.00     0.023 H 
ENDBRANCH  41  43
BRANCH  41  47
ATOM     47  C   LIG d   1       6.901  -2.730 -11.250  0.00  0.00    -0.042 C 
ATOM     48  H   LIG d   1       7.416  -3.683 -11.144  0.00  0.00     0.027 H 
ATOM     49  H   LIG d   1       5.824  -2.895 -11.239  0.00  0.00     0.027 H 
BRANCH  47  50
ATOM     50  C   LIG d   1       7.303  -2.075 -12.573  0.00  0.00     0.024 C 
ATOM     51  H   LIG d   1       8.090  -1.343 -12.391  0.00  0.00     0.036 H 
ATOM     52  H   LIG d   1       7.668  -2.839 -13.260  0.00  0.00     0.036 H 
BRANCH  50  53
ATOM     53  C   LIG d   1       6.106  -1.386 -13.176  0.00  0.00     0.213 C 
ATOM     54  O   LIG d   1       6.255  -0.597 -14.084  0.00  0.00    -0.276 OA
ATOM     55  N   LIG d   1       4.870  -1.648 -12.706  0.00  0.00    -0.315 N 
ATOM     56  H   LIG d   1       4.752  -2.279 -11.979  0.00  0.00     0.149 HD
BRANCH  55  57
ATOM     57  C   LIG d   1       3.706  -0.979 -13.291  0.00  0.00     0.016 C 
ATOM     58  H   LIG d   1       3.895   0.092 -13.352  0.00  0.00     0.046 H 
ATOM     59  H   LIG d   1       3.526  -1.374 -14.292  0.00  0.00     0.046 H 
BRANCH  57  60
ATOM     60  C   LIG d   1       2.478  -1.232 -12.415  0.00  0.00    -0.012 C 
ATOM     61  H   LIG d   1       1.590  -0.843 -12.912  0.00  0.00     0.033 H 
ATOM     62  H   LIG d   1       2.362  -2.305 -12.253  0.00  0.00     0.033 H 
BRANCH  60  63
ATOM     63  C   LIG d   1       2.656  -0.541 -11.089  0.00  0.00    -0.046 A 
ATOM     64  C   LIG d   1       1.982  -1.005  -9.973  0.00  0.00    -0.055 A 
ATOM     65  C   LIG d   1       2.149  -0.376  -8.754  0.00  0.00    -0.020 A 
ATOM     66  H   LIG d   1       1.329  -1.861 -10.055  0.00  0.00     0.062 H 
ATOM     67  C   LIG d   1       2.983   0.727  -8.651  0.00  0.00     0.120 A 
ATOM     68  H   LIG d   1       1.625  -0.741  -7.882  0.00  0.00     0.065 H 
ATOM     69  C   LIG d   1       3.653   1.193  -9.773  0.00  0.00    -0.020 A 
ATOM     70  C   LIG d   1       3.489   0.558 -10.988  0.00  0.00    -0.055 A 
ATOM     71  H   LIG d   1       4.305   2.051  -9.695  0.00  0.00     0.065 H 
ATOM     72  H   LIG d   1       4.011   0.921 -11.861  0.00  0.00     0.062 H 
BRANCH  67  73
ATOM     73  O   LIG d   1       3.144   1.349  -7.453  0.00  0.00    -0.495 OA
BRANCH  73  74
ATOM     74  C   LIG d   1       2.751   0.623  -6.287  0.00  0.00     0.079 C 
ATOM     75  H   LIG d   1       3.576  -0.007  -5.955  0.00  0.00     0.066 H 
ATOM     76  H   LIG d   1       2.486   1.323  -5.495  0.00  0.00     0.066 H 
ATOM     77  H   LIG d   1       1.889  -0.002  -6.522  0.00  0.00     0.066 H 
ENDBRANCH  73  74
ENDBRANCH  67  73
ENDBRANCH  60  63
ENDBRANCH  57  60
ENDBRANCH  55  57
ENDBRANCH  50  53
ENDBRANCH  47  50
ENDBRANCH  41  47
ENDBRANCH   1  41
BRANCH   7  78
ATOM     78  C   LIG d   1       7.579  -2.336  -7.470  0.00  0.00    -0.059 C 
ATOM     79  H   LIG d   1       7.788  -2.953  -8.343  0.00  0.00     0.024 H 
ATOM     80  H   LIG d   1       8.462  -1.747  -7.222  0.00  0.00     0.024 H 
ATOM     81  H   LIG d   1       7.321  -2.977  -6.626  0.00  0.00     0.024 H 
ENDBRANCH   7  78
BRANCH  14  82
ATOM     82  O   LIG d   1       3.907  -3.990  -5.435  0.00  0.00    -0.392 OA
ATOM     83  H   LIG d   1       4.576  -4.681  -5.346  0.00  0.00     0.210 HD
ENDBRANCH  14  82
BRANCH  19  84
ATOM     84  C   LIG d   1       7.470  -2.003  -3.452  0.00  0.00    -0.059 C 
ATOM     85  H   LIG d   1       8.386  -1.483  -3.733  0.00  0.00     0.024 H 
ATOM     86  H   LIG d   1       7.564  -2.382  -2.435  0.00  0.00     0.024 H 
ATOM     87  H   LIG d   1       7.300  -2.835  -4.136  0.00  0.00     0.024 H 
ENDBRANCH  19  84
BRANCH  22  88
ATOM     88  O   LIG d   1       3.208   1.603  -2.316  0.00  0.00    -0.392 OA
ATOM     89  H   LIG d   1       2.615   1.432  -3.061  0.00  0.00     0.210 HD
ENDBRANCH  22  88
TORSDOF 14
ENDMDL
MODEL 2
REMARK VINA RESULT:      -6.2      6.058      8.796
REMARK  14 active torsions:
REMARK  status: ('A' for Active; 'I' for Inactive)
REMARK    1  A    between atoms: C_1  and  C_2 
REMARK    2  A    between atoms: C_2  and  C_4 
REMARK    3  A    between atoms: C_2  and  C_19 
REMARK    4  A    between atoms: C_4  and  C_5 
REMARK    5  A    between atoms: C_5  and  C_6 
REMARK       I    between atoms: C_6  and  N_8 
REMARK    6  A    between atoms: N_8  and  C_9 
REMARK    7  A    between atoms: C_9  and  C_10 
REMARK    8  A    between atoms: C_10  and  C_11 
REMARK    9  A    between atoms: C_14  and  O_17 
REMARK   10  A    between atoms: O_17  and  C_18 
REMARK   11  A    between atoms: C_25  and  C_46 
REMARK   12  A    between atoms: C_32  and  O_45 
REMARK   13  A    between atoms: C_37  and  C_44 
REMARK   14  A    between atoms: C_40  and  O_43 
ROOT
ATOM      1  C   LIG d   1       9.373   3.126  -5.072  0.00  0.00    -0.033 C 
ATOM      2  H   LIG d   1       8.328   3.338  -5.301  0.00  0.00     0.031 H 
ATOM      3  C   LIG d   1       9.476   2.233  -3.811  0.00  0.00    -0.049 C 
ATOM      4  C   LIG d   1      10.201   3.081  -2.731  0.00  0.00    -0.049 C 
ATOM      5  C   LIG d   1       9.918   4.520  -3.179  0.00  0.00    -0.030 C 
ATOM      6  H   LIG d   1       8.892   4.796  -2.940  0.00  0.00     0.031 H 
ATOM      7  C   LIG d   1      10.108   4.415  -4.717  0.00  0.00    -0.026 C 
ATOM      8  C   LIG d   1       9.572   5.693  -5.332  0.00  0.00    -0.047 C 
ATOM      9  C   LIG d   1      10.454   6.847  -4.829  0.00  0.00    -0.049 C 
ATOM     10  C   LIG d   1      10.467   6.915  -3.306  0.00  0.00    -0.030 C 
ATOM     11  H   LIG d   1       9.462   7.150  -2.956  0.00  0.00     0.031 H 
ATOM     12  C   LIG d   1      10.882   5.574  -2.666  0.00  0.00    -0.008 C 
ATOM     13  H   LIG d   1      11.897   5.326  -2.973  0.00  0.00     0.033 H 
ATOM     14  C   LIG d   1      10.794   5.679  -1.142  0.00  0.00     0.059 C 
ATOM     15  H   LIG d   1       9.770   5.917  -0.854  0.00  0.00     0.060 H 
ATOM     16  C   LIG d   1      11.732   6.783  -0.653  0.00  0.00    -0.023 C 
ATOM     17  C   LIG d   1      11.322   8.118  -1.278  0.00  0.00    -0.031 C 
ATOM     18  H   LIG d   1      11.990   8.905  -0.927  0.00  0.00     0.031 H 
ATOM     19  C   LIG d   1      11.423   8.012  -2.838  0.00  0.00    -0.026 C 
ATOM     20  C   LIG d   1      11.011   9.347  -3.461  0.00  0.00    -0.045 C 
ATOM     21  C   LIG d   1       9.579   9.684  -3.039  0.00  0.00    -0.026 C 
ATOM     22  C   LIG d   1       9.509   9.791  -1.514  0.00  0.00     0.056 C 
ATOM     23  H   LIG d   1      10.182  10.578  -1.174  0.00  0.00     0.059 H 
ATOM     24  C   LIG d   1       9.884   8.449  -0.874  0.00  0.00    -0.023 C 
ATOM     25  H   LIG d   1       8.480   1.957  -3.465  0.00  0.00     0.027 H 
ATOM     26  H   LIG d   1      10.056   1.337  -4.034  0.00  0.00     0.027 H 
ATOM     27  H   LIG d   1       9.778   2.893  -1.745  0.00  0.00     0.027 H 
ATOM     28  H   LIG d   1      11.272   2.879  -2.736  0.00  0.00     0.027 H 
ATOM     29  H   LIG d   1       9.623   5.632  -6.418  0.00  0.00     0.027 H 
ATOM     30  H   LIG d   1       8.539   5.850  -5.017  0.00  0.00     0.027 H 
ATOM     31  H   LIG d   1      11.473   6.699  -5.189  0.00  0.00     0.027 H 
ATOM     32  H   LIG d   1      10.070   7.788  -5.225  0.00  0.00     0.027 H 
ATOM     33  H   LIG d   1      11.670   6.857   0.433  0.00  0.00     0.029 H 
ATOM     34  H   LIG d   1      12.756   6.545  -0.943  0.00  0.00     0.029 H 
ATOM     35  H   LIG d   1      11.685  10.132  -3.120  0.00  0.00     0.027 H 
ATOM     36  H   LIG d   1      11.061   9.272  -4.548  0.00  0.00     0.027 H 
ATOM     37  H   LIG d   1       9.284  10.634  -3.483  0.00  0.00     0.029 H 
ATOM     38  H   LIG d   1       8.905   8.898  -3.378  0.00  0.00     0.029 H 
ATOM     39  H   LIG d   1       9.217   7.661  -1.225  0.00  0.00     0.029 H 
ATOM     40  H   LIG d   1       9.820   8.522   0.212  0.00  0.00     0.029 H 
ENDROOT
BRANCH   1  41
ATOM     41  C   LIG d   1      10.047   2.443  -6.263  0.00  0.00    -0.040 C 
ATOM     42  H   LIG d   1      11.046   2.854  -6.401  0.00  0.00     0.030 H 
BRANCH  41  43
ATOM     43  C   LIG d   1       9.218   2.683  -7.526  0.00  0.00    -0.062 C 
ATOM     44  H   LIG d   1       9.779   3.316  -8.215  0.00  0.00     0.023 H 
ATOM     45  H   LIG d   1       9.000   1.729  -8.006  0.00  0.00     0.023 H 
ATOM     46  H   LIG d   1       8.283   3.178  -7.259  0.00  0.00     0.023 H 
ENDBRANCH  41  43
BRANCH  41  47
ATOM     47  C   LIG d   1      10.148   0.939  -5.998  0.00  0.00    -0.042 C 
ATOM     48  H   LIG d   1      11.197   0.652  -5.926  0.00  0.00     0.027 H 
ATOM     49  H   LIG d   1       9.641   0.700  -5.063  0.00  0.00     0.027 H 
BRANCH  47  50
ATOM     50  C   LIG d   1       9.487   0.173  -7.146  0.00  0.00     0.024 C 
ATOM     51  H   LIG d   1       9.072   0.880  -7.864  0.00  0.00     0.036 H 
ATOM     52  H   LIG d   1      10.231  -0.454  -7.640  0.00  0.00     0.036 H 
BRANCH  50  53
ATOM     53  C   LIG d   1       8.382  -0.695  -6.600  0.00  0.00     0.213 C 
ATOM     54  O   LIG d   1       7.227  -0.443  -6.867  0.00  0.00    -0.276 OA
ATOM     55  N   LIG d   1       8.679  -1.749  -5.816  0.00  0.00    -0.315 N 
ATOM     56  H   LIG d   1       9.604  -1.950  -5.603  0.00  0.00     0.149 HD
BRANCH  55  57
ATOM     57  C   LIG d   1       7.606  -2.593  -5.284  0.00  0.00     0.016 C 
ATOM     58  H   LIG d   1       6.646  -2.237  -5.656  0.00  0.00     0.046 H 
ATOM     59  H   LIG d   1       7.761  -3.623  -5.606  0.00  0.00     0.046 H 
BRANCH  57  60
ATOM     60  C   LIG d   1       7.617  -2.530  -3.756  0.00  0.00    -0.012 C 
ATOM     61  H   LIG d   1       7.411  -3.520  -3.349  0.00  0.00     0.033 H 
ATOM     62  H   LIG d   1       8.597  -2.193  -3.413  0.00  0.00     0.033 H 
BRANCH  60  63
ATOM     63  C   LIG d   1       6.562  -1.563  -3.285  0.00  0.00    -0.046 A 
ATOM     64  C   LIG d   1       6.800  -0.201  -3.343  0.00  0.00    -0.055 A 
ATOM     65  C   LIG d   1       5.832   0.688  -2.917  0.00  0.00    -0.020 A 
ATOM     66  H   LIG d   1       7.741   0.166  -3.724  0.00  0.00     0.062 H 
ATOM     67  C   LIG d   1       4.626   0.215  -2.422  0.00  0.00     0.120 A 
ATOM     68  H   LIG d   1       6.016   1.751  -2.966  0.00  0.00     0.065 H 
ATOM     69  C   LIG d   1       4.392  -1.152  -2.360  0.00  0.00    -0.020 A 
ATOM     70  C   LIG d   1       5.360  -2.037  -2.792  0.00  0.00    -0.055 A 
ATOM     71  H   LIG d   1       3.454  -1.522  -1.976  0.00  0.00     0.065 H 
ATOM     72  H   LIG d   1       5.179  -3.100  -2.745  0.00  0.00     0.062 H 
BRANCH  67  73
ATOM     73  O   LIG d   1       3.674   1.088  -1.998  0.00  0.00    -0.495 OA
BRANCH  73  74
ATOM     74  C   LIG d   1       3.202   2.044  -2.950  0.00  0.00     0.079 C 
ATOM     75  H   LIG d   1       2.673   2.843  -2.431  0.00  0.00     0.066 H 
ATOM     76  H   LIG d   1       4.048   2.462  -3.495  0.00  0.00     0.066 H 
ATOM     77  H   LIG d   1       2.525   1.555  -3.651  0.00  0.00     0.066 H 
ENDBRANCH  73  74
ENDBRANCH  67  73
ENDBRANCH  60  63
ENDBRANCH  57  60
ENDBRANCH  55  57
ENDBRANCH  50  53
ENDBRANCH  47  50
ENDBRANCH  41  47
ENDBRANCH   1  41
BRANCH   7  78
ATOM     78  C   LIG d   1      11.596   4.269  -5.046  0.00  0.00    -0.059 C 
ATOM     79  H   LIG d   1      11.722   4.180  -6.124  0.00  0.00     0.024 H 
ATOM     80  H   LIG d   1      12.134   5.146  -4.688  0.00  0.00     0.024 H 
ATOM     81  H   LIG d   1      11.990   3.376  -4.558  0.00  0.00     0.024 H 
ENDBRANCH   7  78
BRANCH  14  82
ATOM     82  O   LIG d   1      11.175   4.433  -0.556  0.00  0.00    -0.392 OA
ATOM     83  H   LIG d   1      10.862   3.658  -1.041  0.00  0.00     0.210 HD
ENDBRANCH  14  82
BRANCH  19  84
ATOM     84  C   LIG d   1      12.851   7.662  -3.265  0.00  0.00    -0.059 C 
ATOM     85  H   LIG d   1      12.865   7.437  -4.331  0.00  0.00     0.024 H 
ATOM     86  H   LIG d   1      13.507   8.508  -3.063  0.00  0.00     0.024 H 
ATOM     87  H   LIG d   1      13.196   6.793  -2.705  0.00  0.00     0.024 H 
ENDBRANCH  19  84
BRANCH  22  88
ATOM     88  O   LIG d   1       8.172  10.104  -1.119  0.00  0.00    -0.392 OA
ATOM     89  H   LIG d   1       7.547  10.154  -1.855  0.00  0.00     0.210 HD
ENDBRANCH  22  88
TORSDOF 14
ENDMDL
MODEL 3
REMARK VINA RESULT:      -6.0      6.836      9.361
REMARK  14 active torsions:
REMARK  status: ('A' for Active; 'I' for Inactive)
REMARK    1  A    between atoms: C_1  and  C_2 
REMARK    2  A    between atoms: C_2  and  C_4 
REMARK    3  A    between atoms: C_2  and  C_19 
REMARK    4  A    between atoms: C_4  and  C_5 
REMARK    5  A    between atoms: C_5  and  C_6 
REMARK       I    between atoms: C_6  and  N_8 
REMARK    6  A    between atoms: N_8  and  C_9 
REMARK    7  A    between atoms: C_9  and  C_10 
REMARK    8  A    between atoms: C_10  and  C_11 
REMARK    9  A    between atoms: C_14  and  O_17 
REMARK   10  A    between atoms: O_17  and  C_18 
REMARK   11  A    between atoms: C_25  and  C_46 
REMARK   12  A    between atoms: C_32  and  O_45 
REMARK   13  A    between atoms: C_37  and  C_44 
REMARK   14  A    between atoms: C_40  and  O_43 
ROOT
ATOM      1  C   LIG d   1       9.462   4.028  -4.576  0.00  0.00    -0.033 C 
ATOM      2  H   LIG d   1       8.417   4.070  -4.883  0.00  0.00     0.031 H 
ATOM      3  C   LIG d   1       9.569   3.581  -3.096  0.00  0.00    -0.049 C 
ATOM      4  C   LIG d   1      10.177   4.779  -2.319  0.00  0.00    -0.049 C 
ATOM      5  C   LIG d   1       9.813   5.980  -3.200  0.00  0.00    -0.030 C 
ATOM      6  H   LIG d   1       8.758   6.229  -3.084  0.00  0.00     0.031 H 
ATOM      7  C   LIG d   1      10.084   5.420  -4.624  0.00  0.00    -0.026 C 
ATOM      8  C   LIG d   1       9.486   6.395  -5.619  0.00  0.00    -0.047 C 
ATOM      9  C   LIG d   1      10.256   7.718  -5.482  0.00  0.00    -0.049 C 
ATOM     10  C   LIG d   1      10.191   8.255  -4.056  0.00  0.00    -0.030 C 
ATOM     11  H   LIG d   1       9.156   8.501  -3.820  0.00  0.00     0.031 H 
ATOM     12  C   LIG d   1      10.671   7.218  -3.020  0.00  0.00    -0.008 C 
ATOM     13  H   LIG d   1      11.715   6.973  -3.211  0.00  0.00     0.033 H 
ATOM     14  C   LIG d   1      10.502   7.781  -1.608  0.00  0.00     0.059 C 
ATOM     15  H   LIG d   1       9.451   8.010  -1.432  0.00  0.00     0.060 H 
ATOM     16  C   LIG d   1      11.333   9.058  -1.467  0.00  0.00    -0.023 C 
ATOM     17  C   LIG d   1      10.858  10.094  -2.487  0.00  0.00    -0.031 C 
ATOM     18  H   LIG d   1      11.449  11.004  -2.384  0.00  0.00     0.031 H 
ATOM     19  C   LIG d   1      11.041   9.519  -3.933  0.00  0.00    -0.026 C 
ATOM     20  C   LIG d   1      10.563  10.556  -4.952  0.00  0.00    -0.045 C 
ATOM     21  C   LIG d   1       9.092  10.885  -4.688  0.00  0.00    -0.026 C 
ATOM     22  C   LIG d   1       8.941  11.453  -3.275  0.00  0.00     0.056 C 
ATOM     23  H   LIG d   1       9.537  12.361  -3.183  0.00  0.00     0.059 H 
ATOM     24  C   LIG d   1       9.382  10.412  -2.240  0.00  0.00    -0.023 C 
ATOM     25  H   LIG d   1       8.581   3.343  -2.704  0.00  0.00     0.027 H 
ATOM     26  H   LIG d   1      10.222   2.712  -3.015  0.00  0.00     0.027 H 
ATOM     27  H   LIG d   1       9.722   4.871  -1.333  0.00  0.00     0.027 H 
ATOM     28  H   LIG d   1      11.259   4.677  -2.236  0.00  0.00     0.027 H 
ATOM     29  H   LIG d   1       9.593   6.005  -6.631  0.00  0.00     0.027 H 
ATOM     30  H   LIG d   1       8.430   6.555  -5.393  0.00  0.00     0.027 H 
ATOM     31  H   LIG d   1      11.300   7.553  -5.754  0.00  0.00     0.027 H 
ATOM     32  H   LIG d   1       9.824   8.454  -6.161  0.00  0.00     0.027 H 
ATOM     33  H   LIG d   1      11.214   9.459  -0.460  0.00  0.00     0.029 H 
ATOM     34  H   LIG d   1      12.384   8.829  -1.644  0.00  0.00     0.029 H 
ATOM     35  H   LIG d   1      11.161  11.462  -4.857  0.00  0.00     0.027 H 
ATOM     36  H   LIG d   1      10.670  10.152  -5.959  0.00  0.00     0.027 H 
ATOM     37  H   LIG d   1       8.749  11.623  -5.414  0.00  0.00     0.029 H 
ATOM     38  H   LIG d   1       8.494   9.980  -4.781  0.00  0.00     0.029 H 
ATOM     39  H   LIG d   1       8.792   9.501  -2.342  0.00  0.00     0.029 H 
ATOM     40  H   LIG d   1       9.260  10.812  -1.233  0.00  0.00     0.029 H 
ENDROOT
BRANCH   1  41
ATOM     41  C   LIG d   1      10.240   3.068  -5.477  0.00  0.00    -0.040 C 
ATOM     42  H   LIG d   1      11.274   3.404  -5.559  0.00  0.00     0.030 H 
BRANCH  41  43
ATOM     43  C   LIG d   1       9.601   3.042  -6.867  0.00  0.00    -0.062 C 
ATOM     44  H   LIG d   1       8.586   2.651  -6.793  0.00  0.00     0.023 H 
ATOM     45  H   LIG d   1       9.572   4.053  -7.274  0.00  0.00     0.023 H 
ATOM     46  H   LIG d   1      10.189   2.402  -7.526  0.00  0.00     0.023 H 
ENDBRANCH  41  43
BRANCH  41  47
ATOM     47  C   LIG d   1      10.209   1.662  -4.874  0.00  0.00    -0.042 C 
ATOM     48  H   LIG d   1      11.194   1.207  -4.963  0.00  0.00     0.027 H 
ATOM     49  H   LIG d   1       9.931   1.725  -3.822  0.00  0.00     0.027 H 
BRANCH  47  50
ATOM     50  C   LIG d   1       9.182   0.809  -5.623  0.00  0.00     0.024 C 
ATOM     51  H   LIG d   1       8.914   1.300  -6.558  0.00  0.00     0.036 H 
ATOM     52  H   LIG d   1       9.611  -0.171  -5.836  0.00  0.00     0.036 H 
BRANCH  50  53
ATOM     53  C   LIG d   1       7.950   0.643  -4.770  0.00  0.00     0.213 C 
ATOM     54  O   LIG d   1       7.114   1.520  -4.738  0.00  0.00    -0.276 OA
ATOM     55  N   LIG d   1       7.780  -0.479  -4.044  0.00  0.00    -0.315 N 
ATOM     56  H   LIG d   1       8.450  -1.180  -4.070  0.00  0.00     0.149 HD
BRANCH  55  57
ATOM     57  C   LIG d   1       6.583  -0.641  -3.215  0.00  0.00     0.016 C 
ATOM     58  H   LIG d   1       6.877  -0.913  -2.202  0.00  0.00     0.046 H 
ATOM     59  H   LIG d   1       6.028   0.298  -3.192  0.00  0.00     0.046 H 
BRANCH  57  60
ATOM     60  C   LIG d   1       5.699  -1.741  -3.804  0.00  0.00    -0.012 C 
ATOM     61  H   LIG d   1       6.326  -2.540  -4.199  0.00  0.00     0.033 H 
ATOM     62  H   LIG d   1       5.050  -2.142  -3.023  0.00  0.00     0.033 H 
BRANCH  60  63
ATOM     63  C   LIG d   1       4.855  -1.168  -4.912  0.00  0.00    -0.046 A 
ATOM     64  C   LIG d   1       3.803  -0.320  -4.610  0.00  0.00    -0.055 A 
ATOM     65  C   LIG d   1       3.031   0.211  -5.625  0.00  0.00    -0.020 A 
ATOM     66  H   LIG d   1       3.589  -0.072  -3.581  0.00  0.00     0.062 H 
ATOM     67  C   LIG d   1       3.303  -0.113  -6.945  0.00  0.00     0.120 A 
ATOM     68  H   LIG d   1       2.213   0.876  -5.389  0.00  0.00     0.065 H 
ATOM     69  C   LIG d   1       4.354  -0.968  -7.245  0.00  0.00    -0.020 A 
ATOM     70  C   LIG d   1       5.128  -1.492  -6.227  0.00  0.00    -0.055 A 
ATOM     71  H   LIG d   1       4.569  -1.221  -8.272  0.00  0.00     0.065 H 
ATOM     72  H   LIG d   1       5.946  -2.157  -6.460  0.00  0.00     0.062 H 
BRANCH  67  73
ATOM     73  O   LIG d   1       2.541   0.405  -7.945  0.00  0.00    -0.495 OA
BRANCH  73  74
ATOM     74  C   LIG d   1       2.905   1.699  -8.432  0.00  0.00     0.079 C 
ATOM     75  H   LIG d   1       3.112   2.359  -7.591  0.00  0.00     0.066 H 
ATOM     76  H   LIG d   1       3.795   1.615  -9.056  0.00  0.00     0.066 H 
ATOM     77  H   LIG d   1       2.085   2.107  -9.023  0.00  0.00     0.066 H 
ENDBRANCH  73  74
ENDBRANCH  67  73
ENDBRANCH  60  63
ENDBRANCH  57  60
ENDBRANCH  55  57
ENDBRANCH  50  53
ENDBRANCH  47  50
ENDBRANCH  41  47
ENDBRANCH   1  41
BRANCH   7  78
ATOM     78  C   LIG d   1      11.591   5.305  -4.856  0.00  0.00    -0.059 C 
ATOM     79  H   LIG d   1      11.914   4.285  -4.648  0.00  0.00     0.024 H 
ATOM     80  H   LIG d   1      11.819   5.554  -5.893  0.00  0.00     0.024 H 
ATOM     81  H   LIG d   1      12.115   5.995  -4.193  0.00  0.00     0.024 H 
ENDBRANCH   7  78
BRANCH  14  82
ATOM     82  O   LIG d   1      10.945   6.816  -0.654  0.00  0.00    -0.392 OA
ATOM     83  H   LIG d   1      11.900   6.823  -0.500  0.00  0.00     0.210 HD
ENDBRANCH  14  82
BRANCH  19  84
ATOM     84  C   LIG d   1      12.510   9.176  -4.197  0.00  0.00    -0.059 C 
ATOM     85  H   LIG d   1      12.706   9.224  -5.268  0.00  0.00     0.024 H 
ATOM     86  H   LIG d   1      13.148   9.891  -3.678  0.00  0.00     0.024 H 
ATOM     87  H   LIG d   1      12.719   8.171  -3.833  0.00  0.00     0.024 H 
ENDBRANCH  19  84
BRANCH  22  88
ATOM     88  O   LIG d   1       7.567  11.759  -3.029  0.00  0.00    -0.392 OA
ATOM     89  H   LIG d   1       6.947  11.210  -3.528  0.00  0.00     0.210 HD
ENDBRANCH  22  88
TORSDOF 14
ENDMDL
MODEL 4
REMARK VINA RESULT:      -5.7      3.265      6.890
REMARK  14 active torsions:
REMARK  status: ('A' for Active; 'I' for Inactive)
REMARK    1  A    between atoms: C_1  and  C_2 
REMARK    2  A    between atoms: C_2  and  C_4 
REMARK    3  A    between atoms: C_2  and  C_19 
REMARK    4  A    between atoms: C_4  and  C_5 
REMARK    5  A    between atoms: C_5  and  C_6 
REMARK       I    between atoms: C_6  and  N_8 
REMARK    6  A    between atoms: N_8  and  C_9 
REMARK    7  A    between atoms: C_9  and  C_10 
REMARK    8  A    between atoms: C_10  and  C_11 
REMARK    9  A    between atoms: C_14  and  O_17 
REMARK   10  A    between atoms: O_17  and  C_18 
REMARK   11  A    between atoms: C_25  and  C_46 
REMARK   12  A    between atoms: C_32  and  O_45 
REMARK   13  A    between atoms: C_37  and  C_44 
REMARK   14  A    between atoms: C_40  and  O_43 
ROOT
ATOM      1  C   LIG d   1       5.743  -1.059  -3.950  0.00  0.00    -0.033 C 
ATOM      2  H   LIG d   1       5.030  -1.095  -4.775  0.00  0.00     0.031 H 
ATOM      3  C   LIG d   1       6.433   0.327  -3.897  0.00  0.00    -0.049 C 
ATOM      4  C   LIG d   1       7.938   0.077  -4.187  0.00  0.00    -0.049 C 
ATOM      5  C   LIG d   1       7.923  -1.241  -4.969  0.00  0.00    -0.030 C 
ATOM      6  H   LIG d   1       7.587  -1.072  -5.991  0.00  0.00     0.031 H 
ATOM      7  C   LIG d   1       6.867  -2.064  -4.180  0.00  0.00    -0.026 C 
ATOM      8  C   LIG d   1       6.526  -3.285  -5.010  0.00  0.00    -0.047 C 
ATOM      9  C   LIG d   1       7.801  -4.138  -5.115  0.00  0.00    -0.049 C 
ATOM     10  C   LIG d   1       8.952  -3.345  -5.723  0.00  0.00    -0.030 C 
ATOM     11  H   LIG d   1       8.697  -3.086  -6.750  0.00  0.00     0.031 H 
ATOM     12  C   LIG d   1       9.220  -2.029  -4.963  0.00  0.00    -0.008 C 
ATOM     13  H   LIG d   1       9.508  -2.257  -3.937  0.00  0.00     0.033 H 
ATOM     14  C   LIG d   1      10.325  -1.240  -5.668  0.00  0.00     0.059 C 
ATOM     15  H   LIG d   1      10.014  -1.013  -6.688  0.00  0.00     0.060 H 
ATOM     16  C   LIG d   1      11.606  -2.074  -5.698  0.00  0.00    -0.023 C 
ATOM     17  C   LIG d   1      11.350  -3.378  -6.456  0.00  0.00    -0.031 C 
ATOM     18  H   LIG d   1      12.265  -3.972  -6.480  0.00  0.00     0.031 H 
ATOM     19  C   LIG d   1      10.226  -4.190  -5.727  0.00  0.00    -0.026 C 
ATOM     20  C   LIG d   1       9.970  -5.493  -6.489  0.00  0.00    -0.045 C 
ATOM     21  C   LIG d   1       9.551  -5.167  -7.924  0.00  0.00    -0.026 C 
ATOM     22  C   LIG d   1      10.669  -4.384  -8.617  0.00  0.00     0.056 C 
ATOM     23  H   LIG d   1      11.578  -4.985  -8.632  0.00  0.00     0.059 H 
ATOM     24  C   LIG d   1      10.913  -3.058  -7.887  0.00  0.00    -0.023 C 
ATOM     25  H   LIG d   1       6.010   0.985  -4.655  0.00  0.00     0.027 H 
ATOM     26  H   LIG d   1       6.311   0.767  -2.908  0.00  0.00     0.027 H 
ATOM     27  H   LIG d   1       8.353   0.882  -4.794  0.00  0.00     0.027 H 
ATOM     28  H   LIG d   1       8.497  -0.032  -3.258  0.00  0.00     0.027 H 
ATOM     29  H   LIG d   1       5.735  -3.856  -4.524  0.00  0.00     0.027 H 
ATOM     30  H   LIG d   1       6.203  -2.978  -6.006  0.00  0.00     0.027 H 
ATOM     31  H   LIG d   1       8.087  -4.475  -4.117  0.00  0.00     0.027 H 
ATOM     32  H   LIG d   1       7.598  -5.008  -5.739  0.00  0.00     0.027 H 
ATOM     33  H   LIG d   1      12.394  -1.512  -6.199  0.00  0.00     0.029 H 
ATOM     34  H   LIG d   1      11.916  -2.302  -4.678  0.00  0.00     0.029 H 
ATOM     35  H   LIG d   1      10.881  -6.091  -6.502  0.00  0.00     0.027 H 
ATOM     36  H   LIG d   1       9.174  -6.052  -5.996  0.00  0.00     0.027 H 
ATOM     37  H   LIG d   1       9.368  -6.094  -8.467  0.00  0.00     0.029 H 
ATOM     38  H   LIG d   1       8.642  -4.567  -7.911  0.00  0.00     0.029 H 
ATOM     39  H   LIG d   1       9.999  -2.464  -7.863  0.00  0.00     0.029 H 
ATOM     40  H   LIG d   1      11.698  -2.494  -8.389  0.00  0.00     0.029 H 
ENDROOT
BRANCH   1  41
ATOM     41  C   LIG d   1       5.034  -1.350  -2.626  0.00  0.00    -0.040 C 
ATOM     42  H   LIG d   1       5.769  -1.638  -1.876  0.00  0.00     0.030 H 
BRANCH  41  43
ATOM     43  C   LIG d   1       4.032  -2.489  -2.823  0.00  0.00    -0.062 C 
ATOM     44  H   LIG d   1       3.189  -2.354  -2.145  0.00  0.00     0.023 H 
ATOM     45  H   LIG d   1       3.675  -2.486  -3.853  0.00  0.00     0.023 H 
ATOM     46  H   LIG d   1       4.519  -3.442  -2.611  0.00  0.00     0.023 H 
ENDBRANCH  41  43
BRANCH  41  47
ATOM     47  C   LIG d   1       4.293  -0.095  -2.157  0.00  0.00    -0.042 C 
ATOM     48  H   LIG d   1       4.258  -0.080  -1.069  0.00  0.00     0.027 H 
ATOM     49  H   LIG d   1       4.818   0.791  -2.516  0.00  0.00     0.027 H 
BRANCH  47  50
ATOM     50  C   LIG d   1       2.869  -0.105  -2.715  0.00  0.00     0.024 C 
ATOM     51  H   LIG d   1       2.512  -1.133  -2.784  0.00  0.00     0.036 H 
ATOM     52  H   LIG d   1       2.216   0.463  -2.052  0.00  0.00     0.036 H 
BRANCH  50  53
ATOM     53  C   LIG d   1       2.862   0.522  -4.086  0.00  0.00     0.213 C 
ATOM     54  O   LIG d   1       3.143   1.694  -4.217  0.00  0.00    -0.276 OA
ATOM     55  N   LIG d   1       2.544  -0.220  -5.165  0.00  0.00    -0.315 N 
ATOM     56  H   LIG d   1       2.319  -1.158  -5.058  0.00  0.00     0.149 HD
BRANCH  55  57
ATOM     57  C   LIG d   1       2.537   0.388  -6.497  0.00  0.00     0.016 C 
ATOM     58  H   LIG d   1       1.514   0.438  -6.868  0.00  0.00     0.046 H 
ATOM     59  H   LIG d   1       2.951   1.395  -6.438  0.00  0.00     0.046 H 
BRANCH  57  60
ATOM     60  C   LIG d   1       3.386  -0.457  -7.448  0.00  0.00    -0.012 C 
ATOM     61  H   LIG d   1       3.766  -1.330  -6.919  0.00  0.00     0.033 H 
ATOM     62  H   LIG d   1       2.773  -0.782  -8.291  0.00  0.00     0.033 H 
BRANCH  60  63
ATOM     63  C   LIG d   1       4.540   0.366  -7.957  0.00  0.00    -0.046 A 
ATOM     64  C   LIG d   1       5.837   0.011  -7.631  0.00  0.00    -0.055 A 
ATOM     65  C   LIG d   1       6.898   0.762  -8.101  0.00  0.00    -0.020 A 
ATOM     66  H   LIG d   1       6.019  -0.855  -7.012  0.00  0.00     0.062 H 
ATOM     67  C   LIG d   1       6.662   1.877  -8.891  0.00  0.00     0.120 A 
ATOM     68  H   LIG d   1       7.910   0.482  -7.849  0.00  0.00     0.065 H 
ATOM     69  C   LIG d   1       5.360   2.234  -9.211  0.00  0.00    -0.020 A 
ATOM     70  C   LIG d   1       4.302   1.478  -8.744  0.00  0.00    -0.055 A 
ATOM     71  H   LIG d   1       5.173   3.101  -9.827  0.00  0.00     0.065 H 
ATOM     72  H   LIG d   1       3.289   1.754  -8.994  0.00  0.00     0.062 H 
BRANCH  67  73
ATOM     73  O   LIG d   1       7.704   2.619  -9.350  0.00  0.00    -0.495 OA
BRANCH  73  74
ATOM     74  C   LIG d   1       8.743   2.925  -8.418  0.00  0.00     0.079 C 
ATOM     75  H   LIG d   1       8.365   2.811  -7.402  0.00  0.00     0.066 H 
ATOM     76  H   LIG d   1       9.581   2.245  -8.573  0.00  0.00     0.066 H 
ATOM     77  H   LIG d   1       9.076   3.952  -8.569  0.00  0.00     0.066 H 
ENDBRANCH  73  74
ENDBRANCH  67  73
ENDBRANCH  60  63
ENDBRANCH  57  60
ENDBRANCH  55  57
ENDBRANCH  50  53
ENDBRANCH  47  50
ENDBRANCH  41  47
ENDBRANCH   1  41
BRANCH   7  78
ATOM     78  C   LIG d   1       7.452  -2.501  -2.835  0.00  0.00    -0.059 C 
ATOM     79  H   LIG d   1       7.733  -1.621  -2.258  0.00  0.00     0.024 H 
ATOM     80  H   LIG d   1       6.706  -3.074  -2.284  0.00  0.00     0.024 H 
ATOM     81  H   LIG d   1       8.333  -3.121  -3.006  0.00  0.00     0.024 H 
ENDBRANCH   7  78
BRANCH  14  82
ATOM     82  O   LIG d   1      10.565  -0.022  -4.962  0.00  0.00    -0.392 OA
ATOM     83  H   LIG d   1      10.742   0.736  -5.534  0.00  0.00     0.210 HD
ENDBRANCH  14  82
BRANCH  19  84
ATOM     84  C   LIG d   1      10.635  -4.506  -4.286  0.00  0.00    -0.059 C 
ATOM     85  H   LIG d   1       9.881  -5.146  -3.828  0.00  0.00     0.024 H 
ATOM     86  H   LIG d   1      11.596  -5.021  -4.287  0.00  0.00     0.024 H 
ATOM     87  H   LIG d   1      10.719  -3.580  -3.720  0.00  0.00     0.024 H 
ENDBRANCH  19  84
BRANCH  22  88
ATOM     88  O   LIG d   1      10.277  -4.079  -9.957  0.00  0.00    -0.392 OA
ATOM     89  H   LIG d   1      10.342  -4.827 -10.565  0.00  0.00     0.210 HD
ENDBRANCH  22  88
TORSDOF 14
ENDMDL
MODEL 5
REMARK VINA RESULT:      -5.5      4.475      5.556
REMARK  14 active torsions:
REMARK  status: ('A' for Active; 'I' for Inactive)
REMARK    1  A    between atoms: C_1  and  C_2 
REMARK    2  A    between atoms: C_2  and  C_4 
REMARK    3  A    between atoms: C_2  and  C_19 
REMARK    4  A    between atoms: C_4  and  C_5 
REMARK    5  A    between atoms: C_5  and  C_6 
REMARK       I    between atoms: C_6  and  N_8 
REMARK    6  A    between atoms: N_8  and  C_9 
REMARK    7  A    between atoms: C_9  and  C_10 
REMARK    8  A    between atoms: C_10  and  C_11 
REMARK    9  A    between atoms: C_14  and  O_17 
REMARK   10  A    between atoms: O_17  and  C_18 
REMARK   11  A    between atoms: C_25  and  C_46 
REMARK   12  A    between atoms: C_32  and  O_45 
REMARK   13  A    between atoms: C_37  and  C_44 
REMARK   14  A    between atoms: C_40  and  O_43 
ROOT
ATOM      1  C   LIG d   1       3.554  -0.330 -10.053  0.00  0.00    -0.033 C 
ATOM      2  H   LIG d   1       4.285   0.378 -10.446  0.00  0.00     0.031 H 
ATOM      3  C   LIG d   1       2.335   0.426  -9.468  0.00  0.00    -0.049 C 
ATOM      4  C   LIG d   1       2.320   0.123  -7.946  0.00  0.00    -0.049 C 
ATOM      5  C   LIG d   1       3.782  -0.232  -7.652  0.00  0.00    -0.030 C 
ATOM      6  H   LIG d   1       4.393   0.670  -7.632  0.00  0.00     0.031 H 
ATOM      7  C   LIG d   1       4.148  -1.108  -8.882  0.00  0.00    -0.026 C 
ATOM      8  C   LIG d   1       5.653  -1.289  -8.883  0.00  0.00    -0.047 C 
ATOM      9  C   LIG d   1       6.018  -2.083  -7.617  0.00  0.00    -0.049 C 
ATOM     10  C   LIG d   1       5.534  -1.374  -6.357  0.00  0.00    -0.030 C 
ATOM     11  H   LIG d   1       6.063  -0.426  -6.262  0.00  0.00     0.031 H 
ATOM     12  C   LIG d   1       4.024  -1.062  -6.406  0.00  0.00    -0.008 C 
ATOM     13  H   LIG d   1       3.465  -1.995  -6.471  0.00  0.00     0.033 H 
ATOM     14  C   LIG d   1       3.617  -0.279  -5.157  0.00  0.00     0.059 C 
ATOM     15  H   LIG d   1       4.179   0.655  -5.115  0.00  0.00     0.060 H 
ATOM     16  C   LIG d   1       3.920  -1.114  -3.911  0.00  0.00    -0.023 C 
ATOM     17  C   LIG d   1       5.418  -1.420  -3.852  0.00  0.00    -0.031 C 
ATOM     18  H   LIG d   1       5.633  -2.013  -2.963  0.00  0.00     0.031 H 
ATOM     19  C   LIG d   1       5.831  -2.232  -5.127  0.00  0.00    -0.026 C 
ATOM     20  C   LIG d   1       7.330  -2.536  -5.067  0.00  0.00    -0.045 C 
ATOM     21  C   LIG d   1       8.111  -1.222  -4.992  0.00  0.00    -0.026 C 
ATOM     22  C   LIG d   1       7.697  -0.454  -3.734  0.00  0.00     0.056 C 
ATOM     23  H   LIG d   1       7.915  -1.056  -2.852  0.00  0.00     0.059 H 
ATOM     24  C   LIG d   1       6.205  -0.109  -3.796  0.00  0.00    -0.023 C 
ATOM     25  H   LIG d   1       2.444   1.498  -9.636  0.00  0.00     0.027 H 
ATOM     26  H   LIG d   1       1.416   0.067  -9.931  0.00  0.00     0.027 H 
ATOM     27  H   LIG d   1       2.014   1.002  -7.380  0.00  0.00     0.027 H 
ATOM     28  H   LIG d   1       1.667  -0.723  -7.727  0.00  0.00     0.027 H 
ATOM     29  H   LIG d   1       5.960  -1.841  -9.770  0.00  0.00     0.027 H 
ATOM     30  H   LIG d   1       6.143  -0.314  -8.864  0.00  0.00     0.027 H 
ATOM     31  H   LIG d   1       5.557  -3.070  -7.671  0.00  0.00     0.027 H 
ATOM     32  H   LIG d   1       7.101  -2.198  -7.569  0.00  0.00     0.027 H 
ATOM     33  H   LIG d   1       3.629  -0.555  -3.021  0.00  0.00     0.029 H 
ATOM     34  H   LIG d   1       3.359  -2.047  -3.954  0.00  0.00     0.029 H 
ATOM     35  H   LIG d   1       7.544  -3.138  -4.185  0.00  0.00     0.027 H 
ATOM     36  H   LIG d   1       7.625  -3.084  -5.963  0.00  0.00     0.027 H 
ATOM     37  H   LIG d   1       9.179  -1.437  -4.950  0.00  0.00     0.029 H 
ATOM     38  H   LIG d   1       7.895  -0.619  -5.873  0.00  0.00     0.029 H 
ATOM     39  H   LIG d   1       5.988   0.483  -4.685  0.00  0.00     0.029 H 
ATOM     40  H   LIG d   1       5.913   0.451  -2.907  0.00  0.00     0.029 H 
ENDROOT
BRANCH   1  41
ATOM     41  C   LIG d   1       3.104  -1.292 -11.154  0.00  0.00    -0.040 C 
ATOM     42  H   LIG d   1       3.231  -2.319 -10.813  0.00  0.00     0.030 H 
BRANCH  41  43
ATOM     43  C   LIG d   1       3.948  -1.062 -12.409  0.00  0.00    -0.062 C 
ATOM     44  H   LIG d   1       4.037  -1.996 -12.964  0.00  0.00     0.023 H 
ATOM     45  H   LIG d   1       3.469  -0.310 -13.037  0.00  0.00     0.023 H 
ATOM     46  H   LIG d   1       4.941  -0.715 -12.120  0.00  0.00     0.023 H 
ENDBRANCH  41  43
BRANCH  41  47
ATOM     47  C   LIG d   1       1.629  -1.042 -11.478  0.00  0.00    -0.042 C 
ATOM     48  H   LIG d   1       1.122  -0.662 -10.592  0.00  0.00     0.027 H 
ATOM     49  H   LIG d   1       1.553  -0.311 -12.282  0.00  0.00     0.027 H 
BRANCH  47  50
ATOM     50  C   LIG d   1       0.974  -2.353 -11.918  0.00  0.00     0.024 C 
ATOM     51  H   LIG d   1       1.737  -3.028 -12.308  0.00  0.00     0.036 H 
ATOM     52  H   LIG d   1       0.480  -2.817 -11.064  0.00  0.00     0.036 H 
BRANCH  50  53
ATOM     53  C   LIG d   1      -0.043  -2.070 -12.994  0.00  0.00     0.213 C 
ATOM     54  O   LIG d   1       0.098  -2.543 -14.101  0.00  0.00    -0.276 OA
ATOM     55  N   LIG d   1      -1.108  -1.290 -12.725  0.00  0.00    -0.315 N 
ATOM     56  H   LIG d   1      -1.221  -0.912 -11.839  0.00  0.00     0.149 HD
BRANCH  55  57
ATOM     57  C   LIG d   1      -2.097  -1.014 -13.770  0.00  0.00     0.016 C 
ATOM     58  H   LIG d   1      -1.770  -0.161 -14.362  0.00  0.00     0.046 H 
ATOM     59  H   LIG d   1      -2.197  -1.888 -14.415  0.00  0.00     0.046 H 
BRANCH  57  60
ATOM     60  C   LIG d   1      -3.448  -0.701 -13.124  0.00  0.00    -0.012 C 
ATOM     61  H   LIG d   1      -4.226  -1.299 -13.599  0.00  0.00     0.033 H 
ATOM     62  H   LIG d   1      -3.406  -0.940 -12.060  0.00  0.00     0.033 H 
BRANCH  60  63
ATOM     63  C   LIG d   1      -3.760   0.762 -13.297  0.00  0.00    -0.046 A 
ATOM     64  C   LIG d   1      -2.758   1.643 -13.667  0.00  0.00    -0.055 A 
ATOM     65  C   LIG d   1      -3.044   2.984 -13.831  0.00  0.00    -0.020 A 
ATOM     66  H   LIG d   1      -1.755   1.279 -13.829  0.00  0.00     0.062 H 
ATOM     67  C   LIG d   1      -4.332   3.451 -13.616  0.00  0.00     0.120 A 
ATOM     68  H   LIG d   1      -2.262   3.670 -14.124  0.00  0.00     0.065 H 
ATOM     69  C   LIG d   1      -5.334   2.567 -13.241  0.00  0.00    -0.020 A 
ATOM     70  C   LIG d   1      -5.046   1.225 -13.083  0.00  0.00    -0.055 A 
ATOM     71  H   LIG d   1      -6.337   2.927 -13.074  0.00  0.00     0.065 H 
ATOM     72  H   LIG d   1      -5.824   0.537 -12.791  0.00  0.00     0.062 H 
BRANCH  67  73
ATOM     73  O   LIG d   1      -4.613   4.771 -13.774  0.00  0.00    -0.495 OA
BRANCH  73  74
ATOM     74  C   LIG d   1      -3.686   5.545 -14.539  0.00  0.00     0.079 C 
ATOM     75  H   LIG d   1      -3.246   4.920 -15.316  0.00  0.00     0.066 H 
ATOM     76  H   LIG d   1      -4.207   6.385 -14.999  0.00  0.00     0.066 H 
ATOM     77  H   LIG d   1      -2.900   5.920 -13.884  0.00  0.00     0.066 H 
ENDBRANCH  73  74
ENDBRANCH  67  73
ENDBRANCH  60  63
ENDBRANCH  57  60
ENDBRANCH  55  57
ENDBRANCH  50  53
ENDBRANCH  47  50
ENDBRANCH  41  47
ENDBRANCH   1  41
BRANCH   7  78
ATOM     78  C   LIG d   1       3.464  -2.471  -8.767  0.00  0.00    -0.059 C 
ATOM     79  H   LIG d   1       3.415  -2.937  -9.751  0.00  0.00     0.024 H 
ATOM     80  H   LIG d   1       4.034  -3.108  -8.091  0.00  0.00     0.024 H 
ATOM     81  H   LIG d   1       2.454  -2.340  -8.378  0.00  0.00     0.024 H 
ENDBRANCH   7  78
BRANCH  14  82
ATOM     82  O   LIG d   1       2.219   0.009  -5.209  0.00  0.00    -0.392 OA
ATOM     83  H   LIG d   1       1.854   0.342  -4.378  0.00  0.00     0.210 HD
ENDBRANCH  14  82
BRANCH  19  84
ATOM     84  C   LIG d   1       5.042  -3.541  -5.214  0.00  0.00    -0.059 C 
ATOM     85  H   LIG d   1       4.677  -3.811  -4.223  0.00  0.00     0.024 H 
ATOM     86  H   LIG d   1       4.197  -3.411  -5.890  0.00  0.00     0.024 H 
ATOM     87  H   LIG d   1       5.690  -4.332  -5.591  0.00  0.00     0.024 H 
ENDBRANCH  19  84
BRANCH  22  88
ATOM     88  O   LIG d   1       8.426   0.773  -3.665  0.00  0.00    -0.392 OA
ATOM     89  H   LIG d   1       9.077   0.884  -4.370  0.00  0.00     0.210 HD
ENDBRANCH  22  88
TORSDOF 14
ENDMDL
MODEL 6
REMARK VINA RESULT:      -5.5      8.937     12.890
REMARK  14 active torsions:
REMARK  status: ('A' for Active; 'I' for Inactive)
REMARK    1  A    between atoms: C_1  and  C_2 
REMARK    2  A    between atoms: C_2  and  C_4 
REMARK    3  A    between atoms: C_2  and  C_19 
REMARK    4  A    between atoms: C_4  and  C_5 
REMARK    5  A    between atoms: C_5  and  C_6 
REMARK       I    between atoms: C_6  and  N_8 
REMARK    6  A    between atoms: N_8  and  C_9 
REMARK    7  A    between atoms: C_9  and  C_10 
REMARK    8  A    between atoms: C_10  and  C_11 
REMARK    9  A    between atoms: C_14  and  O_17 
REMARK   10  A    between atoms: O_17  and  C_18 
REMARK   11  A    between atoms: C_25  and  C_46 
REMARK   12  A    between atoms: C_32  and  O_45 
REMARK   13  A    between atoms: C_37  and  C_44 
REMARK   14  A    between atoms: C_40  and  O_43 
ROOT
ATOM      1  C   LIG d   1       9.550   5.808  -5.536  0.00  0.00    -0.033 C 
ATOM      2  H   LIG d   1       8.639   5.215  -5.625  0.00  0.00     0.031 H 
ATOM      3  C   LIG d   1       9.200   7.301  -5.319  0.00  0.00    -0.049 C 
ATOM      4  C   LIG d   1       9.731   8.061  -6.565  0.00  0.00    -0.049 C 
ATOM      5  C   LIG d   1       9.775   6.969  -7.640  0.00  0.00    -0.030 C 
ATOM      6  H   LIG d   1       8.770   6.751  -7.999  0.00  0.00     0.031 H 
ATOM      7  C   LIG d   1      10.339   5.762  -6.841  0.00  0.00    -0.026 C 
ATOM      8  C   LIG d   1      10.161   4.524  -7.698  0.00  0.00    -0.047 C 
ATOM      9  C   LIG d   1      11.033   4.705  -8.951  0.00  0.00    -0.049 C 
ATOM     10  C   LIG d   1      10.662   5.975  -9.708  0.00  0.00    -0.030 C 
ATOM     11  H   LIG d   1       9.643   5.877 -10.082  0.00  0.00     0.031 H 
ATOM     12  C   LIG d   1      10.709   7.227  -8.807  0.00  0.00    -0.008 C 
ATOM     13  H   LIG d   1      11.725   7.370  -8.442  0.00  0.00     0.033 H 
ATOM     14  C   LIG d   1      10.246   8.451  -9.599  0.00  0.00     0.059 C 
ATOM     15  H   LIG d   1       9.225   8.294  -9.947  0.00  0.00     0.060 H 
ATOM     16  C   LIG d   1      11.169   8.660 -10.800  0.00  0.00    -0.023 C 
ATOM     17  C   LIG d   1      11.123   7.425 -11.702  0.00  0.00    -0.031 C 
ATOM     18  H   LIG d   1      11.779   7.575 -12.560  0.00  0.00     0.031 H 
ATOM     19  C   LIG d   1      11.607   6.174 -10.893  0.00  0.00    -0.026 C 
ATOM     20  C   LIG d   1      11.557   4.939 -11.797  0.00  0.00    -0.045 C 
ATOM     21  C   LIG d   1      10.126   4.733 -12.296  0.00  0.00    -0.026 C 
ATOM     22  C   LIG d   1       9.680   5.963 -13.090  0.00  0.00     0.056 C 
ATOM     23  H   LIG d   1      10.344   6.105 -13.943  0.00  0.00     0.059 H 
ATOM     24  C   LIG d   1       9.689   7.203 -12.189  0.00  0.00    -0.023 C 
ATOM     25  H   LIG d   1       8.120   7.425  -5.237  0.00  0.00     0.027 H 
ATOM     26  H   LIG d   1       9.688   7.672  -4.418  0.00  0.00     0.027 H 
ATOM     27  H   LIG d   1       9.046   8.858  -6.852  0.00  0.00     0.027 H 
ATOM     28  H   LIG d   1      10.729   8.458  -6.378  0.00  0.00     0.027 H 
ATOM     29  H   LIG d   1      10.481   3.641  -7.146  0.00  0.00     0.027 H 
ATOM     30  H   LIG d   1       9.114   4.421  -7.987  0.00  0.00     0.027 H 
ATOM     31  H   LIG d   1      12.080   4.762  -8.650  0.00  0.00     0.027 H 
ATOM     32  H   LIG d   1      10.898   3.846  -9.607  0.00  0.00     0.027 H 
ATOM     33  H   LIG d   1      10.840   9.533 -11.364  0.00  0.00     0.029 H 
ATOM     34  H   LIG d   1      12.190   8.816 -10.451  0.00  0.00     0.029 H 
ATOM     35  H   LIG d   1      12.222   5.084 -12.648  0.00  0.00     0.027 H 
ATOM     36  H   LIG d   1      11.875   4.062 -11.231  0.00  0.00     0.027 H 
ATOM     37  H   LIG d   1      10.088   3.854 -12.938  0.00  0.00     0.029 H 
ATOM     38  H   LIG d   1       9.461   4.590 -11.445  0.00  0.00     0.029 H 
ATOM     39  H   LIG d   1       9.033   7.054 -11.331  0.00  0.00     0.029 H 
ATOM     40  H   LIG d   1       9.358   8.076 -12.751  0.00  0.00     0.029 H 
ENDROOT
BRANCH   1  41
ATOM     41  C   LIG d   1      10.407   5.290  -4.380  0.00  0.00    -0.040 C 
ATOM     42  H   LIG d   1      11.381   4.983  -4.759  0.00  0.00     0.030 H 
BRANCH  41  43
ATOM     43  C   LIG d   1       9.713   4.094  -3.726  0.00  0.00    -0.062 C 
ATOM     44  H   LIG d   1       9.506   4.322  -2.679  0.00  0.00     0.023 H 
ATOM     45  H   LIG d   1       8.777   3.888  -4.245  0.00  0.00     0.023 H 
ATOM     46  H   LIG d   1      10.363   3.220  -3.786  0.00  0.00     0.023 H 
ENDBRANCH  41  43
BRANCH  41  47
ATOM     47  C   LIG d   1      10.593   6.402  -3.345  0.00  0.00    -0.042 C 
ATOM     48  H   LIG d   1      11.649   6.660  -3.274  0.00  0.00     0.027 H 
ATOM     49  H   LIG d   1      10.024   7.280  -3.650  0.00  0.00     0.027 H 
BRANCH  47  50
ATOM     50  C   LIG d   1      10.091   5.919  -1.982  0.00  0.00     0.024 C 
ATOM     51  H   LIG d   1       9.199   5.308  -2.119  0.00  0.00     0.036 H 
ATOM     52  H   LIG d   1      10.869   5.326  -1.499  0.00  0.00     0.036 H 
BRANCH  50  53
ATOM     53  C   LIG d   1       9.758   7.109  -1.119  0.00  0.00     0.213 C 
ATOM     54  O   LIG d   1      10.101   7.130   0.043  0.00  0.00    -0.276 OA
ATOM     55  N   LIG d   1       9.079   8.150  -1.640  0.00  0.00    -0.315 N 
ATOM     56  H   LIG d   1       8.804   8.132  -2.571  0.00  0.00     0.149 HD
BRANCH  55  57
ATOM     57  C   LIG d   1       8.754   9.307  -0.802  0.00  0.00     0.016 C 
ATOM     58  H   LIG d   1       7.783   9.705  -1.094  0.00  0.00     0.046 H 
ATOM     59  H   LIG d   1       8.721   8.999   0.243  0.00  0.00     0.046 H 
BRANCH  57  60
ATOM     60  C   LIG d   1       9.824  10.385  -0.984  0.00  0.00    -0.012 C 
ATOM     61  H   LIG d   1       9.530  11.284  -0.442  0.00  0.00     0.033 H 
ATOM     62  H   LIG d   1      10.776  10.020  -0.594  0.00  0.00     0.033 H 
BRANCH  60  63
ATOM     63  C   LIG d   1       9.971  10.704  -2.448  0.00  0.00    -0.046 A 
ATOM     64  C   LIG d   1       8.939  11.331  -3.125  0.00  0.00    -0.055 A 
ATOM     65  C   LIG d   1       9.074  11.630  -4.467  0.00  0.00    -0.020 A 
ATOM     66  H   LIG d   1       8.030  11.588  -2.602  0.00  0.00     0.062 H 
ATOM     67  C   LIG d   1      10.240  11.293  -5.139  0.00  0.00     0.120 A 
ATOM     68  H   LIG d   1       8.270  12.122  -4.994  0.00  0.00     0.065 H 
ATOM     69  C   LIG d   1      11.271  10.660  -4.459  0.00  0.00    -0.020 A 
ATOM     70  C   LIG d   1      11.134  10.367  -3.116  0.00  0.00    -0.055 A 
ATOM     71  H   LIG d   1      12.180  10.397  -4.979  0.00  0.00     0.065 H 
ATOM     72  H   LIG d   1      11.936   9.876  -2.586  0.00  0.00     0.062 H 
BRANCH  67  73
ATOM     73  O   LIG d   1      10.372  11.583  -6.460  0.00  0.00    -0.495 OA
BRANCH  73  74
ATOM     74  C   LIG d   1       9.607  12.680  -6.963  0.00  0.00     0.079 C 
ATOM     75  H   LIG d   1       8.728  12.827  -6.337  0.00  0.00     0.066 H 
ATOM     76  H   LIG d   1      10.217  13.583  -6.952  0.00  0.00     0.066 H 
ATOM     77  H   LIG d   1       9.294  12.466  -7.985  0.00  0.00     0.066 H 
ENDBRANCH  73  74
ENDBRANCH  67  73
ENDBRANCH  60  63
ENDBRANCH  57  60
ENDBRANCH  55  57
ENDBRANCH  50  53
ENDBRANCH  47  50
ENDBRANCH  41  47
ENDBRANCH   1  41
BRANCH   7  78
ATOM     78  C   LIG d   1      11.826   5.981  -6.554  0.00  0.00    -0.059 C 
ATOM     79  H   LIG d   1      12.420   5.495  -7.327  0.00  0.00     0.024 H 
ATOM     80  H   LIG d   1      12.040   7.050  -6.549  0.00  0.00     0.024 H 
ATOM     81  H   LIG d   1      12.075   5.555  -5.582  0.00  0.00     0.024 H 
ENDBRANCH   7  78
BRANCH  14  82
ATOM     82  O   LIG d   1      10.288   9.606  -8.759  0.00  0.00    -0.392 OA
ATOM     83  H   LIG d   1       9.435  10.046  -8.652  0.00  0.00     0.210 HD
ENDBRANCH  14  82
BRANCH  19  84
ATOM     84  C   LIG d   1      13.034   6.381 -10.381  0.00  0.00    -0.059 C 
ATOM     85  H   LIG d   1      13.191   5.773  -9.489  0.00  0.00     0.024 H 
ATOM     86  H   LIG d   1      13.744   6.082 -11.152  0.00  0.00     0.024 H 
ATOM     87  H   LIG d   1      13.184   7.431 -10.136  0.00  0.00     0.024 H 
ENDBRANCH  19  84
BRANCH  22  88
ATOM     88  O   LIG d   1       8.343   5.771 -13.555  0.00  0.00    -0.392 OA
ATOM     89  H   LIG d   1       7.956   6.552 -13.974  0.00  0.00     0.210 HD
ENDBRANCH  22  88
TORSDOF 14
ENDMDL
MODEL 7
REMARK VINA RESULT:      -5.4      6.283      9.055
REMARK  14 active torsions:
REMARK  status: ('A' for Active; 'I' for Inactive)
REMARK    1  A    between atoms: C_1  and  C_2 
REMARK    2  A    between atoms: C_2  and  C_4 
REMARK    3  A    between atoms: C_2  and  C_19 
REMARK    4  A    between atoms: C_4  and  C_5 
REMARK    5  A    between atoms: C_5  and  C_6 
REMARK       I    between atoms: C_6  and  N_8 
REMARK    6  A    between atoms: N_8  and  C_9 
REMARK    7  A    between atoms: C_9  and  C_10 
REMARK    8  A    between atoms: C_10  and  C_11 
REMARK    9  A    between atoms: C_14  and  O_17 
REMARK   10  A    between atoms: O_17  and  C_18 
REMARK   11  A    between atoms: C_25  and  C_46 
REMARK   12  A    between atoms: C_32  and  O_45 
REMARK   13  A    between atoms: C_37  and  C_44 
REMARK   14  A    between atoms: C_40  and  O_43 
ROOT
ATOM      1  C   LIG d   1       9.275   3.455  -4.973  0.00  0.00    -0.033 C 
ATOM      2  H   LIG d   1       8.228   3.709  -5.142  0.00  0.00     0.031 H 
ATOM      3  C   LIG d   1       9.404   2.487  -3.771  0.00  0.00    -0.049 C 
ATOM      4  C   LIG d   1      10.200   3.250  -2.678  0.00  0.00    -0.049 C 
ATOM      5  C   LIG d   1       9.944   4.719  -3.029  0.00  0.00    -0.030 C 
ATOM      6  H   LIG d   1       8.937   5.010  -2.730  0.00  0.00     0.031 H 
ATOM      7  C   LIG d   1      10.064   4.699  -4.578  0.00  0.00    -0.026 C 
ATOM      8  C   LIG d   1       9.542   6.025  -5.095  0.00  0.00    -0.047 C 
ATOM      9  C   LIG d   1      10.481   7.123  -4.566  0.00  0.00    -0.049 C 
ATOM     10  C   LIG d   1      10.560   7.101  -3.044  0.00  0.00    -0.030 C 
ATOM     11  H   LIG d   1       9.579   7.344  -2.637  0.00  0.00     0.031 H 
ATOM     12  C   LIG d   1      10.961   5.713  -2.500  0.00  0.00    -0.008 C 
ATOM     13  H   LIG d   1      11.953   5.455  -2.867  0.00  0.00     0.033 H 
ATOM     14  C   LIG d   1      10.941   5.732  -0.971  0.00  0.00     0.059 C 
ATOM     15  H   LIG d   1       9.938   5.982  -0.624  0.00  0.00     0.060 H 
ATOM     16  C   LIG d   1      11.934   6.778  -0.462  0.00  0.00    -0.023 C 
ATOM     17  C   LIG d   1      11.539   8.159  -0.991  0.00  0.00    -0.031 C 
ATOM     18  H   LIG d   1      12.245   8.904  -0.626  0.00  0.00     0.031 H 
ATOM     19  C   LIG d   1      11.570   8.141  -2.557  0.00  0.00    -0.026 C 
ATOM     20  C   LIG d   1      11.173   9.522  -3.085  0.00  0.00    -0.045 C 
ATOM     21  C   LIG d   1       9.772   9.874  -2.580  0.00  0.00    -0.026 C 
ATOM     22  C   LIG d   1       9.770   9.894  -1.050  0.00  0.00     0.056 C 
ATOM     23  H   LIG d   1      10.481  10.641  -0.696  0.00  0.00     0.059 H 
ATOM     24  C   LIG d   1      10.131   8.507  -0.505  0.00  0.00    -0.023 C 
ATOM     25  H   LIG d   1       8.416   2.220  -3.397  0.00  0.00     0.027 H 
ATOM     26  H   LIG d   1       9.945   1.589  -4.070  0.00  0.00     0.027 H 
ATOM     27  H   LIG d   1       9.814   3.017  -1.686  0.00  0.00     0.027 H 
ATOM     28  H   LIG d   1      11.263   3.018  -2.742  0.00  0.00     0.027 H 
ATOM     29  H   LIG d   1       9.545   6.026  -6.184  0.00  0.00     0.027 H 
ATOM     30  H   LIG d   1       8.529   6.194  -4.725  0.00  0.00     0.027 H 
ATOM     31  H   LIG d   1      11.478   6.967  -4.979  0.00  0.00     0.027 H 
ATOM     32  H   LIG d   1      10.110   8.095  -4.891  0.00  0.00     0.027 H 
ATOM     33  H   LIG d   1      11.920   6.791   0.628  0.00  0.00     0.029 H 
ATOM     34  H   LIG d   1      12.936   6.528  -0.810  0.00  0.00     0.029 H 
ATOM     35  H   LIG d   1      11.885  10.266  -2.729  0.00  0.00     0.027 H 
ATOM     36  H   LIG d   1      11.174   9.508  -4.175  0.00  0.00     0.027 H 
ATOM     37  H   LIG d   1       9.487  10.857  -2.956  0.00  0.00     0.029 H 
ATOM     38  H   LIG d   1       9.060   9.129  -2.934  0.00  0.00     0.029 H 
ATOM     39  H   LIG d   1       9.425   7.760  -0.870  0.00  0.00     0.029 H 
ATOM     40  H   LIG d   1      10.115   8.518   0.585  0.00  0.00     0.029 H 
ENDROOT
BRANCH   1  41
ATOM     41  C   LIG d   1       9.875   2.823  -6.230  0.00  0.00    -0.040 C 
ATOM     42  H   LIG d   1      10.942   3.041  -6.273  0.00  0.00     0.030 H 
BRANCH  41  43
ATOM     43  C   LIG d   1       9.187   3.397  -7.469  0.00  0.00    -0.062 C 
ATOM     44  H   LIG d   1       8.564   4.245  -7.180  0.00  0.00     0.023 H 
ATOM     45  H   LIG d   1       9.940   3.727  -8.184  0.00  0.00     0.023 H 
ATOM     46  H   LIG d   1       8.563   2.628  -7.927  0.00  0.00     0.023 H 
ENDBRANCH  41  43
BRANCH  41  47
ATOM     47  C   LIG d   1       9.669   1.307  -6.188  0.00  0.00    -0.042 C 
ATOM     48  H   LIG d   1      10.587   0.806  -6.490  0.00  0.00     0.027 H 
ATOM     49  H   LIG d   1       9.407   1.005  -5.173  0.00  0.00     0.027 H 
BRANCH  47  50
ATOM     50  C   LIG d   1       8.537   0.919  -7.142  0.00  0.00     0.024 C 
ATOM     51  H   LIG d   1       8.291   1.769  -7.779  0.00  0.00     0.036 H 
ATOM     52  H   LIG d   1       8.856   0.081  -7.762  0.00  0.00     0.036 H 
BRANCH  50  53
ATOM     53  C   LIG d   1       7.322   0.521  -6.344  0.00  0.00     0.213 C 
ATOM     54  O   LIG d   1       6.217   0.622  -6.833  0.00  0.00    -0.276 OA
ATOM     55  N   LIG d   1       7.464   0.054  -5.088  0.00  0.00    -0.315 N 
ATOM     56  H   LIG d   1       8.348  -0.026  -4.698  0.00  0.00     0.149 HD
BRANCH  55  57
ATOM     57  C   LIG d   1       6.283  -0.332  -4.312  0.00  0.00     0.016 C 
ATOM     58  H   LIG d   1       5.963   0.507  -3.696  0.00  0.00     0.046 H 
ATOM     59  H   LIG d   1       5.478  -0.612  -4.992  0.00  0.00     0.046 H 
BRANCH  57  60
ATOM     60  C   LIG d   1       6.629  -1.523  -3.416  0.00  0.00    -0.012 C 
ATOM     61  H   LIG d   1       7.661  -1.435  -3.077  0.00  0.00     0.033 H 
ATOM     62  H   LIG d   1       5.963  -1.532  -2.551  0.00  0.00     0.033 H 
BRANCH  60  63
ATOM     63  C   LIG d   1       6.460  -2.802  -4.192  0.00  0.00    -0.046 A 
ATOM     64  C   LIG d   1       7.572  -3.548  -4.544  0.00  0.00    -0.055 A 
ATOM     65  C   LIG d   1       7.419  -4.724  -5.251  0.00  0.00    -0.020 A 
ATOM     66  H   LIG d   1       8.558  -3.210  -4.261  0.00  0.00     0.062 H 
ATOM     67  C   LIG d   1       6.152  -5.152  -5.619  0.00  0.00     0.120 A 
ATOM     68  H   LIG d   1       8.287  -5.308  -5.522  0.00  0.00     0.065 H 
ATOM     69  C   LIG d   1       5.040  -4.400  -5.270  0.00  0.00    -0.020 A 
ATOM     70  C   LIG d   1       5.196  -3.227  -4.557  0.00  0.00    -0.055 A 
ATOM     71  H   LIG d   1       4.052  -4.732  -5.554  0.00  0.00     0.065 H 
ATOM     72  H   LIG d   1       4.331  -2.641  -4.285  0.00  0.00     0.062 H 
BRANCH  67  73
ATOM     73  O   LIG d   1       6.000  -6.308  -6.319  0.00  0.00    -0.495 OA
BRANCH  73  74
ATOM     74  C   LIG d   1       4.686  -6.865  -6.373  0.00  0.00     0.079 C 
ATOM     75  H   LIG d   1       4.677  -7.712  -7.058  0.00  0.00     0.066 H 
ATOM     76  H   LIG d   1       4.392  -7.200  -5.377  0.00  0.00     0.066 H 
ATOM     77  H   LIG d   1       3.984  -6.108  -6.722  0.00  0.00     0.066 H 
ENDBRANCH  73  74
ENDBRANCH  67  73
ENDBRANCH  60  63
ENDBRANCH  57  60
ENDBRANCH  55  57
ENDBRANCH  50  53
ENDBRANCH  47  50
ENDBRANCH  41  47
ENDBRANCH   1  41
BRANCH   7  78
ATOM     78  C   LIG d   1      11.531   4.530  -4.980  0.00  0.00    -0.059 C 
ATOM     79  H   LIG d   1      12.030   5.498  -4.948  0.00  0.00     0.024 H 
ATOM     80  H   LIG d   1      12.020   3.845  -4.287  0.00  0.00     0.024 H 
ATOM     81  H   LIG d   1      11.586   4.125  -5.991  0.00  0.00     0.024 H 
ENDBRANCH   7  78
BRANCH  14  82
ATOM     82  O   LIG d   1      11.309   4.444  -0.474  0.00  0.00    -0.392 OA
ATOM     83  H   LIG d   1      11.917   3.960  -1.048  0.00  0.00     0.210 HD
ENDBRANCH  14  82
BRANCH  19  84
ATOM     84  C   LIG d   1      12.966   7.776  -3.067  0.00  0.00    -0.059 C 
ATOM     85  H   LIG d   1      13.507   8.687  -3.326  0.00  0.00     0.024 H 
ATOM     86  H   LIG d   1      13.508   7.241  -2.288  0.00  0.00     0.024 H 
ATOM     87  H   LIG d   1      12.878   7.142  -3.949  0.00  0.00     0.024 H 
ENDBRANCH  19  84
BRANCH  22  88
ATOM     88  O   LIG d   1       8.462  10.221  -0.579  0.00  0.00    -0.392 OA
ATOM     89  H   LIG d   1       8.317  11.168  -0.447  0.00  0.00     0.210 HD
ENDBRANCH  22  88
TORSDOF 14
ENDMDL
MODEL 8
REMARK VINA RESULT:      -5.3      4.963      8.899
REMARK  14 active torsions:
REMARK  status: ('A' for Active; 'I' for Inactive)
REMARK    1  A    between atoms: C_1  and  C_2 
REMARK    2  A    between atoms: C_2  and  C_4 
REMARK    3  A    between atoms: C_2  and  C_19 
REMARK    4  A    between atoms: C_4  and  C_5 
REMARK    5  A    between atoms: C_5  and  C_6 
REMARK       I    between atoms: C_6  and  N_8 
REMARK    6  A    between atoms: N_8  and  C_9 
REMARK    7  A    between atoms: C_9  and  C_10 
REMARK    8  A    between atoms: C_10  and  C_11 
REMARK    9  A    between atoms: C_14  and  O_17 
REMARK   10  A    between atoms: O_17  and  C_18 
REMARK   11  A    between atoms: C_25  and  C_46 
REMARK   12  A    between atoms: C_32  and  O_45 
REMARK   13  A    between atoms: C_37  and  C_44 
REMARK   14  A    between atoms: C_40  and  O_43 
ROOT
ATOM      1  C   LIG d   1       8.474  -1.021  -6.870  0.00  0.00    -0.033 C 
ATOM      2  H   LIG d   1       8.666  -1.979  -7.355  0.00  0.00     0.031 H 
ATOM      3  C   LIG d   1       7.804  -1.242  -5.491  0.00  0.00    -0.049 C 
ATOM      4  C   LIG d   1       6.386  -0.617  -5.588  0.00  0.00    -0.049 C 
ATOM      5  C   LIG d   1       6.100  -0.646  -7.094  0.00  0.00    -0.030 C 
ATOM      6  H   LIG d   1       5.854  -1.658  -7.414  0.00  0.00     0.031 H 
ATOM      7  C   LIG d   1       7.470  -0.210  -7.684  0.00  0.00    -0.026 C 
ATOM      8  C   LIG d   1       7.432  -0.478  -9.175  0.00  0.00    -0.047 C 
ATOM      9  C   LIG d   1       6.351   0.436  -9.776  0.00  0.00    -0.049 C 
ATOM     10  C   LIG d   1       4.994   0.196  -9.124  0.00  0.00    -0.030 C 
ATOM     11  H   LIG d   1       4.669  -0.819  -9.351  0.00  0.00     0.031 H 
ATOM     12  C   LIG d   1       5.052   0.333  -7.588  0.00  0.00    -0.008 C 
ATOM     13  H   LIG d   1       5.346   1.350  -7.328  0.00  0.00     0.033 H 
ATOM     14  C   LIG d   1       3.686  -0.001  -6.987  0.00  0.00     0.059 C 
ATOM     15  H   LIG d   1       3.415  -1.024  -7.249  0.00  0.00     0.060 H 
ATOM     16  C   LIG d   1       2.637   0.965  -7.540  0.00  0.00    -0.023 C 
ATOM     17  C   LIG d   1       2.568   0.829  -9.062  0.00  0.00    -0.031 C 
ATOM     18  H   LIG d   1       1.818   1.515  -9.456  0.00  0.00     0.031 H 
ATOM     19  C   LIG d   1       3.965   1.182  -9.677  0.00  0.00    -0.026 C 
ATOM     20  C   LIG d   1       3.895   1.043 -11.200  0.00  0.00    -0.045 C 
ATOM     21  C   LIG d   1       3.497  -0.389 -11.561  0.00  0.00    -0.026 C 
ATOM     22  C   LIG d   1       2.126  -0.706 -10.958  0.00  0.00     0.056 C 
ATOM     23  H   LIG d   1       1.385  -0.013 -11.356  0.00  0.00     0.059 H 
ATOM     24  C   LIG d   1       2.189  -0.607  -9.429  0.00  0.00    -0.023 C 
ATOM     25  H   LIG d   1       7.730  -2.308  -5.278  0.00  0.00     0.027 H 
ATOM     26  H   LIG d   1       8.380  -0.744  -4.712  0.00  0.00     0.027 H 
ATOM     27  H   LIG d   1       5.660  -1.222  -5.046  0.00  0.00     0.027 H 
ATOM     28  H   LIG d   1       6.389   0.408  -5.217  0.00  0.00     0.027 H 
ATOM     29  H   LIG d   1       8.401  -0.250  -9.618  0.00  0.00     0.027 H 
ATOM     30  H   LIG d   1       7.177  -1.523  -9.358  0.00  0.00     0.027 H 
ATOM     31  H   LIG d   1       6.641   1.477  -9.626  0.00  0.00     0.027 H 
ATOM     32  H   LIG d   1       6.273   0.240 -10.846  0.00  0.00     0.027 H 
ATOM     33  H   LIG d   1       1.663   0.727  -7.110  0.00  0.00     0.029 H 
ATOM     34  H   LIG d   1       2.909   1.987  -7.278  0.00  0.00     0.029 H 
ATOM     35  H   LIG d   1       3.153   1.737 -11.595  0.00  0.00     0.027 H 
ATOM     36  H   LIG d   1       4.871   1.269 -11.631  0.00  0.00     0.027 H 
ATOM     37  H   LIG d   1       3.447  -0.490 -12.646  0.00  0.00     0.029 H 
ATOM     38  H   LIG d   1       4.237  -1.084 -11.165  0.00  0.00     0.029 H 
ATOM     39  H   LIG d   1       2.939  -1.293  -9.035  0.00  0.00     0.029 H 
ATOM     40  H   LIG d   1       1.216  -0.847  -8.999  0.00  0.00     0.029 H 
ENDROOT
BRANCH   1  41
ATOM     41  C   LIG d   1       9.779  -0.240  -6.707  0.00  0.00    -0.040 C 
ATOM     42  H   LIG d   1       9.608   0.808  -6.953  0.00  0.00     0.030 H 
BRANCH  41  43
ATOM     43  C   LIG d   1      10.841  -0.817  -7.645  0.00  0.00    -0.062 C 
ATOM     44  H   LIG d   1      10.885  -0.220  -8.556  0.00  0.00     0.023 H 
ATOM     45  H   LIG d   1      11.812  -0.798  -7.150  0.00  0.00     0.023 H 
ATOM     46  H   LIG d   1      10.582  -1.846  -7.897  0.00  0.00     0.023 H 
ENDBRANCH  41  43
BRANCH  41  47
ATOM     47  C   LIG d   1      10.262  -0.350  -5.259  0.00  0.00    -0.042 C 
ATOM     48  H   LIG d   1       9.609   0.235  -4.613  0.00  0.00     0.027 H 
ATOM     49  H   LIG d   1      10.240  -1.394  -4.948  0.00  0.00     0.027 H 
BRANCH  47  50
ATOM     50  C   LIG d   1      11.693   0.183  -5.157  0.00  0.00     0.024 C 
ATOM     51  H   LIG d   1      12.354  -0.614  -4.816  0.00  0.00     0.036 H 
ATOM     52  H   LIG d   1      12.020   0.533  -6.136  0.00  0.00     0.036 H 
BRANCH  50  53
ATOM     53  C   LIG d   1      11.734   1.325  -4.175  0.00  0.00     0.213 C 
ATOM     54  O   LIG d   1      12.795   1.833  -3.881  0.00  0.00    -0.276 OA
ATOM     55  N   LIG d   1      10.592   1.781  -3.623  0.00  0.00    -0.315 N 
ATOM     56  H   LIG d   1       9.744   1.373  -3.859  0.00  0.00     0.149 HD
BRANCH  55  57
ATOM     57  C   LIG d   1      10.631   2.891  -2.668  0.00  0.00     0.016 C 
ATOM     58  H   LIG d   1      10.058   2.626  -1.781  0.00  0.00     0.046 H 
ATOM     59  H   LIG d   1      11.666   3.090  -2.386  0.00  0.00     0.046 H 
BRANCH  57  60
ATOM     60  C   LIG d   1      10.029   4.140  -3.313  0.00  0.00    -0.012 C 
ATOM     61  H   LIG d   1      10.567   4.371  -4.232  0.00  0.00     0.033 H 
ATOM     62  H   LIG d   1       8.978   3.959  -3.542  0.00  0.00     0.033 H 
BRANCH  60  63
ATOM     63  C   LIG d   1      10.141   5.301  -2.359  0.00  0.00    -0.046 A 
ATOM     64  C   LIG d   1       9.500   6.493  -2.646  0.00  0.00    -0.055 A 
ATOM     65  C   LIG d   1       9.596   7.557  -1.770  0.00  0.00    -0.020 A 
ATOM     66  H   LIG d   1       8.922   6.590  -3.553  0.00  0.00     0.062 H 
ATOM     67  C   LIG d   1      10.345   7.434  -0.609  0.00  0.00     0.120 A 
ATOM     68  H   LIG d   1       9.093   8.487  -1.992  0.00  0.00     0.065 H 
ATOM     69  C   LIG d   1      10.991   6.239  -0.326  0.00  0.00    -0.020 A 
ATOM     70  C   LIG d   1      10.887   5.175  -1.202  0.00  0.00    -0.055 A 
ATOM     71  H   LIG d   1      11.572   6.139   0.578  0.00  0.00     0.065 H 
ATOM     72  H   LIG d   1      11.389   4.245  -0.982  0.00  0.00     0.062 H 
BRANCH  67  73
ATOM     73  O   LIG d   1      10.444   8.481   0.252  0.00  0.00    -0.495 OA
BRANCH  73  74
ATOM     74  C   LIG d   1      11.531   8.458   1.179  0.00  0.00     0.079 C 
ATOM     75  H   LIG d   1      11.970   7.461   1.200  0.00  0.00     0.066 H 
ATOM     76  H   LIG d   1      12.286   9.181   0.872  0.00  0.00     0.066 H 
ATOM     77  H   LIG d   1      11.165   8.715   2.174  0.00  0.00     0.066 H 
ENDBRANCH  73  74
ENDBRANCH  67  73
ENDBRANCH  60  63
ENDBRANCH  57  60
ENDBRANCH  55  57
ENDBRANCH  50  53
ENDBRANCH  47  50
ENDBRANCH  41  47
ENDBRANCH   1  41
BRANCH   7  78
ATOM     78  C   LIG d   1       7.688   1.283  -7.433  0.00  0.00    -0.059 C 
ATOM     79  H   LIG d   1       8.574   1.617  -7.973  0.00  0.00     0.024 H 
ATOM     80  H   LIG d   1       6.819   1.841  -7.781  0.00  0.00     0.024 H 
ATOM     81  H   LIG d   1       7.827   1.457  -6.365  0.00  0.00     0.024 H 
ENDBRANCH   7  78
BRANCH  14  82
ATOM     82  O   LIG d   1       3.748   0.125  -5.566  0.00  0.00    -0.392 OA
ATOM     83  H   LIG d   1       4.009  -0.687  -5.110  0.00  0.00     0.210 HD
ENDBRANCH  14  82
BRANCH  19  84
ATOM     84  C   LIG d   1       4.374   2.610  -9.308  0.00  0.00    -0.059 C 
ATOM     85  H   LIG d   1       4.832   2.611  -8.319  0.00  0.00     0.024 H 
ATOM     86  H   LIG d   1       5.089   2.983 -10.040  0.00  0.00     0.024 H 
ATOM     87  H   LIG d   1       3.492   3.250  -9.300  0.00  0.00     0.024 H 
ENDBRANCH  19  84
BRANCH  22  88
ATOM     88  O   LIG d   1       1.755  -2.044 -11.294  0.00  0.00    -0.392 OA
ATOM     89  H   LIG d   1       1.141  -2.107 -12.038  0.00  0.00     0.210 HD
ENDBRANCH  22  88
TORSDOF 14
ENDMDL
MODEL 9
REMARK VINA RESULT:      -5.2      8.119     11.691
REMARK  14 active torsions:
REMARK  status: ('A' for Active; 'I' for Inactive)
REMARK    1  A    between atoms: C_1  and  C_2 
REMARK    2  A    between atoms: C_2  and  C_4 
REMARK    3  A    between atoms: C_2  and  C_19 
REMARK    4  A    between atoms: C_4  and  C_5 
REMARK    5  A    between atoms: C_5  and  C_6 
REMARK       I    between atoms: C_6  and  N_8 
REMARK    6  A    between atoms: N_8  and  C_9 
REMARK    7  A    between atoms: C_9  and  C_10 
REMARK    8  A    between atoms: C_10  and  C_11 
REMARK    9  A    between atoms: C_14  and  O_17 
REMARK   10  A    between atoms: O_17  and  C_18 
REMARK   11  A    between atoms: C_25  and  C_46 
REMARK   12  A    between atoms: C_32  and  O_45 
REMARK   13  A    between atoms: C_37  and  C_44 
REMARK   14  A    between atoms: C_40  and  O_43 
ROOT
ATOM      1  C   LIG d   1      10.924   7.284  -6.140  0.00  0.00    -0.033 C 
ATOM      2  H   LIG d   1      11.326   7.360  -7.151  0.00  0.00     0.031 H 
ATOM      3  C   LIG d   1      12.050   7.495  -5.097  0.00  0.00    -0.049 C 
ATOM      4  C   LIG d   1      12.191   6.154  -4.327  0.00  0.00    -0.049 C 
ATOM      5  C   LIG d   1      11.635   5.128  -5.321  0.00  0.00    -0.030 C 
ATOM      6  H   LIG d   1      12.359   4.937  -6.113  0.00  0.00     0.031 H 
ATOM      7  C   LIG d   1      10.396   5.875  -5.887  0.00  0.00    -0.026 C 
ATOM      8  C   LIG d   1       9.912   5.104  -7.099  0.00  0.00    -0.047 C 
ATOM      9  C   LIG d   1       9.443   3.725  -6.607  0.00  0.00    -0.049 C 
ATOM     10  C   LIG d   1      10.558   2.986  -5.876  0.00  0.00    -0.030 C 
ATOM     11  H   LIG d   1      11.364   2.779  -6.581  0.00  0.00     0.031 H 
ATOM     12  C   LIG d   1      11.152   3.820  -4.722  0.00  0.00    -0.008 C 
ATOM     13  H   LIG d   1      10.375   4.018  -3.984  0.00  0.00     0.033 H 
ATOM     14  C   LIG d   1      12.318   3.064  -4.084  0.00  0.00     0.059 C 
ATOM     15  H   LIG d   1      13.088   2.884  -4.835  0.00  0.00     0.060 H 
ATOM     16  C   LIG d   1      11.818   1.726  -3.535  0.00  0.00    -0.023 C 
ATOM     17  C   LIG d   1      11.234   0.891  -4.676  0.00  0.00    -0.031 C 
ATOM     18  H   LIG d   1      10.880  -0.063  -4.284  0.00  0.00     0.031 H 
ATOM     19  C   LIG d   1      10.033   1.662  -5.321  0.00  0.00    -0.026 C 
ATOM     20  C   LIG d   1       9.452   0.826  -6.464  0.00  0.00    -0.045 C 
ATOM     21  C   LIG d   1      10.542   0.563  -7.505  0.00  0.00    -0.026 C 
ATOM     22  C   LIG d   1      11.698  -0.199  -6.853  0.00  0.00     0.056 C 
ATOM     23  H   LIG d   1      11.333  -1.150  -6.463  0.00  0.00     0.059 H 
ATOM     24  C   LIG d   1      12.315   0.641  -5.730  0.00  0.00    -0.023 C 
ATOM     25  H   LIG d   1      12.985   7.738  -5.600  0.00  0.00     0.027 H 
ATOM     26  H   LIG d   1      11.776   8.294  -4.408  0.00  0.00     0.027 H 
ATOM     27  H   LIG d   1      13.237   5.946  -4.102  0.00  0.00     0.027 H 
ATOM     28  H   LIG d   1      11.595   6.167  -3.415  0.00  0.00     0.027 H 
ATOM     29  H   LIG d   1       9.084   5.634  -7.569  0.00  0.00     0.027 H 
ATOM     30  H   LIG d   1      10.729   4.985  -7.813  0.00  0.00     0.027 H 
ATOM     31  H   LIG d   1       8.598   3.858  -5.930  0.00  0.00     0.027 H 
ATOM     32  H   LIG d   1       9.123   3.131  -7.463  0.00  0.00     0.027 H 
ATOM     33  H   LIG d   1      12.650   1.188  -3.080  0.00  0.00     0.029 H 
ATOM     34  H   LIG d   1      11.047   1.906  -2.785  0.00  0.00     0.029 H 
ATOM     35  H   LIG d   1       9.088  -0.123  -6.071  0.00  0.00     0.027 H 
ATOM     36  H   LIG d   1       8.628   1.368  -6.928  0.00  0.00     0.027 H 
ATOM     37  H   LIG d   1      10.130  -0.032  -8.320  0.00  0.00     0.029 H 
ATOM     38  H   LIG d   1      10.908   1.511  -7.896  0.00  0.00     0.029 H 
ATOM     39  H   LIG d   1      12.670   1.596  -6.120  0.00  0.00     0.029 H 
ATOM     40  H   LIG d   1      13.148   0.104  -5.275  0.00  0.00     0.029 H 
ENDROOT
BRANCH   1  41
ATOM     41  C   LIG d   1       9.810   8.312  -5.934  0.00  0.00    -0.040 C 
ATOM     42  H   LIG d   1       9.052   7.898  -5.270  0.00  0.00     0.030 H 
BRANCH  41  43
ATOM     43  C   LIG d   1       9.176   8.654  -7.283  0.00  0.00    -0.062 C 
ATOM     44  H   LIG d   1       8.639   9.600  -7.204  0.00  0.00     0.023 H 
ATOM     45  H   LIG d   1       9.955   8.741  -8.040  0.00  0.00     0.023 H 
ATOM     46  H   LIG d   1       8.480   7.864  -7.568  0.00  0.00     0.023 H 
ENDBRANCH  41  43
BRANCH  41  47
ATOM     47  C   LIG d   1      10.396   9.580  -5.309  0.00  0.00    -0.042 C 
ATOM     48  H   LIG d   1      10.740   9.362  -4.299  0.00  0.00     0.027 H 
ATOM     49  H   LIG d   1      11.236   9.927  -5.912  0.00  0.00     0.027 H 
BRANCH  47  50
ATOM     50  C   LIG d   1       9.321  10.668  -5.260  0.00  0.00     0.024 C 
ATOM     51  H   LIG d   1       9.706  11.581  -5.715  0.00  0.00     0.036 H 
ATOM     52  H   LIG d   1       8.439  10.332  -5.807  0.00  0.00     0.036 H 
BRANCH  50  53
ATOM     53  C   LIG d   1       8.948  10.941  -3.825  0.00  0.00     0.213 C 
ATOM     54  O   LIG d   1       8.089  11.756  -3.567  0.00  0.00    -0.276 OA
ATOM     55  N   LIG d   1       9.570  10.278  -2.830  0.00  0.00    -0.315 N 
ATOM     56  H   LIG d   1      10.257   9.626  -3.038  0.00  0.00     0.149 HD
BRANCH  55  57
ATOM     57  C   LIG d   1       9.209  10.542  -1.435  0.00  0.00     0.016 C 
ATOM     58  H   LIG d   1      10.087  10.888  -0.892  0.00  0.00     0.046 H 
ATOM     59  H   LIG d   1       8.435  11.310  -1.401  0.00  0.00     0.046 H 
BRANCH  57  60
ATOM     60  C   LIG d   1       8.682   9.258  -0.792  0.00  0.00    -0.012 C 
ATOM     61  H   LIG d   1       8.324   9.475   0.214  0.00  0.00     0.033 H 
ATOM     62  H   LIG d   1       7.861   8.862  -1.392  0.00  0.00     0.033 H 
BRANCH  60  63
ATOM     63  C   LIG d   1       9.790   8.240  -0.724  0.00  0.00    -0.046 A 
ATOM     64  C   LIG d   1      10.971   8.548  -0.072  0.00  0.00    -0.055 A 
ATOM     65  C   LIG d   1      11.986   7.613  -0.004  0.00  0.00    -0.020 A 
ATOM     66  H   LIG d   1      11.096   9.517   0.386  0.00  0.00     0.062 H 
ATOM     67  C   LIG d   1      11.826   6.371  -0.599  0.00  0.00     0.120 A 
ATOM     68  H   LIG d   1      12.907   7.853   0.509  0.00  0.00     0.065 H 
ATOM     69  C   LIG d   1      10.643   6.067  -1.257  0.00  0.00    -0.020 A 
ATOM     70  C   LIG d   1       9.628   7.002  -1.318  0.00  0.00    -0.055 A 
ATOM     71  H   LIG d   1      10.515   5.100  -1.719  0.00  0.00     0.065 H 
ATOM     72  H   LIG d   1       8.707   6.766  -1.829  0.00  0.00     0.062 H 
BRANCH  67  73
ATOM     73  O   LIG d   1      12.826   5.452  -0.536  0.00  0.00    -0.495 OA
BRANCH  73  74
ATOM     74  C   LIG d   1      14.165   5.945  -0.613  0.00  0.00     0.079 C 
ATOM     75  H   LIG d   1      14.197   6.811  -1.273  0.00  0.00     0.066 H 
ATOM     76  H   LIG d   1      14.503   6.233   0.383  0.00  0.00     0.066 H 
ATOM     77  H   LIG d   1      14.817   5.164  -1.005  0.00  0.00     0.066 H 
ENDBRANCH  73  74
ENDBRANCH  67  73
ENDBRANCH  60  63
ENDBRANCH  57  60
ENDBRANCH  55  57
ENDBRANCH  50  53
ENDBRANCH  47  50
ENDBRANCH  41  47
ENDBRANCH   1  41
BRANCH   7  78
ATOM     78  C   LIG d   1       9.292   5.919  -4.829  0.00  0.00    -0.059 C 
ATOM     79  H   LIG d   1       8.521   6.625  -5.138  0.00  0.00     0.024 H 
ATOM     80  H   LIG d   1       8.854   4.927  -4.720  0.00  0.00     0.024 H 
ATOM     81  H   LIG d   1       9.714   6.237  -3.875  0.00  0.00     0.024 H 
ENDBRANCH   7  78
BRANCH  14  82
ATOM     82  O   LIG d   1      12.865   3.842  -3.019  0.00  0.00    -0.392 OA
ATOM     83  H   LIG d   1      13.808   4.033  -3.115  0.00  0.00     0.210 HD
ENDBRANCH  14  82
BRANCH  19  84
ATOM     84  C   LIG d   1       8.946   1.939  -4.280  0.00  0.00    -0.059 C 
ATOM     85  H   LIG d   1       8.176   2.573  -4.720  0.00  0.00     0.024 H 
ATOM     86  H   LIG d   1       8.502   0.997  -3.960  0.00  0.00     0.024 H 
ATOM     87  H   LIG d   1       9.386   2.444  -3.421  0.00  0.00     0.024 H 
ENDBRANCH  19  84
BRANCH  22  88
ATOM     88  O   LIG d   1      12.716  -0.443  -7.825  0.00  0.00    -0.392 OA
ATOM     89  H   LIG d   1      12.558  -0.013  -8.677  0.00  0.00     0.210 HD
ENDBRANCH  22  88
TORSDOF 14
ENDMDL
MODEL 10
REMARK VINA RESULT:      -5.2      2.647      8.720
REMARK  14 active torsions:
REMARK  status: ('A' for Active; 'I' for Inactive)
REMARK    1  A    between atoms: C_1  and  C_2 
REMARK    2  A    between atoms: C_2  and  C_4 
REMARK    3  A    between atoms: C_2  and  C_19 
REMARK    4  A    between atoms: C_4  and  C_5 
REMARK    5  A    between atoms: C_5  and  C_6 
REMARK       I    between atoms: C_6  and  N_8 
REMARK    6  A    between atoms: N_8  and  C_9 
REMARK    7  A    between atoms: C_9  and  C_10 
REMARK    8  A    between atoms: C_10  and  C_11 
REMARK    9  A    between atoms: C_14  and  O_17 
REMARK   10  A    between atoms: O_17  and  C_18 
REMARK   11  A    between atoms: C_25  and  C_46 
REMARK   12  A    between atoms: C_32  and  O_45 
REMARK   13  A    between atoms: C_37  and  C_44 
REMARK   14  A    between atoms: C_40  and  O_43 
ROOT
ATOM      1  C   LIG d   1       4.072  -0.280  -8.763  0.00  0.00    -0.033 C 
ATOM      2  H   LIG d   1       4.691   0.549  -9.108  0.00  0.00     0.031 H 
ATOM      3  C   LIG d   1       4.953  -1.367  -8.099  0.00  0.00    -0.049 C 
ATOM      4  C   LIG d   1       4.826  -2.636  -8.986  0.00  0.00    -0.049 C 
ATOM      5  C   LIG d   1       4.432  -2.062 -10.351  0.00  0.00    -0.030 C 
ATOM      6  H   LIG d   1       5.296  -1.610 -10.836  0.00  0.00     0.031 H 
ATOM      7  C   LIG d   1       3.403  -0.969  -9.949  0.00  0.00    -0.026 C 
ATOM      8  C   LIG d   1       3.144  -0.112 -11.173  0.00  0.00    -0.047 C 
ATOM      9  C   LIG d   1       2.482  -1.012 -12.229  0.00  0.00    -0.049 C 
ATOM     10  C   LIG d   1       3.355  -2.219 -12.557  0.00  0.00    -0.030 C 
ATOM     11  H   LIG d   1       4.278  -1.870 -13.018  0.00  0.00     0.031 H 
ATOM     12  C   LIG d   1       3.737  -3.023 -11.298  0.00  0.00    -0.008 C 
ATOM     13  H   LIG d   1       2.833  -3.412 -10.830  0.00  0.00     0.033 H 
ATOM     14  C   LIG d   1       4.678  -4.166 -11.680  0.00  0.00     0.059 C 
ATOM     15  H   LIG d   1       5.580  -3.757 -12.136  0.00  0.00     0.060 H 
ATOM     16  C   LIG d   1       3.977  -5.092 -12.675  0.00  0.00    -0.023 C 
ATOM     17  C   LIG d   1       3.601  -4.303 -13.931  0.00  0.00    -0.031 C 
ATOM     18  H   LIG d   1       3.103  -4.964 -14.641  0.00  0.00     0.031 H 
ATOM     19  C   LIG d   1       2.629  -3.139 -13.539  0.00  0.00    -0.026 C 
ATOM     20  C   LIG d   1       2.255  -2.349 -14.796  0.00  0.00    -0.045 C 
ATOM     21  C   LIG d   1       3.526  -1.792 -15.441  0.00  0.00    -0.026 C 
ATOM     22  C   LIG d   1       4.454  -2.948 -15.823  0.00  0.00     0.056 C 
ATOM     23  H   LIG d   1       3.946  -3.603 -16.531  0.00  0.00     0.059 H 
ATOM     24  C   LIG d   1       4.867  -3.727 -14.569  0.00  0.00    -0.023 C 
ATOM     25  H   LIG d   1       5.991  -1.038  -8.063  0.00  0.00     0.027 H 
ATOM     26  H   LIG d   1       4.592  -1.577  -7.092  0.00  0.00     0.027 H 
ATOM     27  H   LIG d   1       5.779  -3.160  -9.048  0.00  0.00     0.027 H 
ATOM     28  H   LIG d   1       4.047  -3.296  -8.606  0.00  0.00     0.027 H 
ATOM     29  H   LIG d   1       2.479   0.711 -10.915  0.00  0.00     0.027 H 
ATOM     30  H   LIG d   1       4.088   0.279 -11.557  0.00  0.00     0.027 H 
ATOM     31  H   LIG d   1       1.521  -1.359 -11.848  0.00  0.00     0.027 H 
ATOM     32  H   LIG d   1       2.317  -0.433 -13.137  0.00  0.00     0.027 H 
ATOM     33  H   LIG d   1       4.648  -5.907 -12.947  0.00  0.00     0.029 H 
ATOM     34  H   LIG d   1       3.075  -5.500 -12.219  0.00  0.00     0.029 H 
ATOM     35  H   LIG d   1       1.748  -3.006 -15.501  0.00  0.00     0.027 H 
ATOM     36  H   LIG d   1       1.594  -1.525 -14.525  0.00  0.00     0.027 H 
ATOM     37  H   LIG d   1       3.262  -1.228 -16.336  0.00  0.00     0.029 H 
ATOM     38  H   LIG d   1       4.035  -1.136 -14.736  0.00  0.00     0.029 H 
ATOM     39  H   LIG d   1       5.364  -3.067 -13.858  0.00  0.00     0.029 H 
ATOM     40  H   LIG d   1       5.539  -4.541 -14.840  0.00  0.00     0.029 H 
ENDROOT
BRANCH   1  41
ATOM     41  C   LIG d   1       3.016   0.222  -7.778  0.00  0.00    -0.040 C 
ATOM     42  H   LIG d   1       2.069  -0.282  -7.971  0.00  0.00     0.030 H 
BRANCH  41  43
ATOM     43  C   LIG d   1       2.834   1.732  -7.949  0.00  0.00    -0.062 C 
ATOM     44  H   LIG d   1       2.175   1.925  -8.796  0.00  0.00     0.023 H 
ATOM     45  H   LIG d   1       2.395   2.150  -7.044  0.00  0.00     0.023 H 
ATOM     46  H   LIG d   1       3.804   2.196  -8.130  0.00  0.00     0.023 H 
ENDBRANCH  41  43
BRANCH  41  47
ATOM     47  C   LIG d   1       3.469  -0.078  -6.347  0.00  0.00    -0.042 C 
ATOM     48  H   LIG d   1       3.506  -1.156  -6.196  0.00  0.00     0.027 H 
ATOM     49  H   LIG d   1       4.460   0.346  -6.184  0.00  0.00     0.027 H 
BRANCH  47  50
ATOM     50  C   LIG d   1       2.480   0.543  -5.357  0.00  0.00     0.024 C 
ATOM     51  H   LIG d   1       2.541   1.630  -5.417  0.00  0.00     0.036 H 
ATOM     52  H   LIG d   1       1.469   0.221  -5.605  0.00  0.00     0.036 H 
BRANCH  50  53
ATOM     53  C   LIG d   1       2.822   0.097  -3.959  0.00  0.00     0.213 C 
ATOM     54  O   LIG d   1       2.015  -0.532  -3.309  0.00  0.00    -0.276 OA
ATOM     55  N   LIG d   1       4.026   0.396  -3.432  0.00  0.00    -0.315 N 
ATOM     56  H   LIG d   1       4.671   0.899  -3.952  0.00  0.00     0.149 HD
BRANCH  55  57
ATOM     57  C   LIG d   1       4.359  -0.037  -2.072  0.00  0.00     0.016 C 
ATOM     58  H   LIG d   1       5.329   0.369  -1.790  0.00  0.00     0.046 H 
ATOM     59  H   LIG d   1       3.598   0.325  -1.380  0.00  0.00     0.046 H 
BRANCH  57  60
ATOM     60  C   LIG d   1       4.409  -1.565  -2.022  0.00  0.00    -0.012 C 
ATOM     61  H   LIG d   1       4.807  -1.884  -1.059  0.00  0.00     0.033 H 
ATOM     62  H   LIG d   1       3.402  -1.966  -2.150  0.00  0.00     0.033 H 
BRANCH  60  63
ATOM     63  C   LIG d   1       5.296  -2.075  -3.127  0.00  0.00    -0.046 A 
ATOM     64  C   LIG d   1       4.792  -2.963  -4.062  0.00  0.00    -0.055 A 
ATOM     65  C   LIG d   1       5.601  -3.428  -5.080  0.00  0.00    -0.020 A 
ATOM     66  H   LIG d   1       3.764  -3.289  -3.996  0.00  0.00     0.062 H 
ATOM     67  C   LIG d   1       6.923  -3.014  -5.159  0.00  0.00     0.120 A 
ATOM     68  H   LIG d   1       5.207  -4.118  -5.811  0.00  0.00     0.065 H 
ATOM     69  C   LIG d   1       7.427  -2.128  -4.218  0.00  0.00    -0.020 A 
ATOM     70  C   LIG d   1       6.612  -1.660  -3.205  0.00  0.00    -0.055 A 
ATOM     71  H   LIG d   1       8.454  -1.802  -4.278  0.00  0.00     0.065 H 
ATOM     72  H   LIG d   1       7.004  -0.971  -2.472  0.00  0.00     0.062 H 
BRANCH  67  73
ATOM     73  O   LIG d   1       7.722  -3.474  -6.158  0.00  0.00    -0.495 OA
BRANCH  73  74
ATOM     74  C   LIG d   1       7.244  -4.593  -6.907  0.00  0.00     0.079 C 
ATOM     75  H   LIG d   1       7.902  -4.769  -7.758  0.00  0.00     0.066 H 
ATOM     76  H   LIG d   1       7.229  -5.477  -6.270  0.00  0.00     0.066 H 
ATOM     77  H   LIG d   1       6.235  -4.386  -7.264  0.00  0.00     0.066 H 
ENDBRANCH  73  74
ENDBRANCH  67  73
ENDBRANCH  60  63
ENDBRANCH  57  60
ENDBRANCH  55  57
ENDBRANCH  50  53
ENDBRANCH  47  50
ENDBRANCH  41  47
ENDBRANCH   1  41
BRANCH   7  78
ATOM     78  C   LIG d   1       2.099  -1.628  -9.495  0.00  0.00    -0.059 C 
ATOM     79  H   LIG d   1       1.775  -1.183  -8.555  0.00  0.00     0.024 H 
ATOM     80  H   LIG d   1       1.332  -1.474 -10.254  0.00  0.00     0.024 H 
ATOM     81  H   LIG d   1       2.262  -2.697  -9.354  0.00  0.00     0.024 H 
ENDBRANCH   7  78
BRANCH  14  82
ATOM     82  O   LIG d   1       5.031  -4.904 -10.509  0.00  0.00    -0.392 OA
ATOM     83  H   LIG d   1       5.982  -4.935 -10.335  0.00  0.00     0.210 HD
ENDBRANCH  14  82
BRANCH  19  84
ATOM     84  C   LIG d   1       1.361  -3.690 -12.881  0.00  0.00    -0.059 C 
ATOM     85  H   LIG d   1       0.598  -3.852 -13.643  0.00  0.00     0.024 H 
ATOM     86  H   LIG d   1       1.590  -4.636 -12.390  0.00  0.00     0.024 H 
ATOM     87  H   LIG d   1       0.994  -2.977 -12.144  0.00  0.00     0.024 H 
ENDBRANCH  19  84
BRANCH  22  88
ATOM     88  O   LIG d   1       5.641  -2.427 -16.424  0.00  0.00    -0.392 OA
ATOM     89  H   LIG d   1       6.365  -3.065 -16.480  0.00  0.00     0.210 HD
ENDBRANCH  22  88
TORSDOF 14
ENDMDL
