MODEL 1
REMARK VINA RESULT:      -5.4      0.000      0.000
REMARK  5 active torsions:
REMARK  status: ('A' for Active; 'I' for Inactive)
REMARK    1  A    between atoms: C_5  and  C_7 
REMARK    2  A    between atoms: C_7  and  N_8 
REMARK    3  A    between atoms: C_7  and  N_9 
REMARK    4  A    between atoms: C_12  and  N_13 
REMARK    5  A    between atoms: N_13  and  N_14 
REMARK       I    between atoms: N_14  and  C_15 
REMARK       I    between atoms: C_15  and  N_16 
ROOT
ATOM      1  C   LIG d   1       4.197   0.829  -2.300  0.00  0.00    -0.060 A 
ATOM      2  C   LIG d   1       5.429   1.401  -2.537  0.00  0.00    -0.052 A 
ATOM      3  C   LIG d   1       6.333   0.796  -3.423  0.00  0.00     0.003 A 
ATOM      4  C   LIG d   1       5.976  -0.387  -4.061  0.00  0.00    -0.023 A 
ATOM      5  C   LIG d   1       4.729  -0.959  -3.815  0.00  0.00     0.065 A 
ATOM      6  C   LIG d   1       3.841  -0.346  -2.931  0.00  0.00    -0.047 A 
ATOM      7  C   LIG d   1       7.103  -0.840  -4.958  0.00  0.00    -0.021 A 
ATOM      8  C   LIG d   1       8.219   0.202  -4.810  0.00  0.00    -0.003 A 
ATOM      9  C   LIG d   1       7.688   1.219  -3.829  0.00  0.00     0.084 A 
ATOM     10  H   LIG d   1       3.510   1.299  -1.612  0.00  0.00     0.062 H 
ATOM     11  H   LIG d   1       5.699   2.320  -2.039  0.00  0.00     0.062 H 
ATOM     12  H   LIG d   1       2.874  -0.790  -2.741  0.00  0.00     0.063 H 
ATOM     13  H   LIG d   1       7.461  -1.820  -4.642  0.00  0.00     0.032 H 
ATOM     14  H   LIG d   1       6.764  -0.882  -5.994  0.00  0.00     0.032 H 
ATOM     15  H   LIG d   1       9.123  -0.265  -4.418  0.00  0.00     0.033 H 
ATOM     16  H   LIG d   1       8.424   0.675  -5.771  0.00  0.00     0.033 H 
ENDROOT
BRANCH   9  17
ATOM     17  N   LIG d   1       8.312   2.277  -3.416  0.00  0.00    -0.116 NA
BRANCH  17  18
ATOM     18  N   LIG d   1       9.338   2.834  -4.190  0.00  0.00    -0.157 N 
ATOM     19  C   LIG d   1      10.542   3.142  -3.613  0.00  0.00     0.364 C 
ATOM     20  N   LIG d   1      11.518   3.672  -4.350  0.00  0.00    -0.290 N 
ATOM     21  N   LIG d   1      10.736   2.914  -2.315  0.00  0.00    -0.290 N 
ATOM     22  H   LIG d   1      11.376   3.838  -5.296  0.00  0.00     0.255 HD
ATOM     23  H   LIG d   1      12.370   3.890  -3.941  0.00  0.00     0.255 HD
ATOM     24  H   LIG d   1      10.026   2.529  -1.779  0.00  0.00     0.255 HD
ATOM     25  H   LIG d   1      11.589   3.133  -1.906  0.00  0.00     0.255 HD
ATOM     26  H   LIG d   1       9.197   2.999  -5.135  0.00  0.00     0.292 HD
ENDBRANCH  17  18
ENDBRANCH   9  17
BRANCH   5  27
ATOM     27  C   LIG d   1       4.345  -2.218  -4.492  0.00  0.00     0.267 C 
BRANCH  27  28
ATOM     28  N   LIG d   1       4.032  -2.209  -5.787  0.00  0.00    -0.288 N 
ATOM     29  H   LIG d   1       4.717  -2.034  -6.450  0.00  0.00     0.301 HD
ATOM     30  H   LIG d   1       3.118  -2.376  -6.066  0.00  0.00     0.301 HD
ENDBRANCH  27  28
BRANCH  27  31
ATOM     31  N   LIG d   1       4.313  -3.360  -3.808  0.00  0.00    -0.250 N 
ATOM     32  H   LIG d   1       4.718  -4.159  -4.179  0.00  0.00     0.288 HD
ATOM     33  H   LIG d   1       3.885  -3.393  -2.939  0.00  0.00     0.288 HD
ENDBRANCH  27  31
ENDBRANCH   5  27
TORSDOF 5
ENDMDL
MODEL 2
REMARK VINA RESULT:      -5.4      3.687      4.338
REMARK  5 active torsions:
REMARK  status: ('A' for Active; 'I' for Inactive)
REMARK    1  A    between atoms: C_5  and  C_7 
REMARK    2  A    between atoms: C_7  and  N_8 
REMARK    3  A    between atoms: C_7  and  N_9 
REMARK    4  A    between atoms: C_12  and  N_13 
REMARK    5  A    between atoms: N_13  and  N_14 
REMARK       I    between atoms: N_14  and  C_15 
REMARK       I    between atoms: C_15  and  N_16 
ROOT
ATOM      1  C   LIG d   1       3.469  -1.671  -2.369  0.00  0.00    -0.060 A 
ATOM      2  C   LIG d   1       4.778  -2.055  -2.571  0.00  0.00    -0.052 A 
ATOM      3  C   LIG d   1       5.471  -1.637  -3.717  0.00  0.00     0.003 A 
ATOM      4  C   LIG d   1       4.825  -0.833  -4.651  0.00  0.00    -0.023 A 
ATOM      5  C   LIG d   1       3.501  -0.450  -4.439  0.00  0.00     0.065 A 
ATOM      6  C   LIG d   1       2.826  -0.874  -3.294  0.00  0.00    -0.047 A 
ATOM      7  C   LIG d   1       5.767  -0.516  -5.787  0.00  0.00    -0.021 A 
ATOM      8  C   LIG d   1       7.091  -1.220  -5.460  0.00  0.00    -0.003 A 
ATOM      9  C   LIG d   1       6.857  -1.916  -4.141  0.00  0.00     0.084 A 
ATOM     10  H   LIG d   1       2.943  -2.002  -1.486  0.00  0.00     0.062 H 
ATOM     11  H   LIG d   1       5.274  -2.678  -1.842  0.00  0.00     0.062 H 
ATOM     12  H   LIG d   1       1.800  -0.577  -3.131  0.00  0.00     0.063 H 
ATOM     13  H   LIG d   1       5.363  -0.897  -6.725  0.00  0.00     0.032 H 
ATOM     14  H   LIG d   1       5.923   0.561  -5.857  0.00  0.00     0.032 H 
ATOM     15  H   LIG d   1       7.334  -1.948  -6.234  0.00  0.00     0.033 H 
ATOM     16  H   LIG d   1       7.893  -0.488  -5.364  0.00  0.00     0.033 H 
ENDROOT
BRANCH   9  17
ATOM     17  N   LIG d   1       7.722  -2.634  -3.495  0.00  0.00    -0.116 NA
BRANCH  17  18
ATOM     18  N   LIG d   1       9.073  -2.608  -3.866  0.00  0.00    -0.157 N 
ATOM     19  C   LIG d   1       9.819  -3.756  -3.817  0.00  0.00     0.364 C 
ATOM     20  N   LIG d   1      11.104  -3.730  -4.170  0.00  0.00    -0.290 N 
ATOM     21  N   LIG d   1       9.260  -4.897  -3.415  0.00  0.00    -0.290 N 
ATOM     22  H   LIG d   1      11.510  -2.899  -4.462  0.00  0.00     0.255 HD
ATOM     23  H   LIG d   1      11.632  -4.543  -4.135  0.00  0.00     0.255 HD
ATOM     24  H   LIG d   1       8.326  -4.915  -3.159  0.00  0.00     0.255 HD
ATOM     25  H   LIG d   1       9.789  -5.710  -3.381  0.00  0.00     0.255 HD
ATOM     26  H   LIG d   1       9.478  -1.777  -4.159  0.00  0.00     0.292 HD
ENDBRANCH  17  18
ENDBRANCH   9  17
BRANCH   5  27
ATOM     27  C   LIG d   1       2.810   0.406  -5.430  0.00  0.00     0.267 C 
BRANCH  27  28
ATOM     28  N   LIG d   1       2.548   1.679  -5.141  0.00  0.00    -0.288 N 
ATOM     29  H   LIG d   1       1.677   1.928  -4.794  0.00  0.00     0.301 HD
ATOM     30  H   LIG d   1       3.227   2.358  -5.279  0.00  0.00     0.301 HD
ENDBRANCH  27  28
BRANCH  27  31
ATOM     31  N   LIG d   1       2.451  -0.097  -6.610  0.00  0.00    -0.250 N 
ATOM     32  H   LIG d   1       1.613  -0.577  -6.697  0.00  0.00     0.288 HD
ATOM     33  H   LIG d   1       3.027   0.018  -7.381  0.00  0.00     0.288 HD
ENDBRANCH  27  31
ENDBRANCH   5  27
TORSDOF 5
ENDMDL
MODEL 3
REMARK VINA RESULT:      -5.2      4.865      6.747
REMARK  5 active torsions:
REMARK  status: ('A' for Active; 'I' for Inactive)
REMARK    1  A    between atoms: C_5  and  C_7 
REMARK    2  A    between atoms: C_7  and  N_8 
REMARK    3  A    between atoms: C_7  and  N_9 
REMARK    4  A    between atoms: C_12  and  N_13 
REMARK    5  A    between atoms: N_13  and  N_14 
REMARK       I    between atoms: N_14  and  C_15 
REMARK       I    between atoms: C_15  and  N_16 
ROOT
ATOM      1  C   LIG d   1       3.228   2.344  -9.744  0.00  0.00    -0.060 A 
ATOM      2  C   LIG d   1       2.991   1.951  -8.444  0.00  0.00    -0.052 A 
ATOM      3  C   LIG d   1       3.508   0.738  -7.964  0.00  0.00     0.003 A 
ATOM      4  C   LIG d   1       4.263  -0.066  -8.812  0.00  0.00    -0.023 A 
ATOM      5  C   LIG d   1       4.497   0.338 -10.126  0.00  0.00     0.065 A 
ATOM      6  C   LIG d   1       3.976   1.548 -10.588  0.00  0.00    -0.047 A 
ATOM      7  C   LIG d   1       4.706  -1.307  -8.074  0.00  0.00    -0.021 A 
ATOM      8  C   LIG d   1       4.138  -1.191  -6.654  0.00  0.00    -0.003 A 
ATOM      9  C   LIG d   1       3.388   0.119  -6.630  0.00  0.00     0.084 A 
ATOM     10  H   LIG d   1       2.822   3.277 -10.106  0.00  0.00     0.062 H 
ATOM     11  H   LIG d   1       2.405   2.580  -7.792  0.00  0.00     0.062 H 
ATOM     12  H   LIG d   1       4.158   1.860 -11.606  0.00  0.00     0.063 H 
ATOM     13  H   LIG d   1       4.308  -2.195  -8.565  0.00  0.00     0.032 H 
ATOM     14  H   LIG d   1       5.795  -1.354  -8.041  0.00  0.00     0.032 H 
ATOM     15  H   LIG d   1       3.459  -2.019  -6.449  0.00  0.00     0.033 H 
ATOM     16  H   LIG d   1       4.948  -1.176  -5.924  0.00  0.00     0.033 H 
ENDROOT
BRANCH   9  17
ATOM     17  N   LIG d   1       2.750   0.613  -5.615  0.00  0.00    -0.116 NA
BRANCH  17  18
ATOM     18  N   LIG d   1       3.436   0.903  -4.429  0.00  0.00    -0.157 N 
ATOM     19  C   LIG d   1       3.237   0.131  -3.315  0.00  0.00     0.364 C 
ATOM     20  N   LIG d   1       3.889   0.408  -2.187  0.00  0.00    -0.290 N 
ATOM     21  N   LIG d   1       2.389  -0.897  -3.360  0.00  0.00    -0.290 N 
ATOM     22  H   LIG d   1       4.506   1.157  -2.154  0.00  0.00     0.255 HD
ATOM     23  H   LIG d   1       3.747  -0.139  -1.398  0.00  0.00     0.255 HD
ATOM     24  H   LIG d   1       1.914  -1.098  -4.180  0.00  0.00     0.255 HD
ATOM     25  H   LIG d   1       2.248  -1.443  -2.571  0.00  0.00     0.255 HD
ATOM     26  H   LIG d   1       4.053   1.651  -4.397  0.00  0.00     0.292 HD
ENDBRANCH  17  18
ENDBRANCH   9  17
BRANCH   5  27
ATOM     27  C   LIG d   1       5.300  -0.514 -11.031  0.00  0.00     0.267 C 
BRANCH  27  28
ATOM     28  N   LIG d   1       6.623  -0.369 -11.083  0.00  0.00    -0.288 N 
ATOM     29  H   LIG d   1       7.183  -1.120 -11.333  0.00  0.00     0.301 HD
ATOM     30  H   LIG d   1       7.025   0.488 -10.871  0.00  0.00     0.301 HD
ENDBRANCH  27  28
BRANCH  27  31
ATOM     31  N   LIG d   1       4.700  -1.427 -11.793  0.00  0.00    -0.250 N 
ATOM     32  H   LIG d   1       4.805  -2.370 -11.593  0.00  0.00     0.288 HD
ATOM     33  H   LIG d   1       4.158  -1.148 -12.548  0.00  0.00     0.288 HD
ENDBRANCH  27  31
ENDBRANCH   5  27
TORSDOF 5
ENDMDL
MODEL 4
REMARK VINA RESULT:      -5.2      4.850      7.252
REMARK  5 active torsions:
REMARK  status: ('A' for Active; 'I' for Inactive)
REMARK    1  A    between atoms: C_5  and  C_7 
REMARK    2  A    between atoms: C_7  and  N_8 
REMARK    3  A    between atoms: C_7  and  N_9 
REMARK    4  A    between atoms: C_12  and  N_13 
REMARK    5  A    between atoms: N_13  and  N_14 
REMARK       I    between atoms: N_14  and  C_15 
REMARK       I    between atoms: C_15  and  N_16 
ROOT
ATOM      1  C   LIG d   1       3.551  -3.459  -8.900  0.00  0.00    -0.060 A 
ATOM      2  C   LIG d   1       3.859  -2.505  -7.954  0.00  0.00    -0.052 A 
ATOM      3  C   LIG d   1       3.479  -1.168  -8.146  0.00  0.00     0.003 A 
ATOM      4  C   LIG d   1       2.788  -0.813  -9.300  0.00  0.00    -0.023 A 
ATOM      5  C   LIG d   1       2.481  -1.785 -10.251  0.00  0.00     0.065 A 
ATOM      6  C   LIG d   1       2.865  -3.110 -10.046  0.00  0.00    -0.047 A 
ATOM      7  C   LIG d   1       2.491   0.668  -9.279  0.00  0.00    -0.021 A 
ATOM      8  C   LIG d   1       3.080   1.208  -7.970  0.00  0.00    -0.003 A 
ATOM      9  C   LIG d   1       3.694   0.012  -7.285  0.00  0.00     0.084 A 
ATOM     10  H   LIG d   1       3.852  -4.485  -8.745  0.00  0.00     0.062 H 
ATOM     11  H   LIG d   1       4.395  -2.787  -7.061  0.00  0.00     0.062 H 
ATOM     12  H   LIG d   1       2.627  -3.862 -10.783  0.00  0.00     0.063 H 
ATOM     13  H   LIG d   1       2.963   1.156 -10.132  0.00  0.00     0.032 H 
ATOM     14  H   LIG d   1       1.413   0.834  -9.303  0.00  0.00     0.032 H 
ATOM     15  H   LIG d   1       3.843   1.957  -8.179  0.00  0.00     0.033 H 
ATOM     16  H   LIG d   1       2.291   1.635  -7.349  0.00  0.00     0.033 H 
ENDROOT
BRANCH   9  17
ATOM     17  N   LIG d   1       4.305   0.019  -6.141  0.00  0.00    -0.116 NA
BRANCH  17  18
ATOM     18  N   LIG d   1       3.587   0.263  -4.964  0.00  0.00    -0.157 N 
ATOM     19  C   LIG d   1       3.314  -0.765  -4.101  0.00  0.00     0.364 C 
ATOM     20  N   LIG d   1       2.630  -0.532  -2.982  0.00  0.00    -0.290 N 
ATOM     21  N   LIG d   1       3.731  -1.999  -4.383  0.00  0.00    -0.290 N 
ATOM     22  H   LIG d   1       2.326   0.366  -2.777  0.00  0.00     0.255 HD
ATOM     23  H   LIG d   1       2.436  -1.261  -2.372  0.00  0.00     0.255 HD
ATOM     24  H   LIG d   1       4.228  -2.168  -5.198  0.00  0.00     0.255 HD
ATOM     25  H   LIG d   1       3.537  -2.728  -3.773  0.00  0.00     0.255 HD
ATOM     26  H   LIG d   1       3.284   1.162  -4.759  0.00  0.00     0.292 HD
ENDBRANCH  17  18
ENDBRANCH   9  17
BRANCH   5  27
ATOM     27  C   LIG d   1       1.745  -1.411 -11.480  0.00  0.00     0.267 C 
BRANCH  27  28
ATOM     28  N   LIG d   1       2.402  -1.259 -12.629  0.00  0.00    -0.288 N 
ATOM     29  H   LIG d   1       2.038  -1.631 -13.448  0.00  0.00     0.301 HD
ATOM     30  H   LIG d   1       3.244  -0.778 -12.647  0.00  0.00     0.301 HD
ENDBRANCH  27  28
BRANCH  27  31
ATOM     31  N   LIG d   1       0.427  -1.227 -11.438  0.00  0.00    -0.250 N 
ATOM     32  H   LIG d   1      -0.034  -1.215 -10.585  0.00  0.00     0.288 HD
ATOM     33  H   LIG d   1      -0.073  -1.105 -12.261  0.00  0.00     0.288 HD
ENDBRANCH  27  31
ENDBRANCH   5  27
TORSDOF 5
ENDMDL
MODEL 5
REMARK VINA RESULT:      -5.2      5.162      8.080
REMARK  5 active torsions:
REMARK  status: ('A' for Active; 'I' for Inactive)
REMARK    1  A    between atoms: C_5  and  C_7 
REMARK    2  A    between atoms: C_7  and  N_8 
REMARK    3  A    between atoms: C_7  and  N_9 
REMARK    4  A    between atoms: C_12  and  N_13 
REMARK    5  A    between atoms: N_13  and  N_14 
REMARK       I    between atoms: N_14  and  C_15 
REMARK       I    between atoms: C_15  and  N_16 
ROOT
ATOM      1  C   LIG d   1       9.605   6.480  -5.195  0.00  0.00    -0.060 A 
ATOM      2  C   LIG d   1       9.778   7.485  -4.267  0.00  0.00    -0.052 A 
ATOM      3  C   LIG d   1      10.010   7.172  -2.919  0.00  0.00     0.003 A 
ATOM      4  C   LIG d   1      10.063   5.839  -2.526  0.00  0.00    -0.023 A 
ATOM      5  C   LIG d   1       9.886   4.829  -3.471  0.00  0.00     0.065 A 
ATOM      6  C   LIG d   1       9.656   5.157  -4.808  0.00  0.00    -0.047 A 
ATOM      7  C   LIG d   1      10.322   5.757  -1.041  0.00  0.00    -0.021 A 
ATOM      8  C   LIG d   1      10.427   7.204  -0.540  0.00  0.00    -0.003 A 
ATOM      9  C   LIG d   1      10.223   8.065  -1.762  0.00  0.00     0.084 A 
ATOM     10  H   LIG d   1       9.422   6.731  -6.230  0.00  0.00     0.062 H 
ATOM     11  H   LIG d   1       9.736   8.517  -4.579  0.00  0.00     0.062 H 
ATOM     12  H   LIG d   1       9.519   4.374  -5.540  0.00  0.00     0.063 H 
ATOM     13  H   LIG d   1       9.496   5.248  -0.545  0.00  0.00     0.032 H 
ATOM     14  H   LIG d   1      11.257   5.227  -0.852  0.00  0.00     0.032 H 
ATOM     15  H   LIG d   1       9.650   7.405   0.198  0.00  0.00     0.033 H 
ATOM     16  H   LIG d   1      11.412   7.384  -0.110  0.00  0.00     0.033 H 
ENDROOT
BRANCH   9  17
ATOM     17  N   LIG d   1      10.233   9.361  -1.791  0.00  0.00    -0.116 NA
BRANCH  17  18
ATOM     18  N   LIG d   1       9.029  10.069  -1.895  0.00  0.00    -0.157 N 
ATOM     19  C   LIG d   1       8.879  11.029  -2.862  0.00  0.00     0.364 C 
ATOM     20  N   LIG d   1       7.733  11.702  -2.960  0.00  0.00    -0.290 N 
ATOM     21  N   LIG d   1       9.880  11.289  -3.702  0.00  0.00    -0.290 N 
ATOM     22  H   LIG d   1       7.005  11.512  -2.347  0.00  0.00     0.255 HD
ATOM     23  H   LIG d   1       7.628  12.382  -3.644  0.00  0.00     0.255 HD
ATOM     24  H   LIG d   1      10.713  10.799  -3.631  0.00  0.00     0.255 HD
ATOM     25  H   LIG d   1       9.774  11.969  -4.386  0.00  0.00     0.255 HD
ATOM     26  H   LIG d   1       8.300   9.879  -1.284  0.00  0.00     0.292 HD
ENDBRANCH  17  18
ENDBRANCH   9  17
BRANCH   5  27
ATOM     27  C   LIG d   1       9.942   3.409  -3.057  0.00  0.00     0.267 C 
BRANCH  27  28
ATOM     28  N   LIG d   1      10.935   2.982  -2.280  0.00  0.00    -0.288 N 
ATOM     29  H   LIG d   1      11.403   2.161  -2.498  0.00  0.00     0.301 HD
ATOM     30  H   LIG d   1      11.190   3.490  -1.494  0.00  0.00     0.301 HD
ENDBRANCH  27  28
BRANCH  27  31
ATOM     31  N   LIG d   1       9.001   2.560  -3.462  0.00  0.00    -0.250 N 
ATOM     32  H   LIG d   1       9.240   1.654  -3.714  0.00  0.00     0.288 HD
ATOM     33  H   LIG d   1       8.075   2.846  -3.505  0.00  0.00     0.288 HD
ENDBRANCH  27  31
ENDBRANCH   5  27
TORSDOF 5
ENDMDL
MODEL 6
REMARK VINA RESULT:      -5.1      4.268      5.772
REMARK  5 active torsions:
REMARK  status: ('A' for Active; 'I' for Inactive)
REMARK    1  A    between atoms: C_5  and  C_7 
REMARK    2  A    between atoms: C_7  and  N_8 
REMARK    3  A    between atoms: C_7  and  N_9 
REMARK    4  A    between atoms: C_12  and  N_13 
REMARK    5  A    between atoms: N_13  and  N_14 
REMARK       I    between atoms: N_14  and  C_15 
REMARK       I    between atoms: C_15  and  N_16 
ROOT
ATOM      1  C   LIG d   1       2.455   1.129  -9.079  0.00  0.00    -0.060 A 
ATOM      2  C   LIG d   1       3.249   0.999  -7.960  0.00  0.00    -0.052 A 
ATOM      3  C   LIG d   1       3.705  -0.266  -7.558  0.00  0.00     0.003 A 
ATOM      4  C   LIG d   1       3.350  -1.388  -8.299  0.00  0.00    -0.023 A 
ATOM      5  C   LIG d   1       2.546  -1.247  -9.430  0.00  0.00     0.065 A 
ATOM      6  C   LIG d   1       2.100   0.017  -9.816  0.00  0.00    -0.047 A 
ATOM      7  C   LIG d   1       3.957  -2.622  -7.675  0.00  0.00    -0.021 A 
ATOM      8  C   LIG d   1       4.741  -2.144  -6.446  0.00  0.00    -0.003 A 
ATOM      9  C   LIG d   1       4.554  -0.647  -6.412  0.00  0.00     0.084 A 
ATOM     10  H   LIG d   1       2.105   2.106  -9.378  0.00  0.00     0.062 H 
ATOM     11  H   LIG d   1       3.521   1.873  -7.389  0.00  0.00     0.062 H 
ATOM     12  H   LIG d   1       1.478   0.126 -10.692  0.00  0.00     0.063 H 
ATOM     13  H   LIG d   1       3.170  -3.313  -7.372  0.00  0.00     0.032 H 
ATOM     14  H   LIG d   1       4.629  -3.108  -8.383  0.00  0.00     0.032 H 
ATOM     15  H   LIG d   1       4.337  -2.596  -5.540  0.00  0.00     0.033 H 
ATOM     16  H   LIG d   1       5.797  -2.391  -6.553  0.00  0.00     0.033 H 
ENDROOT
BRANCH   9  17
ATOM     17  N   LIG d   1       5.051   0.163  -5.529  0.00  0.00    -0.116 NA
BRANCH  17  18
ATOM     18  N   LIG d   1       4.514   0.206  -4.236  0.00  0.00    -0.157 N 
ATOM     19  C   LIG d   1       5.209   0.816  -3.225  0.00  0.00     0.364 C 
ATOM     20  N   LIG d   1       4.698   0.856  -1.995  0.00  0.00    -0.290 N 
ATOM     21  N   LIG d   1       6.398   1.366  -3.471  0.00  0.00    -0.290 N 
ATOM     22  H   LIG d   1       3.833   0.455  -1.816  0.00  0.00     0.255 HD
ATOM     23  H   LIG d   1       5.191   1.287  -1.280  0.00  0.00     0.255 HD
ATOM     24  H   LIG d   1       6.769   1.336  -4.366  0.00  0.00     0.255 HD
ATOM     25  H   LIG d   1       6.890   1.797  -2.755  0.00  0.00     0.255 HD
ATOM     26  H   LIG d   1       3.649  -0.194  -4.057  0.00  0.00     0.292 HD
ENDBRANCH  17  18
ENDBRANCH   9  17
BRANCH   5  27
ATOM     27  C   LIG d   1       2.166  -2.439 -10.221  0.00  0.00     0.267 C 
BRANCH  27  28
ATOM     28  N   LIG d   1       3.051  -3.003 -11.042  0.00  0.00    -0.288 N 
ATOM     29  H   LIG d   1       3.998  -2.829 -10.926  0.00  0.00     0.301 HD
ATOM     30  H   LIG d   1       2.748  -3.586 -11.755  0.00  0.00     0.301 HD
ENDBRANCH  27  28
BRANCH  27  31
ATOM     31  N   LIG d   1       0.940  -2.947 -10.114  0.00  0.00    -0.250 N 
ATOM     32  H   LIG d   1       0.508  -3.339 -10.888  0.00  0.00     0.288 HD
ATOM     33  H   LIG d   1       0.479  -2.924  -9.261  0.00  0.00     0.288 HD
ENDBRANCH  27  31
ENDBRANCH   5  27
TORSDOF 5
ENDMDL
MODEL 7
REMARK VINA RESULT:      -5.0      5.354      8.642
REMARK  5 active torsions:
REMARK  status: ('A' for Active; 'I' for Inactive)
REMARK    1  A    between atoms: C_5  and  C_7 
REMARK    2  A    between atoms: C_7  and  N_8 
REMARK    3  A    between atoms: C_7  and  N_9 
REMARK    4  A    between atoms: C_12  and  N_13 
REMARK    5  A    between atoms: N_13  and  N_14 
REMARK       I    between atoms: N_14  and  C_15 
REMARK       I    between atoms: C_15  and  N_16 
ROOT
ATOM      1  C   LIG d   1      11.116   6.992   0.777  0.00  0.00    -0.060 A 
ATOM      2  C   LIG d   1      11.081   5.866  -0.018  0.00  0.00    -0.052 A 
ATOM      3  C   LIG d   1      10.547   5.931  -1.315  0.00  0.00     0.003 A 
ATOM      4  C   LIG d   1      10.053   7.141  -1.791  0.00  0.00    -0.023 A 
ATOM      5  C   LIG d   1      10.091   8.274  -0.979  0.00  0.00     0.065 A 
ATOM      6  C   LIG d   1      10.625   8.193   0.308  0.00  0.00    -0.047 A 
ATOM      7  C   LIG d   1       9.537   6.961  -3.198  0.00  0.00    -0.021 A 
ATOM      8  C   LIG d   1       9.765   5.486  -3.557  0.00  0.00    -0.003 A 
ATOM      9  C   LIG d   1      10.407   4.874  -2.335  0.00  0.00     0.084 A 
ATOM     10  H   LIG d   1      11.524   6.931   1.776  0.00  0.00     0.062 H 
ATOM     11  H   LIG d   1      11.467   4.931   0.356  0.00  0.00     0.062 H 
ATOM     12  H   LIG d   1      10.654   9.072   0.937  0.00  0.00     0.063 H 
ATOM     13  H   LIG d   1       8.473   7.196  -3.240  0.00  0.00     0.032 H 
ATOM     14  H   LIG d   1      10.089   7.603  -3.885  0.00  0.00     0.032 H 
ATOM     15  H   LIG d   1       8.814   4.998  -3.769  0.00  0.00     0.033 H 
ATOM     16  H   LIG d   1      10.432   5.406  -4.415  0.00  0.00     0.033 H 
ENDROOT
BRANCH   9  17
ATOM     17  N   LIG d   1      10.770   3.636  -2.206  0.00  0.00    -0.116 NA
BRANCH  17  18
ATOM     18  N   LIG d   1      10.289   2.667  -3.096  0.00  0.00    -0.157 N 
ATOM     19  C   LIG d   1      11.150   1.753  -3.645  0.00  0.00     0.364 C 
ATOM     20  N   LIG d   1      10.692   0.832  -4.492  0.00  0.00    -0.290 N 
ATOM     21  N   LIG d   1      12.445   1.787  -3.333  0.00  0.00    -0.290 N 
ATOM     22  H   LIG d   1       9.749   0.808  -4.719  0.00  0.00     0.255 HD
ATOM     23  H   LIG d   1      11.302   0.186  -4.881  0.00  0.00     0.255 HD
ATOM     24  H   LIG d   1      12.778   2.457  -2.717  0.00  0.00     0.255 HD
ATOM     25  H   LIG d   1      13.054   1.140  -3.722  0.00  0.00     0.255 HD
ATOM     26  H   LIG d   1       9.346   2.642  -3.322  0.00  0.00     0.292 HD
ENDBRANCH  17  18
ENDBRANCH   9  17
BRANCH   5  27
ATOM     27  C   LIG d   1       9.566   9.563  -1.481  0.00  0.00     0.267 C 
BRANCH  27  28
ATOM     28  N   LIG d   1      10.336  10.348  -2.232  0.00  0.00    -0.288 N 
ATOM     29  H   LIG d   1      10.091  10.530  -3.153  0.00  0.00     0.301 HD
ATOM     30  H   LIG d   1      11.143  10.737  -1.860  0.00  0.00     0.301 HD
ENDBRANCH  27  28
BRANCH  27  31
ATOM     31  N   LIG d   1       8.324   9.939  -1.182  0.00  0.00    -0.250 N 
ATOM     32  H   LIG d   1       7.886  10.626  -1.708  0.00  0.00     0.288 HD
ATOM     33  H   LIG d   1       7.858   9.526  -0.439  0.00  0.00     0.288 HD
ENDBRANCH  27  31
ENDBRANCH   5  27
TORSDOF 5
ENDMDL
MODEL 8
REMARK VINA RESULT:      -4.9      6.356      8.303
REMARK  5 active torsions:
REMARK  status: ('A' for Active; 'I' for Inactive)
REMARK    1  A    between atoms: C_5  and  C_7 
REMARK    2  A    between atoms: C_7  and  N_8 
REMARK    3  A    between atoms: C_7  and  N_9 
REMARK    4  A    between atoms: C_12  and  N_13 
REMARK    5  A    between atoms: N_13  and  N_14 
REMARK       I    between atoms: N_14  and  C_15 
REMARK       I    between atoms: C_15  and  N_16 
ROOT
ATOM      1  C   LIG d   1       9.802   4.670  -8.070  0.00  0.00    -0.060 A 
ATOM      2  C   LIG d   1       9.822   4.477  -6.705  0.00  0.00    -0.052 A 
ATOM      3  C   LIG d   1       9.764   5.575  -5.832  0.00  0.00     0.003 A 
ATOM      4  C   LIG d   1       9.687   6.861  -6.357  0.00  0.00    -0.023 A 
ATOM      5  C   LIG d   1       9.668   7.047  -7.739  0.00  0.00     0.065 A 
ATOM      6  C   LIG d   1       9.726   5.945  -8.593  0.00  0.00    -0.047 A 
ATOM      7  C   LIG d   1       9.635   7.867  -5.232  0.00  0.00    -0.021 A 
ATOM      8  C   LIG d   1       9.690   7.059  -3.928  0.00  0.00    -0.003 A 
ATOM      9  C   LIG d   1       9.770   5.614  -4.357  0.00  0.00     0.084 A 
ATOM     10  H   LIG d   1       9.852   3.819  -8.733  0.00  0.00     0.062 H 
ATOM     11  H   LIG d   1       9.882   3.477  -6.304  0.00  0.00     0.062 H 
ATOM     12  H   LIG d   1       9.711   6.090  -9.663  0.00  0.00     0.063 H 
ATOM     13  H   LIG d   1      10.491   8.539  -5.292  0.00  0.00     0.032 H 
ATOM     14  H   LIG d   1       8.707   8.437  -5.281  0.00  0.00     0.032 H 
ATOM     15  H   LIG d   1      10.574   7.332  -3.351  0.00  0.00     0.033 H 
ATOM     16  H   LIG d   1       8.787   7.229  -3.341  0.00  0.00     0.033 H 
ENDROOT
BRANCH   9  17
ATOM     17  N   LIG d   1       9.835   4.588  -3.567  0.00  0.00    -0.116 NA
BRANCH  17  18
ATOM     18  N   LIG d   1      10.035   4.771  -2.193  0.00  0.00    -0.157 N 
ATOM     19  C   LIG d   1      11.268   4.537  -1.643  0.00  0.00     0.364 C 
ATOM     20  N   LIG d   1      11.457   4.712  -0.335  0.00  0.00    -0.290 N 
ATOM     21  N   LIG d   1      12.276   4.133  -2.415  0.00  0.00    -0.290 N 
ATOM     22  H   LIG d   1      10.723   5.006   0.226  0.00  0.00     0.255 HD
ATOM     23  H   LIG d   1      12.330   4.545   0.054  0.00  0.00     0.255 HD
ATOM     24  H   LIG d   1      12.137   4.006  -3.366  0.00  0.00     0.255 HD
ATOM     25  H   LIG d   1      13.149   3.967  -2.025  0.00  0.00     0.255 HD
ATOM     26  H   LIG d   1       9.301   5.066  -1.632  0.00  0.00     0.292 HD
ENDBRANCH  17  18
ENDBRANCH   9  17
BRANCH   5  27
ATOM     27  C   LIG d   1       9.586   8.414  -8.301  0.00  0.00     0.267 C 
BRANCH  27  28
ATOM     28  N   LIG d   1       8.399   8.939  -8.602  0.00  0.00    -0.288 N 
ATOM     29  H   LIG d   1       8.018   8.803  -9.483  0.00  0.00     0.301 HD
ATOM     30  H   LIG d   1       7.918   9.460  -7.940  0.00  0.00     0.301 HD
ENDBRANCH  27  28
BRANCH  27  31
ATOM     31  N   LIG d   1      10.697   9.118  -8.507  0.00  0.00    -0.250 N 
ATOM     32  H   LIG d   1      11.052   9.213  -9.404  0.00  0.00     0.288 HD
ATOM     33  H   LIG d   1      11.151   9.536  -7.759  0.00  0.00     0.288 HD
ENDBRANCH  27  31
ENDBRANCH   5  27
TORSDOF 5
ENDMDL
MODEL 9
REMARK VINA RESULT:      -4.9      6.420      8.505
REMARK  5 active torsions:
REMARK  status: ('A' for Active; 'I' for Inactive)
REMARK    1  A    between atoms: C_5  and  C_7 
REMARK    2  A    between atoms: C_7  and  N_8 
REMARK    3  A    between atoms: C_7  and  N_9 
REMARK    4  A    between atoms: C_12  and  N_13 
REMARK    5  A    between atoms: N_13  and  N_14 
REMARK       I    between atoms: N_14  and  C_15 
REMARK       I    between atoms: C_15  and  N_16 
ROOT
ATOM      1  C   LIG d   1       9.409   4.194  -4.183  0.00  0.00    -0.060 A 
ATOM      2  C   LIG d   1       9.314   5.380  -4.879  0.00  0.00    -0.052 A 
ATOM      3  C   LIG d   1       9.855   6.560  -4.345  0.00  0.00     0.003 A 
ATOM      4  C   LIG d   1      10.486   6.523  -3.106  0.00  0.00    -0.023 A 
ATOM      5  C   LIG d   1      10.576   5.319  -2.409  0.00  0.00     0.065 A 
ATOM      6  C   LIG d   1      10.034   4.155  -2.953  0.00  0.00    -0.047 A 
ATOM      7  C   LIG d   1      10.982   7.904  -2.747  0.00  0.00    -0.021 A 
ATOM      8  C   LIG d   1      10.586   8.822  -3.912  0.00  0.00    -0.003 A 
ATOM      9  C   LIG d   1       9.876   7.928  -4.900  0.00  0.00     0.084 A 
ATOM     10  H   LIG d   1       8.986   3.292  -4.600  0.00  0.00     0.062 H 
ATOM     11  H   LIG d   1       8.824   5.402  -5.840  0.00  0.00     0.062 H 
ATOM     12  H   LIG d   1      10.104   3.222  -2.412  0.00  0.00     0.063 H 
ATOM     13  H   LIG d   1      10.508   8.243  -1.826  0.00  0.00     0.032 H 
ATOM     14  H   LIG d   1      12.066   7.894  -2.629  0.00  0.00     0.032 H 
ATOM     15  H   LIG d   1       9.916   9.607  -3.563  0.00  0.00     0.033 H 
ATOM     16  H   LIG d   1      11.475   9.257  -4.368  0.00  0.00     0.033 H 
ENDROOT
BRANCH   9  17
ATOM     17  N   LIG d   1       9.372   8.298  -6.036  0.00  0.00    -0.116 NA
BRANCH  17  18
ATOM     18  N   LIG d   1      10.214   8.571  -7.121  0.00  0.00    -0.157 N 
ATOM     19  C   LIG d   1       9.678   8.863  -8.348  0.00  0.00     0.364 C 
ATOM     20  N   LIG d   1      10.480   9.121  -9.380  0.00  0.00    -0.290 N 
ATOM     21  N   LIG d   1       8.355   8.885  -8.509  0.00  0.00    -0.290 N 
ATOM     22  H   LIG d   1      11.443   9.105  -9.263  0.00  0.00     0.255 HD
ATOM     23  H   LIG d   1      10.100   9.327 -10.249  0.00  0.00     0.255 HD
ATOM     24  H   LIG d   1       7.773   8.696  -7.758  0.00  0.00     0.255 HD
ATOM     25  H   LIG d   1       7.976   9.091  -9.378  0.00  0.00     0.255 HD
ATOM     26  H   LIG d   1      11.176   8.555  -7.003  0.00  0.00     0.292 HD
ENDBRANCH  17  18
ENDBRANCH   9  17
BRANCH   5  27
ATOM     27  C   LIG d   1      11.248   5.276  -1.090  0.00  0.00     0.267 C 
BRANCH  27  28
ATOM     28  N   LIG d   1      12.526   4.914  -1.006  0.00  0.00    -0.288 N 
ATOM     29  H   LIG d   1      13.226   5.578  -1.105  0.00  0.00     0.301 HD
ATOM     30  H   LIG d   1      12.758   3.985  -0.847  0.00  0.00     0.301 HD
ENDBRANCH  27  28
BRANCH  27  31
ATOM     31  N   LIG d   1      10.574   5.599   0.012  0.00  0.00    -0.250 N 
ATOM     32  H   LIG d   1      10.225   4.902   0.589  0.00  0.00     0.288 HD
ATOM     33  H   LIG d   1      10.431   6.532   0.237  0.00  0.00     0.288 HD
ENDBRANCH  27  31
ENDBRANCH   5  27
TORSDOF 5
ENDMDL
