MODEL 1
REMARK VINA RESULT:      -6.6      0.000      0.000
REMARK  8 active torsions:
REMARK  status: ('A' for Active; 'I' for Inactive)
REMARK    1  A    between atoms: C_1  and  C_2 
REMARK    2  A    between atoms: C_3  and  C_21 
REMARK    3  A    between atoms: C_9  and  O_19 
REMARK    4  A    between atoms: C_15  and  C_17 
REMARK    5  A    between atoms: C_15  and  C_18 
REMARK    6  A    between atoms: O_19  and  C_20 
REMARK    7  A    between atoms: C_21  and  C_22 
REMARK    8  A    between atoms: C_22  and  C_23 
REMARK       I    between atoms: C_23  and  N_25 
ROOT
ATOM      1  C   LIG d   1       4.769  -1.334  -7.183  0.00  0.00    -0.026 A 
ATOM      2  C   LIG d   1       5.119  -2.569  -6.737  0.00  0.00     0.041 A 
ATOM      3  C   LIG d   1       4.551  -3.715  -7.327  0.00  0.00     0.341 A 
ATOM      4  O   LIG d   1       4.874  -4.818  -6.924  0.00  0.00    -0.245 OA
ATOM      5  O   LIG d   1       3.654  -3.610  -8.323  0.00  0.00    -0.421 OA
ATOM      6  C   LIG d   1       3.280  -2.400  -8.793  0.00  0.00     0.149 A 
ATOM      7  C   LIG d   1       3.827  -1.230  -8.237  0.00  0.00     0.063 A 
ATOM      8  C   LIG d   1       3.435   0.025  -8.733  0.00  0.00     0.135 A 
ATOM      9  C   LIG d   1       2.516   0.094  -9.758  0.00  0.00     0.023 A 
ATOM     10  C   LIG d   1       1.973  -1.069 -10.307  0.00  0.00     0.131 A 
ATOM     11  C   LIG d   1       2.356  -2.310  -9.827  0.00  0.00     0.038 A 
ATOM     12  C   LIG d   1       1.793  -3.584 -10.405  0.00  0.00    -0.017 C 
ATOM     13  C   LIG d   1       0.514  -3.276 -11.187  0.00  0.00    -0.009 C 
ATOM     14  C   LIG d   1       0.795  -2.088 -12.117  0.00  0.00     0.105 C 
ATOM     15  O   LIG d   1       1.068  -0.941 -11.311  0.00  0.00    -0.486 OA
ATOM     16  H   LIG d   1       2.211   1.058 -10.140  0.00  0.00     0.069 H 
ATOM     17  H   LIG d   1       1.565  -4.278  -9.596  0.00  0.00     0.032 H 
ATOM     18  H   LIG d   1       2.528  -4.034 -11.072  0.00  0.00     0.032 H 
ATOM     19  H   LIG d   1      -0.288  -3.019 -10.496  0.00  0.00     0.031 H 
ATOM     20  H   LIG d   1       0.227  -4.145 -11.779  0.00  0.00     0.031 H 
ENDROOT
BRANCH   2  21
ATOM     21  C   LIG d   1       6.119  -2.711  -5.617  0.00  0.00    -0.012 C 
ATOM     22  H   LIG d   1       6.682  -1.785  -5.513  0.00  0.00     0.032 H 
ATOM     23  H   LIG d   1       6.802  -3.530  -5.844  0.00  0.00     0.032 H 
BRANCH  21  24
ATOM     24  C   LIG d   1       5.381  -3.009  -4.310  0.00  0.00     0.028 C 
ATOM     25  H   LIG d   1       5.746  -3.948  -3.892  0.00  0.00     0.036 H 
ATOM     26  H   LIG d   1       4.312  -3.090  -4.507  0.00  0.00     0.036 H 
BRANCH  24  27
ATOM     27  C   LIG d   1       5.630  -1.893  -3.329  0.00  0.00     0.216 C 
ATOM     28  O   LIG d   1       6.716  -1.777  -2.803  0.00  0.00    -0.276 OA
ATOM     29  N   LIG d   1       4.643  -1.021  -3.035  0.00  0.00    -0.291 N 
ATOM     30  C   LIG d   1       3.315  -1.132  -3.657  0.00  0.00     0.091 C 
ATOM     31  C   LIG d   1       4.853   0.081  -2.082  0.00  0.00     0.031 C 
ATOM     32  C   LIG d   1       2.844   0.241  -4.050  0.00  0.00     0.231 C 
ATOM     33  H   LIG d   1       2.615  -1.568  -2.943  0.00  0.00     0.056 H 
ATOM     34  H   LIG d   1       3.376  -1.765  -4.543  0.00  0.00     0.056 H 
ATOM     35  N   LIG d   1       3.436   1.360  -3.630  0.00  0.00    -0.312 N 
ATOM     36  O   LIG d   1       1.882   0.336  -4.782  0.00  0.00    -0.274 OA
ATOM     37  C   LIG d   1       4.650   1.402  -2.825  0.00  0.00     0.027 C 
ATOM     38  H   LIG d   1       3.031   2.206  -3.879  0.00  0.00     0.149 HD
ATOM     39  H   LIG d   1       4.571   2.213  -2.102  0.00  0.00     0.048 H 
ATOM     40  H   LIG d   1       5.505   1.584  -3.476  0.00  0.00     0.048 H 
ATOM     41  H   LIG d   1       5.866   0.035  -1.684  0.00  0.00     0.048 H 
ATOM     42  H   LIG d   1       4.134   0.003  -1.266  0.00  0.00     0.048 H 
ENDBRANCH  24  27
ENDBRANCH  21  24
ENDBRANCH   2  21
BRANCH   1  43
ATOM     43  C   LIG d   1       5.370  -0.096  -6.567  0.00  0.00    -0.038 C 
ATOM     44  H   LIG d   1       5.354  -0.186  -5.481  0.00  0.00     0.028 H 
ATOM     45  H   LIG d   1       6.398   0.016  -6.908  0.00  0.00     0.028 H 
ATOM     46  H   LIG d   1       4.790   0.777  -6.868  0.00  0.00     0.028 H 
ENDBRANCH   1  43
BRANCH   8  47
ATOM     47  O   LIG d   1       3.958   1.161  -8.206  0.00  0.00    -0.494 OA
BRANCH  47  48
ATOM     48  C   LIG d   1       4.030   2.301  -9.064  0.00  0.00     0.079 C 
ATOM     49  H   LIG d   1       3.415   2.130  -9.948  0.00  0.00     0.066 H 
ATOM     50  H   LIG d   1       3.664   3.180  -8.533  0.00  0.00     0.066 H 
ATOM     51  H   LIG d   1       5.065   2.463  -9.366  0.00  0.00     0.066 H 
ENDBRANCH  47  48
ENDBRANCH   8  47
BRANCH  14  52
ATOM     52  C   LIG d   1       2.008  -2.399 -12.999  0.00  0.00    -0.025 C 
ATOM     53  H   LIG d   1       1.775  -2.152 -14.035  0.00  0.00     0.027 H 
ATOM     54  H   LIG d   1       2.859  -1.807 -12.665  0.00  0.00     0.027 H 
ATOM     55  H   LIG d   1       2.249  -3.459 -12.924  0.00  0.00     0.027 H 
ENDBRANCH  14  52
BRANCH  14  56
ATOM     56  C   LIG d   1      -0.427  -1.821 -12.996  0.00  0.00    -0.025 C 
ATOM     57  H   LIG d   1      -0.612  -0.748 -13.045  0.00  0.00     0.027 H 
ATOM     58  H   LIG d   1      -0.243  -2.203 -14.000  0.00  0.00     0.027 H 
ATOM     59  H   LIG d   1      -1.297  -2.321 -12.571  0.00  0.00     0.027 H 
ENDBRANCH  14  56
TORSDOF 8
ENDMDL
MODEL 2
REMARK VINA RESULT:      -6.6      5.409      8.240
REMARK  8 active torsions:
REMARK  status: ('A' for Active; 'I' for Inactive)
REMARK    1  A    between atoms: C_1  and  C_2 
REMARK    2  A    between atoms: C_3  and  C_21 
REMARK    3  A    between atoms: C_9  and  O_19 
REMARK    4  A    between atoms: C_15  and  C_17 
REMARK    5  A    between atoms: C_15  and  C_18 
REMARK    6  A    between atoms: O_19  and  C_20 
REMARK    7  A    between atoms: C_21  and  C_22 
REMARK    8  A    between atoms: C_22  and  C_23 
REMARK       I    between atoms: C_23  and  N_25 
ROOT
ATOM      1  C   LIG d   1       6.948  -4.907  -5.708  0.00  0.00    -0.026 A 
ATOM      2  C   LIG d   1       5.894  -5.678  -6.085  0.00  0.00     0.041 A 
ATOM      3  C   LIG d   1       4.587  -5.313  -5.706  0.00  0.00     0.341 A 
ATOM      4  O   LIG d   1       3.647  -6.007  -6.053  0.00  0.00    -0.245 OA
ATOM      5  O   LIG d   1       4.361  -4.215  -4.964  0.00  0.00    -0.421 OA
ATOM      6  C   LIG d   1       5.382  -3.424  -4.568  0.00  0.00     0.149 A 
ATOM      7  C   LIG d   1       6.702  -3.748  -4.930  0.00  0.00     0.063 A 
ATOM      8  C   LIG d   1       7.760  -2.919  -4.517  0.00  0.00     0.135 A 
ATOM      9  C   LIG d   1       7.490  -1.800  -3.759  0.00  0.00     0.023 A 
ATOM     10  C   LIG d   1       6.179  -1.482  -3.401  0.00  0.00     0.131 A 
ATOM     11  C   LIG d   1       5.131  -2.290  -3.806  0.00  0.00     0.038 A 
ATOM     12  C   LIG d   1       3.703  -1.969  -3.440  0.00  0.00    -0.017 C 
ATOM     13  C   LIG d   1       3.679  -0.979  -2.273  0.00  0.00    -0.009 C 
ATOM     14  C   LIG d   1       4.649   0.165  -2.594  0.00  0.00     0.105 C 
ATOM     15  O   LIG d   1       5.972  -0.369  -2.650  0.00  0.00    -0.486 OA
ATOM     16  H   LIG d   1       8.301  -1.162  -3.439  0.00  0.00     0.069 H 
ATOM     17  H   LIG d   1       3.189  -2.885  -3.150  0.00  0.00     0.032 H 
ATOM     18  H   LIG d   1       3.200  -1.528  -4.301  0.00  0.00     0.032 H 
ATOM     19  H   LIG d   1       3.993  -1.481  -1.358  0.00  0.00     0.031 H 
ATOM     20  H   LIG d   1       2.671  -0.582  -2.148  0.00  0.00     0.031 H 
ENDROOT
BRANCH   2  21
ATOM     21  C   LIG d   1       6.123  -6.916  -6.914  0.00  0.00    -0.012 C 
ATOM     22  H   LIG d   1       7.182  -7.170  -6.904  0.00  0.00     0.032 H 
ATOM     23  H   LIG d   1       5.803  -6.730  -7.939  0.00  0.00     0.032 H 
BRANCH  21  24
ATOM     24  C   LIG d   1       5.315  -8.076  -6.329  0.00  0.00     0.028 C 
ATOM     25  H   LIG d   1       5.050  -8.773  -7.125  0.00  0.00     0.036 H 
ATOM     26  H   LIG d   1       4.408  -7.691  -5.866  0.00  0.00     0.036 H 
BRANCH  24  27
ATOM     27  C   LIG d   1       6.144  -8.792  -5.293  0.00  0.00     0.216 C 
ATOM     28  O   LIG d   1       7.234  -8.360  -4.983  0.00  0.00    -0.276 OA
ATOM     29  N   LIG d   1       5.673  -9.912  -4.709  0.00  0.00    -0.291 N 
ATOM     30  C   LIG d   1       4.354 -10.460  -5.060  0.00  0.00     0.091 C 
ATOM     31  C   LIG d   1       6.456 -10.634  -3.692  0.00  0.00     0.031 C 
ATOM     32  C   LIG d   1       3.652 -10.889  -3.800  0.00  0.00     0.231 C 
ATOM     33  H   LIG d   1       4.481 -11.321  -5.717  0.00  0.00     0.056 H 
ATOM     34  H   LIG d   1       3.762  -9.698  -5.567  0.00  0.00     0.056 H 
ATOM     35  N   LIG d   1       4.272 -10.996  -2.624  0.00  0.00    -0.312 N 
ATOM     36  O   LIG d   1       2.469 -11.149  -3.856  0.00  0.00    -0.274 OA
ATOM     37  C   LIG d   1       5.662 -10.631  -2.385  0.00  0.00     0.027 C 
ATOM     38  H   LIG d   1       3.761 -11.339  -1.874  0.00  0.00     0.149 HD
ATOM     39  H   LIG d   1       6.106 -11.346  -1.694  0.00  0.00     0.048 H 
ATOM     40  H   LIG d   1       5.701  -9.635  -1.944  0.00  0.00     0.048 H 
ATOM     41  H   LIG d   1       7.413 -10.135  -3.543  0.00  0.00     0.048 H 
ATOM     42  H   LIG d   1       6.624 -11.661  -4.019  0.00  0.00     0.048 H 
ENDBRANCH  24  27
ENDBRANCH  21  24
ENDBRANCH   2  21
BRANCH   1  43
ATOM     43  C   LIG d   1       8.352  -5.278  -6.108  0.00  0.00    -0.038 C 
ATOM     44  H   LIG d   1       9.061  -4.623  -5.600  0.00  0.00     0.028 H 
ATOM     45  H   LIG d   1       8.549  -6.312  -5.829  0.00  0.00     0.028 H 
ATOM     46  H   LIG d   1       8.464  -5.165  -7.187  0.00  0.00     0.028 H 
ENDBRANCH   1  43
BRANCH   8  47
ATOM     47  O   LIG d   1       9.038  -3.220  -4.861  0.00  0.00    -0.494 OA
BRANCH  47  48
ATOM     48  C   LIG d   1       9.921  -2.122  -5.097  0.00  0.00     0.079 C 
ATOM     49  H   LIG d   1      10.929  -2.392  -4.779  0.00  0.00     0.066 H 
ATOM     50  H   LIG d   1       9.928  -1.882  -6.160  0.00  0.00     0.066 H 
ATOM     51  H   LIG d   1       9.581  -1.255  -4.530  0.00  0.00     0.066 H 
ENDBRANCH  47  48
ENDBRANCH   8  47
BRANCH  14  52
ATOM     52  C   LIG d   1       4.287   0.785  -3.946  0.00  0.00    -0.025 C 
ATOM     53  H   LIG d   1       5.140   1.344  -4.329  0.00  0.00     0.027 H 
ATOM     54  H   LIG d   1       4.024  -0.005  -4.648  0.00  0.00     0.027 H 
ATOM     55  H   LIG d   1       3.439   1.458  -3.821  0.00  0.00     0.027 H 
ENDBRANCH  14  52
BRANCH  14  56
ATOM     56  C   LIG d   1       4.570   1.231  -1.500  0.00  0.00    -0.025 C 
ATOM     57  H   LIG d   1       3.812   1.967  -1.764  0.00  0.00     0.027 H 
ATOM     58  H   LIG d   1       4.304   0.760  -0.553  0.00  0.00     0.027 H 
ATOM     59  H   LIG d   1       5.537   1.723  -1.401  0.00  0.00     0.027 H 
ENDBRANCH  14  56
TORSDOF 8
ENDMDL
MODEL 3
REMARK VINA RESULT:      -6.3      2.300      4.305
REMARK  8 active torsions:
REMARK  status: ('A' for Active; 'I' for Inactive)
REMARK    1  A    between atoms: C_1  and  C_2 
REMARK    2  A    between atoms: C_3  and  C_21 
REMARK    3  A    between atoms: C_9  and  O_19 
REMARK    4  A    between atoms: C_15  and  C_17 
REMARK    5  A    between atoms: C_15  and  C_18 
REMARK    6  A    between atoms: O_19  and  C_20 
REMARK    7  A    between atoms: C_21  and  C_22 
REMARK    8  A    between atoms: C_22  and  C_23 
REMARK       I    between atoms: C_23  and  N_25 
ROOT
ATOM      1  C   LIG d   1       4.323  -1.988  -5.329  0.00  0.00    -0.026 A 
ATOM      2  C   LIG d   1       3.895  -0.932  -4.587  0.00  0.00     0.041 A 
ATOM      3  C   LIG d   1       3.425   0.231  -5.228  0.00  0.00     0.341 A 
ATOM      4  O   LIG d   1       3.039   1.170  -4.555  0.00  0.00    -0.245 OA
ATOM      5  O   LIG d   1       3.400   0.322  -6.568  0.00  0.00    -0.421 OA
ATOM      6  C   LIG d   1       3.817  -0.706  -7.341  0.00  0.00     0.149 A 
ATOM      7  C   LIG d   1       4.288  -1.888  -6.743  0.00  0.00     0.063 A 
ATOM      8  C   LIG d   1       4.719  -2.954  -7.551  0.00  0.00     0.135 A 
ATOM      9  C   LIG d   1       4.676  -2.826  -8.923  0.00  0.00     0.023 A 
ATOM     10  C   LIG d   1       4.208  -1.651  -9.514  0.00  0.00     0.131 A 
ATOM     11  C   LIG d   1       3.779  -0.597  -8.725  0.00  0.00     0.038 A 
ATOM     12  C   LIG d   1       3.263   0.682  -9.335  0.00  0.00    -0.017 C 
ATOM     13  C   LIG d   1       3.705   0.773 -10.797  0.00  0.00    -0.009 C 
ATOM     14  C   LIG d   1       3.390  -0.565 -11.478  0.00  0.00     0.105 C 
ATOM     15  O   LIG d   1       4.192  -1.578 -10.870  0.00  0.00    -0.486 OA
ATOM     16  H   LIG d   1       5.007  -3.643  -9.547  0.00  0.00     0.069 H 
ATOM     17  H   LIG d   1       3.661   1.533  -8.782  0.00  0.00     0.032 H 
ATOM     18  H   LIG d   1       2.174   0.693  -9.283  0.00  0.00     0.032 H 
ATOM     19  H   LIG d   1       4.776   0.967 -10.846  0.00  0.00     0.031 H 
ATOM     20  H   LIG d   1       3.161   1.576 -11.296  0.00  0.00     0.031 H 
ENDROOT
BRANCH   2  21
ATOM     21  C   LIG d   1       3.918  -1.009  -3.081  0.00  0.00    -0.012 C 
ATOM     22  H   LIG d   1       3.471  -1.949  -2.758  0.00  0.00     0.032 H 
ATOM     23  H   LIG d   1       3.353  -0.175  -2.667  0.00  0.00     0.032 H 
BRANCH  21  24
ATOM     24  C   LIG d   1       5.366  -0.939  -2.590  0.00  0.00     0.028 C 
ATOM     25  H   LIG d   1       5.969  -1.670  -3.130  0.00  0.00     0.036 H 
ATOM     26  H   LIG d   1       5.398  -1.158  -1.524  0.00  0.00     0.036 H 
BRANCH  24  27
ATOM     27  C   LIG d   1       5.913   0.443  -2.837  0.00  0.00     0.216 C 
ATOM     28  O   LIG d   1       5.505   1.382  -2.188  0.00  0.00    -0.276 OA
ATOM     29  N   LIG d   1       6.857   0.636  -3.781  0.00  0.00    -0.291 N 
ATOM     30  C   LIG d   1       7.374  -0.482  -4.584  0.00  0.00     0.091 C 
ATOM     31  C   LIG d   1       7.413   1.973  -4.047  0.00  0.00     0.031 C 
ATOM     32  C   LIG d   1       8.868  -0.349  -4.701  0.00  0.00     0.231 C 
ATOM     33  H   LIG d   1       6.926  -0.453  -5.578  0.00  0.00     0.056 H 
ATOM     34  H   LIG d   1       7.128  -1.427  -4.099  0.00  0.00     0.056 H 
ATOM     35  N   LIG d   1       9.527   0.760  -4.360  0.00  0.00    -0.312 N 
ATOM     36  O   LIG d   1       9.502  -1.291  -5.124  0.00  0.00    -0.274 OA
ATOM     37  C   LIG d   1       8.914   1.934  -3.754  0.00  0.00     0.027 C 
ATOM     38  H   LIG d   1      10.483   0.786  -4.525  0.00  0.00     0.149 HD
ATOM     39  H   LIG d   1       9.381   2.831  -4.159  0.00  0.00     0.048 H 
ATOM     40  H   LIG d   1       9.069   1.904  -2.676  0.00  0.00     0.048 H 
ATOM     41  H   LIG d   1       6.931   2.707  -3.400  0.00  0.00     0.048 H 
ATOM     42  H   LIG d   1       7.247   2.239  -5.091  0.00  0.00     0.048 H 
ENDBRANCH  24  27
ENDBRANCH  21  24
ENDBRANCH   2  21
BRANCH   1  43
ATOM     43  C   LIG d   1       4.824  -3.243  -4.661  0.00  0.00    -0.038 C 
ATOM     44  H   LIG d   1       5.578  -3.714  -5.292  0.00  0.00     0.028 H 
ATOM     45  H   LIG d   1       5.264  -2.991  -3.697  0.00  0.00     0.028 H 
ATOM     46  H   LIG d   1       3.992  -3.932  -4.512  0.00  0.00     0.028 H 
ENDBRANCH   1  43
BRANCH   8  47
ATOM     47  O   LIG d   1       5.174  -4.100  -6.985  0.00  0.00    -0.494 OA
BRANCH  47  48
ATOM     48  C   LIG d   1       5.301  -5.239  -7.839  0.00  0.00     0.079 C 
ATOM     49  H   LIG d   1       4.322  -5.506  -8.237  0.00  0.00     0.066 H 
ATOM     50  H   LIG d   1       5.975  -5.003  -8.662  0.00  0.00     0.066 H 
ATOM     51  H   LIG d   1       5.702  -6.077  -7.269  0.00  0.00     0.066 H 
ENDBRANCH  47  48
ENDBRANCH   8  47
BRANCH  14  52
ATOM     52  C   LIG d   1       1.908  -0.902 -11.293  0.00  0.00    -0.025 C 
ATOM     53  H   LIG d   1       1.406  -0.069 -10.800  0.00  0.00     0.027 H 
ATOM     54  H   LIG d   1       1.452  -1.077 -12.266  0.00  0.00     0.027 H 
ATOM     55  H   LIG d   1       1.813  -1.798 -10.680  0.00  0.00     0.027 H 
ENDBRANCH  14  52
BRANCH  14  56
ATOM     56  C   LIG d   1       3.717  -0.475 -12.969  0.00  0.00    -0.025 C 
ATOM     57  H   LIG d   1       2.829  -0.721 -13.551  0.00  0.00     0.027 H 
ATOM     58  H   LIG d   1       4.039   0.538 -13.209  0.00  0.00     0.027 H 
ATOM     59  H   LIG d   1       4.515  -1.177 -13.209  0.00  0.00     0.027 H 
ENDBRANCH  14  56
TORSDOF 8
ENDMDL
MODEL 4
REMARK VINA RESULT:      -6.2      3.567      7.639
REMARK  8 active torsions:
REMARK  status: ('A' for Active; 'I' for Inactive)
REMARK    1  A    between atoms: C_1  and  C_2 
REMARK    2  A    between atoms: C_3  and  C_21 
REMARK    3  A    between atoms: C_9  and  O_19 
REMARK    4  A    between atoms: C_15  and  C_17 
REMARK    5  A    between atoms: C_15  and  C_18 
REMARK    6  A    between atoms: O_19  and  C_20 
REMARK    7  A    between atoms: C_21  and  C_22 
REMARK    8  A    between atoms: C_22  and  C_23 
REMARK       I    between atoms: C_23  and  N_25 
ROOT
ATOM      1  C   LIG d   1       4.912  -3.346  -8.119  0.00  0.00    -0.026 A 
ATOM      2  C   LIG d   1       4.529  -4.628  -7.880  0.00  0.00     0.041 A 
ATOM      3  C   LIG d   1       4.160  -5.020  -6.578  0.00  0.00     0.341 A 
ATOM      4  O   LIG d   1       3.813  -6.170  -6.375  0.00  0.00    -0.245 OA
ATOM      5  O   LIG d   1       4.190  -4.147  -5.557  0.00  0.00    -0.421 OA
ATOM      6  C   LIG d   1       4.566  -2.863  -5.753  0.00  0.00     0.149 A 
ATOM      7  C   LIG d   1       4.936  -2.429  -7.038  0.00  0.00     0.063 A 
ATOM      8  C   LIG d   1       5.324  -1.092  -7.237  0.00  0.00     0.135 A 
ATOM      9  C   LIG d   1       5.339  -0.224  -6.166  0.00  0.00     0.023 A 
ATOM     10  C   LIG d   1       4.972  -0.658  -4.891  0.00  0.00     0.131 A 
ATOM     11  C   LIG d   1       4.586  -1.972  -4.688  0.00  0.00     0.038 A 
ATOM     12  C   LIG d   1       4.178  -2.469  -3.324  0.00  0.00    -0.017 C 
ATOM     13  C   LIG d   1       4.678  -1.501  -2.250  0.00  0.00    -0.009 C 
ATOM     14  C   LIG d   1       4.300  -0.076  -2.675  0.00  0.00     0.105 C 
ATOM     15  O   LIG d   1       5.010   0.239  -3.873  0.00  0.00    -0.486 OA
ATOM     16  H   LIG d   1       5.638   0.804  -6.315  0.00  0.00     0.069 H 
ATOM     17  H   LIG d   1       4.611  -3.455  -3.153  0.00  0.00     0.032 H 
ATOM     18  H   LIG d   1       3.091  -2.538  -3.274  0.00  0.00     0.032 H 
ATOM     19  H   LIG d   1       5.761  -1.581  -2.157  0.00  0.00     0.031 H 
ATOM     20  H   LIG d   1       4.207  -1.736  -1.295  0.00  0.00     0.031 H 
ENDROOT
BRANCH   2  21
ATOM     21  C   LIG d   1       4.492  -5.627  -9.009  0.00  0.00    -0.012 C 
ATOM     22  H   LIG d   1       4.505  -6.637  -8.602  0.00  0.00     0.032 H 
ATOM     23  H   LIG d   1       5.361  -5.482  -9.650  0.00  0.00     0.032 H 
BRANCH  21  24
ATOM     24  C   LIG d   1       3.215  -5.424  -9.827  0.00  0.00     0.028 C 
ATOM     25  H   LIG d   1       3.478  -5.197 -10.861  0.00  0.00     0.036 H 
ATOM     26  H   LIG d   1       2.643  -4.598  -9.408  0.00  0.00     0.036 H 
BRANCH  24  27
ATOM     27  C   LIG d   1       2.387  -6.683  -9.785  0.00  0.00     0.216 C 
ATOM     28  O   LIG d   1       2.751  -7.627  -9.116  0.00  0.00    -0.276 OA
ATOM     29  N   LIG d   1       1.241  -6.759 -10.491  0.00  0.00    -0.291 N 
ATOM     30  C   LIG d   1       0.770  -5.632 -11.310  0.00  0.00     0.091 C 
ATOM     31  C   LIG d   1       0.408  -7.973 -10.471  0.00  0.00     0.031 C 
ATOM     32  C   LIG d   1      -0.711  -5.469 -11.111  0.00  0.00     0.231 C 
ATOM     33  H   LIG d   1       0.977  -5.835 -12.361  0.00  0.00     0.056 H 
ATOM     34  H   LIG d   1       1.283  -4.719 -11.007  0.00  0.00     0.056 H 
ATOM     35  N   LIG d   1      -1.469  -6.387 -10.510  0.00  0.00    -0.312 N 
ATOM     36  O   LIG d   1      -1.242  -4.457 -11.516  0.00  0.00    -0.274 OA
ATOM     37  C   LIG d   1      -0.961  -7.606  -9.894  0.00  0.00     0.027 C 
ATOM     38  H   LIG d   1      -2.427  -6.233 -10.478  0.00  0.00     0.149 HD
ATOM     39  H   LIG d   1      -1.659  -8.420 -10.082  0.00  0.00     0.048 H 
ATOM     40  H   LIG d   1      -0.868  -7.453  -8.819  0.00  0.00     0.048 H 
ATOM     41  H   LIG d   1       0.879  -8.732  -9.845  0.00  0.00     0.048 H 
ATOM     42  H   LIG d   1       0.290  -8.355 -11.485  0.00  0.00     0.048 H 
ENDBRANCH  24  27
ENDBRANCH  21  24
ENDBRANCH   2  21
BRANCH   1  43
ATOM     43  C   LIG d   1       5.304  -2.908  -9.506  0.00  0.00    -0.038 C 
ATOM     44  H   LIG d   1       6.352  -3.151  -9.682  0.00  0.00     0.028 H 
ATOM     45  H   LIG d   1       4.684  -3.422 -10.239  0.00  0.00     0.028 H 
ATOM     46  H   LIG d   1       5.162  -1.831  -9.600  0.00  0.00     0.028 H 
ENDBRANCH   1  43
BRANCH   8  47
ATOM     47  O   LIG d   1       5.680  -0.661  -8.473  0.00  0.00    -0.494 OA
BRANCH  47  48
ATOM     48  C   LIG d   1       5.569   0.741  -8.727  0.00  0.00     0.079 C 
ATOM     49  H   LIG d   1       6.563   1.165  -8.868  0.00  0.00     0.066 H 
ATOM     50  H   LIG d   1       4.975   0.901  -9.627  0.00  0.00     0.066 H 
ATOM     51  H   LIG d   1       5.083   1.226  -7.880  0.00  0.00     0.066 H 
ENDBRANCH  47  48
ENDBRANCH   8  47
BRANCH  14  52
ATOM     52  C   LIG d   1       2.793   0.002  -2.934  0.00  0.00    -0.025 C 
ATOM     53  H   LIG d   1       2.273  -0.670  -2.252  0.00  0.00     0.027 H 
ATOM     54  H   LIG d   1       2.450   1.023  -2.772  0.00  0.00     0.027 H 
ATOM     55  H   LIG d   1       2.586  -0.292  -3.963  0.00  0.00     0.027 H 
ENDBRANCH  14  52
BRANCH  14  56
ATOM     56  C   LIG d   1       4.686   0.912  -1.573  0.00  0.00    -0.025 C 
ATOM     57  H   LIG d   1       4.302   1.901  -1.820  0.00  0.00     0.027 H 
ATOM     58  H   LIG d   1       4.259   0.583  -0.625  0.00  0.00     0.027 H 
ATOM     59  H   LIG d   1       5.772   0.954  -1.486  0.00  0.00     0.027 H 
ENDBRANCH  14  56
TORSDOF 8
ENDMDL
MODEL 5
REMARK VINA RESULT:      -6.2      5.582      8.257
REMARK  8 active torsions:
REMARK  status: ('A' for Active; 'I' for Inactive)
REMARK    1  A    between atoms: C_1  and  C_2 
REMARK    2  A    between atoms: C_3  and  C_21 
REMARK    3  A    between atoms: C_9  and  O_19 
REMARK    4  A    between atoms: C_15  and  C_17 
REMARK    5  A    between atoms: C_15  and  C_18 
REMARK    6  A    between atoms: O_19  and  C_20 
REMARK    7  A    between atoms: C_21  and  C_22 
REMARK    8  A    between atoms: C_22  and  C_23 
REMARK       I    between atoms: C_23  and  N_25 
ROOT
ATOM      1  C   LIG d   1       7.135  -4.949  -5.805  0.00  0.00    -0.026 A 
ATOM      2  C   LIG d   1       6.138  -5.846  -6.029  0.00  0.00     0.041 A 
ATOM      3  C   LIG d   1       4.848  -5.602  -5.520  0.00  0.00     0.341 A 
ATOM      4  O   LIG d   1       3.959  -6.409  -5.730  0.00  0.00    -0.245 OA
ATOM      5  O   LIG d   1       4.582  -4.497  -4.802  0.00  0.00    -0.421 OA
ATOM      6  C   LIG d   1       5.546  -3.583  -4.557  0.00  0.00     0.149 A 
ATOM      7  C   LIG d   1       6.847  -3.783  -5.052  0.00  0.00     0.063 A 
ATOM      8  C   LIG d   1       7.845  -2.827  -4.795  0.00  0.00     0.135 A 
ATOM      9  C   LIG d   1       7.536  -1.704  -4.058  0.00  0.00     0.023 A 
ATOM     10  C   LIG d   1       6.243  -1.508  -3.568  0.00  0.00     0.131 A 
ATOM     11  C   LIG d   1       5.254  -2.443  -3.818  0.00  0.00     0.038 A 
ATOM     12  C   LIG d   1       3.848  -2.256  -3.307  0.00  0.00    -0.017 C 
ATOM     13  C   LIG d   1       3.840  -1.214  -2.186  0.00  0.00    -0.009 C 
ATOM     14  C   LIG d   1       4.637   0.008  -2.661  0.00  0.00     0.105 C 
ATOM     15  O   LIG d   1       5.997  -0.386  -2.844  0.00  0.00    -0.486 OA
ATOM     16  H   LIG d   1       8.301  -0.968  -3.859  0.00  0.00     0.069 H 
ATOM     17  H   LIG d   1       3.473  -3.205  -2.923  0.00  0.00     0.032 H 
ATOM     18  H   LIG d   1       3.209  -1.917  -4.122  0.00  0.00     0.032 H 
ATOM     19  H   LIG d   1       4.305  -1.631  -1.292  0.00  0.00     0.031 H 
ATOM     20  H   LIG d   1       2.814  -0.920  -1.964  0.00  0.00     0.031 H 
ENDROOT
BRANCH   2  21
ATOM     21  C   LIG d   1       6.413  -7.095  -6.827  0.00  0.00    -0.012 C 
ATOM     22  H   LIG d   1       7.392  -7.018  -7.300  0.00  0.00     0.032 H 
ATOM     23  H   LIG d   1       5.647  -7.211  -7.594  0.00  0.00     0.032 H 
BRANCH  21  24
ATOM     24  C   LIG d   1       6.391  -8.309  -5.897  0.00  0.00     0.028 C 
ATOM     25  H   LIG d   1       5.801  -9.106  -6.351  0.00  0.00     0.036 H 
ATOM     26  H   LIG d   1       5.948  -8.027  -4.942  0.00  0.00     0.036 H 
BRANCH  24  27
ATOM     27  C   LIG d   1       7.800  -8.795  -5.673  0.00  0.00     0.216 C 
ATOM     28  O   LIG d   1       8.654  -8.587  -6.508  0.00  0.00    -0.276 OA
ATOM     29  N   LIG d   1       8.113  -9.461  -4.543  0.00  0.00    -0.291 N 
ATOM     30  C   LIG d   1       7.101  -9.728  -3.509  0.00  0.00     0.091 C 
ATOM     31  C   LIG d   1       9.479  -9.948  -4.293  0.00  0.00     0.031 C 
ATOM     32  C   LIG d   1       7.706  -9.470  -2.156  0.00  0.00     0.231 C 
ATOM     33  H   LIG d   1       6.781 -10.769  -3.573  0.00  0.00     0.056 H 
ATOM     34  H   LIG d   1       6.243  -9.072  -3.656  0.00  0.00     0.056 H 
ATOM     35  N   LIG d   1       9.016  -9.306  -1.966  0.00  0.00    -0.312 N 
ATOM     36  O   LIG d   1       6.971  -9.410  -1.194  0.00  0.00    -0.274 OA
ATOM     37  C   LIG d   1      10.009  -9.263  -3.032  0.00  0.00     0.027 C 
ATOM     38  H   LIG d   1       9.331  -9.207  -1.053  0.00  0.00     0.149 HD
ATOM     39  H   LIG d   1      10.913  -9.771  -2.700  0.00  0.00     0.048 H 
ATOM     40  H   LIG d   1      10.245  -8.223  -3.260  0.00  0.00     0.048 H 
ATOM     41  H   LIG d   1      10.118  -9.702  -5.141  0.00  0.00     0.048 H 
ATOM     42  H   LIG d   1       9.463 -11.028  -4.146  0.00  0.00     0.048 H 
ENDBRANCH  24  27
ENDBRANCH  21  24
ENDBRANCH   2  21
BRANCH   1  43
ATOM     43  C   LIG d   1       8.521  -5.190  -6.346  0.00  0.00    -0.038 C 
ATOM     44  H   LIG d   1       8.914  -6.121  -5.938  0.00  0.00     0.028 H 
ATOM     45  H   LIG d   1       8.480  -5.259  -7.432  0.00  0.00     0.028 H 
ATOM     46  H   LIG d   1       9.172  -4.364  -6.058  0.00  0.00     0.028 H 
ENDBRANCH   1  43
BRANCH   8  47
ATOM     47  O   LIG d   1       9.103  -3.008  -5.270  0.00  0.00    -0.494 OA
BRANCH  47  48
ATOM     48  C   LIG d   1      10.015  -1.918  -5.124  0.00  0.00     0.079 C 
ATOM     49  H   LIG d   1       9.510  -0.985  -5.376  0.00  0.00     0.066 H 
ATOM     50  H   LIG d   1      10.366  -1.873  -4.093  0.00  0.00     0.066 H 
ATOM     51  H   LIG d   1      10.865  -2.063  -5.792  0.00  0.00     0.066 H 
ENDBRANCH  47  48
ENDBRANCH   8  47
BRANCH  14  52
ATOM     52  C   LIG d   1       4.063   0.514  -3.987  0.00  0.00    -0.025 C 
ATOM     53  H   LIG d   1       3.027   0.190  -4.081  0.00  0.00     0.027 H 
ATOM     54  H   LIG d   1       4.109   1.602  -4.010  0.00  0.00     0.027 H 
ATOM     55  H   LIG d   1       4.647   0.107  -4.813  0.00  0.00     0.027 H 
ENDBRANCH  14  52
BRANCH  14  56
ATOM     56  C   LIG d   1       4.558   1.116  -1.608  0.00  0.00    -0.025 C 
ATOM     57  H   LIG d   1       4.444   2.079  -2.103  0.00  0.00     0.027 H 
ATOM     58  H   LIG d   1       3.702   0.938  -0.958  0.00  0.00     0.027 H 
ATOM     59  H   LIG d   1       5.472   1.118  -1.014  0.00  0.00     0.027 H 
ENDBRANCH  14  56
TORSDOF 8
ENDMDL
MODEL 6
REMARK VINA RESULT:      -6.1      5.417      8.342
REMARK  8 active torsions:
REMARK  status: ('A' for Active; 'I' for Inactive)
REMARK    1  A    between atoms: C_1  and  C_2 
REMARK    2  A    between atoms: C_3  and  C_21 
REMARK    3  A    between atoms: C_9  and  O_19 
REMARK    4  A    between atoms: C_15  and  C_17 
REMARK    5  A    between atoms: C_15  and  C_18 
REMARK    6  A    between atoms: O_19  and  C_20 
REMARK    7  A    between atoms: C_21  and  C_22 
REMARK    8  A    between atoms: C_22  and  C_23 
REMARK       I    between atoms: C_23  and  N_25 
ROOT
ATOM      1  C   LIG d   1       9.772   0.644  -5.157  0.00  0.00    -0.026 A 
ATOM      2  C   LIG d   1      10.263   1.717  -4.483  0.00  0.00     0.041 A 
ATOM      3  C   LIG d   1       9.445   2.403  -3.564  0.00  0.00     0.341 A 
ATOM      4  O   LIG d   1       9.896   3.361  -2.961  0.00  0.00    -0.245 OA
ATOM      5  O   LIG d   1       8.175   2.021  -3.347  0.00  0.00    -0.421 OA
ATOM      6  C   LIG d   1       7.650   0.960  -3.998  0.00  0.00     0.149 A 
ATOM      7  C   LIG d   1       8.433   0.243  -4.919  0.00  0.00     0.063 A 
ATOM      8  C   LIG d   1       7.882  -0.862  -5.592  0.00  0.00     0.135 A 
ATOM      9  C   LIG d   1       6.576  -1.227  -5.341  0.00  0.00     0.023 A 
ATOM     10  C   LIG d   1       5.800  -0.512  -4.426  0.00  0.00     0.131 A 
ATOM     11  C   LIG d   1       6.337   0.575  -3.758  0.00  0.00     0.038 A 
ATOM     12  C   LIG d   1       5.525   1.362  -2.760  0.00  0.00    -0.017 C 
ATOM     13  C   LIG d   1       4.036   1.074  -2.962  0.00  0.00    -0.009 C 
ATOM     14  C   LIG d   1       3.849  -0.446  -3.052  0.00  0.00     0.105 C 
ATOM     15  O   LIG d   1       4.519  -0.913  -4.223  0.00  0.00    -0.486 OA
ATOM     16  H   LIG d   1       6.149  -2.074  -5.857  0.00  0.00     0.069 H 
ATOM     17  H   LIG d   1       5.711   2.427  -2.902  0.00  0.00     0.032 H 
ATOM     18  H   LIG d   1       5.817   1.075  -1.750  0.00  0.00     0.032 H 
ATOM     19  H   LIG d   1       3.693   1.541  -3.885  0.00  0.00     0.031 H 
ATOM     20  H   LIG d   1       3.468   1.465  -2.118  0.00  0.00     0.031 H 
ENDROOT
BRANCH   2  21
ATOM     21  C   LIG d   1      11.684   2.167  -4.714  0.00  0.00    -0.012 C 
ATOM     22  H   LIG d   1      12.348   1.304  -4.683  0.00  0.00     0.032 H 
ATOM     23  H   LIG d   1      11.970   2.875  -3.936  0.00  0.00     0.032 H 
BRANCH  21  24
ATOM     24  C   LIG d   1      11.788   2.843  -6.082  0.00  0.00     0.028 C 
ATOM     25  H   LIG d   1      11.145   2.324  -6.794  0.00  0.00     0.036 H 
ATOM     26  H   LIG d   1      12.820   2.804  -6.429  0.00  0.00     0.036 H 
BRANCH  24  27
ATOM     27  C   LIG d   1      11.350   4.281  -5.966  0.00  0.00     0.216 C 
ATOM     28  O   LIG d   1      11.972   5.050  -5.265  0.00  0.00    -0.276 OA
ATOM     29  N   LIG d   1      10.267   4.712  -6.643  0.00  0.00    -0.291 N 
ATOM     30  C   LIG d   1       9.492   3.805  -7.504  0.00  0.00     0.091 C 
ATOM     31  C   LIG d   1       9.813   6.110  -6.553  0.00  0.00     0.031 C 
ATOM     32  C   LIG d   1       9.148   4.520  -8.782  0.00  0.00     0.231 C 
ATOM     33  H   LIG d   1       8.575   3.512  -6.992  0.00  0.00     0.056 H 
ATOM     34  H   LIG d   1      10.084   2.918  -7.729  0.00  0.00     0.056 H 
ATOM     35  N   LIG d   1       9.296   5.836  -8.941  0.00  0.00    -0.312 N 
ATOM     36  O   LIG d   1       8.716   3.871  -9.710  0.00  0.00    -0.274 OA
ATOM     37  C   LIG d   1       9.885   6.728  -7.950  0.00  0.00     0.027 C 
ATOM     38  H   LIG d   1       8.992   6.228  -9.774  0.00  0.00     0.149 HD
ATOM     39  H   LIG d   1       9.344   7.673  -7.953  0.00  0.00     0.048 H 
ATOM     40  H   LIG d   1      10.929   6.911  -8.208  0.00  0.00     0.048 H 
ATOM     41  H   LIG d   1      10.459   6.663  -5.872  0.00  0.00     0.048 H 
ATOM     42  H   LIG d   1       8.785   6.140  -6.190  0.00  0.00     0.048 H 
ENDBRANCH  24  27
ENDBRANCH  21  24
ENDBRANCH   2  21
BRANCH   1  43
ATOM     43  C   LIG d   1      10.634  -0.106  -6.140  0.00  0.00    -0.038 C 
ATOM     44  H   LIG d   1      11.671  -0.089  -5.802  0.00  0.00     0.028 H 
ATOM     45  H   LIG d   1      10.292  -1.138  -6.210  0.00  0.00     0.028 H 
ATOM     46  H   LIG d   1      10.565   0.368  -7.119  0.00  0.00     0.028 H 
ENDBRANCH   1  43
BRANCH   8  47
ATOM     47  O   LIG d   1       8.629  -1.563  -6.481  0.00  0.00    -0.494 OA
BRANCH  47  48
ATOM     48  C   LIG d   1       7.925  -2.383  -7.415  0.00  0.00     0.079 C 
ATOM     49  H   LIG d   1       8.541  -3.244  -7.679  0.00  0.00     0.066 H 
ATOM     50  H   LIG d   1       6.994  -2.728  -6.967  0.00  0.00     0.066 H 
ATOM     51  H   LIG d   1       7.705  -1.805  -8.312  0.00  0.00     0.066 H 
ENDBRANCH  47  48
ENDBRANCH   8  47
BRANCH  14  52
ATOM     52  C   LIG d   1       4.452  -1.113  -1.812  0.00  0.00    -0.025 C 
ATOM     53  H   LIG d   1       5.394  -1.591  -2.080  0.00  0.00     0.027 H 
ATOM     54  H   LIG d   1       4.630  -0.360  -1.046  0.00  0.00     0.027 H 
ATOM     55  H   LIG d   1       3.759  -1.864  -1.432  0.00  0.00     0.027 H 
ENDBRANCH  14  52
BRANCH  14  56
ATOM     56  C   LIG d   1       2.359  -0.778  -3.144  0.00  0.00    -0.025 C 
ATOM     57  H   LIG d   1       1.891  -0.622  -2.172  0.00  0.00     0.027 H 
ATOM     58  H   LIG d   1       1.888  -0.129  -3.882  0.00  0.00     0.027 H 
ATOM     59  H   LIG d   1       2.236  -1.819  -3.444  0.00  0.00     0.027 H 
ENDBRANCH  14  56
TORSDOF 8
ENDMDL
MODEL 7
REMARK VINA RESULT:      -6.0      4.053      7.954
REMARK  8 active torsions:
REMARK  status: ('A' for Active; 'I' for Inactive)
REMARK    1  A    between atoms: C_1  and  C_2 
REMARK    2  A    between atoms: C_3  and  C_21 
REMARK    3  A    between atoms: C_9  and  O_19 
REMARK    4  A    between atoms: C_15  and  C_17 
REMARK    5  A    between atoms: C_15  and  C_18 
REMARK    6  A    between atoms: O_19  and  C_20 
REMARK    7  A    between atoms: C_21  and  C_22 
REMARK    8  A    between atoms: C_22  and  C_23 
REMARK       I    between atoms: C_23  and  N_25 
ROOT
ATOM      1  C   LIG d   1       7.293  -0.960  -3.816  0.00  0.00    -0.026 A 
ATOM      2  C   LIG d   1       6.204  -0.447  -3.184  0.00  0.00     0.041 A 
ATOM      3  C   LIG d   1       6.056   0.948  -3.062  0.00  0.00     0.341 A 
ATOM      4  O   LIG d   1       5.074   1.399  -2.499  0.00  0.00    -0.245 OA
ATOM      5  O   LIG d   1       6.982   1.790  -3.553  0.00  0.00    -0.421 OA
ATOM      6  C   LIG d   1       8.079   1.319  -4.187  0.00  0.00     0.149 A 
ATOM      7  C   LIG d   1       8.264  -0.067  -4.336  0.00  0.00     0.063 A 
ATOM      8  C   LIG d   1       9.405  -0.550  -4.999  0.00  0.00     0.135 A 
ATOM      9  C   LIG d   1      10.332   0.343  -5.492  0.00  0.00     0.023 A 
ATOM     10  C   LIG d   1      10.147   1.719  -5.342  0.00  0.00     0.131 A 
ATOM     11  C   LIG d   1       9.024   2.203  -4.693  0.00  0.00     0.038 A 
ATOM     12  C   LIG d   1       8.793   3.683  -4.521  0.00  0.00    -0.017 C 
ATOM     13  C   LIG d   1      10.105   4.440  -4.736  0.00  0.00    -0.009 C 
ATOM     14  C   LIG d   1      10.750   3.924  -6.029  0.00  0.00     0.105 C 
ATOM     15  O   LIG d   1      11.095   2.551  -5.843  0.00  0.00    -0.486 OA
ATOM     16  H   LIG d   1      11.212  -0.025  -6.001  0.00  0.00     0.069 H 
ATOM     17  H   LIG d   1       8.423   3.877  -3.514  0.00  0.00     0.032 H 
ATOM     18  H   LIG d   1       8.055   4.021  -5.249  0.00  0.00     0.032 H 
ATOM     19  H   LIG d   1      10.775   4.261  -3.895  0.00  0.00     0.031 H 
ATOM     20  H   LIG d   1       9.904   5.507  -4.826  0.00  0.00     0.031 H 
ENDROOT
BRANCH   2  21
ATOM     21  C   LIG d   1       5.154  -1.371  -2.621  0.00  0.00    -0.012 C 
ATOM     22  H   LIG d   1       4.860  -1.027  -1.630  0.00  0.00     0.032 H 
ATOM     23  H   LIG d   1       5.560  -2.380  -2.550  0.00  0.00     0.032 H 
BRANCH  21  24
ATOM     24  C   LIG d   1       3.933  -1.376  -3.543  0.00  0.00     0.028 C 
ATOM     25  H   LIG d   1       3.714  -0.356  -3.861  0.00  0.00     0.036 H 
ATOM     26  H   LIG d   1       3.076  -1.782  -3.008  0.00  0.00     0.036 H 
BRANCH  24  27
ATOM     27  C   LIG d   1       4.222  -2.227  -4.753  0.00  0.00     0.216 C 
ATOM     28  O   LIG d   1       4.293  -3.433  -4.644  0.00  0.00    -0.276 OA
ATOM     29  N   LIG d   1       4.400  -1.648  -5.957  0.00  0.00    -0.291 N 
ATOM     30  C   LIG d   1       4.318  -0.189  -6.124  0.00  0.00     0.091 C 
ATOM     31  C   LIG d   1       4.683  -2.450  -7.159  0.00  0.00     0.031 C 
ATOM     32  C   LIG d   1       3.542   0.116  -7.375  0.00  0.00     0.231 C 
ATOM     33  H   LIG d   1       5.324   0.224  -6.208  0.00  0.00     0.056 H 
ATOM     34  H   LIG d   1       3.813   0.251  -5.264  0.00  0.00     0.056 H 
ATOM     35  N   LIG d   1       3.246  -0.808  -8.291  0.00  0.00    -0.312 N 
ATOM     36  O   LIG d   1       3.168   1.254  -7.562  0.00  0.00    -0.274 OA
ATOM     37  C   LIG d   1       3.549  -2.227  -8.161  0.00  0.00     0.027 C 
ATOM     38  H   LIG d   1       2.797  -0.515  -9.099  0.00  0.00     0.149 HD
ATOM     39  H   LIG d   1       3.845  -2.620  -9.133  0.00  0.00     0.048 H 
ATOM     40  H   LIG d   1       2.657  -2.754  -7.819  0.00  0.00     0.048 H 
ATOM     41  H   LIG d   1       4.735  -3.506  -6.892  0.00  0.00     0.048 H 
ATOM     42  H   LIG d   1       5.629  -2.135  -7.598  0.00  0.00     0.048 H 
ENDBRANCH  24  27
ENDBRANCH  21  24
ENDBRANCH   2  21
BRANCH   1  43
ATOM     43  C   LIG d   1       7.466  -2.450  -3.961  0.00  0.00    -0.038 C 
ATOM     44  H   LIG d   1       6.754  -2.963  -3.314  0.00  0.00     0.028 H 
ATOM     45  H   LIG d   1       7.290  -2.737  -4.996  0.00  0.00     0.028 H 
ATOM     46  H   LIG d   1       8.481  -2.727  -3.675  0.00  0.00     0.028 H 
ENDBRANCH   1  43
BRANCH   8  47
ATOM     47  O   LIG d   1       9.593  -1.885  -5.151  0.00  0.00    -0.494 OA
BRANCH  47  48
ATOM     48  C   LIG d   1      10.943  -2.354  -5.147  0.00  0.00     0.079 C 
ATOM     49  H   LIG d   1      11.427  -2.060  -4.216  0.00  0.00     0.066 H 
ATOM     50  H   LIG d   1      10.950  -3.441  -5.233  0.00  0.00     0.066 H 
ATOM     51  H   LIG d   1      11.481  -1.920  -5.990  0.00  0.00     0.066 H 
ENDBRANCH  47  48
ENDBRANCH   8  47
BRANCH  14  52
ATOM     52  C   LIG d   1       9.758   4.055  -7.187  0.00  0.00    -0.025 C 
ATOM     53  H   LIG d   1      10.201   3.640  -8.092  0.00  0.00     0.027 H 
ATOM     54  H   LIG d   1       8.846   3.511  -6.946  0.00  0.00     0.027 H 
ATOM     55  H   LIG d   1       9.523   5.107  -7.348  0.00  0.00     0.027 H 
ENDBRANCH  14  52
BRANCH  14  56
ATOM     56  C   LIG d   1      12.011   4.735  -6.335  0.00  0.00    -0.025 C 
ATOM     57  H   LIG d   1      12.130   4.828  -7.414  0.00  0.00     0.027 H 
ATOM     58  H   LIG d   1      11.920   5.728  -5.894  0.00  0.00     0.027 H 
ATOM     59  H   LIG d   1      12.880   4.229  -5.916  0.00  0.00     0.027 H 
ENDBRANCH  14  56
TORSDOF 8
ENDMDL
MODEL 8
REMARK VINA RESULT:      -6.0      3.902      7.868
REMARK  8 active torsions:
REMARK  status: ('A' for Active; 'I' for Inactive)
REMARK    1  A    between atoms: C_1  and  C_2 
REMARK    2  A    between atoms: C_3  and  C_21 
REMARK    3  A    between atoms: C_9  and  O_19 
REMARK    4  A    between atoms: C_15  and  C_17 
REMARK    5  A    between atoms: C_15  and  C_18 
REMARK    6  A    between atoms: O_19  and  C_20 
REMARK    7  A    between atoms: C_21  and  C_22 
REMARK    8  A    between atoms: C_22  and  C_23 
REMARK       I    between atoms: C_23  and  N_25 
ROOT
ATOM      1  C   LIG d   1       2.404  -1.828  -9.703  0.00  0.00    -0.026 A 
ATOM      2  C   LIG d   1       2.461  -3.136 -10.066  0.00  0.00     0.041 A 
ATOM      3  C   LIG d   1       3.197  -4.050  -9.286  0.00  0.00     0.341 A 
ATOM      4  O   LIG d   1       3.238  -5.222  -9.615  0.00  0.00    -0.245 OA
ATOM      5  O   LIG d   1       3.858  -3.647  -8.187  0.00  0.00    -0.421 OA
ATOM      6  C   LIG d   1       3.827  -2.355  -7.794  0.00  0.00     0.149 A 
ATOM      7  C   LIG d   1       3.099  -1.411  -8.540  0.00  0.00     0.063 A 
ATOM      8  C   LIG d   1       3.069  -0.068  -8.125  0.00  0.00     0.135 A 
ATOM      9  C   LIG d   1       3.756   0.307  -6.991  0.00  0.00     0.023 A 
ATOM     10  C   LIG d   1       4.479  -0.632  -6.252  0.00  0.00     0.131 A 
ATOM     11  C   LIG d   1       4.511  -1.957  -6.652  0.00  0.00     0.038 A 
ATOM     12  C   LIG d   1       5.278  -2.995  -5.872  0.00  0.00    -0.017 C 
ATOM     13  C   LIG d   1       6.286  -2.307  -4.949  0.00  0.00    -0.009 C 
ATOM     14  C   LIG d   1       5.560  -1.185  -4.196  0.00  0.00     0.105 C 
ATOM     15  O   LIG d   1       5.141  -0.204  -5.146  0.00  0.00    -0.486 OA
ATOM     16  H   LIG d   1       3.736   1.339  -6.670  0.00  0.00     0.069 H 
ATOM     17  H   LIG d   1       5.807  -3.650  -6.564  0.00  0.00     0.032 H 
ATOM     18  H   LIG d   1       4.582  -3.584  -5.275  0.00  0.00     0.032 H 
ATOM     19  H   LIG d   1       7.100  -1.887  -5.540  0.00  0.00     0.031 H 
ATOM     20  H   LIG d   1       6.684  -3.030  -4.236  0.00  0.00     0.031 H 
ENDROOT
BRANCH   2  21
ATOM     21  C   LIG d   1       1.731  -3.610 -11.297  0.00  0.00    -0.012 C 
ATOM     22  H   LIG d   1       2.267  -4.451 -11.737  0.00  0.00     0.032 H 
ATOM     23  H   LIG d   1       1.674  -2.797 -12.020  0.00  0.00     0.032 H 
BRANCH  21  24
ATOM     24  C   LIG d   1       0.318  -4.052 -10.913  0.00  0.00     0.028 C 
ATOM     25  H   LIG d   1      -0.410  -3.381 -11.369  0.00  0.00     0.036 H 
ATOM     26  H   LIG d   1       0.210  -4.023  -9.829  0.00  0.00     0.036 H 
BRANCH  24  27
ATOM     27  C   LIG d   1       0.081  -5.457 -11.405  0.00  0.00     0.216 C 
ATOM     28  O   LIG d   1       0.940  -6.032 -12.038  0.00  0.00    -0.276 OA
ATOM     29  N   LIG d   1      -1.088  -6.076 -11.139  0.00  0.00    -0.291 N 
ATOM     30  C   LIG d   1      -2.149  -5.408 -10.371  0.00  0.00     0.091 C 
ATOM     31  C   LIG d   1      -1.351  -7.448 -11.603  0.00  0.00     0.031 C 
ATOM     32  C   LIG d   1      -2.730  -6.387  -9.388  0.00  0.00     0.231 C 
ATOM     33  H   LIG d   1      -2.930  -5.067 -11.051  0.00  0.00     0.056 H 
ATOM     34  H   LIG d   1      -1.733  -4.555  -9.834  0.00  0.00     0.056 H 
ATOM     35  N   LIG d   1      -2.488  -7.698  -9.438  0.00  0.00    -0.312 N 
ATOM     36  O   LIG d   1      -3.452  -5.966  -8.509  0.00  0.00    -0.274 OA
ATOM     37  C   LIG d   1      -1.573  -8.335 -10.377  0.00  0.00     0.027 C 
ATOM     38  H   LIG d   1      -2.952  -8.268  -8.805  0.00  0.00     0.149 HD
ATOM     39  H   LIG d   1      -1.992  -9.288 -10.694  0.00  0.00     0.048 H 
ATOM     40  H   LIG d   1      -0.617  -8.510  -9.882  0.00  0.00     0.048 H 
ATOM     41  H   LIG d   1      -0.496  -7.814 -12.172  0.00  0.00     0.048 H 
ATOM     42  H   LIG d   1      -2.242  -7.459 -12.231  0.00  0.00     0.048 H 
ENDBRANCH  24  27
ENDBRANCH  21  24
ENDBRANCH   2  21
BRANCH   1  43
ATOM     43  C   LIG d   1       1.617  -0.838 -10.523  0.00  0.00    -0.038 C 
ATOM     44  H   LIG d   1       1.935   0.175 -10.273  0.00  0.00     0.028 H 
ATOM     45  H   LIG d   1       1.791  -1.022 -11.582  0.00  0.00     0.028 H 
ATOM     46  H   LIG d   1       0.555  -0.949 -10.304  0.00  0.00     0.028 H 
ENDBRANCH   1  43
BRANCH   8  47
ATOM     47  O   LIG d   1       2.368   0.851  -8.836  0.00  0.00    -0.494 OA
BRANCH  47  48
ATOM     48  C   LIG d   1       2.883   2.183  -8.858  0.00  0.00     0.079 C 
ATOM     49  H   LIG d   1       2.304   2.809  -8.179  0.00  0.00     0.066 H 
ATOM     50  H   LIG d   1       3.926   2.175  -8.544  0.00  0.00     0.066 H 
ATOM     51  H   LIG d   1       2.812   2.583  -9.870  0.00  0.00     0.066 H 
ENDBRANCH  47  48
ENDBRANCH   8  47
BRANCH  14  52
ATOM     52  C   LIG d   1       4.339  -1.755  -3.472  0.00  0.00    -0.025 C 
ATOM     53  H   LIG d   1       4.591  -1.941  -2.427  0.00  0.00     0.027 H 
ATOM     54  H   LIG d   1       3.518  -1.042  -3.527  0.00  0.00     0.027 H 
ATOM     55  H   LIG d   1       4.040  -2.691  -3.944  0.00  0.00     0.027 H 
ENDBRANCH  14  52
BRANCH  14  56
ATOM     56  C   LIG d   1       6.510  -0.545  -3.182  0.00  0.00    -0.025 C 
ATOM     57  H   LIG d   1       7.504  -0.459  -3.619  0.00  0.00     0.027 H 
ATOM     58  H   LIG d   1       6.143   0.447  -2.916  0.00  0.00     0.027 H 
ATOM     59  H   LIG d   1       6.558  -1.166  -2.287  0.00  0.00     0.027 H 
ENDBRANCH  14  56
TORSDOF 8
ENDMDL
MODEL 9
REMARK VINA RESULT:      -5.9      4.703      7.965
REMARK  8 active torsions:
REMARK  status: ('A' for Active; 'I' for Inactive)
REMARK    1  A    between atoms: C_1  and  C_2 
REMARK    2  A    between atoms: C_3  and  C_21 
REMARK    3  A    between atoms: C_9  and  O_19 
REMARK    4  A    between atoms: C_15  and  C_17 
REMARK    5  A    between atoms: C_15  and  C_18 
REMARK    6  A    between atoms: O_19  and  C_20 
REMARK    7  A    between atoms: C_21  and  C_22 
REMARK    8  A    between atoms: C_22  and  C_23 
REMARK       I    between atoms: C_23  and  N_25 
ROOT
ATOM      1  C   LIG d   1       7.232  -4.119  -5.818  0.00  0.00    -0.026 A 
ATOM      2  C   LIG d   1       8.214  -4.443  -4.936  0.00  0.00     0.041 A 
ATOM      3  C   LIG d   1       8.393  -3.673  -3.770  0.00  0.00     0.341 A 
ATOM      4  O   LIG d   1       9.272  -3.974  -2.983  0.00  0.00    -0.245 OA
ATOM      5  O   LIG d   1       7.612  -2.609  -3.516  0.00  0.00    -0.421 OA
ATOM      6  C   LIG d   1       6.625  -2.254  -4.368  0.00  0.00     0.149 A 
ATOM      7  C   LIG d   1       6.408  -2.999  -5.541  0.00  0.00     0.063 A 
ATOM      8  C   LIG d   1       5.379  -2.626  -6.422  0.00  0.00     0.135 A 
ATOM      9  C   LIG d   1       4.595  -1.531  -6.127  0.00  0.00     0.023 A 
ATOM     10  C   LIG d   1       4.814  -0.792  -4.962  0.00  0.00     0.131 A 
ATOM     11  C   LIG d   1       5.823  -1.155  -4.087  0.00  0.00     0.038 A 
ATOM     12  C   LIG d   1       6.079  -0.381  -2.818  0.00  0.00    -0.017 C 
ATOM     13  C   LIG d   1       5.418   0.996  -2.910  0.00  0.00    -0.009 C 
ATOM     14  C   LIG d   1       3.975   0.804  -3.397  0.00  0.00     0.105 C 
ATOM     15  O   LIG d   1       4.015   0.279  -4.724  0.00  0.00    -0.486 OA
ATOM     16  H   LIG d   1       3.804  -1.241  -6.803  0.00  0.00     0.069 H 
ATOM     17  H   LIG d   1       7.153  -0.259  -2.679  0.00  0.00     0.032 H 
ATOM     18  H   LIG d   1       5.663  -0.928  -1.971  0.00  0.00     0.032 H 
ATOM     19  H   LIG d   1       5.964   1.620  -3.618  0.00  0.00     0.031 H 
ATOM     20  H   LIG d   1       5.414   1.469  -1.928  0.00  0.00     0.031 H 
ENDROOT
BRANCH   2  21
ATOM     21  C   LIG d   1       9.106  -5.629  -5.203  0.00  0.00    -0.012 C 
ATOM     22  H   LIG d   1      10.109  -5.420  -4.833  0.00  0.00     0.032 H 
ATOM     23  H   LIG d   1       9.146  -5.819  -6.275  0.00  0.00     0.032 H 
BRANCH  21  24
ATOM     24  C   LIG d   1       8.545  -6.859  -4.487  0.00  0.00     0.028 C 
ATOM     25  H   LIG d   1       8.094  -7.531  -5.217  0.00  0.00     0.036 H 
ATOM     26  H   LIG d   1       7.790  -6.547  -3.766  0.00  0.00     0.036 H 
BRANCH  24  27
ATOM     27  C   LIG d   1       9.661  -7.574  -3.769  0.00  0.00     0.216 C 
ATOM     28  O   LIG d   1      10.800  -7.170  -3.863  0.00  0.00    -0.276 OA
ATOM     29  N   LIG d   1       9.393  -8.664  -3.023  0.00  0.00    -0.291 N 
ATOM     30  C   LIG d   1       8.022  -9.179  -2.887  0.00  0.00     0.091 C 
ATOM     31  C   LIG d   1      10.459  -9.386  -2.308  0.00  0.00     0.031 C 
ATOM     32  C   LIG d   1       7.781  -9.554  -1.450  0.00  0.00     0.231 C 
ATOM     33  H   LIG d   1       7.900 -10.060  -3.519  0.00  0.00     0.056 H 
ATOM     34  H   LIG d   1       7.309  -8.411  -3.189  0.00  0.00     0.056 H 
ATOM     35  N   LIG d   1       8.761  -9.652  -0.551  0.00  0.00    -0.312 N 
ATOM     36  O   LIG d   1       6.645  -9.779  -1.092  0.00  0.00    -0.274 OA
ATOM     37  C   LIG d   1      10.158  -9.325  -0.810  0.00  0.00     0.027 C 
ATOM     38  H   LIG d   1       8.529  -9.960   0.339  0.00  0.00     0.149 HD
ATOM     39  H   LIG d   1      10.795 -10.037  -0.287  0.00  0.00     0.048 H 
ATOM     40  H   LIG d   1      10.365  -8.320  -0.442  0.00  0.00     0.048 H 
ATOM     41  H   LIG d   1      11.420  -8.914  -2.510  0.00  0.00     0.048 H 
ATOM     42  H   LIG d   1      10.484 -10.425  -2.637  0.00  0.00     0.048 H 
ENDBRANCH  24  27
ENDBRANCH  21  24
ENDBRANCH   2  21
BRANCH   1  43
ATOM     43  C   LIG d   1       7.023  -4.934  -7.068  0.00  0.00    -0.038 C 
ATOM     44  H   LIG d   1       6.256  -5.688  -6.887  0.00  0.00     0.028 H 
ATOM     45  H   LIG d   1       6.705  -4.281  -7.879  0.00  0.00     0.028 H 
ATOM     46  H   LIG d   1       7.957  -5.426  -7.342  0.00  0.00     0.028 H 
ENDBRANCH   1  43
BRANCH   8  47
ATOM     47  O   LIG d   1       5.158  -3.338  -7.556  0.00  0.00    -0.494 OA
BRANCH  47  48
ATOM     48  C   LIG d   1       3.893  -3.163  -8.196  0.00  0.00     0.079 C 
ATOM     49  H   LIG d   1       3.126  -2.986  -7.443  0.00  0.00     0.066 H 
ATOM     50  H   LIG d   1       3.943  -2.310  -8.872  0.00  0.00     0.066 H 
ATOM     51  H   LIG d   1       3.646  -4.061  -8.763  0.00  0.00     0.066 H 
ENDBRANCH  47  48
ENDBRANCH   8  47
BRANCH  14  52
ATOM     52  C   LIG d   1       3.247  -0.178  -2.476  0.00  0.00    -0.025 C 
ATOM     53  H   LIG d   1       3.486  -1.199  -2.773  0.00  0.00     0.027 H 
ATOM     54  H   LIG d   1       3.565  -0.014  -1.447  0.00  0.00     0.027 H 
ATOM     55  H   LIG d   1       2.171  -0.019  -2.554  0.00  0.00     0.027 H 
ENDBRANCH  14  52
BRANCH  14  56
ATOM     56  C   LIG d   1       3.247   2.150  -3.396  0.00  0.00    -0.025 C 
ATOM     57  H   LIG d   1       2.594   2.209  -2.526  0.00  0.00     0.027 H 
ATOM     58  H   LIG d   1       3.978   2.957  -3.358  0.00  0.00     0.027 H 
ATOM     59  H   LIG d   1       2.652   2.241  -4.305  0.00  0.00     0.027 H 
ENDBRANCH  14  56
TORSDOF 8
ENDMDL
MODEL 10
REMARK VINA RESULT:      -5.9      3.258      6.733
REMARK  8 active torsions:
REMARK  status: ('A' for Active; 'I' for Inactive)
REMARK    1  A    between atoms: C_1  and  C_2 
REMARK    2  A    between atoms: C_3  and  C_21 
REMARK    3  A    between atoms: C_9  and  O_19 
REMARK    4  A    between atoms: C_15  and  C_17 
REMARK    5  A    between atoms: C_15  and  C_18 
REMARK    6  A    between atoms: O_19  and  C_20 
REMARK    7  A    between atoms: C_21  and  C_22 
REMARK    8  A    between atoms: C_22  and  C_23 
REMARK       I    between atoms: C_23  and  N_25 
ROOT
ATOM      1  C   LIG d   1       4.701  -4.217  -7.674  0.00  0.00    -0.026 A 
ATOM      2  C   LIG d   1       4.619  -5.480  -7.177  0.00  0.00     0.041 A 
ATOM      3  C   LIG d   1       4.481  -5.681  -5.790  0.00  0.00     0.341 A 
ATOM      4  O   LIG d   1       4.403  -6.817  -5.355  0.00  0.00    -0.245 OA
ATOM      5  O   LIG d   1       4.440  -4.642  -4.939  0.00  0.00    -0.421 OA
ATOM      6  C   LIG d   1       4.519  -3.371  -5.393  0.00  0.00     0.149 A 
ATOM      7  C   LIG d   1       4.651  -3.125  -6.771  0.00  0.00     0.063 A 
ATOM      8  C   LIG d   1       4.731  -1.801  -7.238  0.00  0.00     0.135 A 
ATOM      9  C   LIG d   1       4.682  -0.760  -6.336  0.00  0.00     0.023 A 
ATOM     10  C   LIG d   1       4.551  -1.007  -4.968  0.00  0.00     0.131 A 
ATOM     11  C   LIG d   1       4.469  -2.308  -4.501  0.00  0.00     0.038 A 
ATOM     12  C   LIG d   1       4.322  -2.606  -3.030  0.00  0.00    -0.017 C 
ATOM     13  C   LIG d   1       4.723  -1.379  -2.210  0.00  0.00    -0.009 C 
ATOM     14  C   LIG d   1       4.015  -0.153  -2.804  0.00  0.00     0.105 C 
ATOM     15  O   LIG d   1       4.513   0.057  -4.126  0.00  0.00    -0.486 OA
ATOM     16  H   LIG d   1       4.744   0.259  -6.691  0.00  0.00     0.069 H 
ATOM     17  H   LIG d   1       4.965  -3.446  -2.765  0.00  0.00     0.032 H 
ATOM     18  H   LIG d   1       3.284  -2.863  -2.816  0.00  0.00     0.032 H 
ATOM     19  H   LIG d   1       5.803  -1.239  -2.260  0.00  0.00     0.031 H 
ATOM     20  H   LIG d   1       4.417  -1.513  -1.173  0.00  0.00     0.031 H 
ENDROOT
BRANCH   2  21
ATOM     21  C   LIG d   1       4.668  -6.662  -8.112  0.00  0.00    -0.012 C 
ATOM     22  H   LIG d   1       4.571  -6.317  -9.141  0.00  0.00     0.032 H 
ATOM     23  H   LIG d   1       3.851  -7.343  -7.878  0.00  0.00     0.032 H 
BRANCH  21  24
ATOM     24  C   LIG d   1       6.003  -7.390  -7.942  0.00  0.00     0.028 C 
ATOM     25  H   LIG d   1       5.937  -8.381  -8.393  0.00  0.00     0.036 H 
ATOM     26  H   LIG d   1       6.231  -7.488  -6.881  0.00  0.00     0.036 H 
BRANCH  24  27
ATOM     27  C   LIG d   1       7.094  -6.602  -8.621  0.00  0.00     0.216 C 
ATOM     28  O   LIG d   1       7.168  -6.585  -9.831  0.00  0.00    -0.276 OA
ATOM     29  N   LIG d   1       7.988  -5.915  -7.882  0.00  0.00    -0.291 N 
ATOM     30  C   LIG d   1       7.926  -5.913  -6.413  0.00  0.00     0.091 C 
ATOM     31  C   LIG d   1       9.065  -5.134  -8.513  0.00  0.00     0.031 C 
ATOM     32  C   LIG d   1       8.169  -4.514  -5.916  0.00  0.00     0.231 C 
ATOM     33  H   LIG d   1       8.692  -6.579  -6.015  0.00  0.00     0.056 H 
ATOM     34  H   LIG d   1       6.942  -6.251  -6.086  0.00  0.00     0.056 H 
ATOM     35  N   LIG d   1       8.637  -3.537  -6.694  0.00  0.00    -0.312 N 
ATOM     36  O   LIG d   1       7.929  -4.262  -4.754  0.00  0.00    -0.274 OA
ATOM     37  C   LIG d   1       8.884  -3.666  -8.125  0.00  0.00     0.027 C 
ATOM     38  H   LIG d   1       8.825  -2.680  -6.280  0.00  0.00     0.149 HD
ATOM     39  H   LIG d   1       9.785  -3.112  -8.383  0.00  0.00     0.048 H 
ATOM     40  H   LIG d   1       8.038  -3.251  -8.673  0.00  0.00     0.048 H 
ATOM     41  H   LIG d   1       9.008  -5.238  -9.597  0.00  0.00     0.048 H 
ATOM     42  H   LIG d   1      10.033  -5.491  -8.161  0.00  0.00     0.048 H 
ENDBRANCH  24  27
ENDBRANCH  21  24
ENDBRANCH   2  21
BRANCH   1  43
ATOM     43  C   LIG d   1       4.844  -3.982  -9.155  0.00  0.00    -0.038 C 
ATOM     44  H   LIG d   1       4.254  -4.720  -9.699  0.00  0.00     0.028 H 
ATOM     45  H   LIG d   1       4.490  -2.982  -9.400  0.00  0.00     0.028 H 
ATOM     46  H   LIG d   1       5.893  -4.076  -9.439  0.00  0.00     0.028 H 
ENDBRANCH   1  43
BRANCH   8  47
ATOM     47  O   LIG d   1       4.856  -1.551  -8.565  0.00  0.00    -0.494 OA
BRANCH  47  48
ATOM     48  C   LIG d   1       4.334  -0.310  -9.044  0.00  0.00     0.079 C 
ATOM     49  H   LIG d   1       3.247  -0.316  -8.957  0.00  0.00     0.066 H 
ATOM     50  H   LIG d   1       4.741   0.509  -8.451  0.00  0.00     0.066 H 
ATOM     51  H   LIG d   1       4.615  -0.177 -10.089  0.00  0.00     0.066 H 
ENDBRANCH  47  48
ENDBRANCH   8  47
BRANCH  14  52
ATOM     52  C   LIG d   1       2.506  -0.404  -2.855  0.00  0.00    -0.025 C 
ATOM     53  H   LIG d   1       1.977   0.517  -2.607  0.00  0.00     0.027 H 
ATOM     54  H   LIG d   1       2.226  -0.727  -3.856  0.00  0.00     0.027 H 
ATOM     55  H   LIG d   1       2.242  -1.179  -2.135  0.00  0.00     0.027 H 
ENDBRANCH  14  52
BRANCH  14  56
ATOM     56  C   LIG d   1       4.306   1.078  -1.943  0.00  0.00    -0.025 C 
ATOM     57  H   LIG d   1       3.487   1.790  -2.040  0.00  0.00     0.027 H 
ATOM     58  H   LIG d   1       4.403   0.776  -0.900  0.00  0.00     0.027 H 
ATOM     59  H   LIG d   1       5.234   1.542  -2.274  0.00  0.00     0.027 H 
ENDBRANCH  14  56
TORSDOF 8
ENDMDL
