MODEL 1
REMARK VINA RESULT:      -4.1      0.000      0.000
REMARK  10 active torsions:
REMARK  status: ('A' for Active; 'I' for Inactive)
REMARK    1  A    between atoms: C_1  and  C_2 
REMARK    2  A    between atoms: C_2  and  O_4 
REMARK    3  A    between atoms: O_4  and  C_5 
REMARK    4  A    between atoms: C_5  and  C_7 
REMARK    5  A    between atoms: C_5  and  C_11 
REMARK    6  A    between atoms: C_7  and  C_8 
REMARK    7  A    between atoms: C_11  and  N_12 
REMARK    8  A    between atoms: N_12  and  C_13 
REMARK    9  A    between atoms: N_12  and  C_14 
REMARK   10  A    between atoms: N_12  and  C_15 
ROOT
ATOM      1  C   LIG d   1       5.631  -0.390  -5.981  0.00  0.00     0.007 C 
ATOM      2  H   LIG d   1       6.155   0.554  -6.129  0.00  0.00     0.085 H 
ATOM      3  H   LIG d   1       6.326  -1.218  -6.122  0.00  0.00     0.085 H 
ENDROOT
BRANCH   1   4
ATOM      4  C   LIG d   1       5.060  -0.439  -4.562  0.00  0.00     0.147 C 
ATOM      5  H   LIG d   1       3.973  -0.503  -4.609  0.00  0.00     0.079 H 
BRANCH   4   6
ATOM      6  O   LIG d   1       5.438   0.743  -3.855  0.00  0.00    -0.456 OA
BRANCH   6   7
ATOM      7  C   LIG d   1       4.532   1.265  -3.012  0.00  0.00     0.304 C 
ATOM      8  O   LIG d   1       3.701   2.039  -3.424  0.00  0.00    -0.251 OA
BRANCH   7   9
ATOM      9  C   LIG d   1       4.553   0.886  -1.554  0.00  0.00     0.033 C 
ATOM     10  H   LIG d   1       3.831   1.495  -1.010  0.00  0.00     0.034 H 
ATOM     11  H   LIG d   1       4.294  -0.167  -1.449  0.00  0.00     0.034 H 
ATOM     12  H   LIG d   1       5.550   1.057  -1.148  0.00  0.00     0.034 H 
ENDBRANCH   7   9
ENDBRANCH   6   7
ENDBRANCH   4   6
BRANCH   4  13
ATOM     13  C   LIG d   1       5.610  -1.667  -3.833  0.00  0.00     0.029 C 
ATOM     14  H   LIG d   1       6.374  -2.143  -4.448  0.00  0.00     0.036 H 
ATOM     15  H   LIG d   1       6.049  -1.359  -2.883  0.00  0.00     0.036 H 
BRANCH  13  16
ATOM     16  C   LIG d   1       4.492  -2.644  -3.577  0.00  0.00     0.045 C 
ATOM     17  O   LIG d   1       3.705  -2.444  -2.668  0.00  0.00    -0.550 OA
ATOM     18  O   LIG d   1       4.374  -3.633  -4.279  0.00  0.00    -0.550 OA
ENDBRANCH  13  16
ENDBRANCH   4  13
ENDBRANCH   1   4
BRANCH   1  19
ATOM     19  N   LIG d   1       4.536  -0.501  -6.954  0.00  0.00     0.239 N 
BRANCH  19  20
ATOM     20  C   LIG d   1       4.394  -1.902  -7.373  0.00  0.00    -0.042 C 
ATOM     21  H   LIG d   1       4.510  -1.970  -8.455  0.00  0.00     0.078 H 
ATOM     22  H   LIG d   1       5.161  -2.506  -6.887  0.00  0.00     0.078 H 
ATOM     23  H   LIG d   1       3.408  -2.269  -7.089  0.00  0.00     0.078 H 
ENDBRANCH  19  20
BRANCH  19  24
ATOM     24  C   LIG d   1       3.284  -0.046  -6.335  0.00  0.00    -0.042 C 
ATOM     25  H   LIG d   1       2.438  -0.411  -6.916  0.00  0.00     0.078 H 
ATOM     26  H   LIG d   1       3.220  -0.432  -5.318  0.00  0.00     0.078 H 
ATOM     27  H   LIG d   1       3.266   1.044  -6.311  0.00  0.00     0.078 H 
ENDBRANCH  19  24
BRANCH  19  28
ATOM     28  C   LIG d   1       4.835   0.333  -8.125  0.00  0.00    -0.042 C 
ATOM     29  H   LIG d   1       5.205  -0.296  -8.935  0.00  0.00     0.078 H 
ATOM     30  H   LIG d   1       3.927   0.844  -8.448  0.00  0.00     0.078 H 
ATOM     31  H   LIG d   1       5.593   1.071  -7.862  0.00  0.00     0.078 H 
ENDBRANCH  19  28
ENDBRANCH   1  19
TORSDOF 10
ENDMDL
MODEL 2
REMARK VINA RESULT:      -3.8      2.103      3.526
REMARK  10 active torsions:
REMARK  status: ('A' for Active; 'I' for Inactive)
REMARK    1  A    between atoms: C_1  and  C_2 
REMARK    2  A    between atoms: C_2  and  O_4 
REMARK    3  A    between atoms: O_4  and  C_5 
REMARK    4  A    between atoms: C_5  and  C_7 
REMARK    5  A    between atoms: C_5  and  C_11 
REMARK    6  A    between atoms: C_7  and  C_8 
REMARK    7  A    between atoms: C_11  and  N_12 
REMARK    8  A    between atoms: N_12  and  C_13 
REMARK    9  A    between atoms: N_12  and  C_14 
REMARK   10  A    between atoms: N_12  and  C_15 
ROOT
ATOM      1  C   LIG d   1       4.082  -1.171  -4.187  0.00  0.00     0.007 C 
ATOM      2  H   LIG d   1       4.233  -1.092  -3.111  0.00  0.00     0.085 H 
ATOM      3  H   LIG d   1       3.196  -1.775  -4.387  0.00  0.00     0.085 H 
ENDROOT
BRANCH   1   4
ATOM      4  C   LIG d   1       3.891   0.227  -4.780  0.00  0.00     0.147 C 
ATOM      5  H   LIG d   1       4.737   0.468  -5.423  0.00  0.00     0.079 H 
BRANCH   4   6
ATOM      6  O   LIG d   1       3.808   1.185  -3.723  0.00  0.00    -0.456 OA
BRANCH   6   7
ATOM      7  C   LIG d   1       4.833   1.225  -2.855  0.00  0.00     0.304 C 
ATOM      8  O   LIG d   1       5.909   1.642  -3.212  0.00  0.00    -0.251 OA
BRANCH   7   9
ATOM      9  C   LIG d   1       4.640   0.750  -1.438  0.00  0.00     0.033 C 
ATOM     10  H   LIG d   1       3.856   1.338  -0.962  0.00  0.00     0.034 H 
ATOM     11  H   LIG d   1       4.354  -0.301  -1.444  0.00  0.00     0.034 H 
ATOM     12  H   LIG d   1       5.571   0.870  -0.885  0.00  0.00     0.034 H 
ENDBRANCH   7   9
ENDBRANCH   6   7
ENDBRANCH   4   6
BRANCH   4  13
ATOM     13  C   LIG d   1       2.601   0.261  -5.601  0.00  0.00     0.029 C 
ATOM     14  H   LIG d   1       2.034  -0.654  -5.426  0.00  0.00     0.036 H 
ATOM     15  H   LIG d   1       2.002   1.121  -5.301  0.00  0.00     0.036 H 
BRANCH  13  16
ATOM     16  C   LIG d   1       2.939   0.370  -7.066  0.00  0.00     0.045 C 
ATOM     17  O   LIG d   1       2.998  -0.635  -7.753  0.00  0.00    -0.550 OA
ATOM     18  O   LIG d   1       3.155   1.461  -7.562  0.00  0.00    -0.550 OA
ENDBRANCH  13  16
ENDBRANCH   4  13
ENDBRANCH   1   4
BRANCH   1  19
ATOM     19  N   LIG d   1       5.255  -1.807  -4.801  0.00  0.00     0.239 N 
BRANCH  19  20
ATOM     20  C   LIG d   1       5.945  -0.835  -5.660  0.00  0.00    -0.042 C 
ATOM     21  H   LIG d   1       6.673  -1.353  -6.284  0.00  0.00     0.078 H 
ATOM     22  H   LIG d   1       5.217  -0.329  -6.294  0.00  0.00     0.078 H 
ATOM     23  H   LIG d   1       6.458  -0.100  -5.039  0.00  0.00     0.078 H 
ENDBRANCH  19  20
BRANCH  19  24
ATOM     24  C   LIG d   1       6.170  -2.267  -3.748  0.00  0.00    -0.042 C 
ATOM     25  H   LIG d   1       6.432  -3.309  -3.924  0.00  0.00     0.078 H 
ATOM     26  H   LIG d   1       7.074  -1.658  -3.761  0.00  0.00     0.078 H 
ATOM     27  H   LIG d   1       5.683  -2.173  -2.778  0.00  0.00     0.078 H 
ENDBRANCH  19  24
BRANCH  19  28
ATOM     28  C   LIG d   1       4.823  -2.954  -5.610  0.00  0.00    -0.042 C 
ATOM     29  H   LIG d   1       4.395  -2.598  -6.547  0.00  0.00     0.078 H 
ATOM     30  H   LIG d   1       5.682  -3.593  -5.823  0.00  0.00     0.078 H 
ATOM     31  H   LIG d   1       4.073  -3.524  -5.062  0.00  0.00     0.078 H 
ENDBRANCH  19  28
ENDBRANCH   1  19
TORSDOF 10
ENDMDL
MODEL 3
REMARK VINA RESULT:      -3.8      1.111      3.392
REMARK  10 active torsions:
REMARK  status: ('A' for Active; 'I' for Inactive)
REMARK    1  A    between atoms: C_1  and  C_2 
REMARK    2  A    between atoms: C_2  and  O_4 
REMARK    3  A    between atoms: O_4  and  C_5 
REMARK    4  A    between atoms: C_5  and  C_7 
REMARK    5  A    between atoms: C_5  and  C_11 
REMARK    6  A    between atoms: C_7  and  C_8 
REMARK    7  A    between atoms: C_11  and  N_12 
REMARK    8  A    between atoms: N_12  and  C_13 
REMARK    9  A    between atoms: N_12  and  C_14 
REMARK   10  A    between atoms: N_12  and  C_15 
ROOT
ATOM      1  C   LIG d   1       3.458  -0.096  -6.038  0.00  0.00     0.007 C 
ATOM      2  H   LIG d   1       2.601  -0.736  -6.247  0.00  0.00     0.085 H 
ATOM      3  H   LIG d   1       3.214   0.934  -6.300  0.00  0.00     0.085 H 
ENDROOT
BRANCH   1   4
ATOM      4  C   LIG d   1       3.803  -0.175  -4.550  0.00  0.00     0.147 C 
ATOM      5  H   LIG d   1       4.883  -0.264  -4.431  0.00  0.00     0.079 H 
BRANCH   4   6
ATOM      6  O   LIG d   1       3.165  -1.315  -3.973  0.00  0.00    -0.456 OA
BRANCH   6   7
ATOM      7  C   LIG d   1       3.951  -2.192  -3.326  0.00  0.00     0.304 C 
ATOM      8  O   LIG d   1       4.344  -3.183  -3.894  0.00  0.00    -0.251 OA
BRANCH   7   9
ATOM      9  C   LIG d   1       4.341  -1.939  -1.892  0.00  0.00     0.033 C 
ATOM     10  H   LIG d   1       4.052  -2.793  -1.281  0.00  0.00     0.034 H 
ATOM     11  H   LIG d   1       5.419  -1.795  -1.830  0.00  0.00     0.034 H 
ATOM     12  H   LIG d   1       3.834  -1.045  -1.530  0.00  0.00     0.034 H 
ENDBRANCH   7   9
ENDBRANCH   6   7
ENDBRANCH   4   6
BRANCH   4  13
ATOM     13  C   LIG d   1       3.317   1.093  -3.845  0.00  0.00     0.029 C 
ATOM     14  H   LIG d   1       3.268   1.912  -4.562  0.00  0.00     0.036 H 
ATOM     15  H   LIG d   1       2.326   0.918  -3.426  0.00  0.00     0.036 H 
BRANCH  13  16
ATOM     16  C   LIG d   1       4.275   1.452  -2.738  0.00  0.00     0.045 C 
ATOM     17  O   LIG d   1       3.891   1.461  -1.581  0.00  0.00    -0.550 OA
ATOM     18  O   LIG d   1       5.431   1.734  -2.999  0.00  0.00    -0.550 OA
ENDBRANCH  13  16
ENDBRANCH   4  13
ENDBRANCH   1   4
BRANCH   1  19
ATOM     19  N   LIG d   1       4.610  -0.543  -6.833  0.00  0.00     0.239 N 
BRANCH  19  20
ATOM     20  C   LIG d   1       4.722   0.287  -8.040  0.00  0.00    -0.042 C 
ATOM     21  H   LIG d   1       5.737   0.221  -8.434  0.00  0.00     0.078 H 
ATOM     22  H   LIG d   1       4.017  -0.069  -8.793  0.00  0.00     0.078 H 
ATOM     23  H   LIG d   1       4.495   1.324  -7.792  0.00  0.00     0.078 H 
ENDBRANCH  19  20
BRANCH  19  24
ATOM     24  C   LIG d   1       5.835  -0.413  -6.034  0.00  0.00    -0.042 C 
ATOM     25  H   LIG d   1       5.587  -0.482  -4.975  0.00  0.00     0.078 H 
ATOM     26  H   LIG d   1       6.526  -1.213  -6.298  0.00  0.00     0.078 H 
ATOM     27  H   LIG d   1       6.301   0.551  -6.237  0.00  0.00     0.078 H 
ENDBRANCH  19  24
BRANCH  19  28
ATOM     28  C   LIG d   1       4.422  -1.947  -7.220  0.00  0.00    -0.042 C 
ATOM     29  H   LIG d   1       3.636  -2.016  -7.972  0.00  0.00     0.078 H 
ATOM     30  H   LIG d   1       5.354  -2.338  -7.631  0.00  0.00     0.078 H 
ATOM     31  H   LIG d   1       4.139  -2.531  -6.343  0.00  0.00     0.078 H 
ENDBRANCH  19  28
ENDBRANCH   1  19
TORSDOF 10
ENDMDL
MODEL 4
REMARK VINA RESULT:      -3.7      2.074      3.399
REMARK  10 active torsions:
REMARK  status: ('A' for Active; 'I' for Inactive)
REMARK    1  A    between atoms: C_1  and  C_2 
REMARK    2  A    between atoms: C_2  and  O_4 
REMARK    3  A    between atoms: O_4  and  C_5 
REMARK    4  A    between atoms: C_5  and  C_7 
REMARK    5  A    between atoms: C_5  and  C_11 
REMARK    6  A    between atoms: C_7  and  C_8 
REMARK    7  A    between atoms: C_11  and  N_12 
REMARK    8  A    between atoms: N_12  and  C_13 
REMARK    9  A    between atoms: N_12  and  C_14 
REMARK   10  A    between atoms: N_12  and  C_15 
ROOT
ATOM      1  C   LIG d   1       4.447  -2.374  -3.939  0.00  0.00     0.007 C 
ATOM      2  H   LIG d   1       4.533  -2.842  -2.959  0.00  0.00     0.085 H 
ATOM      3  H   LIG d   1       3.604  -2.808  -4.476  0.00  0.00     0.085 H 
ENDROOT
BRANCH   1   4
ATOM      4  C   LIG d   1       4.224  -0.870  -3.769  0.00  0.00     0.147 C 
ATOM      5  H   LIG d   1       4.900  -0.325  -4.428  0.00  0.00     0.079 H 
BRANCH   4   6
ATOM      6  O   LIG d   1       4.480  -0.501  -2.413  0.00  0.00    -0.456 OA
BRANCH   6   7
ATOM      7  C   LIG d   1       5.079   0.684  -2.207  0.00  0.00     0.304 C 
ATOM      8  O   LIG d   1       4.781   1.350  -1.244  0.00  0.00    -0.251 OA
BRANCH   7   9
ATOM      9  C   LIG d   1       6.120   1.182  -3.176  0.00  0.00     0.033 C 
ATOM     10  H   LIG d   1       5.730   1.120  -4.191  0.00  0.00     0.034 H 
ATOM     11  H   LIG d   1       6.366   2.217  -2.943  0.00  0.00     0.034 H 
ATOM     12  H   LIG d   1       7.017   0.568  -3.093  0.00  0.00     0.034 H 
ENDBRANCH   7   9
ENDBRANCH   6   7
ENDBRANCH   4   6
BRANCH   4  13
ATOM     13  C   LIG d   1       2.777  -0.525  -4.127  0.00  0.00     0.029 C 
ATOM     14  H   LIG d   1       2.304  -1.386  -4.600  0.00  0.00     0.036 H 
ATOM     15  H   LIG d   1       2.231  -0.264  -3.219  0.00  0.00     0.036 H 
BRANCH  13  16
ATOM     16  C   LIG d   1       2.758   0.643  -5.078  0.00  0.00     0.045 C 
ATOM     17  O   LIG d   1       2.581   1.772  -4.653  0.00  0.00    -0.550 OA
ATOM     18  O   LIG d   1       2.919   0.460  -6.272  0.00  0.00    -0.550 OA
ENDBRANCH  13  16
ENDBRANCH   4  13
ENDBRANCH   1   4
BRANCH   1  19
ATOM     19  N   LIG d   1       5.682  -2.603  -4.701  0.00  0.00     0.239 N 
BRANCH  19  20
ATOM     20  C   LIG d   1       6.839  -2.485  -3.803  0.00  0.00    -0.042 C 
ATOM     21  H   LIG d   1       7.497  -1.692  -4.160  0.00  0.00     0.078 H 
ATOM     22  H   LIG d   1       6.495  -2.246  -2.796  0.00  0.00     0.078 H 
ATOM     23  H   LIG d   1       7.384  -3.429  -3.786  0.00  0.00     0.078 H 
ENDBRANCH  19  20
BRANCH  19  24
ATOM     24  C   LIG d   1       5.653  -3.949  -5.289  0.00  0.00    -0.042 C 
ATOM     25  H   LIG d   1       6.333  -3.989  -6.138  0.00  0.00     0.078 H 
ATOM     26  H   LIG d   1       5.962  -4.678  -4.541  0.00  0.00     0.078 H 
ATOM     27  H   LIG d   1       4.640  -4.177  -5.622  0.00  0.00     0.078 H 
ENDBRANCH  19  24
BRANCH  19  28
ATOM     28  C   LIG d   1       5.789  -1.603  -5.771  0.00  0.00    -0.042 C 
ATOM     29  H   LIG d   1       6.835  -1.487  -6.058  0.00  0.00     0.078 H 
ATOM     30  H   LIG d   1       5.211  -1.932  -6.635  0.00  0.00     0.078 H 
ATOM     31  H   LIG d   1       5.401  -0.648  -5.417  0.00  0.00     0.078 H 
ENDBRANCH  19  28
ENDBRANCH   1  19
TORSDOF 10
ENDMDL
MODEL 5
REMARK VINA RESULT:      -3.6      2.141      3.286
REMARK  10 active torsions:
REMARK  status: ('A' for Active; 'I' for Inactive)
REMARK    1  A    between atoms: C_1  and  C_2 
REMARK    2  A    between atoms: C_2  and  O_4 
REMARK    3  A    between atoms: O_4  and  C_5 
REMARK    4  A    between atoms: C_5  and  C_7 
REMARK    5  A    between atoms: C_5  and  C_11 
REMARK    6  A    between atoms: C_7  and  C_8 
REMARK    7  A    between atoms: C_11  and  N_12 
REMARK    8  A    between atoms: N_12  and  C_13 
REMARK    9  A    between atoms: N_12  and  C_14 
REMARK   10  A    between atoms: N_12  and  C_15 
ROOT
ATOM      1  C   LIG d   1       5.821  -2.519  -3.839  0.00  0.00     0.007 C 
ATOM      2  H   LIG d   1       6.863  -2.723  -3.592  0.00  0.00     0.085 H 
ATOM      3  H   LIG d   1       5.177  -3.208  -3.293  0.00  0.00     0.085 H 
ENDROOT
BRANCH   1   4
ATOM      4  C   LIG d   1       5.477  -1.080  -3.450  0.00  0.00     0.147 C 
ATOM      5  H   LIG d   1       4.997  -0.581  -4.291  0.00  0.00     0.079 H 
BRANCH   4   6
ATOM      6  O   LIG d   1       6.673  -0.382  -3.101  0.00  0.00    -0.456 OA
BRANCH   6   7
ATOM      7  C   LIG d   1       6.889   0.798  -3.706  0.00  0.00     0.304 C 
ATOM      8  O   LIG d   1       6.406   1.807  -3.250  0.00  0.00    -0.251 OA
BRANCH   7   9
ATOM      9  C   LIG d   1       7.731   0.862  -4.954  0.00  0.00     0.033 C 
ATOM     10  H   LIG d   1       7.540  -0.018  -5.567  0.00  0.00     0.034 H 
ATOM     11  H   LIG d   1       7.478   1.760  -5.516  0.00  0.00     0.034 H 
ATOM     12  H   LIG d   1       8.786   0.891  -4.679  0.00  0.00     0.034 H 
ENDBRANCH   7   9
ENDBRANCH   6   7
ENDBRANCH   4   6
BRANCH   4  13
ATOM     13  C   LIG d   1       4.524  -1.090  -2.253  0.00  0.00     0.029 C 
ATOM     14  H   LIG d   1       4.178  -2.108  -2.071  0.00  0.00     0.036 H 
ATOM     15  H   LIG d   1       5.046  -0.721  -1.370  0.00  0.00     0.036 H 
BRANCH  13  16
ATOM     16  C   LIG d   1       3.340  -0.203  -2.544  0.00  0.00     0.045 C 
ATOM     17  O   LIG d   1       2.401  -0.635  -3.189  0.00  0.00    -0.550 OA
ATOM     18  O   LIG d   1       3.324   0.945  -2.136  0.00  0.00    -0.550 OA
ENDBRANCH  13  16
ENDBRANCH   4  13
ENDBRANCH   1   4
BRANCH   1  19
ATOM     19  N   LIG d   1       5.617  -2.698  -5.283  0.00  0.00     0.239 N 
BRANCH  19  20
ATOM     20  C   LIG d   1       4.793  -1.597  -5.800  0.00  0.00    -0.042 C 
ATOM     21  H   LIG d   1       4.171  -1.962  -6.619  0.00  0.00     0.078 H 
ATOM     22  H   LIG d   1       4.155  -1.215  -5.002  0.00  0.00     0.078 H 
ATOM     23  H   LIG d   1       5.439  -0.798  -6.162  0.00  0.00     0.078 H 
ENDBRANCH  19  20
BRANCH  19  24
ATOM     24  C   LIG d   1       6.917  -2.700  -5.965  0.00  0.00    -0.042 C 
ATOM     25  H   LIG d   1       6.772  -2.918  -7.023  0.00  0.00     0.078 H 
ATOM     26  H   LIG d   1       7.385  -1.722  -5.857  0.00  0.00     0.078 H 
ATOM     27  H   LIG d   1       7.559  -3.461  -5.521  0.00  0.00     0.078 H 
ENDBRANCH  19  24
BRANCH  19  28
ATOM     28  C   LIG d   1       4.934  -3.976  -5.525  0.00  0.00    -0.042 C 
ATOM     29  H   LIG d   1       3.859  -3.807  -5.594  0.00  0.00     0.078 H 
ATOM     30  H   LIG d   1       5.294  -4.408  -6.460  0.00  0.00     0.078 H 
ATOM     31  H   LIG d   1       5.142  -4.662  -4.704  0.00  0.00     0.078 H 
ENDBRANCH  19  28
ENDBRANCH   1  19
TORSDOF 10
ENDMDL
MODEL 6
REMARK VINA RESULT:      -3.6      2.072      3.474
REMARK  10 active torsions:
REMARK  status: ('A' for Active; 'I' for Inactive)
REMARK    1  A    between atoms: C_1  and  C_2 
REMARK    2  A    between atoms: C_2  and  O_4 
REMARK    3  A    between atoms: O_4  and  C_5 
REMARK    4  A    between atoms: C_5  and  C_7 
REMARK    5  A    between atoms: C_5  and  C_11 
REMARK    6  A    between atoms: C_7  and  C_8 
REMARK    7  A    between atoms: C_11  and  N_12 
REMARK    8  A    between atoms: N_12  and  C_13 
REMARK    9  A    between atoms: N_12  and  C_14 
REMARK   10  A    between atoms: N_12  and  C_15 
ROOT
ATOM      1  C   LIG d   1       6.484  -1.431  -4.992  0.00  0.00     0.007 C 
ATOM      2  H   LIG d   1       6.678  -0.989  -5.968  0.00  0.00     0.085 H 
ATOM      3  H   LIG d   1       7.388  -1.379  -4.384  0.00  0.00     0.085 H 
ENDROOT
BRANCH   1   4
ATOM      4  C   LIG d   1       5.357  -0.664  -4.298  0.00  0.00     0.147 C 
ATOM      5  H   LIG d   1       4.593  -1.365  -3.962  0.00  0.00     0.079 H 
BRANCH   4   6
ATOM      6  O   LIG d   1       4.780   0.267  -5.215  0.00  0.00    -0.456 OA
BRANCH   6   7
ATOM      7  C   LIG d   1       3.535   0.007  -5.645  0.00  0.00     0.304 C 
ATOM      8  O   LIG d   1       3.364  -0.480  -6.738  0.00  0.00    -0.251 OA
BRANCH   7   9
ATOM      9  C   LIG d   1       2.352   0.321  -4.767  0.00  0.00     0.033 C 
ATOM     10  H   LIG d   1       1.887  -0.607  -4.437  0.00  0.00     0.034 H 
ATOM     11  H   LIG d   1       2.686   0.889  -3.899  0.00  0.00     0.034 H 
ATOM     12  H   LIG d   1       1.628   0.910  -5.329  0.00  0.00     0.034 H 
ENDBRANCH   7   9
ENDBRANCH   6   7
ENDBRANCH   4   6
BRANCH   4  13
ATOM     13  C   LIG d   1       5.920   0.090  -3.092  0.00  0.00     0.029 C 
ATOM     14  H   LIG d   1       6.785  -0.446  -2.699  0.00  0.00     0.036 H 
ATOM     15  H   LIG d   1       6.223   1.092  -3.399  0.00  0.00     0.036 H 
BRANCH  13  16
ATOM     16  C   LIG d   1       4.863   0.190  -2.022  0.00  0.00     0.045 C 
ATOM     17  O   LIG d   1       4.143  -0.765  -1.787  0.00  0.00    -0.550 OA
ATOM     18  O   LIG d   1       4.728   1.225  -1.393  0.00  0.00    -0.550 OA
ENDBRANCH  13  16
ENDBRANCH   4  13
ENDBRANCH   1   4
BRANCH   1  19
ATOM     19  N   LIG d   1       6.089  -2.836  -5.160  0.00  0.00     0.239 N 
BRANCH  19  20
ATOM     20  C   LIG d   1       4.914  -3.117  -4.324  0.00  0.00    -0.042 C 
ATOM     21  H   LIG d   1       5.097  -2.765  -3.309  0.00  0.00     0.078 H 
ATOM     22  H   LIG d   1       4.044  -2.602  -4.736  0.00  0.00     0.078 H 
ATOM     23  H   LIG d   1       4.726  -4.190  -4.309  0.00  0.00     0.078 H 
ENDBRANCH  19  20
BRANCH  19  24
ATOM     24  C   LIG d   1       5.760  -3.087  -6.569  0.00  0.00    -0.042 C 
ATOM     25  H   LIG d   1       5.017  -2.363  -6.903  0.00  0.00     0.078 H 
ATOM     26  H   LIG d   1       6.660  -2.989  -7.175  0.00  0.00     0.078 H 
ATOM     27  H   LIG d   1       5.359  -4.095  -6.675  0.00  0.00     0.078 H 
ENDBRANCH  19  24
BRANCH  19  28
ATOM     28  C   LIG d   1       7.198  -3.709  -4.753  0.00  0.00    -0.042 C 
ATOM     29  H   LIG d   1       7.894  -3.147  -4.130  0.00  0.00     0.078 H 
ATOM     30  H   LIG d   1       6.806  -4.555  -4.188  0.00  0.00     0.078 H 
ATOM     31  H   LIG d   1       7.718  -4.074  -5.640  0.00  0.00     0.078 H 
ENDBRANCH  19  28
ENDBRANCH   1  19
TORSDOF 10
ENDMDL
MODEL 7
REMARK VINA RESULT:      -3.5      2.119      4.178
REMARK  10 active torsions:
REMARK  status: ('A' for Active; 'I' for Inactive)
REMARK    1  A    between atoms: C_1  and  C_2 
REMARK    2  A    between atoms: C_2  and  O_4 
REMARK    3  A    between atoms: O_4  and  C_5 
REMARK    4  A    between atoms: C_5  and  C_7 
REMARK    5  A    between atoms: C_5  and  C_11 
REMARK    6  A    between atoms: C_7  and  C_8 
REMARK    7  A    between atoms: C_11  and  N_12 
REMARK    8  A    between atoms: N_12  and  C_13 
REMARK    9  A    between atoms: N_12  and  C_14 
REMARK   10  A    between atoms: N_12  and  C_15 
ROOT
ATOM      1  C   LIG d   1       5.380  -0.417  -4.169  0.00  0.00     0.007 C 
ATOM      2  H   LIG d   1       5.962   0.387  -4.620  0.00  0.00     0.085 H 
ATOM      3  H   LIG d   1       5.319  -0.262  -3.092  0.00  0.00     0.085 H 
ENDROOT
BRANCH   1   4
ATOM      4  C   LIG d   1       3.970  -0.421  -4.764  0.00  0.00     0.147 C 
ATOM      5  H   LIG d   1       3.730  -1.421  -5.124  0.00  0.00     0.079 H 
BRANCH   4   6
ATOM      6  O   LIG d   1       3.909   0.504  -5.851  0.00  0.00    -0.456 OA
BRANCH   6   7
ATOM      7  C   LIG d   1       3.514   0.021  -7.040  0.00  0.00     0.304 C 
ATOM      8  O   LIG d   1       3.626  -1.158  -7.280  0.00  0.00    -0.251 OA
BRANCH   7   9
ATOM      9  C   LIG d   1       2.932   0.948  -8.075  0.00  0.00     0.033 C 
ATOM     10  H   LIG d   1       1.902   0.660  -8.284  0.00  0.00     0.034 H 
ATOM     11  H   LIG d   1       2.954   1.971  -7.700  0.00  0.00     0.034 H 
ATOM     12  H   LIG d   1       3.519   0.886  -8.991  0.00  0.00     0.034 H 
ENDBRANCH   7   9
ENDBRANCH   6   7
ENDBRANCH   4   6
BRANCH   4  13
ATOM     13  C   LIG d   1       2.961  -0.011  -3.689  0.00  0.00     0.029 C 
ATOM     14  H   LIG d   1       2.016   0.259  -4.161  0.00  0.00     0.036 H 
ATOM     15  H   LIG d   1       2.800  -0.846  -3.005  0.00  0.00     0.036 H 
BRANCH  13  16
ATOM     16  C   LIG d   1       3.495   1.172  -2.922  0.00  0.00     0.045 C 
ATOM     17  O   LIG d   1       3.567   2.263  -3.460  0.00  0.00    -0.550 OA
ATOM     18  O   LIG d   1       3.854   1.037  -1.765  0.00  0.00    -0.550 OA
ENDBRANCH  13  16
ENDBRANCH   4  13
ENDBRANCH   1   4
BRANCH   1  19
ATOM     19  N   LIG d   1       6.030  -1.705  -4.442  0.00  0.00     0.239 N 
BRANCH  19  20
ATOM     20  C   LIG d   1       6.719  -1.641  -5.738  0.00  0.00    -0.042 C 
ATOM     21  H   LIG d   1       6.078  -1.140  -6.466  0.00  0.00     0.078 H 
ATOM     22  H   LIG d   1       7.649  -1.082  -5.628  0.00  0.00     0.078 H 
ATOM     23  H   LIG d   1       6.941  -2.650  -6.084  0.00  0.00     0.078 H 
ENDBRANCH  19  20
BRANCH  19  24
ATOM     24  C   LIG d   1       7.005  -1.996  -3.383  0.00  0.00    -0.042 C 
ATOM     25  H   LIG d   1       7.799  -2.626  -3.783  0.00  0.00     0.078 H 
ATOM     26  H   LIG d   1       7.432  -1.062  -3.017  0.00  0.00     0.078 H 
ATOM     27  H   LIG d   1       6.507  -2.513  -2.563  0.00  0.00     0.078 H 
ENDBRANCH  19  24
BRANCH  19  28
ATOM     28  C   LIG d   1       5.016  -2.767  -4.479  0.00  0.00    -0.042 C 
ATOM     29  H   LIG d   1       5.219  -3.492  -3.691  0.00  0.00     0.078 H 
ATOM     30  H   LIG d   1       4.028  -2.331  -4.326  0.00  0.00     0.078 H 
ATOM     31  H   LIG d   1       5.047  -3.266  -5.448  0.00  0.00     0.078 H 
ENDBRANCH  19  28
ENDBRANCH   1  19
TORSDOF 10
ENDMDL
MODEL 8
REMARK VINA RESULT:      -3.5      2.391      4.555
REMARK  10 active torsions:
REMARK  status: ('A' for Active; 'I' for Inactive)
REMARK    1  A    between atoms: C_1  and  C_2 
REMARK    2  A    between atoms: C_2  and  O_4 
REMARK    3  A    between atoms: O_4  and  C_5 
REMARK    4  A    between atoms: C_5  and  C_7 
REMARK    5  A    between atoms: C_5  and  C_11 
REMARK    6  A    between atoms: C_7  and  C_8 
REMARK    7  A    between atoms: C_11  and  N_12 
REMARK    8  A    between atoms: N_12  and  C_13 
REMARK    9  A    between atoms: N_12  and  C_14 
REMARK   10  A    between atoms: N_12  and  C_15 
ROOT
ATOM      1  C   LIG d   1       5.020   0.032  -3.901  0.00  0.00     0.007 C 
ATOM      2  H   LIG d   1       5.984  -0.149  -3.427  0.00  0.00     0.085 H 
ATOM      3  H   LIG d   1       5.020   1.021  -4.359  0.00  0.00     0.085 H 
ENDROOT
BRANCH   1   4
ATOM      4  C   LIG d   1       4.773  -1.028  -4.975  0.00  0.00     0.147 C 
ATOM      5  H   LIG d   1       3.741  -1.374  -4.915  0.00  0.00     0.079 H 
BRANCH   4   6
ATOM      6  O   LIG d   1       5.657  -2.131  -4.769  0.00  0.00    -0.456 OA
BRANCH   6   7
ATOM      7  C   LIG d   1       5.113  -3.359  -4.778  0.00  0.00     0.304 C 
ATOM      8  O   LIG d   1       4.236  -3.636  -3.994  0.00  0.00    -0.251 OA
BRANCH   7   9
ATOM      9  C   LIG d   1       5.595  -4.390  -5.766  0.00  0.00     0.033 C 
ATOM     10  H   LIG d   1       4.745  -4.962  -6.138  0.00  0.00     0.034 H 
ATOM     11  H   LIG d   1       6.090  -3.891  -6.598  0.00  0.00     0.034 H 
ATOM     12  H   LIG d   1       6.299  -5.062  -5.275  0.00  0.00     0.034 H 
ENDBRANCH   7   9
ENDBRANCH   6   7
ENDBRANCH   4   6
BRANCH   4  13
ATOM     13  C   LIG d   1       5.027  -0.423  -6.357  0.00  0.00     0.029 C 
ATOM     14  H   LIG d   1       5.596   0.500  -6.251  0.00  0.00     0.036 H 
ATOM     15  H   LIG d   1       5.592  -1.130  -6.965  0.00  0.00     0.036 H 
BRANCH  13  16
ATOM     16  C   LIG d   1       3.710  -0.126  -7.027  0.00  0.00     0.045 C 
ATOM     17  O   LIG d   1       3.148   0.936  -6.819  0.00  0.00    -0.550 OA
ATOM     18  O   LIG d   1       3.206  -0.946  -7.774  0.00  0.00    -0.550 OA
ENDBRANCH  13  16
ENDBRANCH   4  13
ENDBRANCH   1   4
BRANCH   1  19
ATOM     19  N   LIG d   1       3.956  -0.038  -2.890  0.00  0.00     0.239 N 
BRANCH  19  20
ATOM     20  C   LIG d   1       2.731  -0.565  -3.505  0.00  0.00    -0.042 C 
ATOM     21  H   LIG d   1       2.765  -0.399  -4.583  0.00  0.00     0.078 H 
ATOM     22  H   LIG d   1       2.653  -1.634  -3.304  0.00  0.00     0.078 H 
ATOM     23  H   LIG d   1       1.864  -0.053  -3.087  0.00  0.00     0.078 H 
ENDBRANCH  19  20
BRANCH  19  24
ATOM     24  C   LIG d   1       4.377  -0.926  -1.798  0.00  0.00    -0.042 C 
ATOM     25  H   LIG d   1       3.556  -1.047  -1.091  0.00  0.00     0.078 H 
ATOM     26  H   LIG d   1       4.650  -1.899  -2.206  0.00  0.00     0.078 H 
ATOM     27  H   LIG d   1       5.237  -0.492  -1.287  0.00  0.00     0.078 H 
ENDBRANCH  19  24
BRANCH  19  28
ATOM     28  C   LIG d   1       3.698   1.306  -2.357  0.00  0.00    -0.042 C 
ATOM     29  H   LIG d   1       4.126   2.051  -3.027  0.00  0.00     0.078 H 
ATOM     30  H   LIG d   1       2.622   1.464  -2.277  0.00  0.00     0.078 H 
ATOM     31  H   LIG d   1       4.153   1.399  -1.370  0.00  0.00     0.078 H 
ENDBRANCH  19  28
ENDBRANCH   1  19
TORSDOF 10
ENDMDL
MODEL 9
REMARK VINA RESULT:      -3.5      2.035      3.388
REMARK  10 active torsions:
REMARK  status: ('A' for Active; 'I' for Inactive)
REMARK    1  A    between atoms: C_1  and  C_2 
REMARK    2  A    between atoms: C_2  and  O_4 
REMARK    3  A    between atoms: O_4  and  C_5 
REMARK    4  A    between atoms: C_5  and  C_7 
REMARK    5  A    between atoms: C_5  and  C_11 
REMARK    6  A    between atoms: C_7  and  C_8 
REMARK    7  A    between atoms: C_11  and  N_12 
REMARK    8  A    between atoms: N_12  and  C_13 
REMARK    9  A    between atoms: N_12  and  C_14 
REMARK   10  A    between atoms: N_12  and  C_15 
ROOT
ATOM      1  C   LIG d   1       5.346  -0.099  -4.509  0.00  0.00     0.007 C 
ATOM      2  H   LIG d   1       5.457   0.971  -4.684  0.00  0.00     0.085 H 
ATOM      3  H   LIG d   1       5.476  -0.308  -3.447  0.00  0.00     0.085 H 
ENDROOT
BRANCH   1   4
ATOM      4  C   LIG d   1       3.952  -0.548  -4.950  0.00  0.00     0.147 C 
ATOM      5  H   LIG d   1       4.034  -1.464  -5.536  0.00  0.00     0.079 H 
BRANCH   4   6
ATOM      6  O   LIG d   1       3.352   0.475  -5.747  0.00  0.00    -0.456 OA
BRANCH   6   7
ATOM      7  C   LIG d   1       3.185   0.211  -7.053  0.00  0.00     0.304 C 
ATOM      8  O   LIG d   1       3.200  -0.932  -7.444  0.00  0.00    -0.251 OA
BRANCH   7   9
ATOM      9  C   LIG d   1       2.981   1.340  -8.030  0.00  0.00     0.033 C 
ATOM     10  H   LIG d   1       3.910   1.898  -8.140  0.00  0.00     0.034 H 
ATOM     11  H   LIG d   1       2.683   0.934  -8.996  0.00  0.00     0.034 H 
ATOM     12  H   LIG d   1       2.200   2.004  -7.659  0.00  0.00     0.034 H 
ENDBRANCH   7   9
ENDBRANCH   6   7
ENDBRANCH   4   6
BRANCH   4  13
ATOM     13  C   LIG d   1       3.086  -0.809  -3.717  0.00  0.00     0.029 C 
ATOM     14  H   LIG d   1       2.887   0.134  -3.207  0.00  0.00     0.036 H 
ATOM     15  H   LIG d   1       2.142  -1.261  -4.025  0.00  0.00     0.036 H 
BRANCH  13  16
ATOM     16  C   LIG d   1       3.809  -1.743  -2.781  0.00  0.00     0.045 C 
ATOM     17  O   LIG d   1       4.271  -1.319  -1.736  0.00  0.00    -0.550 OA
ATOM     18  O   LIG d   1       3.932  -2.920  -3.069  0.00  0.00    -0.550 OA
ENDBRANCH  13  16
ENDBRANCH   4  13
ENDBRANCH   1   4
BRANCH   1  19
ATOM     19  N   LIG d   1       6.363  -0.829  -5.278  0.00  0.00     0.239 N 
BRANCH  19  20
ATOM     20  C   LIG d   1       5.788  -2.085  -5.779  0.00  0.00    -0.042 C 
ATOM     21  H   LIG d   1       4.733  -2.136  -5.508  0.00  0.00     0.078 H 
ATOM     22  H   LIG d   1       5.887  -2.123  -6.865  0.00  0.00     0.078 H 
ATOM     23  H   LIG d   1       6.317  -2.929  -5.337  0.00  0.00     0.078 H 
ENDBRANCH  19  20
BRANCH  19  24
ATOM     24  C   LIG d   1       6.803  -0.006  -6.412  0.00  0.00    -0.042 C 
ATOM     25  H   LIG d   1       7.144  -0.652  -7.220  0.00  0.00     0.078 H 
ATOM     26  H   LIG d   1       5.971   0.605  -6.762  0.00  0.00     0.078 H 
ATOM     27  H   LIG d   1       7.621   0.642  -6.094  0.00  0.00     0.078 H 
ENDBRANCH  19  24
BRANCH  19  28
ATOM     28  C   LIG d   1       7.512  -1.127  -4.413  0.00  0.00    -0.042 C 
ATOM     29  H   LIG d   1       7.524  -2.192  -4.179  0.00  0.00     0.078 H 
ATOM     30  H   LIG d   1       8.434  -0.858  -4.929  0.00  0.00     0.078 H 
ATOM     31  H   LIG d   1       7.431  -0.552  -3.490  0.00  0.00     0.078 H 
ENDBRANCH  19  28
ENDBRANCH   1  19
TORSDOF 10
ENDMDL
MODEL 10
REMARK VINA RESULT:      -3.3      1.957      2.888
REMARK  10 active torsions:
REMARK  status: ('A' for Active; 'I' for Inactive)
REMARK    1  A    between atoms: C_1  and  C_2 
REMARK    2  A    between atoms: C_2  and  O_4 
REMARK    3  A    between atoms: O_4  and  C_5 
REMARK    4  A    between atoms: C_5  and  C_7 
REMARK    5  A    between atoms: C_5  and  C_11 
REMARK    6  A    between atoms: C_7  and  C_8 
REMARK    7  A    between atoms: C_11  and  N_12 
REMARK    8  A    between atoms: N_12  and  C_13 
REMARK    9  A    between atoms: N_12  and  C_14 
REMARK   10  A    between atoms: N_12  and  C_15 
ROOT
ATOM      1  C   LIG d   1       5.742  -0.226  -5.759  0.00  0.00     0.007 C 
ATOM      2  H   LIG d   1       5.574   0.801  -6.081  0.00  0.00     0.085 H 
ATOM      3  H   LIG d   1       6.795  -0.478  -5.884  0.00  0.00     0.085 H 
ENDROOT
BRANCH   1   4
ATOM      4  C   LIG d   1       5.353  -0.370  -4.287  0.00  0.00     0.147 C 
ATOM      5  H   LIG d   1       4.792  -1.294  -4.147  0.00  0.00     0.079 H 
BRANCH   4   6
ATOM      6  O   LIG d   1       4.545   0.741  -3.897  0.00  0.00    -0.456 OA
BRANCH   6   7
ATOM      7  C   LIG d   1       3.605   0.514  -2.965  0.00  0.00     0.304 C 
ATOM      8  O   LIG d   1       3.463   1.290  -2.050  0.00  0.00    -0.251 OA
BRANCH   7   9
ATOM      9  C   LIG d   1       2.729  -0.708  -3.060  0.00  0.00     0.033 C 
ATOM     10  H   LIG d   1       3.130  -1.493  -2.420  0.00  0.00     0.034 H 
ATOM     11  H   LIG d   1       1.719  -0.456  -2.738  0.00  0.00     0.034 H 
ATOM     12  H   LIG d   1       2.704  -1.058  -4.092  0.00  0.00     0.034 H 
ENDBRANCH   7   9
ENDBRANCH   6   7
ENDBRANCH   4   6
BRANCH   4  13
ATOM     13  C   LIG d   1       6.618  -0.407  -3.426  0.00  0.00     0.029 C 
ATOM     14  H   LIG d   1       6.343  -0.337  -2.374  0.00  0.00     0.036 H 
ATOM     15  H   LIG d   1       7.149  -1.344  -3.602  0.00  0.00     0.036 H 
BRANCH  13  16
ATOM     16  C   LIG d   1       7.509   0.752  -3.790  0.00  0.00     0.045 C 
ATOM     17  O   LIG d   1       7.229   1.877  -3.414  0.00  0.00    -0.550 OA
ATOM     18  O   LIG d   1       8.509   0.565  -4.462  0.00  0.00    -0.550 OA
ENDBRANCH  13  16
ENDBRANCH   4  13
ENDBRANCH   1   4
BRANCH   1  19
ATOM     19  N   LIG d   1       4.923  -1.135  -6.573  0.00  0.00     0.239 N 
BRANCH  19  20
ATOM     20  C   LIG d   1       5.640  -1.462  -7.813  0.00  0.00    -0.042 C 
ATOM     21  H   LIG d   1       6.552  -2.009  -7.572  0.00  0.00     0.078 H 
ATOM     22  H   LIG d   1       5.004  -2.079  -8.449  0.00  0.00     0.078 H 
ATOM     23  H   LIG d   1       5.896  -0.542  -8.339  0.00  0.00     0.078 H 
ENDBRANCH  19  20
BRANCH  19  24
ATOM     24  C   LIG d   1       4.662  -2.368  -5.818  0.00  0.00    -0.042 C 
ATOM     25  H   LIG d   1       3.747  -2.831  -6.183  0.00  0.00     0.078 H 
ATOM     26  H   LIG d   1       5.496  -3.057  -5.950  0.00  0.00     0.078 H 
ATOM     27  H   LIG d   1       4.553  -2.129  -4.760  0.00  0.00     0.078 H 
ENDBRANCH  19  24
BRANCH  19  28
ATOM     28  C   LIG d   1       3.648  -0.483  -6.902  0.00  0.00    -0.042 C 
ATOM     29  H   LIG d   1       2.939  -1.230  -7.260  0.00  0.00     0.078 H 
ATOM     30  H   LIG d   1       3.247   0.000  -6.011  0.00  0.00     0.078 H 
ATOM     31  H   LIG d   1       3.812   0.264  -7.678  0.00  0.00     0.078 H 
ENDBRANCH  19  28
ENDBRANCH   1  19
TORSDOF 10
ENDMDL
