MODEL 1
REMARK VINA RESULT:      -5.2      0.000      0.000
REMARK  2 active torsions:
REMARK  status: ('A' for Active; 'I' for Inactive)
REMARK    1  A    between atoms: C_1  and  C_2 
REMARK    2  A    between atoms: C_2  and  C_4 
ROOT
ATOM      1  C   LIG d   1       3.364   0.262  -3.831  0.00  0.00     0.017 A 
ATOM      2  C   LIG d   1       4.028   1.024  -2.864  0.00  0.00    -0.051 A 
ATOM      3  C   LIG d   1       4.565   0.406  -1.755  0.00  0.00    -0.061 A 
ATOM      4  C   LIG d   1       4.448  -0.964  -1.596  0.00  0.00    -0.062 A 
ATOM      5  C   LIG d   1       3.792  -1.725  -2.548  0.00  0.00    -0.061 A 
ATOM      6  C   LIG d   1       3.244  -1.122  -3.660  0.00  0.00    -0.051 A 
ATOM      7  H   LIG d   1       4.121   2.093  -2.988  0.00  0.00     0.062 H 
ATOM      8  H   LIG d   1       5.079   0.993  -1.008  0.00  0.00     0.062 H 
ATOM      9  H   LIG d   1       4.871  -1.441  -0.725  0.00  0.00     0.062 H 
ATOM     10  H   LIG d   1       3.705  -2.793  -2.417  0.00  0.00     0.062 H 
ATOM     11  H   LIG d   1       2.729  -1.716  -4.401  0.00  0.00     0.062 H 
ENDROOT
BRANCH   1  12
ATOM     12  C   LIG d   1       2.787   0.913  -5.018  0.00  0.00     0.160 C 
ATOM     13  O   LIG d   1       2.349   2.040  -4.938  0.00  0.00    -0.292 OA
BRANCH  12  14
ATOM     14  C   LIG d   1       2.742   0.179  -6.334  0.00  0.00    -0.001 C 
ATOM     15  H   LIG d   1       3.739   0.154  -6.771  0.00  0.00     0.031 H 
ATOM     16  H   LIG d   1       2.392  -0.840  -6.169  0.00  0.00     0.031 H 
ATOM     17  H   LIG d   1       2.059   0.692  -7.012  0.00  0.00     0.031 H 
ENDBRANCH  12  14
ENDBRANCH   1  12
TORSDOF 2
ENDMDL
MODEL 2
REMARK VINA RESULT:      -4.9      0.484      1.677
REMARK  2 active torsions:
REMARK  status: ('A' for Active; 'I' for Inactive)
REMARK    1  A    between atoms: C_1  and  C_2 
REMARK    2  A    between atoms: C_2  and  C_4 
ROOT
ATOM      1  C   LIG d   1       3.548  -0.137  -3.896  0.00  0.00     0.017 A 
ATOM      2  C   LIG d   1       3.428  -1.511  -3.663  0.00  0.00    -0.051 A 
ATOM      3  C   LIG d   1       3.909  -2.052  -2.489  0.00  0.00    -0.061 A 
ATOM      4  C   LIG d   1       4.509  -1.239  -1.543  0.00  0.00    -0.062 A 
ATOM      5  C   LIG d   1       4.632   0.121  -1.767  0.00  0.00    -0.061 A 
ATOM      6  C   LIG d   1       4.162   0.676  -2.937  0.00  0.00    -0.051 A 
ATOM      7  H   LIG d   1       2.958  -2.146  -4.400  0.00  0.00     0.062 H 
ATOM      8  H   LIG d   1       3.815  -3.113  -2.307  0.00  0.00     0.062 H 
ATOM      9  H   LIG d   1       4.883  -1.670  -0.626  0.00  0.00     0.062 H 
ATOM     10  H   LIG d   1       5.101   0.748  -1.023  0.00  0.00     0.062 H 
ATOM     11  H   LIG d   1       4.262   1.737  -3.113  0.00  0.00     0.062 H 
ENDROOT
BRANCH   1  12
ATOM     12  C   LIG d   1       3.038   0.448  -5.146  0.00  0.00     0.160 C 
ATOM     13  O   LIG d   1       2.320   1.424  -5.110  0.00  0.00    -0.292 OA
BRANCH  12  14
ATOM     14  C   LIG d   1       3.409  -0.166  -6.472  0.00  0.00    -0.001 C 
ATOM     15  H   LIG d   1       4.077  -1.010  -6.308  0.00  0.00     0.031 H 
ATOM     16  H   LIG d   1       2.506  -0.509  -6.978  0.00  0.00     0.031 H 
ATOM     17  H   LIG d   1       3.910   0.581  -7.090  0.00  0.00     0.031 H 
ENDBRANCH  12  14
ENDBRANCH   1  12
TORSDOF 2
ENDMDL
MODEL 3
REMARK VINA RESULT:      -4.9      2.371      3.342
REMARK  2 active torsions:
REMARK  status: ('A' for Active; 'I' for Inactive)
REMARK    1  A    between atoms: C_1  and  C_2 
REMARK    2  A    between atoms: C_2  and  C_4 
ROOT
ATOM      1  C   LIG d   1       4.440  -1.114  -3.295  0.00  0.00     0.017 A 
ATOM      2  C   LIG d   1       4.906  -0.562  -2.098  0.00  0.00    -0.051 A 
ATOM      3  C   LIG d   1       4.476   0.688  -1.706  0.00  0.00    -0.061 A 
ATOM      4  C   LIG d   1       3.586   1.396  -2.494  0.00  0.00    -0.062 A 
ATOM      5  C   LIG d   1       3.120   0.857  -3.680  0.00  0.00    -0.061 A 
ATOM      6  C   LIG d   1       3.544  -0.389  -4.089  0.00  0.00    -0.051 A 
ATOM      7  H   LIG d   1       5.600  -1.115  -1.481  0.00  0.00     0.062 H 
ATOM      8  H   LIG d   1       4.835   1.115  -0.781  0.00  0.00     0.062 H 
ATOM      9  H   LIG d   1       3.253   2.375  -2.181  0.00  0.00     0.062 H 
ATOM     10  H   LIG d   1       2.425   1.416  -4.289  0.00  0.00     0.062 H 
ATOM     11  H   LIG d   1       3.183  -0.808  -5.017  0.00  0.00     0.062 H 
ENDROOT
BRANCH   1  12
ATOM     12  C   LIG d   1       4.893  -2.448  -3.721  0.00  0.00     0.160 C 
ATOM     13  O   LIG d   1       4.124  -3.384  -3.702  0.00  0.00    -0.292 OA
BRANCH  12  14
ATOM     14  C   LIG d   1       6.315  -2.649  -4.181  0.00  0.00    -0.001 C 
ATOM     15  H   LIG d   1       6.519  -1.995  -5.028  0.00  0.00     0.031 H 
ATOM     16  H   LIG d   1       6.997  -2.412  -3.365  0.00  0.00     0.031 H 
ATOM     17  H   LIG d   1       6.454  -3.688  -4.481  0.00  0.00     0.031 H 
ENDBRANCH  12  14
ENDBRANCH   1  12
TORSDOF 2
ENDMDL
MODEL 4
REMARK VINA RESULT:      -4.7      3.008      3.671
REMARK  2 active torsions:
REMARK  status: ('A' for Active; 'I' for Inactive)
REMARK    1  A    between atoms: C_1  and  C_2 
REMARK    2  A    between atoms: C_2  and  C_4 
ROOT
ATOM      1  C   LIG d   1       6.279   0.475  -3.269  0.00  0.00     0.017 A 
ATOM      2  C   LIG d   1       6.191  -0.920  -3.310  0.00  0.00    -0.051 A 
ATOM      3  C   LIG d   1       5.178  -1.563  -2.630  0.00  0.00    -0.061 A 
ATOM      4  C   LIG d   1       4.250  -0.832  -1.909  0.00  0.00    -0.062 A 
ATOM      5  C   LIG d   1       4.331   0.549  -1.864  0.00  0.00    -0.061 A 
ATOM      6  C   LIG d   1       5.340   1.206  -2.533  0.00  0.00    -0.051 A 
ATOM      7  H   LIG d   1       6.914  -1.492  -3.873  0.00  0.00     0.062 H 
ATOM      8  H   LIG d   1       5.108  -2.640  -2.662  0.00  0.00     0.062 H 
ATOM      9  H   LIG d   1       3.459  -1.342  -1.380  0.00  0.00     0.062 H 
ATOM     10  H   LIG d   1       3.602   1.112  -1.300  0.00  0.00     0.062 H 
ATOM     11  H   LIG d   1       5.405   2.284  -2.494  0.00  0.00     0.062 H 
ENDROOT
BRANCH   1  12
ATOM     12  C   LIG d   1       7.357   1.170  -3.991  0.00  0.00     0.160 C 
ATOM     13  O   LIG d   1       7.969   2.066  -3.450  0.00  0.00    -0.292 OA
BRANCH  12  14
ATOM     14  C   LIG d   1       7.700   0.768  -5.402  0.00  0.00    -0.001 C 
ATOM     15  H   LIG d   1       8.638   0.214  -5.405  0.00  0.00     0.031 H 
ATOM     16  H   LIG d   1       6.906   0.139  -5.804  0.00  0.00     0.031 H 
ATOM     17  H   LIG d   1       7.803   1.661  -6.019  0.00  0.00     0.031 H 
ENDBRANCH  12  14
ENDBRANCH   1  12
TORSDOF 2
ENDMDL
MODEL 5
REMARK VINA RESULT:      -4.6      3.297      4.039
REMARK  2 active torsions:
REMARK  status: ('A' for Active; 'I' for Inactive)
REMARK    1  A    between atoms: C_1  and  C_2 
REMARK    2  A    between atoms: C_2  and  C_4 
ROOT
ATOM      1  C   LIG d   1       5.930  -1.237  -3.233  0.00  0.00     0.017 A 
ATOM      2  C   LIG d   1       4.844  -1.504  -2.392  0.00  0.00    -0.051 A 
ATOM      3  C   LIG d   1       4.183  -0.463  -1.776  0.00  0.00    -0.061 A 
ATOM      4  C   LIG d   1       4.590   0.843  -1.987  0.00  0.00    -0.062 A 
ATOM      5  C   LIG d   1       5.663   1.115  -2.817  0.00  0.00    -0.061 A 
ATOM      6  C   LIG d   1       6.339   0.086  -3.436  0.00  0.00    -0.051 A 
ATOM      7  H   LIG d   1       4.525  -2.523  -2.228  0.00  0.00     0.062 H 
ATOM      8  H   LIG d   1       3.344  -0.668  -1.127  0.00  0.00     0.062 H 
ATOM      9  H   LIG d   1       4.067   1.653  -1.501  0.00  0.00     0.062 H 
ATOM     10  H   LIG d   1       5.974   2.137  -2.976  0.00  0.00     0.062 H 
ATOM     11  H   LIG d   1       7.179   0.299  -4.080  0.00  0.00     0.062 H 
ENDROOT
BRANCH   1  12
ATOM     12  C   LIG d   1       6.642  -2.341  -3.894  0.00  0.00     0.160 C 
ATOM     13  O   LIG d   1       7.846  -2.437  -3.786  0.00  0.00    -0.292 OA
BRANCH  12  14
ATOM     14  C   LIG d   1       5.876  -3.354  -4.706  0.00  0.00    -0.001 C 
ATOM     15  H   LIG d   1       6.462  -3.638  -5.579  0.00  0.00     0.031 H 
ATOM     16  H   LIG d   1       5.680  -4.236  -4.096  0.00  0.00     0.031 H 
ATOM     17  H   LIG d   1       4.930  -2.918  -5.029  0.00  0.00     0.031 H 
ENDBRANCH  12  14
ENDBRANCH   1  12
TORSDOF 2
ENDMDL
MODEL 6
REMARK VINA RESULT:      -4.3      2.453      3.364
REMARK  2 active torsions:
REMARK  status: ('A' for Active; 'I' for Inactive)
REMARK    1  A    between atoms: C_1  and  C_2 
REMARK    2  A    between atoms: C_2  and  C_4 
ROOT
ATOM      1  C   LIG d   1       4.856  -1.212  -3.153  0.00  0.00     0.017 A 
ATOM      2  C   LIG d   1       6.243  -1.034  -3.130  0.00  0.00    -0.051 A 
ATOM      3  C   LIG d   1       7.064  -1.962  -3.735  0.00  0.00    -0.061 A 
ATOM      4  C   LIG d   1       6.518  -3.068  -4.364  0.00  0.00    -0.062 A 
ATOM      5  C   LIG d   1       5.146  -3.251  -4.391  0.00  0.00    -0.061 A 
ATOM      6  C   LIG d   1       4.313  -2.335  -3.786  0.00  0.00    -0.051 A 
ATOM      7  H   LIG d   1       6.670  -0.170  -2.641  0.00  0.00     0.062 H 
ATOM      8  H   LIG d   1       8.135  -1.826  -3.719  0.00  0.00     0.062 H 
ATOM      9  H   LIG d   1       7.167  -3.791  -4.836  0.00  0.00     0.062 H 
ATOM     10  H   LIG d   1       4.729  -4.117  -4.884  0.00  0.00     0.062 H 
ATOM     11  H   LIG d   1       3.243  -2.481  -3.804  0.00  0.00     0.062 H 
ENDROOT
BRANCH   1  12
ATOM     12  C   LIG d   1       3.973  -0.226  -2.510  0.00  0.00     0.160 C 
ATOM     13  O   LIG d   1       2.772  -0.298  -2.662  0.00  0.00    -0.292 OA
BRANCH  12  14
ATOM     14  C   LIG d   1       4.561   0.874  -1.663  0.00  0.00    -0.001 C 
ATOM     15  H   LIG d   1       4.596   1.797  -2.240  0.00  0.00     0.031 H 
ATOM     16  H   LIG d   1       3.943   1.020  -0.778  0.00  0.00     0.031 H 
ATOM     17  H   LIG d   1       5.571   0.596  -1.359  0.00  0.00     0.031 H 
ENDBRANCH  12  14
ENDBRANCH   1  12
TORSDOF 2
ENDMDL
MODEL 7
REMARK VINA RESULT:      -3.7      5.855      7.181
REMARK  2 active torsions:
REMARK  status: ('A' for Active; 'I' for Inactive)
REMARK    1  A    between atoms: C_1  and  C_2 
REMARK    2  A    between atoms: C_2  and  C_4 
ROOT
ATOM      1  C   LIG d   1       3.366   0.387 -10.705  0.00  0.00     0.017 A 
ATOM      2  C   LIG d   1       3.838   1.701 -10.614  0.00  0.00    -0.051 A 
ATOM      3  C   LIG d   1       3.658   2.415  -9.449  0.00  0.00    -0.061 A 
ATOM      4  C   LIG d   1       3.011   1.837  -8.371  0.00  0.00    -0.062 A 
ATOM      5  C   LIG d   1       2.541   0.537  -8.453  0.00  0.00    -0.061 A 
ATOM      6  C   LIG d   1       2.708  -0.188  -9.613  0.00  0.00    -0.051 A 
ATOM      7  H   LIG d   1       4.345   2.153 -11.455  0.00  0.00     0.062 H 
ATOM      8  H   LIG d   1       4.023   3.429  -9.377  0.00  0.00     0.062 H 
ATOM      9  H   LIG d   1       2.874   2.402  -7.461  0.00  0.00     0.062 H 
ATOM     10  H   LIG d   1       2.038   0.093  -7.607  0.00  0.00     0.062 H 
ATOM     11  H   LIG d   1       2.337  -1.201  -9.677  0.00  0.00     0.062 H 
ENDROOT
BRANCH   1  12
ATOM     12  C   LIG d   1       3.554  -0.382 -11.945  0.00  0.00     0.160 C 
ATOM     13  O   LIG d   1       4.564  -0.238 -12.601  0.00  0.00    -0.292 OA
BRANCH  12  14
ATOM     14  C   LIG d   1       2.491  -1.349 -12.401  0.00  0.00    -0.001 C 
ATOM     15  H   LIG d   1       2.728  -2.348 -12.035  0.00  0.00     0.031 H 
ATOM     16  H   LIG d   1       1.524  -1.037 -12.008  0.00  0.00     0.031 H 
ATOM     17  H   LIG d   1       2.455  -1.361 -13.490  0.00  0.00     0.031 H 
ENDBRANCH  12  14
ENDBRANCH   1  12
TORSDOF 2
ENDMDL
MODEL 8
REMARK VINA RESULT:      -3.7      1.627      3.948
REMARK  2 active torsions:
REMARK  status: ('A' for Active; 'I' for Inactive)
REMARK    1  A    between atoms: C_1  and  C_2 
REMARK    2  A    between atoms: C_2  and  C_4 
ROOT
ATOM      1  C   LIG d   1       3.447  -0.106  -5.278  0.00  0.00     0.017 A 
ATOM      2  C   LIG d   1       4.372  -1.121  -5.544  0.00  0.00    -0.051 A 
ATOM      3  C   LIG d   1       4.512  -1.602  -6.828  0.00  0.00    -0.061 A 
ATOM      4  C   LIG d   1       3.739  -1.084  -7.853  0.00  0.00    -0.062 A 
ATOM      5  C   LIG d   1       2.821  -0.081  -7.598  0.00  0.00    -0.061 A 
ATOM      6  C   LIG d   1       2.665   0.407  -6.319  0.00  0.00    -0.051 A 
ATOM      7  H   LIG d   1       4.977  -1.524  -4.745  0.00  0.00     0.062 H 
ATOM      8  H   LIG d   1       5.227  -2.385  -7.036  0.00  0.00     0.062 H 
ATOM      9  H   LIG d   1       3.853  -1.466  -8.857  0.00  0.00     0.062 H 
ATOM     10  H   LIG d   1       2.222   0.318  -8.404  0.00  0.00     0.062 H 
ATOM     11  H   LIG d   1       1.946   1.188  -6.120  0.00  0.00     0.062 H 
ENDROOT
BRANCH   1  12
ATOM     12  C   LIG d   1       3.291   0.413  -3.910  0.00  0.00     0.160 C 
ATOM     13  O   LIG d   1       3.463   1.592  -3.687  0.00  0.00    -0.292 OA
BRANCH  12  14
ATOM     14  C   LIG d   1       2.919  -0.520  -2.787  0.00  0.00    -0.001 C 
ATOM     15  H   LIG d   1       3.680  -1.294  -2.691  0.00  0.00     0.031 H 
ATOM     16  H   LIG d   1       2.852   0.041  -1.855  0.00  0.00     0.031 H 
ATOM     17  H   LIG d   1       1.956  -0.982  -3.004  0.00  0.00     0.031 H 
ENDBRANCH  12  14
ENDBRANCH   1  12
TORSDOF 2
ENDMDL
MODEL 9
REMARK VINA RESULT:      -3.7      5.711      7.023
REMARK  2 active torsions:
REMARK  status: ('A' for Active; 'I' for Inactive)
REMARK    1  A    between atoms: C_1  and  C_2 
REMARK    2  A    between atoms: C_2  and  C_4 
ROOT
ATOM      1  C   LIG d   1       2.641  -0.129 -10.108  0.00  0.00     0.017 A 
ATOM      2  C   LIG d   1       2.316   0.335  -8.829  0.00  0.00    -0.051 A 
ATOM      3  C   LIG d   1       2.825   1.537  -8.386  0.00  0.00    -0.061 A 
ATOM      4  C   LIG d   1       3.656   2.284  -9.203  0.00  0.00    -0.062 A 
ATOM      5  C   LIG d   1       3.983   1.832 -10.469  0.00  0.00    -0.061 A 
ATOM      6  C   LIG d   1       3.486   0.630 -10.925  0.00  0.00    -0.051 A 
ATOM      7  H   LIG d   1       1.667  -0.247  -8.192  0.00  0.00     0.062 H 
ATOM      8  H   LIG d   1       2.575   1.897  -7.399  0.00  0.00     0.062 H 
ATOM      9  H   LIG d   1       4.051   3.225  -8.849  0.00  0.00     0.062 H 
ATOM     10  H   LIG d   1       4.631   2.422 -11.100  0.00  0.00     0.062 H 
ATOM     11  H   LIG d   1       3.745   0.276 -11.912  0.00  0.00     0.062 H 
ENDROOT
BRANCH   1  12
ATOM     12  C   LIG d   1       2.102  -1.411 -10.589  0.00  0.00     0.160 C 
ATOM     13  O   LIG d   1       1.758  -2.259  -9.795  0.00  0.00    -0.292 OA
BRANCH  12  14
ATOM     14  C   LIG d   1       1.979  -1.669 -12.069  0.00  0.00    -0.001 C 
ATOM     15  H   LIG d   1       0.951  -1.939 -12.306  0.00  0.00     0.031 H 
ATOM     16  H   LIG d   1       2.255  -0.770 -12.619  0.00  0.00     0.031 H 
ATOM     17  H   LIG d   1       2.644  -2.486 -12.351  0.00  0.00     0.031 H 
ENDBRANCH  12  14
ENDBRANCH   1  12
TORSDOF 2
ENDMDL
