MODEL 1
REMARK VINA RESULT:      -5.5      0.000      0.000
REMARK  6 active torsions:
REMARK  status: ('A' for Active; 'I' for Inactive)
REMARK    1  A    between atoms: C_1  and  C_2 
REMARK    2  A    between atoms: C_2  and  C_4 
REMARK    3  A    between atoms: C_2  and  O_18 
REMARK    4  A    between atoms: C_4  and  C_6 
REMARK    5  A    between atoms: C_6  and  C_7 
REMARK    6  A    between atoms: C_13  and  O_17 
ROOT
ATOM      1  C   LIG d   1       5.231  -2.450  -5.001  0.00  0.00     0.091 C 
ATOM      2  H   LIG d   1       6.296  -2.306  -5.236  0.00  0.00     0.065 H 
ATOM      3  C   LIG d   1       4.743  -1.495  -3.938  0.00  0.00    -0.010 A 
ATOM      4  C   LIG d   1       4.862  -1.486  -2.562  0.00  0.00    -0.056 A 
ATOM      5  C   LIG d   1       4.301  -0.459  -1.824  0.00  0.00    -0.058 A 
ATOM      6  C   LIG d   1       3.622   0.560  -2.463  0.00  0.00    -0.020 A 
ATOM      7  C   LIG d   1       3.500   0.555  -3.846  0.00  0.00     0.123 A 
ATOM      8  C   LIG d   1       4.062  -0.475  -4.581  0.00  0.00     0.025 A 
ATOM      9  C   LIG d   1       4.108  -0.769  -6.062  0.00  0.00     0.077 C 
ATOM     10  O   LIG d   1       4.456  -2.162  -6.179  0.00  0.00    -0.367 OA
ATOM     11  H   LIG d   1       5.394  -2.282  -2.061  0.00  0.00     0.062 H 
ATOM     12  H   LIG d   1       4.396  -0.454  -0.749  0.00  0.00     0.062 H 
ATOM     13  H   LIG d   1       3.184   1.362  -1.885  0.00  0.00     0.065 H 
ATOM     14  H   LIG d   1       3.123  -0.567  -6.507  0.00  0.00     0.061 H 
ATOM     15  H   LIG d   1       4.865  -0.129  -6.539  0.00  0.00     0.061 H 
ENDROOT
BRANCH   1  16
ATOM     16  C   LIG d   1       4.999  -3.896  -4.558  0.00  0.00     0.039 C 
ATOM     17  H   LIG d   1       3.936  -4.039  -4.314  0.00  0.00     0.037 H 
ATOM     18  H   LIG d   1       5.610  -4.110  -3.669  0.00  0.00     0.037 H 
BRANCH  16  19
ATOM     19  C   LIG d   1       5.389  -4.832  -5.673  0.00  0.00     0.164 C 
ATOM     20  O   LIG d   1       6.530  -4.859  -6.067  0.00  0.00    -0.295 OA
BRANCH  19  21
ATOM     21  C   LIG d   1       4.355  -5.734  -6.295  0.00  0.00     0.110 C 
ATOM     22  H   LIG d   1       4.196  -6.625  -5.672  0.00  0.00     0.067 H 
BRANCH  21  23
ATOM     23  C   LIG d   1       4.789  -6.106  -7.714  0.00  0.00    -0.032 C 
ATOM     24  H   LIG d   1       3.986  -6.673  -8.207  0.00  0.00     0.026 H 
ATOM     25  H   LIG d   1       5.699  -6.723  -7.669  0.00  0.00     0.026 H 
ATOM     26  H   LIG d   1       4.997  -5.189  -8.286  0.00  0.00     0.026 H 
ENDBRANCH  21  23
BRANCH  21  27
ATOM     27  O   LIG d   1       3.099  -5.053  -6.346  0.00  0.00    -0.385 OA
ATOM     28  H   LIG d   1       2.162  -5.629  -6.371  0.00  0.00     0.210 HD
ENDBRANCH  21  27
ENDBRANCH  19  21
ENDBRANCH  16  19
ENDBRANCH   1  16
BRANCH   7  29
ATOM     29  O   LIG d   1       2.832   1.557  -4.475  0.00  0.00    -0.506 OA
ATOM     30  H   LIG d   1       3.323   2.125  -5.279  0.00  0.00     0.292 HD
ENDBRANCH   7  29
TORSDOF 6
ENDMDL
MODEL 2
REMARK VINA RESULT:      -5.4      3.011      5.990
REMARK  6 active torsions:
REMARK  status: ('A' for Active; 'I' for Inactive)
REMARK    1  A    between atoms: C_1  and  C_2 
REMARK    2  A    between atoms: C_2  and  C_4 
REMARK    3  A    between atoms: C_2  and  O_18 
REMARK    4  A    between atoms: C_4  and  C_6 
REMARK    5  A    between atoms: C_6  and  C_7 
REMARK    6  A    between atoms: C_13  and  O_17 
ROOT
ATOM      1  C   LIG d   1       3.900  -0.023  -6.688  0.00  0.00     0.091 C 
ATOM      2  H   LIG d   1       4.747   0.350  -6.094  0.00  0.00     0.065 H 
ATOM      3  C   LIG d   1       3.802   0.651  -8.036  0.00  0.00    -0.010 A 
ATOM      4  C   LIG d   1       3.310   1.878  -8.435  0.00  0.00    -0.056 A 
ATOM      5  C   LIG d   1       3.351   2.241  -9.770  0.00  0.00    -0.058 A 
ATOM      6  C   LIG d   1       3.884   1.376 -10.705  0.00  0.00    -0.020 A 
ATOM      7  C   LIG d   1       4.379   0.141 -10.308  0.00  0.00     0.123 A 
ATOM      8  C   LIG d   1       4.336  -0.219  -8.972  0.00  0.00     0.025 A 
ATOM      9  C   LIG d   1       4.781  -1.458  -8.230  0.00  0.00     0.077 C 
ATOM     10  O   LIG d   1       4.107  -1.422  -6.958  0.00  0.00    -0.367 OA
ATOM     11  H   LIG d   1       2.894   2.556  -7.705  0.00  0.00     0.062 H 
ATOM     12  H   LIG d   1       2.967   3.201 -10.079  0.00  0.00     0.062 H 
ATOM     13  H   LIG d   1       3.915   1.660 -11.748  0.00  0.00     0.065 H 
ATOM     14  H   LIG d   1       4.497  -2.351  -8.805  0.00  0.00     0.061 H 
ATOM     15  H   LIG d   1       5.873  -1.435  -8.101  0.00  0.00     0.061 H 
ENDROOT
BRANCH   1  16
ATOM     16  C   LIG d   1       2.602   0.177  -5.903  0.00  0.00     0.039 C 
ATOM     17  H   LIG d   1       1.985  -0.731  -5.978  0.00  0.00     0.037 H 
ATOM     18  H   LIG d   1       2.048   1.031  -6.320  0.00  0.00     0.037 H 
BRANCH  16  19
ATOM     19  C   LIG d   1       2.926   0.445  -4.456  0.00  0.00     0.164 C 
ATOM     20  O   LIG d   1       3.237   1.557  -4.103  0.00  0.00    -0.295 OA
BRANCH  19  21
ATOM     21  C   LIG d   1       2.862  -0.675  -3.450  0.00  0.00     0.110 C 
ATOM     22  H   LIG d   1       1.835  -0.803  -3.081  0.00  0.00     0.067 H 
BRANCH  21  23
ATOM     23  C   LIG d   1       3.842  -0.393  -2.309  0.00  0.00    -0.032 C 
ATOM     24  H   LIG d   1       4.413  -1.306  -2.082  0.00  0.00     0.026 H 
ATOM     25  H   LIG d   1       3.283  -0.078  -1.415  0.00  0.00     0.026 H 
ATOM     26  H   LIG d   1       4.533   0.408  -2.609  0.00  0.00     0.026 H 
ENDBRANCH  21  23
BRANCH  21  27
ATOM     27  O   LIG d   1       3.215  -1.906  -4.086  0.00  0.00    -0.385 OA
ATOM     28  H   LIG d   1       4.060  -1.939  -4.789  0.00  0.00     0.210 HD
ENDBRANCH  21  27
ENDBRANCH  19  21
ENDBRANCH  16  19
ENDBRANCH   1  16
BRANCH   7  29
ATOM     29  O   LIG d   1       4.904  -0.711 -11.227  0.00  0.00    -0.506 OA
ATOM     30  H   LIG d   1       5.776  -0.407 -11.824  0.00  0.00     0.292 HD
ENDBRANCH   7  29
TORSDOF 6
ENDMDL
MODEL 3
REMARK VINA RESULT:      -5.3      3.382      4.807
REMARK  6 active torsions:
REMARK  status: ('A' for Active; 'I' for Inactive)
REMARK    1  A    between atoms: C_1  and  C_2 
REMARK    2  A    between atoms: C_2  and  C_4 
REMARK    3  A    between atoms: C_2  and  O_18 
REMARK    4  A    between atoms: C_4  and  C_6 
REMARK    5  A    between atoms: C_6  and  C_7 
REMARK    6  A    between atoms: C_13  and  O_17 
ROOT
ATOM      1  C   LIG d   1       3.902  -0.393  -6.462  0.00  0.00     0.091 C 
ATOM      2  H   LIG d   1       3.697  -1.401  -6.850  0.00  0.00     0.065 H 
ATOM      3  C   LIG d   1       3.993  -0.365  -4.954  0.00  0.00    -0.010 A 
ATOM      4  C   LIG d   1       3.036  -0.361  -3.959  0.00  0.00    -0.056 A 
ATOM      5  C   LIG d   1       3.419  -0.334  -2.630  0.00  0.00    -0.058 A 
ATOM      6  C   LIG d   1       4.759  -0.311  -2.296  0.00  0.00    -0.020 A 
ATOM      7  C   LIG d   1       5.724  -0.314  -3.294  0.00  0.00     0.123 A 
ATOM      8  C   LIG d   1       5.337  -0.341  -4.623  0.00  0.00     0.025 A 
ATOM      9  C   LIG d   1       6.118  -0.353  -5.917  0.00  0.00     0.077 C 
ATOM     10  O   LIG d   1       5.188   0.036  -6.945  0.00  0.00    -0.367 OA
ATOM     11  H   LIG d   1       1.988  -0.381  -4.218  0.00  0.00     0.062 H 
ATOM     12  H   LIG d   1       2.669  -0.332  -1.853  0.00  0.00     0.062 H 
ATOM     13  H   LIG d   1       5.057  -0.289  -1.257  0.00  0.00     0.065 H 
ATOM     14  H   LIG d   1       6.954   0.358  -5.847  0.00  0.00     0.061 H 
ATOM     15  H   LIG d   1       6.511  -1.365  -6.098  0.00  0.00     0.061 H 
ENDROOT
BRANCH   1  16
ATOM     16  C   LIG d   1       2.811   0.567  -6.942  0.00  0.00     0.039 C 
ATOM     17  H   LIG d   1       3.072   1.595  -6.646  0.00  0.00     0.037 H 
ATOM     18  H   LIG d   1       1.850   0.288  -6.486  0.00  0.00     0.037 H 
BRANCH  16  19
ATOM     19  C   LIG d   1       2.698   0.490  -8.442  0.00  0.00     0.164 C 
ATOM     20  O   LIG d   1       2.239  -0.498  -8.963  0.00  0.00    -0.295 OA
BRANCH  19  21
ATOM     21  C   LIG d   1       3.158   1.646  -9.293  0.00  0.00     0.110 C 
ATOM     22  H   LIG d   1       2.345   2.373  -9.425  0.00  0.00     0.067 H 
BRANCH  21  23
ATOM     23  C   LIG d   1       3.671   1.119 -10.635  0.00  0.00    -0.032 C 
ATOM     24  H   LIG d   1       3.817   0.031 -10.570  0.00  0.00     0.026 H 
ATOM     25  H   LIG d   1       4.629   1.604 -10.876  0.00  0.00     0.026 H 
ATOM     26  H   LIG d   1       2.937   1.346 -11.422  0.00  0.00     0.026 H 
ENDBRANCH  21  23
BRANCH  21  27
ATOM     27  O   LIG d   1       4.211   2.341  -8.621  0.00  0.00    -0.385 OA
ATOM     28  H   LIG d   1       4.252   2.347  -7.522  0.00  0.00     0.210 HD
ENDBRANCH  21  27
ENDBRANCH  19  21
ENDBRANCH  16  19
ENDBRANCH   1  16
BRANCH   7  29
ATOM     29  O   LIG d   1       7.043  -0.291  -2.968  0.00  0.00    -0.506 OA
ATOM     30  H   LIG d   1       7.611   0.648  -3.038  0.00  0.00     0.292 HD
ENDBRANCH   7  29
TORSDOF 6
ENDMDL
MODEL 4
REMARK VINA RESULT:      -5.2      3.895      6.769
REMARK  6 active torsions:
REMARK  status: ('A' for Active; 'I' for Inactive)
REMARK    1  A    between atoms: C_1  and  C_2 
REMARK    2  A    between atoms: C_2  and  C_4 
REMARK    3  A    between atoms: C_2  and  O_18 
REMARK    4  A    between atoms: C_4  and  C_6 
REMARK    5  A    between atoms: C_6  and  C_7 
REMARK    6  A    between atoms: C_13  and  O_17 
ROOT
ATOM      1  C   LIG d   1       2.990   0.827  -7.826  0.00  0.00     0.091 C 
ATOM      2  H   LIG d   1       2.420   1.747  -7.629  0.00  0.00     0.065 H 
ATOM      3  C   LIG d   1       2.618   0.191  -9.144  0.00  0.00    -0.010 A 
ATOM      4  C   LIG d   1       1.553  -0.597  -9.535  0.00  0.00    -0.056 A 
ATOM      5  C   LIG d   1       1.468  -1.048 -10.840  0.00  0.00    -0.058 A 
ATOM      6  C   LIG d   1       2.447  -0.711 -11.754  0.00  0.00    -0.020 A 
ATOM      7  C   LIG d   1       3.519   0.080 -11.365  0.00  0.00     0.123 A 
ATOM      8  C   LIG d   1       3.601   0.530 -10.058  0.00  0.00     0.025 A 
ATOM      9  C   LIG d   1       4.612   1.387  -9.331  0.00  0.00     0.077 C 
ATOM     10  O   LIG d   1       4.386   1.162  -7.927  0.00  0.00    -0.367 OA
ATOM     11  H   LIG d   1       0.786  -0.860  -8.822  0.00  0.00     0.062 H 
ATOM     12  H   LIG d   1       0.634  -1.663 -11.144  0.00  0.00     0.062 H 
ATOM     13  H   LIG d   1       2.379  -1.064 -12.774  0.00  0.00     0.065 H 
ATOM     14  H   LIG d   1       5.628   1.083  -9.624  0.00  0.00     0.061 H 
ATOM     15  H   LIG d   1       4.454   2.443  -9.595  0.00  0.00     0.061 H 
ENDROOT
BRANCH   1  16
ATOM     16  C   LIG d   1       2.767  -0.163  -6.681  0.00  0.00     0.039 C 
ATOM     17  H   LIG d   1       3.492  -0.986  -6.761  0.00  0.00     0.037 H 
ATOM     18  H   LIG d   1       1.746  -0.568  -6.740  0.00  0.00     0.037 H 
BRANCH  16  19
ATOM     19  C   LIG d   1       2.952   0.543  -5.362  0.00  0.00     0.164 C 
ATOM     20  O   LIG d   1       2.475   1.640  -5.193  0.00  0.00    -0.295 OA
BRANCH  19  21
ATOM     21  C   LIG d   1       3.731  -0.119  -4.256  0.00  0.00     0.110 C 
ATOM     22  H   LIG d   1       4.319  -0.960  -4.650  0.00  0.00     0.067 H 
BRANCH  21  23
ATOM     23  C   LIG d   1       2.771  -0.567  -3.152  0.00  0.00    -0.032 C 
ATOM     24  H   LIG d   1       3.248  -1.355  -2.549  0.00  0.00     0.026 H 
ATOM     25  H   LIG d   1       1.849  -0.961  -3.606  0.00  0.00     0.026 H 
ATOM     26  H   LIG d   1       2.525   0.290  -2.510  0.00  0.00     0.026 H 
ENDBRANCH  21  23
BRANCH  21  27
ATOM     27  O   LIG d   1       4.675   0.810  -3.717  0.00  0.00    -0.385 OA
ATOM     28  H   LIG d   1       5.545   0.444  -3.153  0.00  0.00     0.210 HD
ENDBRANCH  21  27
ENDBRANCH  19  21
ENDBRANCH  16  19
ENDBRANCH   1  16
BRANCH   7  29
ATOM     29  O   LIG d   1       4.483   0.413 -12.263  0.00  0.00    -0.506 OA
ATOM     30  H   LIG d   1       5.451   0.799 -11.912  0.00  0.00     0.292 HD
ENDBRANCH   7  29
TORSDOF 6
ENDMDL
MODEL 5
REMARK VINA RESULT:      -5.2      3.335      3.922
REMARK  6 active torsions:
REMARK  status: ('A' for Active; 'I' for Inactive)
REMARK    1  A    between atoms: C_1  and  C_2 
REMARK    2  A    between atoms: C_2  and  C_4 
REMARK    3  A    between atoms: C_2  and  O_18 
REMARK    4  A    between atoms: C_4  and  C_6 
REMARK    5  A    between atoms: C_6  and  C_7 
REMARK    6  A    between atoms: C_13  and  O_17 
ROOT
ATOM      1  C   LIG d   1       6.995  -1.393  -3.277  0.00  0.00     0.091 C 
ATOM      2  H   LIG d   1       7.532  -1.518  -2.325  0.00  0.00     0.065 H 
ATOM      3  C   LIG d   1       5.521  -1.134  -3.075  0.00  0.00    -0.010 A 
ATOM      4  C   LIG d   1       4.456  -1.965  -2.788  0.00  0.00    -0.056 A 
ATOM      5  C   LIG d   1       3.183  -1.440  -2.655  0.00  0.00    -0.058 A 
ATOM      6  C   LIG d   1       2.975  -0.083  -2.808  0.00  0.00    -0.020 A 
ATOM      7  C   LIG d   1       4.043   0.756  -3.097  0.00  0.00     0.123 A 
ATOM      8  C   LIG d   1       5.316   0.226  -3.230  0.00  0.00     0.025 A 
ATOM      9  C   LIG d   1       6.658   0.851  -3.533  0.00  0.00     0.077 C 
ATOM     10  O   LIG d   1       7.514  -0.231  -3.949  0.00  0.00    -0.367 OA
ATOM     11  H   LIG d   1       4.617  -3.026  -2.667  0.00  0.00     0.062 H 
ATOM     12  H   LIG d   1       2.352  -2.091  -2.429  0.00  0.00     0.062 H 
ATOM     13  H   LIG d   1       1.980   0.327  -2.704  0.00  0.00     0.065 H 
ATOM     14  H   LIG d   1       6.544   1.597  -4.332  0.00  0.00     0.061 H 
ATOM     15  H   LIG d   1       7.048   1.339  -2.627  0.00  0.00     0.061 H 
ENDROOT
BRANCH   1  16
ATOM     16  C   LIG d   1       7.199  -2.638  -4.142  0.00  0.00     0.039 C 
ATOM     17  H   LIG d   1       7.015  -2.385  -5.197  0.00  0.00     0.037 H 
ATOM     18  H   LIG d   1       6.496  -3.423  -3.826  0.00  0.00     0.037 H 
BRANCH  16  19
ATOM     19  C   LIG d   1       8.613  -3.135  -3.983  0.00  0.00     0.164 C 
ATOM     20  O   LIG d   1       8.906  -3.828  -3.039  0.00  0.00    -0.295 OA
BRANCH  19  21
ATOM     21  C   LIG d   1       9.659  -2.767  -5.003  0.00  0.00     0.110 C 
ATOM     22  H   LIG d   1       9.215  -2.709  -6.007  0.00  0.00     0.067 H 
BRANCH  21  23
ATOM     23  C   LIG d   1      10.804  -3.780  -4.948  0.00  0.00    -0.032 C 
ATOM     24  H   LIG d   1      10.391  -4.795  -4.848  0.00  0.00     0.026 H 
ATOM     25  H   LIG d   1      11.448  -3.559  -4.083  0.00  0.00     0.026 H 
ATOM     26  H   LIG d   1      11.397  -3.714  -5.872  0.00  0.00     0.026 H 
ENDBRANCH  21  23
BRANCH  21  27
ATOM     27  O   LIG d   1      10.165  -1.461  -4.714  0.00  0.00    -0.385 OA
ATOM     28  H   LIG d   1       9.476  -0.660  -4.409  0.00  0.00     0.210 HD
ENDBRANCH  21  27
ENDBRANCH  19  21
ENDBRANCH  16  19
ENDBRANCH   1  16
BRANCH   7  29
ATOM     29  O   LIG d   1       3.841   2.091  -3.248  0.00  0.00    -0.506 OA
ATOM     30  H   LIG d   1       4.567   2.807  -2.836  0.00  0.00     0.292 HD
ENDBRANCH   7  29
TORSDOF 6
ENDMDL
MODEL 6
REMARK VINA RESULT:      -5.1      9.814     12.915
REMARK  6 active torsions:
REMARK  status: ('A' for Active; 'I' for Inactive)
REMARK    1  A    between atoms: C_1  and  C_2 
REMARK    2  A    between atoms: C_2  and  C_4 
REMARK    3  A    between atoms: C_2  and  O_18 
REMARK    4  A    between atoms: C_4  and  C_6 
REMARK    5  A    between atoms: C_6  and  C_7 
REMARK    6  A    between atoms: C_13  and  O_17 
ROOT
ATOM      1  C   LIG d   1      10.079   7.666  -1.066  0.00  0.00     0.091 C 
ATOM      2  H   LIG d   1      10.946   8.325  -1.217  0.00  0.00     0.065 H 
ATOM      3  C   LIG d   1       9.946   6.631  -2.159  0.00  0.00    -0.010 A 
ATOM      4  C   LIG d   1       9.453   6.689  -3.447  0.00  0.00    -0.056 A 
ATOM      5  C   LIG d   1       9.458   5.557  -4.243  0.00  0.00    -0.058 A 
ATOM      6  C   LIG d   1       9.955   4.367  -3.749  0.00  0.00    -0.020 A 
ATOM      7  C   LIG d   1      10.452   4.305  -2.454  0.00  0.00     0.123 A 
ATOM      8  C   LIG d   1      10.445   5.440  -1.661  0.00  0.00     0.025 A 
ATOM      9  C   LIG d   1      10.902   5.701  -0.244  0.00  0.00     0.077 C 
ATOM     10  O   LIG d   1      10.266   6.930   0.157  0.00  0.00    -0.367 OA
ATOM     11  H   LIG d   1       9.064   7.619  -3.835  0.00  0.00     0.062 H 
ATOM     12  H   LIG d   1       9.072   5.605  -5.250  0.00  0.00     0.062 H 
ATOM     13  H   LIG d   1       9.958   3.483  -4.371  0.00  0.00     0.065 H 
ATOM     14  H   LIG d   1      10.594   4.866   0.400  0.00  0.00     0.061 H 
ATOM     15  H   LIG d   1      11.998   5.796  -0.224  0.00  0.00     0.061 H 
ENDROOT
BRANCH   1  16
ATOM     16  C   LIG d   1       8.806   8.512  -0.983  0.00  0.00     0.039 C 
ATOM     17  H   LIG d   1       8.263   8.267  -0.059  0.00  0.00     0.037 H 
ATOM     18  H   LIG d   1       8.166   8.297  -1.851  0.00  0.00     0.037 H 
BRANCH  16  19
ATOM     19  C   LIG d   1       9.174   9.973  -0.978  0.00  0.00     0.164 C 
ATOM     20  O   LIG d   1       9.565  10.493   0.039  0.00  0.00    -0.295 OA
BRANCH  19  21
ATOM     21  C   LIG d   1       9.052  10.784  -2.242  0.00  0.00     0.110 C 
ATOM     22  H   LIG d   1       9.354  10.187  -3.114  0.00  0.00     0.067 H 
BRANCH  21  23
ATOM     23  C   LIG d   1       9.889  12.059  -2.113  0.00  0.00    -0.032 C 
ATOM     24  H   LIG d   1       9.807  12.449  -1.087  0.00  0.00     0.026 H 
ATOM     25  H   LIG d   1       9.518  12.814  -2.822  0.00  0.00     0.026 H 
ATOM     26  H   LIG d   1      10.941  11.831  -2.337  0.00  0.00     0.026 H 
ENDBRANCH  21  23
BRANCH  21  27
ATOM     27  O   LIG d   1       7.682  11.134  -2.452  0.00  0.00    -0.385 OA
ATOM     28  H   LIG d   1       7.324  11.366  -3.466  0.00  0.00     0.210 HD
ENDBRANCH  21  27
ENDBRANCH  19  21
ENDBRANCH  16  19
ENDBRANCH   1  16
BRANCH   7  29
ATOM     29  O   LIG d   1      10.942   3.135  -1.967  0.00  0.00    -0.506 OA
ATOM     30  H   LIG d   1      10.603   2.761  -0.990  0.00  0.00     0.292 HD
ENDBRANCH   7  29
TORSDOF 6
ENDMDL
MODEL 7
REMARK VINA RESULT:      -4.9      2.181      5.486
REMARK  6 active torsions:
REMARK  status: ('A' for Active; 'I' for Inactive)
REMARK    1  A    between atoms: C_1  and  C_2 
REMARK    2  A    between atoms: C_2  and  C_4 
REMARK    3  A    between atoms: C_2  and  O_18 
REMARK    4  A    between atoms: C_4  and  C_6 
REMARK    5  A    between atoms: C_6  and  C_7 
REMARK    6  A    between atoms: C_13  and  O_17 
ROOT
ATOM      1  C   LIG d   1       4.477  -1.168  -4.741  0.00  0.00     0.091 C 
ATOM      2  H   LIG d   1       5.358  -0.550  -4.515  0.00  0.00     0.065 H 
ATOM      3  C   LIG d   1       3.878  -0.844  -6.089  0.00  0.00    -0.010 A 
ATOM      4  C   LIG d   1       3.054   0.175  -6.526  0.00  0.00    -0.056 A 
ATOM      5  C   LIG d   1       2.654   0.222  -7.849  0.00  0.00    -0.058 A 
ATOM      6  C   LIG d   1       3.077  -0.749  -8.735  0.00  0.00    -0.020 A 
ATOM      7  C   LIG d   1       3.905  -1.774  -8.300  0.00  0.00     0.123 A 
ATOM      8  C   LIG d   1       4.303  -1.819  -6.974  0.00  0.00     0.025 A 
ATOM      9  C   LIG d   1       5.179  -2.777  -6.200  0.00  0.00     0.077 C 
ATOM     10  O   LIG d   1       4.885  -2.547  -4.809  0.00  0.00    -0.367 OA
ATOM     11  H   LIG d   1       2.723   0.936  -5.834  0.00  0.00     0.062 H 
ATOM     12  H   LIG d   1       2.011   1.020  -8.189  0.00  0.00     0.062 H 
ATOM     13  H   LIG d   1       2.763  -0.710  -9.769  0.00  0.00     0.065 H 
ATOM     14  H   LIG d   1       4.939  -3.810  -6.491  0.00  0.00     0.061 H 
ATOM     15  H   LIG d   1       6.236  -2.569  -6.423  0.00  0.00     0.061 H 
ENDROOT
BRANCH   1  16
ATOM     16  C   LIG d   1       3.430  -0.982  -3.640  0.00  0.00     0.039 C 
ATOM     17  H   LIG d   1       2.867  -1.918  -3.508  0.00  0.00     0.037 H 
ATOM     18  H   LIG d   1       2.739  -0.176  -3.923  0.00  0.00     0.037 H 
BRANCH  16  19
ATOM     19  C   LIG d   1       4.118  -0.624  -2.348  0.00  0.00     0.164 C 
ATOM     20  O   LIG d   1       4.463  -1.495  -1.586  0.00  0.00    -0.295 OA
BRANCH  19  21
ATOM     21  C   LIG d   1       4.376   0.821  -2.007  0.00  0.00     0.110 C 
ATOM     22  H   LIG d   1       4.296   0.981  -0.923  0.00  0.00     0.067 H 
BRANCH  21  23
ATOM     23  C   LIG d   1       3.402   1.710  -2.784  0.00  0.00    -0.032 C 
ATOM     24  H   LIG d   1       3.459   1.467  -3.856  0.00  0.00     0.026 H 
ATOM     25  H   LIG d   1       3.670   2.766  -2.633  0.00  0.00     0.026 H 
ATOM     26  H   LIG d   1       2.378   1.536  -2.422  0.00  0.00     0.026 H 
ENDBRANCH  21  23
BRANCH  21  27
ATOM     27  O   LIG d   1       5.717   1.162  -2.364  0.00  0.00    -0.385 OA
ATOM     28  H   LIG d   1       5.921   1.664  -3.321  0.00  0.00     0.210 HD
ENDBRANCH  21  27
ENDBRANCH  19  21
ENDBRANCH  16  19
ENDBRANCH   1  16
BRANCH   7  29
ATOM     29  O   LIG d   1       4.323  -2.731  -9.170  0.00  0.00    -0.506 OA
ATOM     30  H   LIG d   1       4.131  -3.792  -8.955  0.00  0.00     0.292 HD
ENDBRANCH   7  29
TORSDOF 6
ENDMDL
MODEL 8
REMARK VINA RESULT:      -4.7      2.788      3.730
REMARK  6 active torsions:
REMARK  status: ('A' for Active; 'I' for Inactive)
REMARK    1  A    between atoms: C_1  and  C_2 
REMARK    2  A    between atoms: C_2  and  C_4 
REMARK    3  A    between atoms: C_2  and  O_18 
REMARK    4  A    between atoms: C_4  and  C_6 
REMARK    5  A    between atoms: C_6  and  C_7 
REMARK    6  A    between atoms: C_13  and  O_17 
ROOT
ATOM      1  C   LIG d   1       6.497  -1.238  -4.753  0.00  0.00     0.091 C 
ATOM      2  H   LIG d   1       7.071  -0.495  -5.326  0.00  0.00     0.065 H 
ATOM      3  C   LIG d   1       5.481  -0.597  -3.838  0.00  0.00    -0.010 A 
ATOM      4  C   LIG d   1       5.585   0.013  -2.604  0.00  0.00    -0.056 A 
ATOM      5  C   LIG d   1       4.458   0.524  -1.986  0.00  0.00    -0.058 A 
ATOM      6  C   LIG d   1       3.226   0.425  -2.602  0.00  0.00    -0.020 A 
ATOM      7  C   LIG d   1       3.117  -0.188  -3.843  0.00  0.00     0.123 A 
ATOM      8  C   LIG d   1       4.247  -0.698  -4.459  0.00  0.00     0.025 A 
ATOM      9  C   LIG d   1       4.464  -1.406  -5.776  0.00  0.00     0.077 C 
ATOM     10  O   LIG d   1       5.747  -2.051  -5.673  0.00  0.00    -0.367 OA
ATOM     11  H   LIG d   1       6.548   0.092  -2.121  0.00  0.00     0.062 H 
ATOM     12  H   LIG d   1       4.542   1.001  -1.021  0.00  0.00     0.062 H 
ATOM     13  H   LIG d   1       2.346   0.824  -2.118  0.00  0.00     0.065 H 
ATOM     14  H   LIG d   1       3.661  -2.140  -5.935  0.00  0.00     0.061 H 
ATOM     15  H   LIG d   1       4.454  -0.669  -6.594  0.00  0.00     0.061 H 
ENDROOT
BRANCH   1  16
ATOM     16  C   LIG d   1       7.460  -2.109  -3.943  0.00  0.00     0.039 C 
ATOM     17  H   LIG d   1       7.025  -3.111  -3.811  0.00  0.00     0.037 H 
ATOM     18  H   LIG d   1       7.629  -1.651  -2.957  0.00  0.00     0.037 H 
BRANCH  16  19
ATOM     19  C   LIG d   1       8.772  -2.223  -4.675  0.00  0.00     0.164 C 
ATOM     20  O   LIG d   1       9.013  -1.486  -5.601  0.00  0.00    -0.295 OA
BRANCH  19  21
ATOM     21  C   LIG d   1       9.783  -3.257  -4.252  0.00  0.00     0.110 C 
ATOM     22  H   LIG d   1      10.037  -3.915  -5.095  0.00  0.00     0.067 H 
BRANCH  21  23
ATOM     23  C   LIG d   1       9.236  -4.048  -3.061  0.00  0.00    -0.032 C 
ATOM     24  H   LIG d   1      10.007  -4.744  -2.699  0.00  0.00     0.026 H 
ATOM     25  H   LIG d   1       8.348  -4.616  -3.376  0.00  0.00     0.026 H 
ATOM     26  H   LIG d   1       8.960  -3.353  -2.255  0.00  0.00     0.026 H 
ENDBRANCH  21  23
BRANCH  21  27
ATOM     27  O   LIG d   1      10.998  -2.606  -3.873  0.00  0.00    -0.385 OA
ATOM     28  H   LIG d   1      11.007  -1.522  -3.690  0.00  0.00     0.210 HD
ENDBRANCH  21  27
ENDBRANCH  19  21
ENDBRANCH  16  19
ENDBRANCH   1  16
BRANCH   7  29
ATOM     29  O   LIG d   1       1.905  -0.286  -4.451  0.00  0.00    -0.506 OA
ATOM     30  H   LIG d   1       1.787  -0.922  -5.341  0.00  0.00     0.292 HD
ENDBRANCH   7  29
TORSDOF 6
ENDMDL
MODEL 9
REMARK VINA RESULT:      -4.7     11.165     13.717
REMARK  6 active torsions:
REMARK  status: ('A' for Active; 'I' for Inactive)
REMARK    1  A    between atoms: C_1  and  C_2 
REMARK    2  A    between atoms: C_2  and  C_4 
REMARK    3  A    between atoms: C_2  and  O_18 
REMARK    4  A    between atoms: C_4  and  C_6 
REMARK    5  A    between atoms: C_6  and  C_7 
REMARK    6  A    between atoms: C_13  and  O_17 
ROOT
ATOM      1  C   LIG d   1       9.701   8.679  -2.409  0.00  0.00     0.091 C 
ATOM      2  H   LIG d   1       8.636   8.950  -2.351  0.00  0.00     0.065 H 
ATOM      3  C   LIG d   1      10.308   8.438  -1.048  0.00  0.00    -0.010 A 
ATOM      4  C   LIG d   1      10.763   9.291  -0.061  0.00  0.00    -0.056 A 
ATOM      5  C   LIG d   1      11.281   8.778   1.114  0.00  0.00    -0.058 A 
ATOM      6  C   LIG d   1      11.346   7.411   1.303  0.00  0.00    -0.020 A 
ATOM      7  C   LIG d   1      10.890   6.550   0.314  0.00  0.00     0.123 A 
ATOM      8  C   LIG d   1      10.371   7.068  -0.861  0.00  0.00     0.025 A 
ATOM      9  C   LIG d   1       9.805   6.419  -2.103  0.00  0.00     0.077 C 
ATOM     10  O   LIG d   1       9.821   7.436  -3.124  0.00  0.00    -0.367 OA
ATOM     11  H   LIG d   1      10.712  10.360  -0.207  0.00  0.00     0.062 H 
ATOM     12  H   LIG d   1      11.635   9.447   1.884  0.00  0.00     0.062 H 
ATOM     13  H   LIG d   1      11.752   7.011   2.221  0.00  0.00     0.065 H 
ATOM     14  H   LIG d   1      10.431   5.561  -2.387  0.00  0.00     0.061 H 
ATOM     15  H   LIG d   1       8.779   6.075  -1.902  0.00  0.00     0.061 H 
ENDROOT
BRANCH   1  16
ATOM     16  C   LIG d   1      10.466   9.784  -3.140  0.00  0.00     0.039 C 
ATOM     17  H   LIG d   1      11.253   9.334  -3.764  0.00  0.00     0.037 H 
ATOM     18  H   LIG d   1      10.925  10.461  -2.405  0.00  0.00     0.037 H 
BRANCH  16  19
ATOM     19  C   LIG d   1       9.516  10.560  -4.015  0.00  0.00     0.164 C 
ATOM     20  O   LIG d   1       9.254  10.162  -5.124  0.00  0.00    -0.295 OA
BRANCH  19  21
ATOM     21  C   LIG d   1       8.892  11.833  -3.504  0.00  0.00     0.110 C 
ATOM     22  H   LIG d   1       8.785  12.563  -4.319  0.00  0.00     0.067 H 
BRANCH  21  23
ATOM     23  C   LIG d   1       9.735  12.389  -2.354  0.00  0.00    -0.032 C 
ATOM     24  H   LIG d   1      10.802  12.287  -2.599  0.00  0.00     0.026 H 
ATOM     25  H   LIG d   1       9.515  11.826  -1.434  0.00  0.00     0.026 H 
ATOM     26  H   LIG d   1       9.492  13.450  -2.200  0.00  0.00     0.026 H 
ENDBRANCH  21  23
BRANCH  21  27
ATOM     27  O   LIG d   1       7.570  11.560  -3.035  0.00  0.00    -0.385 OA
ATOM     28  H   LIG d   1       6.712  11.667  -3.716  0.00  0.00     0.210 HD
ENDBRANCH  21  27
ENDBRANCH  19  21
ENDBRANCH  16  19
ENDBRANCH   1  16
BRANCH   7  29
ATOM     29  O   LIG d   1      10.952   5.205   0.498  0.00  0.00    -0.506 OA
ATOM     30  H   LIG d   1      11.841   4.646   0.173  0.00  0.00     0.292 HD
ENDBRANCH   7  29
TORSDOF 6
ENDMDL
