MODEL 1
REMARK VINA RESULT:      -5.0      0.000      0.000
REMARK  6 active torsions:
REMARK  status: ('A' for Active; 'I' for Inactive)
REMARK    1  A    between atoms: C_1  and  C_2 
REMARK    2  A    between atoms: C_6  and  C_13 
REMARK    3  A    between atoms: C_8  and  C_10 
REMARK    4  A    between atoms: C_10  and  C_12 
REMARK    5  A    between atoms: C_13  and  C_14 
REMARK    6  A    between atoms: C_13  and  C_15 
ROOT
ATOM      1  C   LIG d   1       4.324  -0.382  -6.200  0.00  0.00    -0.034 C 
ATOM      2  H   LIG d   1       5.024   0.306  -6.673  0.00  0.00     0.030 H 
ATOM      3  C   LIG d   1       2.896   0.188  -6.266  0.00  0.00    -0.050 C 
ATOM      4  C   LIG d   1       2.421   0.357  -4.809  0.00  0.00    -0.049 C 
ATOM      5  C   LIG d   1       3.732   0.469  -3.992  0.00  0.00    -0.029 C 
ATOM      6  H   LIG d   1       4.139   1.478  -4.051  0.00  0.00     0.031 H 
ATOM      7  C   LIG d   1       4.666  -0.540  -4.704  0.00  0.00     0.023 C 
ATOM      8  H   LIG d   1       4.498  -1.485  -4.422  0.00  0.00     0.038 H 
ATOM      9  H   LIG d   1       2.904   1.155  -6.770  0.00  0.00     0.027 H 
ATOM     10  H   LIG d   1       2.242  -0.504  -6.796  0.00  0.00     0.027 H 
ATOM     11  H   LIG d   1       1.828   1.265  -4.703  0.00  0.00     0.027 H 
ATOM     12  H   LIG d   1       1.846  -0.512  -4.491  0.00  0.00     0.027 H 
ENDROOT
BRANCH   5  13
ATOM     13  C   LIG d   1       3.500   0.065  -2.534  0.00  0.00    -0.043 C 
ATOM     14  H   LIG d   1       2.492   0.349  -2.234  0.00  0.00     0.030 H 
BRANCH  13  15
ATOM     15  C   LIG d   1       3.665  -1.449  -2.393  0.00  0.00    -0.062 C 
ATOM     16  H   LIG d   1       2.725  -1.942  -2.644  0.00  0.00     0.023 H 
ATOM     17  H   LIG d   1       4.448  -1.795  -3.069  0.00  0.00     0.023 H 
ATOM     18  H   LIG d   1       3.940  -1.692  -1.366  0.00  0.00     0.023 H 
ENDBRANCH  13  15
BRANCH  13  19
ATOM     19  C   LIG d   1       4.519   0.774  -1.641  0.00  0.00    -0.062 C 
ATOM     20  H   LIG d   1       4.009   1.513  -1.023  0.00  0.00     0.023 H 
ATOM     21  H   LIG d   1       5.013   0.043  -1.001  0.00  0.00     0.023 H 
ATOM     22  H   LIG d   1       5.263   1.272  -2.263  0.00  0.00     0.023 H 
ENDBRANCH  13  19
ENDBRANCH   5  13
BRANCH   7  23
ATOM     23  C   LIG d   1       6.111  -0.191  -4.454  0.00  0.00     0.134 C 
ATOM     24  O   LIG d   1       6.528   0.902  -4.752  0.00  0.00    -0.297 OA
BRANCH  23  25
ATOM     25  C   LIG d   1       7.035  -1.205  -3.831  0.00  0.00    -0.006 C 
ATOM     26  H   LIG d   1       7.589  -0.762  -3.127  0.00  0.00     0.031 H 
ATOM     27  H   LIG d   1       6.447  -2.005  -3.381  0.00  0.00     0.031 H 
ATOM     28  H   LIG d   1       7.688  -1.622  -4.598  0.00  0.00     0.031 H 
ENDBRANCH  23  25
ENDBRANCH   7  23
BRANCH   1  29
ATOM     29  C   LIG d   1       4.377  -1.743  -6.896  0.00  0.00    -0.062 C 
ATOM     30  H   LIG d   1       5.295  -2.260  -6.614  0.00  0.00     0.023 H 
ATOM     31  H   LIG d   1       4.359  -1.600  -7.977  0.00  0.00     0.023 H 
ATOM     32  H   LIG d   1       3.517  -2.340  -6.594  0.00  0.00     0.023 H 
ENDBRANCH   1  29
TORSDOF 6
ENDMDL
MODEL 2
REMARK VINA RESULT:      -4.8      1.398      2.820
REMARK  6 active torsions:
REMARK  status: ('A' for Active; 'I' for Inactive)
REMARK    1  A    between atoms: C_1  and  C_2 
REMARK    2  A    between atoms: C_6  and  C_13 
REMARK    3  A    between atoms: C_8  and  C_10 
REMARK    4  A    between atoms: C_10  and  C_12 
REMARK    5  A    between atoms: C_13  and  C_14 
REMARK    6  A    between atoms: C_13  and  C_15 
ROOT
ATOM      1  C   LIG d   1       4.760  -2.416  -4.512  0.00  0.00    -0.034 C 
ATOM      2  H   LIG d   1       4.084  -2.702  -5.317  0.00  0.00     0.030 H 
ATOM      3  C   LIG d   1       4.135  -2.762  -3.149  0.00  0.00    -0.050 C 
ATOM      4  C   LIG d   1       3.995  -1.434  -2.378  0.00  0.00    -0.049 C 
ATOM      5  C   LIG d   1       3.957  -0.353  -3.487  0.00  0.00    -0.029 C 
ATOM      6  H   LIG d   1       2.963  -0.286  -3.927  0.00  0.00     0.031 H 
ATOM      7  C   LIG d   1       4.978  -0.889  -4.522  0.00  0.00     0.023 C 
ATOM      8  H   LIG d   1       5.924  -0.686  -4.269  0.00  0.00     0.038 H 
ATOM      9  H   LIG d   1       3.154  -3.216  -3.293  0.00  0.00     0.027 H 
ATOM     10  H   LIG d   1       4.786  -3.446  -2.603  0.00  0.00     0.027 H 
ATOM     11  H   LIG d   1       3.069  -1.422  -1.804  0.00  0.00     0.027 H 
ATOM     12  H   LIG d   1       4.852  -1.280  -1.723  0.00  0.00     0.027 H 
ENDROOT
BRANCH   5  13
ATOM     13  C   LIG d   1       4.399   1.005  -2.937  0.00  0.00    -0.043 C 
ATOM     14  H   LIG d   1       5.307   1.325  -3.447  0.00  0.00     0.030 H 
BRANCH  13  15
ATOM     15  C   LIG d   1       3.293   2.035  -3.173  0.00  0.00    -0.062 C 
ATOM     16  H   LIG d   1       2.948   1.968  -4.206  0.00  0.00     0.023 H 
ATOM     17  H   LIG d   1       2.460   1.835  -2.498  0.00  0.00     0.023 H 
ATOM     18  H   LIG d   1       3.680   3.036  -2.983  0.00  0.00     0.023 H 
ENDBRANCH  13  15
BRANCH  13  19
ATOM     19  C   LIG d   1       4.671   0.883  -1.437  0.00  0.00    -0.062 C 
ATOM     20  H   LIG d   1       3.793   1.210  -0.880  0.00  0.00     0.023 H 
ATOM     21  H   LIG d   1       4.891  -0.156  -1.191  0.00  0.00     0.023 H 
ATOM     22  H   LIG d   1       5.524   1.506  -1.170  0.00  0.00     0.023 H 
ENDBRANCH  13  19
ENDBRANCH   5  13
BRANCH   7  23
ATOM     23  C   LIG d   1       4.691  -0.324  -5.889  0.00  0.00     0.134 C 
ATOM     24  O   LIG d   1       5.601   0.021  -6.603  0.00  0.00    -0.297 OA
BRANCH  23  25
ATOM     25  C   LIG d   1       3.268  -0.190  -6.366  0.00  0.00    -0.006 C 
ATOM     26  H   LIG d   1       3.193  -0.551  -7.296  0.00  0.00     0.031 H 
ATOM     27  H   LIG d   1       2.608  -0.752  -5.705  0.00  0.00     0.031 H 
ATOM     28  H   LIG d   1       2.979   0.860  -6.361  0.00  0.00     0.031 H 
ENDBRANCH  23  25
ENDBRANCH   7  23
BRANCH   1  29
ATOM     29  C   LIG d   1       6.100  -3.138  -4.673  0.00  0.00    -0.062 C 
ATOM     30  H   LIG d   1       6.601  -3.192  -3.706  0.00  0.00     0.023 H 
ATOM     31  H   LIG d   1       6.726  -2.589  -5.376  0.00  0.00     0.023 H 
ATOM     32  H   LIG d   1       5.927  -4.146  -5.050  0.00  0.00     0.023 H 
ENDBRANCH   1  29
TORSDOF 6
ENDMDL
MODEL 3
REMARK VINA RESULT:      -4.8      2.098      3.705
REMARK  6 active torsions:
REMARK  status: ('A' for Active; 'I' for Inactive)
REMARK    1  A    between atoms: C_1  and  C_2 
REMARK    2  A    between atoms: C_6  and  C_13 
REMARK    3  A    between atoms: C_8  and  C_10 
REMARK    4  A    between atoms: C_10  and  C_12 
REMARK    5  A    between atoms: C_13  and  C_14 
REMARK    6  A    between atoms: C_13  and  C_15 
ROOT
ATOM      1  C   LIG d   1       4.938   0.786  -2.488  0.00  0.00    -0.034 C 
ATOM      2  H   LIG d   1       5.664   1.367  -1.919  0.00  0.00     0.030 H 
ATOM      3  C   LIG d   1       4.369  -0.347  -1.617  0.00  0.00    -0.050 C 
ATOM      4  C   LIG d   1       4.732  -1.670  -2.321  0.00  0.00    -0.049 C 
ATOM      5  C   LIG d   1       5.965  -1.313  -3.187  0.00  0.00    -0.029 C 
ATOM      6  H   LIG d   1       6.872  -1.303  -2.583  0.00  0.00     0.031 H 
ATOM      7  C   LIG d   1       5.627   0.112  -3.692  0.00  0.00     0.023 C 
ATOM      8  H   LIG d   1       5.002   0.105  -4.473  0.00  0.00     0.038 H 
ATOM      9  H   LIG d   1       4.819  -0.316  -0.624  0.00  0.00     0.027 H 
ATOM     10  H   LIG d   1       3.286  -0.249  -1.538  0.00  0.00     0.027 H 
ATOM     11  H   LIG d   1       4.990  -2.434  -1.588  0.00  0.00     0.027 H 
ATOM     12  H   LIG d   1       3.908  -2.007  -2.949  0.00  0.00     0.027 H 
ENDROOT
BRANCH   5  13
ATOM     13  C   LIG d   1       6.106  -2.288  -4.359  0.00  0.00    -0.043 C 
ATOM     14  H   LIG d   1       6.134  -1.730  -5.294  0.00  0.00     0.030 H 
BRANCH  13  15
ATOM     15  C   LIG d   1       7.401  -3.087  -4.203  0.00  0.00    -0.062 C 
ATOM     16  H   LIG d   1       8.253  -2.451  -4.447  0.00  0.00     0.023 H 
ATOM     17  H   LIG d   1       7.492  -3.437  -3.174  0.00  0.00     0.023 H 
ATOM     18  H   LIG d   1       7.383  -3.944  -4.877  0.00  0.00     0.023 H 
ENDBRANCH  13  15
BRANCH  13  19
ATOM     19  C   LIG d   1       4.914  -3.246  -4.370  0.00  0.00    -0.062 C 
ATOM     20  H   LIG d   1       4.013  -2.709  -4.076  0.00  0.00     0.023 H 
ATOM     21  H   LIG d   1       4.784  -3.653  -5.373  0.00  0.00     0.023 H 
ATOM     22  H   LIG d   1       5.096  -4.061  -3.670  0.00  0.00     0.023 H 
ENDBRANCH  13  19
ENDBRANCH   5  13
BRANCH   7  23
ATOM     23  C   LIG d   1       6.886   0.853  -4.063  0.00  0.00     0.134 C 
ATOM     24  O   LIG d   1       7.388   1.621  -3.277  0.00  0.00    -0.297 OA
BRANCH  23  25
ATOM     25  C   LIG d   1       7.519   0.637  -5.412  0.00  0.00    -0.006 C 
ATOM     26  H   LIG d   1       8.498   0.836  -5.357  0.00  0.00     0.031 H 
ATOM     27  H   LIG d   1       7.376  -0.399  -5.720  0.00  0.00     0.031 H 
ATOM     28  H   LIG d   1       7.056   1.300  -6.143  0.00  0.00     0.031 H 
ENDBRANCH  23  25
ENDBRANCH   7  23
BRANCH   1  29
ATOM     29  C   LIG d   1       3.806   1.694  -2.973  0.00  0.00    -0.062 C 
ATOM     30  H   LIG d   1       3.709   2.545  -2.300  0.00  0.00     0.023 H 
ATOM     31  H   LIG d   1       2.871   1.133  -2.987  0.00  0.00     0.023 H 
ATOM     32  H   LIG d   1       4.030   2.049  -3.979  0.00  0.00     0.023 H 
ENDBRANCH   1  29
TORSDOF 6
ENDMDL
MODEL 4
REMARK VINA RESULT:      -4.8      1.862      2.698
REMARK  6 active torsions:
REMARK  status: ('A' for Active; 'I' for Inactive)
REMARK    1  A    between atoms: C_1  and  C_2 
REMARK    2  A    between atoms: C_6  and  C_13 
REMARK    3  A    between atoms: C_8  and  C_10 
REMARK    4  A    between atoms: C_10  and  C_12 
REMARK    5  A    between atoms: C_13  and  C_14 
REMARK    6  A    between atoms: C_13  and  C_15 
ROOT
ATOM      1  C   LIG d   1       6.076  -1.989  -3.988  0.00  0.00    -0.034 C 
ATOM      2  H   LIG d   1       6.291  -1.945  -5.056  0.00  0.00     0.030 H 
ATOM      3  C   LIG d   1       4.825  -2.850  -3.737  0.00  0.00    -0.050 C 
ATOM      4  C   LIG d   1       3.787  -1.932  -3.060  0.00  0.00    -0.049 C 
ATOM      5  C   LIG d   1       4.206  -0.504  -3.487  0.00  0.00    -0.029 C 
ATOM      6  H   LIG d   1       3.852  -0.281  -4.494  0.00  0.00     0.031 H 
ATOM      7  C   LIG d   1       5.753  -0.578  -3.455  0.00  0.00     0.023 C 
ATOM      8  H   LIG d   1       6.124  -0.478  -2.531  0.00  0.00     0.038 H 
ATOM      9  H   LIG d   1       4.433  -3.223  -4.683  0.00  0.00     0.027 H 
ATOM     10  H   LIG d   1       5.072  -3.684  -3.080  0.00  0.00     0.027 H 
ATOM     11  H   LIG d   1       2.784  -2.159  -3.422  0.00  0.00     0.027 H 
ATOM     12  H   LIG d   1       3.833  -2.036  -1.976  0.00  0.00     0.027 H 
ENDROOT
BRANCH   5  13
ATOM     13  C   LIG d   1       3.689   0.536  -2.490  0.00  0.00    -0.043 C 
ATOM     14  H   LIG d   1       2.760   0.180  -2.045  0.00  0.00     0.030 H 
BRANCH  13  15
ATOM     15  C   LIG d   1       4.730   0.752  -1.392  0.00  0.00    -0.062 C 
ATOM     16  H   LIG d   1       4.580   0.018  -0.599  0.00  0.00     0.023 H 
ATOM     17  H   LIG d   1       5.730   0.634  -1.810  0.00  0.00     0.023 H 
ATOM     18  H   LIG d   1       4.625   1.756  -0.982  0.00  0.00     0.023 H 
ENDBRANCH  13  15
BRANCH  13  19
ATOM     19  C   LIG d   1       3.433   1.856  -3.218  0.00  0.00    -0.062 C 
ATOM     20  H   LIG d   1       3.147   2.621  -2.496  0.00  0.00     0.023 H 
ATOM     21  H   LIG d   1       4.341   2.167  -3.736  0.00  0.00     0.023 H 
ATOM     22  H   LIG d   1       2.631   1.722  -3.944  0.00  0.00     0.023 H 
ENDBRANCH  13  19
ENDBRANCH   5  13
BRANCH   7  23
ATOM     23  C   LIG d   1       6.351   0.475  -4.353  0.00  0.00     0.134 C 
ATOM     24  O   LIG d   1       6.017   0.541  -5.512  0.00  0.00    -0.297 OA
BRANCH  23  25
ATOM     25  C   LIG d   1       7.366   1.445  -3.806  0.00  0.00    -0.006 C 
ATOM     26  H   LIG d   1       7.505   2.187  -4.462  0.00  0.00     0.031 H 
ATOM     27  H   LIG d   1       7.005   1.856  -2.864  0.00  0.00     0.031 H 
ATOM     28  H   LIG d   1       8.311   0.928  -3.639  0.00  0.00     0.031 H 
ENDBRANCH  23  25
ENDBRANCH   7  23
BRANCH   1  29
ATOM     29  C   LIG d   1       7.274  -2.572  -3.236  0.00  0.00    -0.062 C 
ATOM     30  H   LIG d   1       7.133  -2.431  -2.164  0.00  0.00     0.023 H 
ATOM     31  H   LIG d   1       8.185  -2.064  -3.553  0.00  0.00     0.023 H 
ATOM     32  H   LIG d   1       7.357  -3.637  -3.454  0.00  0.00     0.023 H 
ENDBRANCH   1  29
TORSDOF 6
ENDMDL
MODEL 5
REMARK VINA RESULT:      -4.7      0.954      3.404
REMARK  6 active torsions:
REMARK  status: ('A' for Active; 'I' for Inactive)
REMARK    1  A    between atoms: C_1  and  C_2 
REMARK    2  A    between atoms: C_6  and  C_13 
REMARK    3  A    between atoms: C_8  and  C_10 
REMARK    4  A    between atoms: C_10  and  C_12 
REMARK    5  A    between atoms: C_13  and  C_14 
REMARK    6  A    between atoms: C_13  and  C_15 
ROOT
ATOM      1  C   LIG d   1       4.339  -0.262  -2.414  0.00  0.00    -0.034 C 
ATOM      2  H   LIG d   1       4.744  -1.115  -1.870  0.00  0.00     0.030 H 
ATOM      3  C   LIG d   1       2.840  -0.474  -2.688  0.00  0.00    -0.050 C 
ATOM      4  C   LIG d   1       2.666  -0.473  -4.220  0.00  0.00    -0.049 C 
ATOM      5  C   LIG d   1       4.062  -0.870  -4.761  0.00  0.00    -0.029 C 
ATOM      6  H   LIG d   1       4.206  -1.948  -4.706  0.00  0.00     0.031 H 
ATOM      7  C   LIG d   1       5.024  -0.140  -3.791  0.00  0.00     0.023 C 
ATOM      8  H   LIG d   1       5.141   0.827  -4.020  0.00  0.00     0.038 H 
ATOM      9  H   LIG d   1       2.517  -1.430  -2.276  0.00  0.00     0.027 H 
ATOM     10  H   LIG d   1       2.261   0.337  -2.245  0.00  0.00     0.027 H 
ATOM     11  H   LIG d   1       1.919  -1.207  -4.520  0.00  0.00     0.027 H 
ATOM     12  H   LIG d   1       2.387   0.520  -4.572  0.00  0.00     0.027 H 
ENDROOT
BRANCH   5  13
ATOM     13  C   LIG d   1       4.251  -0.371  -6.195  0.00  0.00    -0.043 C 
ATOM     14  H   LIG d   1       5.024   0.397  -6.214  0.00  0.00     0.030 H 
BRANCH  13  15
ATOM     15  C   LIG d   1       4.670  -1.538  -7.090  0.00  0.00    -0.062 C 
ATOM     16  H   LIG d   1       4.935  -1.162  -8.079  0.00  0.00     0.023 H 
ATOM     17  H   LIG d   1       5.532  -2.042  -6.651  0.00  0.00     0.023 H 
ATOM     18  H   LIG d   1       3.844  -2.244  -7.179  0.00  0.00     0.023 H 
ENDBRANCH  13  15
BRANCH  13  19
ATOM     19  C   LIG d   1       2.935   0.217  -6.707  0.00  0.00    -0.062 C 
ATOM     20  H   LIG d   1       3.055   1.286  -6.876  0.00  0.00     0.023 H 
ATOM     21  H   LIG d   1       2.658  -0.271  -7.642  0.00  0.00     0.023 H 
ATOM     22  H   LIG d   1       2.151   0.052  -5.967  0.00  0.00     0.023 H 
ENDBRANCH  13  19
ENDBRANCH   5  13
BRANCH   7  23
ATOM     23  C   LIG d   1       6.370  -0.818  -3.772  0.00  0.00     0.134 C 
ATOM     24  O   LIG d   1       7.380  -0.155  -3.750  0.00  0.00    -0.297 OA
BRANCH  23  25
ATOM     25  C   LIG d   1       6.457  -2.322  -3.779  0.00  0.00    -0.006 C 
ATOM     26  H   LIG d   1       5.951  -2.681  -4.564  0.00  0.00     0.031 H 
ATOM     27  H   LIG d   1       7.501  -2.626  -3.851  0.00  0.00     0.031 H 
ATOM     28  H   LIG d   1       6.026  -2.716  -2.859  0.00  0.00     0.031 H 
ENDBRANCH  23  25
ENDBRANCH   7  23
BRANCH   1  29
ATOM     29  C   LIG d   1       4.549   1.021  -1.609  0.00  0.00    -0.062 C 
ATOM     30  H   LIG d   1       5.052   0.783  -0.671  0.00  0.00     0.023 H 
ATOM     31  H   LIG d   1       3.583   1.480  -1.396  0.00  0.00     0.023 H 
ATOM     32  H   LIG d   1       5.162   1.715  -2.183  0.00  0.00     0.023 H 
ENDBRANCH   1  29
TORSDOF 6
ENDMDL
MODEL 6
REMARK VINA RESULT:      -4.6      1.732      3.513
REMARK  6 active torsions:
REMARK  status: ('A' for Active; 'I' for Inactive)
REMARK    1  A    between atoms: C_1  and  C_2 
REMARK    2  A    between atoms: C_6  and  C_13 
REMARK    3  A    between atoms: C_8  and  C_10 
REMARK    4  A    between atoms: C_10  and  C_12 
REMARK    5  A    between atoms: C_13  and  C_14 
REMARK    6  A    between atoms: C_13  and  C_15 
ROOT
ATOM      1  C   LIG d   1       4.847   0.881  -2.705  0.00  0.00    -0.034 C 
ATOM      2  H   LIG d   1       5.685   1.509  -2.401  0.00  0.00     0.030 H 
ATOM      3  C   LIG d   1       4.386   0.009  -1.524  0.00  0.00    -0.050 C 
ATOM      4  C   LIG d   1       4.564  -1.459  -1.963  0.00  0.00    -0.049 C 
ATOM      5  C   LIG d   1       5.645  -1.395  -3.070  0.00  0.00    -0.029 C 
ATOM      6  H   LIG d   1       6.642  -1.330  -2.634  0.00  0.00     0.031 H 
ATOM      7  C   LIG d   1       5.290  -0.088  -3.821  0.00  0.00     0.023 C 
ATOM      8  H   LIG d   1       4.541  -0.210  -4.472  0.00  0.00     0.038 H 
ATOM      9  H   LIG d   1       5.000   0.214  -0.647  0.00  0.00     0.027 H 
ATOM     10  H   LIG d   1       3.337   0.208  -1.300  0.00  0.00     0.027 H 
ATOM     11  H   LIG d   1       4.909  -2.067  -1.128  0.00  0.00     0.027 H 
ATOM     12  H   LIG d   1       3.630  -1.854  -2.363  0.00  0.00     0.027 H 
ENDROOT
BRANCH   5  13
ATOM     13  C   LIG d   1       5.541  -2.605  -4.001  0.00  0.00    -0.043 C 
ATOM     14  H   LIG d   1       5.175  -3.465  -3.440  0.00  0.00     0.030 H 
BRANCH  13  15
ATOM     15  C   LIG d   1       4.570  -2.290  -5.140  0.00  0.00    -0.062 C 
ATOM     16  H   LIG d   1       4.634  -3.070  -5.899  0.00  0.00     0.023 H 
ATOM     17  H   LIG d   1       3.552  -2.248  -4.749  0.00  0.00     0.023 H 
ATOM     18  H   LIG d   1       4.828  -1.329  -5.583  0.00  0.00     0.023 H 
ENDBRANCH  13  15
BRANCH  13  19
ATOM     19  C   LIG d   1       6.920  -2.922  -4.580  0.00  0.00    -0.062 C 
ATOM     20  H   LIG d   1       7.623  -3.105  -3.768  0.00  0.00     0.023 H 
ATOM     21  H   LIG d   1       6.855  -3.809  -5.211  0.00  0.00     0.023 H 
ATOM     22  H   LIG d   1       7.267  -2.078  -5.177  0.00  0.00     0.023 H 
ENDBRANCH  13  19
ENDBRANCH   5  13
BRANCH   7  23
ATOM     23  C   LIG d   1       6.499   0.454  -4.540  0.00  0.00     0.134 C 
ATOM     24  O   LIG d   1       6.527   0.466  -5.747  0.00  0.00    -0.297 OA
BRANCH  23  25
ATOM     25  C   LIG d   1       7.671   0.980  -3.754  0.00  0.00    -0.006 C 
ATOM     26  H   LIG d   1       8.499   0.923  -4.312  0.00  0.00     0.031 H 
ATOM     27  H   LIG d   1       7.488   2.019  -3.481  0.00  0.00     0.031 H 
ATOM     28  H   LIG d   1       7.801   0.385  -2.851  0.00  0.00     0.031 H 
ENDBRANCH  23  25
ENDBRANCH   7  23
BRANCH   1  29
ATOM     29  C   LIG d   1       3.690   1.753  -3.197  0.00  0.00    -0.062 C 
ATOM     30  H   LIG d   1       2.794   1.141  -3.303  0.00  0.00     0.023 H 
ATOM     31  H   LIG d   1       3.948   2.189  -4.162  0.00  0.00     0.023 H 
ATOM     32  H   LIG d   1       3.503   2.549  -2.477  0.00  0.00     0.023 H 
ENDBRANCH   1  29
TORSDOF 6
ENDMDL
MODEL 7
REMARK VINA RESULT:      -4.5      1.347      3.314
REMARK  6 active torsions:
REMARK  status: ('A' for Active; 'I' for Inactive)
REMARK    1  A    between atoms: C_1  and  C_2 
REMARK    2  A    between atoms: C_6  and  C_13 
REMARK    3  A    between atoms: C_8  and  C_10 
REMARK    4  A    between atoms: C_10  and  C_12 
REMARK    5  A    between atoms: C_13  and  C_14 
REMARK    6  A    between atoms: C_13  and  C_15 
ROOT
ATOM      1  C   LIG d   1       3.295   0.243  -3.600  0.00  0.00    -0.034 C 
ATOM      2  H   LIG d   1       2.846   0.825  -4.405  0.00  0.00     0.030 H 
ATOM      3  C   LIG d   1       3.701   1.172  -2.441  0.00  0.00    -0.050 C 
ATOM      4  C   LIG d   1       5.227   1.025  -2.273  0.00  0.00    -0.049 C 
ATOM      5  C   LIG d   1       5.716   0.532  -3.657  0.00  0.00    -0.029 C 
ATOM      6  H   LIG d   1       5.802   1.364  -4.355  0.00  0.00     0.031 H 
ATOM      7  C   LIG d   1       4.588  -0.436  -4.094  0.00  0.00     0.023 C 
ATOM      8  H   LIG d   1       4.672  -1.339  -3.673  0.00  0.00     0.038 H 
ATOM      9  H   LIG d   1       3.450   2.204  -2.685  0.00  0.00     0.027 H 
ATOM     10  H   LIG d   1       3.192   0.870  -1.525  0.00  0.00     0.027 H 
ATOM     11  H   LIG d   1       5.678   1.986  -2.029  0.00  0.00     0.027 H 
ATOM     12  H   LIG d   1       5.456   0.289  -1.502  0.00  0.00     0.027 H 
ENDROOT
BRANCH   5  13
ATOM     13  C   LIG d   1       7.051  -0.207  -3.529  0.00  0.00    -0.043 C 
ATOM     14  H   LIG d   1       7.635   0.235  -2.723  0.00  0.00     0.030 H 
BRANCH  13  15
ATOM     15  C   LIG d   1       6.789  -1.682  -3.220  0.00  0.00    -0.062 C 
ATOM     16  H   LIG d   1       5.765  -1.803  -2.866  0.00  0.00     0.023 H 
ATOM     17  H   LIG d   1       6.934  -2.275  -4.123  0.00  0.00     0.023 H 
ATOM     18  H   LIG d   1       7.482  -2.021  -2.449  0.00  0.00     0.023 H 
ENDBRANCH  13  15
BRANCH  13  19
ATOM     19  C   LIG d   1       7.824  -0.091  -4.844  0.00  0.00    -0.062 C 
ATOM     20  H   LIG d   1       8.500  -0.940  -4.945  0.00  0.00     0.023 H 
ATOM     21  H   LIG d   1       7.123  -0.083  -5.679  0.00  0.00     0.023 H 
ATOM     22  H   LIG d   1       8.400   0.834  -4.846  0.00  0.00     0.023 H 
ENDBRANCH  13  19
ENDBRANCH   5  13
BRANCH   7  23
ATOM     23  C   LIG d   1       4.568  -0.580  -5.594  0.00  0.00     0.134 C 
ATOM     24  O   LIG d   1       4.450   0.397  -6.293  0.00  0.00    -0.297 OA
BRANCH  23  25
ATOM     25  C   LIG d   1       4.696  -1.943  -6.222  0.00  0.00    -0.006 C 
ATOM     26  H   LIG d   1       4.125  -1.988  -7.042  0.00  0.00     0.031 H 
ATOM     27  H   LIG d   1       5.736  -2.123  -6.494  0.00  0.00     0.031 H 
ATOM     28  H   LIG d   1       4.371  -2.704  -5.513  0.00  0.00     0.031 H 
ENDBRANCH  23  25
ENDBRANCH   7  23
BRANCH   1  29
ATOM     29  C   LIG d   1       2.305  -0.813  -3.103  0.00  0.00    -0.062 C 
ATOM     30  H   LIG d   1       1.378  -0.737  -3.670  0.00  0.00     0.023 H 
ATOM     31  H   LIG d   1       2.098  -0.648  -2.045  0.00  0.00     0.023 H 
ATOM     32  H   LIG d   1       2.734  -1.805  -3.239  0.00  0.00     0.023 H 
ENDBRANCH   1  29
TORSDOF 6
ENDMDL
MODEL 8
REMARK VINA RESULT:      -4.4      1.574      4.183
REMARK  6 active torsions:
REMARK  status: ('A' for Active; 'I' for Inactive)
REMARK    1  A    between atoms: C_1  and  C_2 
REMARK    2  A    between atoms: C_6  and  C_13 
REMARK    3  A    between atoms: C_8  and  C_10 
REMARK    4  A    between atoms: C_10  and  C_12 
REMARK    5  A    between atoms: C_13  and  C_14 
REMARK    6  A    between atoms: C_13  and  C_15 
ROOT
ATOM      1  C   LIG d   1       4.732  -1.200  -2.805  0.00  0.00    -0.034 C 
ATOM      2  H   LIG d   1       4.879  -0.408  -2.071  0.00  0.00     0.030 H 
ATOM      3  C   LIG d   1       6.084  -1.839  -3.170  0.00  0.00    -0.050 C 
ATOM      4  C   LIG d   1       6.283  -1.616  -4.683  0.00  0.00    -0.049 C 
ATOM      5  C   LIG d   1       5.401  -0.385  -5.005  0.00  0.00    -0.029 C 
ATOM      6  H   LIG d   1       5.910   0.538  -4.730  0.00  0.00     0.031 H 
ATOM      7  C   LIG d   1       4.157  -0.611  -4.110  0.00  0.00     0.023 C 
ATOM      8  H   LIG d   1       3.509  -1.259  -4.510  0.00  0.00     0.038 H 
ATOM      9  H   LIG d   1       6.887  -1.356  -2.613  0.00  0.00     0.027 H 
ATOM     10  H   LIG d   1       6.065  -2.906  -2.948  0.00  0.00     0.027 H 
ATOM     11  H   LIG d   1       7.329  -1.403  -4.903  0.00  0.00     0.027 H 
ATOM     12  H   LIG d   1       5.945  -2.486  -5.245  0.00  0.00     0.027 H 
ENDROOT
BRANCH   5  13
ATOM     13  C   LIG d   1       5.012  -0.367  -6.485  0.00  0.00    -0.043 C 
ATOM     14  H   LIG d   1       4.241   0.385  -6.649  0.00  0.00     0.030 H 
BRANCH  13  15
ATOM     15  C   LIG d   1       6.241  -0.029  -7.331  0.00  0.00    -0.062 C 
ATOM     16  H   LIG d   1       6.489   1.026  -7.206  0.00  0.00     0.023 H 
ATOM     17  H   LIG d   1       7.084  -0.641  -7.009  0.00  0.00     0.023 H 
ATOM     18  H   LIG d   1       6.027  -0.230  -8.381  0.00  0.00     0.023 H 
ENDBRANCH  13  15
BRANCH  13  19
ATOM     19  C   LIG d   1       4.479  -1.743  -6.888  0.00  0.00    -0.062 C 
ATOM     20  H   LIG d   1       4.796  -2.485  -6.156  0.00  0.00     0.023 H 
ATOM     21  H   LIG d   1       3.390  -1.713  -6.927  0.00  0.00     0.023 H 
ATOM     22  H   LIG d   1       4.869  -2.011  -7.870  0.00  0.00     0.023 H 
ENDBRANCH  13  19
ENDBRANCH   5  13
BRANCH   7  23
ATOM     23  C   LIG d   1       3.458   0.695  -3.836  0.00  0.00     0.134 C 
ATOM     24  O   LIG d   1       2.709   1.164  -4.659  0.00  0.00    -0.297 OA
BRANCH  23  25
ATOM     25  C   LIG d   1       3.693   1.418  -2.535  0.00  0.00    -0.006 C 
ATOM     26  H   LIG d   1       2.865   1.917  -2.277  0.00  0.00     0.031 H 
ATOM     27  H   LIG d   1       3.938   0.695  -1.756  0.00  0.00     0.031 H 
ATOM     28  H   LIG d   1       4.518   2.120  -2.651  0.00  0.00     0.031 H 
ENDBRANCH  23  25
ENDBRANCH   7  23
BRANCH   1  29
ATOM     29  C   LIG d   1       3.784  -2.263  -2.247  0.00  0.00    -0.062 C 
ATOM     30  H   LIG d   1       2.781  -2.098  -2.641  0.00  0.00     0.023 H 
ATOM     31  H   LIG d   1       3.761  -2.195  -1.159  0.00  0.00     0.023 H 
ATOM     32  H   LIG d   1       4.132  -3.252  -2.542  0.00  0.00     0.023 H 
ENDBRANCH   1  29
TORSDOF 6
ENDMDL
MODEL 9
REMARK VINA RESULT:      -4.3      2.146      4.185
REMARK  6 active torsions:
REMARK  status: ('A' for Active; 'I' for Inactive)
REMARK    1  A    between atoms: C_1  and  C_2 
REMARK    2  A    between atoms: C_6  and  C_13 
REMARK    3  A    between atoms: C_8  and  C_10 
REMARK    4  A    between atoms: C_10  and  C_12 
REMARK    5  A    between atoms: C_13  and  C_14 
REMARK    6  A    between atoms: C_13  and  C_15 
ROOT
ATOM      1  C   LIG d   1       5.310  -1.369  -3.313  0.00  0.00    -0.034 C 
ATOM      2  H   LIG d   1       4.984  -1.394  -2.273  0.00  0.00     0.030 H 
ATOM      3  C   LIG d   1       6.668  -2.077  -3.458  0.00  0.00    -0.050 C 
ATOM      4  C   LIG d   1       7.661  -1.024  -3.992  0.00  0.00    -0.049 C 
ATOM      5  C   LIG d   1       7.043   0.330  -3.566  0.00  0.00    -0.029 C 
ATOM      6  H   LIG d   1       7.266   0.546  -2.522  0.00  0.00     0.031 H 
ATOM      7  C   LIG d   1       5.525   0.091  -3.764  0.00  0.00     0.023 C 
ATOM      8  H   LIG d   1       5.241   0.190  -4.718  0.00  0.00     0.038 H 
ATOM      9  H   LIG d   1       7.002  -2.447  -2.488  0.00  0.00     0.027 H 
ATOM     10  H   LIG d   1       6.584  -2.904  -4.164  0.00  0.00     0.027 H 
ATOM     11  H   LIG d   1       8.641  -1.157  -3.534  0.00  0.00     0.027 H 
ATOM     12  H   LIG d   1       7.736  -1.086  -5.077  0.00  0.00     0.027 H 
ENDROOT
BRANCH   5  13
ATOM     13  C   LIG d   1       7.539   1.462  -4.469  0.00  0.00    -0.043 C 
ATOM     14  H   LIG d   1       6.715   2.142  -4.685  0.00  0.00     0.030 H 
BRANCH  13  15
ATOM     15  C   LIG d   1       8.658   2.227  -3.761  0.00  0.00    -0.062 C 
ATOM     16  H   LIG d   1       8.364   2.427  -2.730  0.00  0.00     0.023 H 
ATOM     17  H   LIG d   1       9.569   1.628  -3.768  0.00  0.00     0.023 H 
ATOM     18  H   LIG d   1       8.839   3.169  -4.278  0.00  0.00     0.023 H 
ENDBRANCH  13  15
BRANCH  13  19
ATOM     19  C   LIG d   1       8.072   0.873  -5.776  0.00  0.00    -0.062 C 
ATOM     20  H   LIG d   1       8.334   1.680  -6.460  0.00  0.00     0.023 H 
ATOM     21  H   LIG d   1       8.956   0.270  -5.569  0.00  0.00     0.023 H 
ATOM     22  H   LIG d   1       7.305   0.246  -6.232  0.00  0.00     0.023 H 
ENDBRANCH  13  19
ENDBRANCH   5  13
BRANCH   7  23
ATOM     23  C   LIG d   1       4.725   1.033  -2.901  0.00  0.00     0.134 C 
ATOM     24  O   LIG d   1       4.154   1.972  -3.401  0.00  0.00    -0.297 OA
BRANCH  23  25
ATOM     25  C   LIG d   1       4.635   0.802  -1.415  0.00  0.00    -0.006 C 
ATOM     26  H   LIG d   1       3.675   0.803  -1.135  0.00  0.00     0.031 H 
ATOM     27  H   LIG d   1       5.083  -0.160  -1.168  0.00  0.00     0.031 H 
ATOM     28  H   LIG d   1       5.166   1.595  -0.890  0.00  0.00     0.031 H 
ENDBRANCH  23  25
ENDBRANCH   7  23
BRANCH   1  29
ATOM     29  C   LIG d   1       4.268  -2.045  -4.205  0.00  0.00    -0.062 C 
ATOM     30  H   LIG d   1       4.023  -1.387  -5.039  0.00  0.00     0.023 H 
ATOM     31  H   LIG d   1       3.367  -2.246  -3.625  0.00  0.00     0.023 H 
ATOM     32  H   LIG d   1       4.670  -2.983  -4.588  0.00  0.00     0.023 H 
ENDBRANCH   1  29
TORSDOF 6
ENDMDL
MODEL 10
REMARK VINA RESULT:      -4.2      1.823      3.897
REMARK  6 active torsions:
REMARK  status: ('A' for Active; 'I' for Inactive)
REMARK    1  A    between atoms: C_1  and  C_2 
REMARK    2  A    between atoms: C_6  and  C_13 
REMARK    3  A    between atoms: C_8  and  C_10 
REMARK    4  A    between atoms: C_10  and  C_12 
REMARK    5  A    between atoms: C_13  and  C_14 
REMARK    6  A    between atoms: C_13  and  C_15 
ROOT
ATOM      1  C   LIG d   1       6.845  -1.532  -3.590  0.00  0.00    -0.034 C 
ATOM      2  H   LIG d   1       6.890  -1.172  -2.562  0.00  0.00     0.030 H 
ATOM      3  C   LIG d   1       7.482  -0.501  -4.539  0.00  0.00    -0.050 C 
ATOM      4  C   LIG d   1       6.378  -0.067  -5.524  0.00  0.00    -0.049 C 
ATOM      5  C   LIG d   1       5.058  -0.363  -4.769  0.00  0.00    -0.029 C 
ATOM      6  H   LIG d   1       4.834   0.431  -4.057  0.00  0.00     0.031 H 
ATOM      7  C   LIG d   1       5.376  -1.687  -4.032  0.00  0.00     0.023 C 
ATOM      8  H   LIG d   1       5.289  -2.488  -4.625  0.00  0.00     0.038 H 
ATOM      9  H   LIG d   1       7.836   0.360  -3.972  0.00  0.00     0.027 H 
ATOM     10  H   LIG d   1       8.311  -0.957  -5.082  0.00  0.00     0.027 H 
ATOM     11  H   LIG d   1       6.461   0.997  -5.744  0.00  0.00     0.027 H 
ATOM     12  H   LIG d   1       6.433  -0.652  -6.442  0.00  0.00     0.027 H 
ENDROOT
BRANCH   5  13
ATOM     13  C   LIG d   1       3.900  -0.549  -5.753  0.00  0.00    -0.043 C 
ATOM     14  H   LIG d   1       3.582  -1.591  -5.746  0.00  0.00     0.030 H 
BRANCH  13  15
ATOM     15  C   LIG d   1       2.730   0.344  -5.338  0.00  0.00    -0.062 C 
ATOM     16  H   LIG d   1       2.529   0.208  -4.275  0.00  0.00     0.023 H 
ATOM     17  H   LIG d   1       2.983   1.387  -5.529  0.00  0.00     0.023 H 
ATOM     18  H   LIG d   1       1.844   0.074  -5.913  0.00  0.00     0.023 H 
ENDBRANCH  13  15
BRANCH  13  19
ATOM     19  C   LIG d   1       4.361  -0.165  -7.160  0.00  0.00    -0.062 C 
ATOM     20  H   LIG d   1       3.967  -0.881  -7.880  0.00  0.00     0.023 H 
ATOM     21  H   LIG d   1       3.996   0.833  -7.402  0.00  0.00     0.023 H 
ATOM     22  H   LIG d   1       5.451  -0.171  -7.200  0.00  0.00     0.023 H 
ENDBRANCH  13  19
ENDBRANCH   5  13
BRANCH   7  23
ATOM     23  C   LIG d   1       4.479  -1.851  -2.832  0.00  0.00     0.134 C 
ATOM     24  O   LIG d   1       3.814  -2.852  -2.707  0.00  0.00    -0.297 OA
BRANCH  23  25
ATOM     25  C   LIG d   1       4.411  -0.768  -1.787  0.00  0.00    -0.006 C 
ATOM     26  H   LIG d   1       3.774  -0.057  -2.085  0.00  0.00     0.031 H 
ATOM     27  H   LIG d   1       4.066  -1.192  -0.844  0.00  0.00     0.031 H 
ATOM     28  H   LIG d   1       5.401  -0.334  -1.648  0.00  0.00     0.031 H 
ENDBRANCH  23  25
ENDBRANCH   7  23
BRANCH   1  29
ATOM     29  C   LIG d   1       7.572  -2.873  -3.707  0.00  0.00    -0.062 C 
ATOM     30  H   LIG d   1       8.516  -2.823  -3.164  0.00  0.00     0.023 H 
ATOM     31  H   LIG d   1       7.769  -3.089  -4.757  0.00  0.00     0.023 H 
ATOM     32  H   LIG d   1       6.950  -3.662  -3.284  0.00  0.00     0.023 H 
ENDBRANCH   1  29
TORSDOF 6
ENDMDL
