MODEL 1
REMARK VINA RESULT:      -6.6      0.000      0.000
REMARK  8 active torsions:
REMARK  status: ('A' for Active; 'I' for Inactive)
REMARK    1  A    between atoms: C_1  and  C_2 
REMARK    2  A    between atoms: C_2  and  O_3 
REMARK    3  A    between atoms: O_3  and  P_4 
REMARK    4  A    between atoms: P_4  and  N_6 
REMARK    5  A    between atoms: P_4  and  O_25 
REMARK    6  A    between atoms: C_7  and  N_9 
REMARK    7  A    between atoms: O_25  and  C_26 
REMARK    8  A    between atoms: C_26  and  C_27 
ROOT
ATOM      1  N   LIG d   1       3.533  -0.150  -4.183  0.00  0.00    -0.338 N 
ATOM      2  C   LIG d   1       3.309  -1.391  -3.433  0.00  0.00     0.016 C 
ATOM      3  C   LIG d   1       4.360  -1.545  -2.342  0.00  0.00    -0.007 C 
ATOM      4  H   LIG d   1       4.048  -2.355  -1.683  0.00  0.00     0.033 H 
ATOM      5  C   LIG d   1       4.474  -0.271  -1.506  0.00  0.00    -0.037 C 
ATOM      6  C   LIG d   1       4.858   0.884  -2.435  0.00  0.00     0.016 C 
ATOM      7  H   LIG d   1       5.029   1.792  -1.855  0.00  0.00     0.038 H 
ATOM      8  C   LIG d   1       3.713   1.103  -3.432  0.00  0.00     0.020 C 
ATOM      9  C   LIG d   1       6.101   0.522  -3.212  0.00  0.00     0.027 C 
ATOM     10  C   LIG d   1       6.898   1.542  -3.631  0.00  0.00    -0.042 C 
ATOM     11  C   LIG d   1       8.030   1.285  -4.412  0.00  0.00    -0.055 C 
ATOM     12  C   LIG d   1       8.307  -0.002  -4.769  0.00  0.00     0.003 C 
ATOM     13  C   LIG d   1       7.464  -1.029  -4.324  0.00  0.00     0.252 C 
ATOM     14  O   LIG d   1       7.664  -2.177  -4.690  0.00  0.00    -0.268 OA
ATOM     15  N   LIG d   1       6.428  -0.761  -3.492  0.00  0.00    -0.312 N 
ATOM     16  C   LIG d   1       5.722  -1.897  -2.911  0.00  0.00     0.031 C 
ATOM     17  H   LIG d   1       2.318  -1.364  -2.978  0.00  0.00     0.047 H 
ATOM     18  H   LIG d   1       3.368  -2.241  -4.113  0.00  0.00     0.047 H 
ATOM     19  H   LIG d   1       3.517  -0.057  -1.030  0.00  0.00     0.028 H 
ATOM     20  H   LIG d   1       5.243  -0.399  -0.744  0.00  0.00     0.028 H 
ATOM     21  H   LIG d   1       3.970   1.911  -4.118  0.00  0.00     0.047 H 
ATOM     22  H   LIG d   1       2.798   1.347  -2.895  0.00  0.00     0.047 H 
ATOM     23  H   LIG d   1       6.655   2.557  -3.358  0.00  0.00     0.064 H 
ATOM     24  H   LIG d   1       8.674   2.093  -4.726  0.00  0.00     0.062 H 
ATOM     25  H   LIG d   1       9.165  -0.226  -5.386  0.00  0.00     0.067 H 
ATOM     26  H   LIG d   1       6.346  -2.295  -2.110  0.00  0.00     0.050 H 
ATOM     27  H   LIG d   1       5.599  -2.665  -3.673  0.00  0.00     0.050 H 
ENDROOT
BRANCH   1  28
ATOM     28  C   LIG d   1       3.580  -0.159  -5.559  0.00  0.00    -0.039 C 
ATOM     29  N   LIG d   1       3.035   0.814  -6.236  0.00  0.00    -0.195 NA
ATOM     30  S   LIG d   1       4.376  -1.484  -6.404  0.00  0.00    -0.724 SA
BRANCH  29  31
ATOM     31  P   LIG d   1       3.230   0.890  -7.862  0.00  0.00     0.456 P 
ATOM     32  O   LIG d   1       2.614   2.134  -8.374  0.00  0.00    -0.232 OA
BRANCH  31  33
ATOM     33  O   LIG d   1       2.519  -0.382  -8.548  0.00  0.00    -0.291 OA
BRANCH  33  34
ATOM     34  C   LIG d   1       2.749  -0.765  -9.904  0.00  0.00     0.056 C 
ATOM     35  H   LIG d   1       3.229  -1.744  -9.930  0.00  0.00     0.056 H 
ATOM     36  H   LIG d   1       3.397  -0.031 -10.384  0.00  0.00     0.056 H 
BRANCH  34  37
ATOM     37  C   LIG d   1       1.415  -0.831 -10.650  0.00  0.00    -0.041 C 
ATOM     38  H   LIG d   1       0.709  -1.433 -10.079  0.00  0.00     0.025 H 
ATOM     39  H   LIG d   1       1.018   0.177 -10.772  0.00  0.00     0.025 H 
ATOM     40  H   LIG d   1       1.568  -1.283 -11.630  0.00  0.00     0.025 H 
ENDBRANCH  34  37
ENDBRANCH  33  34
ENDBRANCH  31  33
BRANCH  31  41
ATOM     41  O   LIG d   1       4.800   0.883  -8.216  0.00  0.00    -0.291 OA
BRANCH  41  42
ATOM     42  C   LIG d   1       5.409   1.853  -9.070  0.00  0.00     0.056 C 
ATOM     43  H   LIG d   1       5.275   1.556 -10.110  0.00  0.00     0.056 H 
ATOM     44  H   LIG d   1       4.945   2.825  -8.906  0.00  0.00     0.056 H 
BRANCH  42  45
ATOM     45  C   LIG d   1       6.904   1.944  -8.754  0.00  0.00    -0.041 C 
ATOM     46  H   LIG d   1       7.091   1.534  -7.761  0.00  0.00     0.025 H 
ATOM     47  H   LIG d   1       7.467   1.376  -9.493  0.00  0.00     0.025 H 
ATOM     48  H   LIG d   1       7.218   2.988  -8.781  0.00  0.00     0.025 H 
ENDBRANCH  42  45
ENDBRANCH  41  42
ENDBRANCH  31  41
ENDBRANCH  29  31
ENDBRANCH   1  28
TORSDOF 8
ENDMDL
MODEL 2
REMARK VINA RESULT:      -6.5      0.796      2.117
REMARK  8 active torsions:
REMARK  status: ('A' for Active; 'I' for Inactive)
REMARK    1  A    between atoms: C_1  and  C_2 
REMARK    2  A    between atoms: C_2  and  O_3 
REMARK    3  A    between atoms: O_3  and  P_4 
REMARK    4  A    between atoms: P_4  and  N_6 
REMARK    5  A    between atoms: P_4  and  O_25 
REMARK    6  A    between atoms: C_7  and  N_9 
REMARK    7  A    between atoms: O_25  and  C_26 
REMARK    8  A    between atoms: C_26  and  C_27 
ROOT
ATOM      1  N   LIG d   1       3.518  -0.104  -4.061  0.00  0.00    -0.338 N 
ATOM      2  C   LIG d   1       3.270  -1.250  -3.178  0.00  0.00     0.016 C 
ATOM      3  C   LIG d   1       4.333  -1.317  -2.091  0.00  0.00    -0.007 C 
ATOM      4  H   LIG d   1       4.009  -2.042  -1.343  0.00  0.00     0.033 H 
ATOM      5  C   LIG d   1       4.498   0.036  -1.399  0.00  0.00    -0.037 C 
ATOM      6  C   LIG d   1       4.900   1.071  -2.452  0.00  0.00     0.016 C 
ATOM      7  H   LIG d   1       5.107   2.030  -1.976  0.00  0.00     0.038 H 
ATOM      8  C   LIG d   1       3.746   1.216  -3.452  0.00  0.00     0.020 C 
ATOM      9  C   LIG d   1       6.119   0.589  -3.201  0.00  0.00     0.027 C 
ATOM     10  C   LIG d   1       6.939   1.533  -3.738  0.00  0.00    -0.042 C 
ATOM     11  C   LIG d   1       8.050   1.160  -4.502  0.00  0.00    -0.055 C 
ATOM     12  C   LIG d   1       8.284  -0.166  -4.721  0.00  0.00     0.003 C 
ATOM     13  C   LIG d   1       7.419  -1.114  -4.156  0.00  0.00     0.252 C 
ATOM     14  O   LIG d   1       7.579  -2.300  -4.398  0.00  0.00    -0.268 OA
ATOM     15  N   LIG d   1       6.404  -0.726  -3.345  0.00  0.00    -0.312 N 
ATOM     16  C   LIG d   1       5.676  -1.770  -2.635  0.00  0.00     0.031 C 
ATOM     17  H   LIG d   1       2.288  -1.144  -2.716  0.00  0.00     0.047 H 
ATOM     18  H   LIG d   1       3.293  -2.169  -3.763  0.00  0.00     0.047 H 
ATOM     19  H   LIG d   1       3.556   0.329  -0.936  0.00  0.00     0.028 H 
ATOM     20  H   LIG d   1       5.276  -0.033  -0.637  0.00  0.00     0.028 H 
ATOM     21  H   LIG d   1       4.015   1.938  -4.225  0.00  0.00     0.047 H 
ATOM     22  H   LIG d   1       2.848   1.545  -2.933  0.00  0.00     0.047 H 
ATOM     23  H   LIG d   1       6.730   2.579  -3.574  0.00  0.00     0.064 H 
ATOM     24  H   LIG d   1       8.712   1.908  -4.910  0.00  0.00     0.062 H 
ATOM     25  H   LIG d   1       9.125  -0.482  -5.321  0.00  0.00     0.067 H 
ATOM     26  H   LIG d   1       6.300  -2.099  -1.805  0.00  0.00     0.050 H 
ATOM     27  H   LIG d   1       5.517  -2.612  -3.308  0.00  0.00     0.050 H 
ENDROOT
BRANCH   1  28
ATOM     28  C   LIG d   1       3.542  -0.262  -5.428  0.00  0.00    -0.039 C 
ATOM     29  N   LIG d   1       3.017   0.649  -6.199  0.00  0.00    -0.195 NA
ATOM     30  S   LIG d   1       4.283  -1.696  -6.135  0.00  0.00    -0.724 SA
BRANCH  29  31
ATOM     31  P   LIG d   1       3.188   0.543  -7.826  0.00  0.00     0.456 P 
ATOM     32  O   LIG d   1       4.542   0.041  -8.149  0.00  0.00    -0.232 OA
BRANCH  31  33
ATOM     33  O   LIG d   1       2.986   2.001  -8.482  0.00  0.00    -0.291 OA
BRANCH  33  34
ATOM     34  C   LIG d   1       3.886   2.553  -9.445  0.00  0.00     0.056 C 
ATOM     35  H   LIG d   1       4.898   2.547  -9.041  0.00  0.00     0.056 H 
ATOM     36  H   LIG d   1       3.591   3.578  -9.671  0.00  0.00     0.056 H 
BRANCH  34  37
ATOM     37  C   LIG d   1       3.842   1.715 -10.724  0.00  0.00    -0.041 C 
ATOM     38  H   LIG d   1       3.037   2.073 -11.365  0.00  0.00     0.025 H 
ATOM     39  H   LIG d   1       4.792   1.806 -11.250  0.00  0.00     0.025 H 
ATOM     40  H   LIG d   1       3.666   0.670 -10.469  0.00  0.00     0.025 H 
ENDBRANCH  34  37
ENDBRANCH  33  34
ENDBRANCH  31  33
BRANCH  31  41
ATOM     41  O   LIG d   1       2.085  -0.469  -8.418  0.00  0.00    -0.291 OA
BRANCH  41  42
ATOM     42  C   LIG d   1       2.355  -1.372  -9.492  0.00  0.00     0.056 C 
ATOM     43  H   LIG d   1       3.386  -1.248  -9.821  0.00  0.00     0.056 H 
ATOM     44  H   LIG d   1       2.202  -2.397  -9.153  0.00  0.00     0.056 H 
BRANCH  42  45
ATOM     45  C   LIG d   1       1.408  -1.076 -10.657  0.00  0.00    -0.041 C 
ATOM     46  H   LIG d   1       0.716  -0.283 -10.370  0.00  0.00     0.025 H 
ATOM     47  H   LIG d   1       1.986  -0.757 -11.523  0.00  0.00     0.025 H 
ATOM     48  H   LIG d   1       0.845  -1.976 -10.906  0.00  0.00     0.025 H 
ENDBRANCH  42  45
ENDBRANCH  41  42
ENDBRANCH  31  41
ENDBRANCH  29  31
ENDBRANCH   1  28
TORSDOF 8
ENDMDL
MODEL 3
REMARK VINA RESULT:      -6.4      1.766      3.100
REMARK  8 active torsions:
REMARK  status: ('A' for Active; 'I' for Inactive)
REMARK    1  A    between atoms: C_1  and  C_2 
REMARK    2  A    between atoms: C_2  and  O_3 
REMARK    3  A    between atoms: O_3  and  P_4 
REMARK    4  A    between atoms: P_4  and  N_6 
REMARK    5  A    between atoms: P_4  and  O_25 
REMARK    6  A    between atoms: C_7  and  N_9 
REMARK    7  A    between atoms: O_25  and  C_26 
REMARK    8  A    between atoms: C_26  and  C_27 
ROOT
ATOM      1  N   LIG d   1       5.231  -1.699  -6.078  0.00  0.00    -0.338 N 
ATOM      2  C   LIG d   1       6.655  -1.652  -6.434  0.00  0.00     0.016 C 
ATOM      3  C   LIG d   1       7.514  -1.755  -5.181  0.00  0.00    -0.007 C 
ATOM      4  H   LIG d   1       8.546  -1.922  -5.491  0.00  0.00     0.033 H 
ATOM      5  C   LIG d   1       7.082  -2.936  -4.313  0.00  0.00    -0.037 C 
ATOM      6  C   LIG d   1       5.617  -2.736  -3.920  0.00  0.00     0.016 C 
ATOM      7  H   LIG d   1       5.302  -3.520  -3.231  0.00  0.00     0.038 H 
ATOM      8  C   LIG d   1       4.763  -2.779  -5.194  0.00  0.00     0.020 C 
ATOM      9  C   LIG d   1       5.442  -1.380  -3.278  0.00  0.00     0.027 C 
ATOM     10  C   LIG d   1       4.424  -1.234  -2.387  0.00  0.00    -0.042 C 
ATOM     11  C   LIG d   1       4.161   0.010  -1.804  0.00  0.00    -0.055 C 
ATOM     12  C   LIG d   1       4.927   1.080  -2.162  0.00  0.00     0.003 C 
ATOM     13  C   LIG d   1       5.966   0.898  -3.085  0.00  0.00     0.252 C 
ATOM     14  O   LIG d   1       6.616   1.860  -3.462  0.00  0.00    -0.268 OA
ATOM     15  N   LIG d   1       6.256  -0.337  -3.563  0.00  0.00    -0.312 N 
ATOM     16  C   LIG d   1       7.471  -0.482  -4.355  0.00  0.00     0.031 C 
ATOM     17  H   LIG d   1       6.888  -2.482  -7.100  0.00  0.00     0.047 H 
ATOM     18  H   LIG d   1       6.869  -0.712  -6.942  0.00  0.00     0.047 H 
ATOM     19  H   LIG d   1       7.188  -3.864  -4.877  0.00  0.00     0.028 H 
ATOM     20  H   LIG d   1       7.700  -2.979  -3.416  0.00  0.00     0.028 H 
ATOM     21  H   LIG d   1       3.714  -2.621  -4.941  0.00  0.00     0.047 H 
ATOM     22  H   LIG d   1       4.886  -3.741  -5.687  0.00  0.00     0.047 H 
ATOM     23  H   LIG d   1       3.813  -2.086  -2.129  0.00  0.00     0.064 H 
ATOM     24  H   LIG d   1       3.366   0.120  -1.082  0.00  0.00     0.062 H 
ATOM     25  H   LIG d   1       4.734   2.056  -1.740  0.00  0.00     0.067 H 
ATOM     26  H   LIG d   1       8.315  -0.481  -3.665  0.00  0.00     0.050 H 
ATOM     27  H   LIG d   1       7.563   0.375  -5.022  0.00  0.00     0.050 H 
ENDROOT
BRANCH   1  28
ATOM     28  C   LIG d   1       4.355  -0.752  -6.556  0.00  0.00    -0.039 C 
ATOM     29  N   LIG d   1       4.480  -0.305  -7.775  0.00  0.00    -0.195 NA
ATOM     30  S   LIG d   1       3.064  -0.144  -5.522  0.00  0.00    -0.724 SA
BRANCH  29  31
ATOM     31  P   LIG d   1       3.345   0.699  -8.400  0.00  0.00     0.456 P 
ATOM     32  O   LIG d   1       3.092   1.808  -7.455  0.00  0.00    -0.232 OA
BRANCH  31  33
ATOM     33  O   LIG d   1       1.980  -0.121  -8.644  0.00  0.00    -0.291 OA
BRANCH  33  34
ATOM     34  C   LIG d   1       1.901  -1.266  -9.494  0.00  0.00     0.056 C 
ATOM     35  H   LIG d   1       1.339  -2.054  -8.991  0.00  0.00     0.056 H 
ATOM     36  H   LIG d   1       2.907  -1.623  -9.716  0.00  0.00     0.056 H 
BRANCH  34  37
ATOM     37  C   LIG d   1       1.195  -0.888 -10.797  0.00  0.00    -0.041 C 
ATOM     38  H   LIG d   1       0.838   0.140 -10.732  0.00  0.00     0.025 H 
ATOM     39  H   LIG d   1       1.895  -0.977 -11.628  0.00  0.00     0.025 H 
ATOM     40  H   LIG d   1       0.350  -1.557 -10.960  0.00  0.00     0.025 H 
ENDBRANCH  34  37
ENDBRANCH  33  34
ENDBRANCH  31  33
BRANCH  31  41
ATOM     41  O   LIG d   1       3.869   1.297  -9.800  0.00  0.00    -0.291 OA
BRANCH  41  42
ATOM     42  C   LIG d   1       5.005   0.776 -10.492  0.00  0.00     0.056 C 
ATOM     43  H   LIG d   1       5.681   1.592 -10.744  0.00  0.00     0.056 H 
ATOM     44  H   LIG d   1       5.523   0.059  -9.854  0.00  0.00     0.056 H 
BRANCH  42  45
ATOM     45  C   LIG d   1       4.547   0.077 -11.773  0.00  0.00    -0.041 C 
ATOM     46  H   LIG d   1       3.670  -0.535 -11.560  0.00  0.00     0.025 H 
ATOM     47  H   LIG d   1       4.293   0.825 -12.524  0.00  0.00     0.025 H 
ATOM     48  H   LIG d   1       5.350  -0.557 -12.148  0.00  0.00     0.025 H 
ENDBRANCH  42  45
ENDBRANCH  41  42
ENDBRANCH  31  41
ENDBRANCH  29  31
ENDBRANCH   1  28
TORSDOF 8
ENDMDL
MODEL 4
REMARK VINA RESULT:      -6.2      3.063      5.800
REMARK  8 active torsions:
REMARK  status: ('A' for Active; 'I' for Inactive)
REMARK    1  A    between atoms: C_1  and  C_2 
REMARK    2  A    between atoms: C_2  and  O_3 
REMARK    3  A    between atoms: O_3  and  P_4 
REMARK    4  A    between atoms: P_4  and  N_6 
REMARK    5  A    between atoms: P_4  and  O_25 
REMARK    6  A    between atoms: C_7  and  N_9 
REMARK    7  A    between atoms: O_25  and  C_26 
REMARK    8  A    between atoms: C_26  and  C_27 
ROOT
ATOM      1  N   LIG d   1       6.001  -0.462  -3.008  0.00  0.00    -0.338 N 
ATOM      2  C   LIG d   1       4.979   0.272  -2.251  0.00  0.00     0.016 C 
ATOM      3  C   LIG d   1       3.593  -0.268  -2.576  0.00  0.00    -0.007 C 
ATOM      4  H   LIG d   1       2.889   0.150  -1.856  0.00  0.00     0.033 H 
ATOM      5  C   LIG d   1       3.553  -1.791  -2.449  0.00  0.00    -0.037 C 
ATOM      6  C   LIG d   1       4.580  -2.383  -3.417  0.00  0.00     0.016 C 
ATOM      7  H   LIG d   1       4.517  -3.472  -3.412  0.00  0.00     0.038 H 
ATOM      8  C   LIG d   1       5.978  -1.933  -2.976  0.00  0.00     0.020 C 
ATOM      9  C   LIG d   1       4.330  -1.857  -4.810  0.00  0.00     0.027 C 
ATOM     10  C   LIG d   1       4.718  -2.637  -5.855  0.00  0.00    -0.042 C 
ATOM     11  C   LIG d   1       4.578  -2.185  -7.171  0.00  0.00    -0.055 C 
ATOM     12  C   LIG d   1       4.071  -0.938  -7.390  0.00  0.00     0.003 C 
ATOM     13  C   LIG d   1       3.685  -0.157  -6.292  0.00  0.00     0.252 C 
ATOM     14  O   LIG d   1       3.290   0.985  -6.471  0.00  0.00    -0.268 OA
ATOM     15  N   LIG d   1       3.745  -0.657  -5.033  0.00  0.00    -0.312 N 
ATOM     16  C   LIG d   1       3.139   0.132  -3.968  0.00  0.00     0.031 C 
ATOM     17  H   LIG d   1       5.169   0.158  -1.183  0.00  0.00     0.047 H 
ATOM     18  H   LIG d   1       5.025   1.329  -2.513  0.00  0.00     0.047 H 
ATOM     19  H   LIG d   1       3.801  -2.081  -1.428  0.00  0.00     0.028 H 
ATOM     20  H   LIG d   1       2.557  -2.155  -2.703  0.00  0.00     0.028 H 
ATOM     21  H   LIG d   1       6.728  -2.329  -3.661  0.00  0.00     0.047 H 
ATOM     22  H   LIG d   1       6.176  -2.284  -1.964  0.00  0.00     0.047 H 
ATOM     23  H   LIG d   1       5.136  -3.614  -5.666  0.00  0.00     0.064 H 
ATOM     24  H   LIG d   1       4.867  -2.813  -8.001  0.00  0.00     0.062 H 
ATOM     25  H   LIG d   1       3.969  -0.557  -8.396  0.00  0.00     0.067 H 
ATOM     26  H   LIG d   1       2.059   0.002  -4.037  0.00  0.00     0.050 H 
ATOM     27  H   LIG d   1       3.375   1.184  -4.127  0.00  0.00     0.050 H 
ENDROOT
BRANCH   1  28
ATOM     28  C   LIG d   1       6.955   0.212  -3.735  0.00  0.00    -0.039 C 
ATOM     29  N   LIG d   1       7.334   1.404  -3.368  0.00  0.00    -0.195 NA
ATOM     30  S   LIG d   1       7.666  -0.538  -5.163  0.00  0.00    -0.724 SA
BRANCH  29  31
ATOM     31  P   LIG d   1       8.583   2.140  -4.133  0.00  0.00     0.456 P 
ATOM     32  O   LIG d   1       9.722   1.202  -4.233  0.00  0.00    -0.232 OA
BRANCH  31  33
ATOM     33  O   LIG d   1       9.032   3.442  -3.298  0.00  0.00    -0.291 OA
BRANCH  33  34
ATOM     34  C   LIG d   1      10.357   3.628  -2.798  0.00  0.00     0.056 C 
ATOM     35  H   LIG d   1      11.065   3.601  -3.627  0.00  0.00     0.056 H 
ATOM     36  H   LIG d   1      10.593   2.832  -2.092  0.00  0.00     0.056 H 
BRANCH  34  37
ATOM     37  C   LIG d   1      10.451   4.981  -2.090  0.00  0.00    -0.041 C 
ATOM     38  H   LIG d   1      11.164   4.913  -1.270  0.00  0.00     0.025 H 
ATOM     39  H   LIG d   1      10.784   5.739  -2.799  0.00  0.00     0.025 H 
ATOM     40  H   LIG d   1       9.471   5.255  -1.698  0.00  0.00     0.025 H 
ENDBRANCH  34  37
ENDBRANCH  33  34
ENDBRANCH  31  33
BRANCH  31  41
ATOM     41  O   LIG d   1       8.122   2.583  -5.611  0.00  0.00    -0.291 OA
BRANCH  41  42
ATOM     42  C   LIG d   1       9.021   2.653  -6.718  0.00  0.00     0.056 C 
ATOM     43  H   LIG d   1       9.724   1.822  -6.669  0.00  0.00     0.056 H 
ATOM     44  H   LIG d   1       8.457   2.597  -7.650  0.00  0.00     0.056 H 
BRANCH  42  45
ATOM     45  C   LIG d   1       9.790   3.975  -6.668  0.00  0.00    -0.041 C 
ATOM     46  H   LIG d   1      10.617   3.888  -5.964  0.00  0.00     0.025 H 
ATOM     47  H   LIG d   1      10.180   4.207  -7.658  0.00  0.00     0.025 H 
ATOM     48  H   LIG d   1       9.120   4.772  -6.345  0.00  0.00     0.025 H 
ENDBRANCH  42  45
ENDBRANCH  41  42
ENDBRANCH  31  41
ENDBRANCH  29  31
ENDBRANCH   1  28
TORSDOF 8
ENDMDL
MODEL 5
REMARK VINA RESULT:      -6.1      3.091      5.873
REMARK  8 active torsions:
REMARK  status: ('A' for Active; 'I' for Inactive)
REMARK    1  A    between atoms: C_1  and  C_2 
REMARK    2  A    between atoms: C_2  and  O_3 
REMARK    3  A    between atoms: O_3  and  P_4 
REMARK    4  A    between atoms: P_4  and  N_6 
REMARK    5  A    between atoms: P_4  and  O_25 
REMARK    6  A    between atoms: C_7  and  N_9 
REMARK    7  A    between atoms: O_25  and  C_26 
REMARK    8  A    between atoms: C_26  and  C_27 
ROOT
ATOM      1  N   LIG d   1       6.003  -0.438  -3.042  0.00  0.00    -0.338 N 
ATOM      2  C   LIG d   1       4.978   0.248  -2.245  0.00  0.00     0.016 C 
ATOM      3  C   LIG d   1       3.601  -0.319  -2.556  0.00  0.00    -0.007 C 
ATOM      4  H   LIG d   1       2.901   0.061  -1.811  0.00  0.00     0.033 H 
ATOM      5  C   LIG d   1       3.602  -1.845  -2.469  0.00  0.00    -0.037 C 
ATOM      6  C   LIG d   1       4.623  -2.385  -3.474  0.00  0.00     0.016 C 
ATOM      7  H   LIG d   1       4.589  -3.475  -3.497  0.00  0.00     0.038 H 
ATOM      8  C   LIG d   1       6.018  -1.910  -3.049  0.00  0.00     0.020 C 
ATOM      9  C   LIG d   1       4.330  -1.828  -4.847  0.00  0.00     0.027 C 
ATOM     10  C   LIG d   1       4.716  -2.571  -5.920  0.00  0.00    -0.042 C 
ATOM     11  C   LIG d   1       4.537  -2.087  -7.221  0.00  0.00    -0.055 C 
ATOM     12  C   LIG d   1       3.993  -0.848  -7.395  0.00  0.00     0.003 C 
ATOM     13  C   LIG d   1       3.610  -0.107  -6.268  0.00  0.00     0.252 C 
ATOM     14  O   LIG d   1       3.183   1.028  -6.408  0.00  0.00    -0.268 OA
ATOM     15  N   LIG d   1       3.710  -0.639  -5.025  0.00  0.00    -0.312 N 
ATOM     16  C   LIG d   1       3.107   0.105  -3.927  0.00  0.00     0.031 C 
ATOM     17  H   LIG d   1       5.194   0.111  -1.185  0.00  0.00     0.047 H 
ATOM     18  H   LIG d   1       4.992   1.313  -2.479  0.00  0.00     0.047 H 
ATOM     19  H   LIG d   1       3.880  -2.156  -1.462  0.00  0.00     0.028 H 
ATOM     20  H   LIG d   1       2.611  -2.229  -2.712  0.00  0.00     0.028 H 
ATOM     21  H   LIG d   1       6.763  -2.268  -3.761  0.00  0.00     0.047 H 
ATOM     22  H   LIG d   1       6.247  -2.283  -2.052  0.00  0.00     0.047 H 
ATOM     23  H   LIG d   1       5.163  -3.541  -5.766  0.00  0.00     0.064 H 
ATOM     24  H   LIG d   1       4.823  -2.686  -8.073  0.00  0.00     0.062 H 
ATOM     25  H   LIG d   1       3.860  -0.444  -8.388  0.00  0.00     0.067 H 
ATOM     26  H   LIG d   1       2.029  -0.051  -3.977  0.00  0.00     0.050 H 
ATOM     27  H   LIG d   1       3.312   1.167  -4.062  0.00  0.00     0.050 H 
ENDROOT
BRANCH   1  28
ATOM     28  C   LIG d   1       6.924   0.279  -3.771  0.00  0.00    -0.039 C 
ATOM     29  N   LIG d   1       7.410   1.391  -3.293  0.00  0.00    -0.195 NA
ATOM     30  S   LIG d   1       7.447  -0.305  -5.349  0.00  0.00    -0.724 SA
BRANCH  29  31
ATOM     31  P   LIG d   1       8.624   2.161  -4.082  0.00  0.00     0.456 P 
ATOM     32  O   LIG d   1       8.105   2.742  -5.339  0.00  0.00    -0.232 OA
BRANCH  31  33
ATOM     33  O   LIG d   1       9.796   1.109  -4.420  0.00  0.00    -0.291 OA
BRANCH  33  34
ATOM     34  C   LIG d   1      11.078   1.503  -4.912  0.00  0.00     0.056 C 
ATOM     35  H   LIG d   1      11.030   2.533  -5.267  0.00  0.00     0.056 H 
ATOM     36  H   LIG d   1      11.368   0.848  -5.733  0.00  0.00     0.056 H 
BRANCH  34  37
ATOM     37  C   LIG d   1      12.110   1.398  -3.788  0.00  0.00    -0.041 C 
ATOM     38  H   LIG d   1      12.893   0.698  -4.077  0.00  0.00     0.025 H 
ATOM     39  H   LIG d   1      12.549   2.380  -3.606  0.00  0.00     0.025 H 
ATOM     40  H   LIG d   1      11.623   1.045  -2.879  0.00  0.00     0.025 H 
ENDBRANCH  34  37
ENDBRANCH  33  34
ENDBRANCH  31  33
BRANCH  31  41
ATOM     41  O   LIG d   1       9.210   3.336  -3.150  0.00  0.00    -0.291 OA
BRANCH  41  42
ATOM     42  C   LIG d   1       9.634   4.599  -3.666  0.00  0.00     0.056 C 
ATOM     43  H   LIG d   1      10.432   4.445  -4.391  0.00  0.00     0.056 H 
ATOM     44  H   LIG d   1       8.793   5.095  -4.150  0.00  0.00     0.056 H 
BRANCH  42  45
ATOM     45  C   LIG d   1      10.148   5.471  -2.518  0.00  0.00    -0.041 C 
ATOM     46  H   LIG d   1      10.976   4.967  -2.021  0.00  0.00     0.025 H 
ATOM     47  H   LIG d   1      10.490   6.427  -2.913  0.00  0.00     0.025 H 
ATOM     48  H   LIG d   1       9.343   5.641  -1.802  0.00  0.00     0.025 H 
ENDBRANCH  42  45
ENDBRANCH  41  42
ENDBRANCH  31  41
ENDBRANCH  29  31
ENDBRANCH   1  28
TORSDOF 8
ENDMDL
MODEL 6
REMARK VINA RESULT:      -5.7      2.577      4.571
REMARK  8 active torsions:
REMARK  status: ('A' for Active; 'I' for Inactive)
REMARK    1  A    between atoms: C_1  and  C_2 
REMARK    2  A    between atoms: C_2  and  O_3 
REMARK    3  A    between atoms: O_3  and  P_4 
REMARK    4  A    between atoms: P_4  and  N_6 
REMARK    5  A    between atoms: P_4  and  O_25 
REMARK    6  A    between atoms: C_7  and  N_9 
REMARK    7  A    between atoms: O_25  and  C_26 
REMARK    8  A    between atoms: C_26  and  C_27 
ROOT
ATOM      1  N   LIG d   1       6.352  -0.177  -3.339  0.00  0.00    -0.338 N 
ATOM      2  C   LIG d   1       5.437   0.665  -2.558  0.00  0.00     0.016 C 
ATOM      3  C   LIG d   1       4.021   0.112  -2.631  0.00  0.00    -0.007 C 
ATOM      4  H   LIG d   1       3.416   0.631  -1.886  0.00  0.00     0.033 H 
ATOM      5  C   LIG d   1       3.996  -1.381  -2.304  0.00  0.00    -0.037 C 
ATOM      6  C   LIG d   1       4.888  -2.110  -3.312  0.00  0.00     0.016 C 
ATOM      7  H   LIG d   1       4.826  -3.188  -3.158  0.00  0.00     0.038 H 
ATOM      8  C   LIG d   1       6.332  -1.631  -3.115  0.00  0.00     0.020 C 
ATOM      9  C   LIG d   1       4.461  -1.761  -4.718  0.00  0.00     0.027 C 
ATOM     10  C   LIG d   1       4.709  -2.675  -5.694  0.00  0.00    -0.042 C 
ATOM     11  C   LIG d   1       4.401  -2.393  -7.029  0.00  0.00    -0.055 C 
ATOM     12  C   LIG d   1       3.871  -1.175  -7.339  0.00  0.00     0.003 C 
ATOM     13  C   LIG d   1       3.630  -0.253  -6.311  0.00  0.00     0.252 C 
ATOM     14  O   LIG d   1       3.217   0.863  -6.583  0.00  0.00    -0.268 OA
ATOM     15  N   LIG d   1       3.853  -0.590  -5.016  0.00  0.00    -0.312 N 
ATOM     16  C   LIG d   1       3.390   0.339  -3.993  0.00  0.00     0.031 C 
ATOM     17  H   LIG d   1       5.764   0.685  -1.518  0.00  0.00     0.047 H 
ATOM     18  H   LIG d   1       5.450   1.679  -2.958  0.00  0.00     0.047 H 
ATOM     19  H   LIG d   1       4.374  -1.542  -1.295  0.00  0.00     0.028 H 
ATOM     20  H   LIG d   1       2.976  -1.757  -2.379  0.00  0.00     0.028 H 
ATOM     21  H   LIG d   1       6.987  -2.125  -3.835  0.00  0.00     0.047 H 
ATOM     22  H   LIG d   1       6.659  -1.854  -2.101  0.00  0.00     0.047 H 
ATOM     23  H   LIG d   1       5.148  -3.627  -5.436  0.00  0.00     0.064 H 
ATOM     24  H   LIG d   1       4.579  -3.127  -7.801  0.00  0.00     0.062 H 
ATOM     25  H   LIG d   1       3.640  -0.924  -8.364  0.00  0.00     0.067 H 
ATOM     26  H   LIG d   1       2.310   0.220  -3.905  0.00  0.00     0.050 H 
ATOM     27  H   LIG d   1       3.604   1.358  -4.315  0.00  0.00     0.050 H 
ENDROOT
BRANCH   1  28
ATOM     28  C   LIG d   1       7.204   0.382  -4.264  0.00  0.00    -0.039 C 
ATOM     29  N   LIG d   1       7.445  -0.237  -5.386  0.00  0.00    -0.195 NA
ATOM     30  S   LIG d   1       7.971   1.933  -3.931  0.00  0.00    -0.724 SA
BRANCH  29  31
ATOM     31  P   LIG d   1       8.328   0.498  -6.555  0.00  0.00     0.456 P 
ATOM     32  O   LIG d   1       9.600   0.986  -5.979  0.00  0.00    -0.232 OA
BRANCH  31  33
ATOM     33  O   LIG d   1       7.497   1.742  -7.153  0.00  0.00    -0.291 OA
BRANCH  33  34
ATOM     34  C   LIG d   1       7.355   1.981  -8.554  0.00  0.00     0.056 C 
ATOM     35  H   LIG d   1       7.976   1.278  -9.108  0.00  0.00     0.056 H 
ATOM     36  H   LIG d   1       7.667   3.001  -8.781  0.00  0.00     0.056 H 
BRANCH  34  37
ATOM     37  C   LIG d   1       5.890   1.796  -8.957  0.00  0.00    -0.041 C 
ATOM     38  H   LIG d   1       5.837   1.205  -9.870  0.00  0.00     0.025 H 
ATOM     39  H   LIG d   1       5.357   1.280  -8.158  0.00  0.00     0.025 H 
ATOM     40  H   LIG d   1       5.434   2.771  -9.127  0.00  0.00     0.025 H 
ENDBRANCH  34  37
ENDBRANCH  33  34
ENDBRANCH  31  33
BRANCH  31  41
ATOM     41  O   LIG d   1       8.642  -0.553  -7.733  0.00  0.00    -0.291 OA
BRANCH  41  42
ATOM     42  C   LIG d   1       7.725  -1.576  -8.127  0.00  0.00     0.056 C 
ATOM     43  H   LIG d   1       6.754  -1.388  -7.672  0.00  0.00     0.056 H 
ATOM     44  H   LIG d   1       7.625  -1.576  -9.213  0.00  0.00     0.056 H 
BRANCH  42  45
ATOM     45  C   LIG d   1       8.251  -2.937  -7.666  0.00  0.00    -0.041 C 
ATOM     46  H   LIG d   1       9.278  -2.830  -7.315  0.00  0.00     0.025 H 
ATOM     47  H   LIG d   1       7.628  -3.311  -6.854  0.00  0.00     0.025 H 
ATOM     48  H   LIG d   1       8.222  -3.639  -8.499  0.00  0.00     0.025 H 
ENDBRANCH  42  45
ENDBRANCH  41  42
ENDBRANCH  31  41
ENDBRANCH  29  31
ENDBRANCH   1  28
TORSDOF 8
ENDMDL
MODEL 7
REMARK VINA RESULT:      -5.7      2.601      5.064
REMARK  8 active torsions:
REMARK  status: ('A' for Active; 'I' for Inactive)
REMARK    1  A    between atoms: C_1  and  C_2 
REMARK    2  A    between atoms: C_2  and  O_3 
REMARK    3  A    between atoms: O_3  and  P_4 
REMARK    4  A    between atoms: P_4  and  N_6 
REMARK    5  A    between atoms: P_4  and  O_25 
REMARK    6  A    between atoms: C_7  and  N_9 
REMARK    7  A    between atoms: O_25  and  C_26 
REMARK    8  A    between atoms: C_26  and  C_27 
ROOT
ATOM      1  N   LIG d   1       6.321  -0.201  -3.332  0.00  0.00    -0.338 N 
ATOM      2  C   LIG d   1       5.395   0.640  -2.564  0.00  0.00     0.016 C 
ATOM      3  C   LIG d   1       3.980   0.088  -2.659  0.00  0.00    -0.007 C 
ATOM      4  H   LIG d   1       3.364   0.606  -1.924  0.00  0.00     0.033 H 
ATOM      5  C   LIG d   1       3.949  -1.406  -2.336  0.00  0.00    -0.037 C 
ATOM      6  C   LIG d   1       4.857  -2.134  -3.331  0.00  0.00     0.016 C 
ATOM      7  H   LIG d   1       4.792  -3.211  -3.180  0.00  0.00     0.038 H 
ATOM      8  C   LIG d   1       6.298  -1.656  -3.111  0.00  0.00     0.020 C 
ATOM      9  C   LIG d   1       4.451  -1.782  -4.742  0.00  0.00     0.027 C 
ATOM     10  C   LIG d   1       4.714  -2.695  -5.716  0.00  0.00    -0.042 C 
ATOM     11  C   LIG d   1       4.426  -2.410  -7.055  0.00  0.00    -0.055 C 
ATOM     12  C   LIG d   1       3.902  -1.191  -7.372  0.00  0.00     0.003 C 
ATOM     13  C   LIG d   1       3.646  -0.272  -6.345  0.00  0.00     0.252 C 
ATOM     14  O   LIG d   1       3.237   0.845  -6.622  0.00  0.00    -0.268 OA
ATOM     15  N   LIG d   1       3.848  -0.610  -5.048  0.00  0.00    -0.312 N 
ATOM     16  C   LIG d   1       3.370   0.317  -4.030  0.00  0.00     0.031 C 
ATOM     17  H   LIG d   1       5.706   0.658  -1.519  0.00  0.00     0.047 H 
ATOM     18  H   LIG d   1       5.414   1.655  -2.962  0.00  0.00     0.047 H 
ATOM     19  H   LIG d   1       4.312  -1.569  -1.321  0.00  0.00     0.028 H 
ATOM     20  H   LIG d   1       2.930  -1.781  -2.427  0.00  0.00     0.028 H 
ATOM     21  H   LIG d   1       6.963  -2.148  -3.821  0.00  0.00     0.047 H 
ATOM     22  H   LIG d   1       6.609  -1.880  -2.092  0.00  0.00     0.047 H 
ATOM     23  H   LIG d   1       5.149  -3.648  -5.453  0.00  0.00     0.064 H 
ATOM     24  H   LIG d   1       4.616  -3.143  -7.825  0.00  0.00     0.062 H 
ATOM     25  H   LIG d   1       3.686  -0.939  -8.400  0.00  0.00     0.067 H 
ATOM     26  H   LIG d   1       2.289   0.199  -3.960  0.00  0.00     0.050 H 
ATOM     27  H   LIG d   1       3.590   1.336  -4.348  0.00  0.00     0.050 H 
ENDROOT
BRANCH   1  28
ATOM     28  C   LIG d   1       7.188   0.359  -4.243  0.00  0.00    -0.039 C 
ATOM     29  N   LIG d   1       7.464  -0.269  -5.352  0.00  0.00    -0.195 NA
ATOM     30  S   LIG d   1       7.926   1.924  -3.910  0.00  0.00    -0.724 SA
BRANCH  29  31
ATOM     31  P   LIG d   1       8.365   0.465  -6.508  0.00  0.00     0.456 P 
ATOM     32  O   LIG d   1       8.618  -0.485  -7.614  0.00  0.00    -0.232 OA
BRANCH  31  33
ATOM     33  O   LIG d   1       9.768   0.937  -5.875  0.00  0.00    -0.291 OA
BRANCH  33  34
ATOM     34  C   LIG d   1      10.725   1.715  -6.596  0.00  0.00     0.056 C 
ATOM     35  H   LIG d   1      11.068   2.540  -5.971  0.00  0.00     0.056 H 
ATOM     36  H   LIG d   1      10.263   2.112  -7.500  0.00  0.00     0.056 H 
BRANCH  34  37
ATOM     37  C   LIG d   1      11.916   0.834  -6.977  0.00  0.00    -0.041 C 
ATOM     38  H   LIG d   1      11.575  -0.187  -7.141  0.00  0.00     0.025 H 
ATOM     39  H   LIG d   1      12.371   1.216  -7.891  0.00  0.00     0.025 H 
ATOM     40  H   LIG d   1      12.651   0.848  -6.172  0.00  0.00     0.025 H 
ENDBRANCH  34  37
ENDBRANCH  33  34
ENDBRANCH  31  33
BRANCH  31  41
ATOM     41  O   LIG d   1       7.572   1.747  -7.073  0.00  0.00    -0.291 OA
BRANCH  41  42
ATOM     42  C   LIG d   1       7.419   2.014  -8.468  0.00  0.00     0.056 C 
ATOM     43  H   LIG d   1       7.649   3.061  -8.665  0.00  0.00     0.056 H 
ATOM     44  H   LIG d   1       8.098   1.379  -9.037  0.00  0.00     0.056 H 
BRANCH  42  45
ATOM     45  C   LIG d   1       5.977   1.721  -8.888  0.00  0.00    -0.041 C 
ATOM     46  H   LIG d   1       5.474   2.655  -9.139  0.00  0.00     0.025 H 
ATOM     47  H   LIG d   1       5.977   1.064  -9.757  0.00  0.00     0.025 H 
ATOM     48  H   LIG d   1       5.451   1.235  -8.065  0.00  0.00     0.025 H 
ENDBRANCH  42  45
ENDBRANCH  41  42
ENDBRANCH  31  41
ENDBRANCH  29  31
ENDBRANCH   1  28
TORSDOF 8
ENDMDL
MODEL 8
REMARK VINA RESULT:      -5.6      1.836      3.934
REMARK  8 active torsions:
REMARK  status: ('A' for Active; 'I' for Inactive)
REMARK    1  A    between atoms: C_1  and  C_2 
REMARK    2  A    between atoms: C_2  and  O_3 
REMARK    3  A    between atoms: O_3  and  P_4 
REMARK    4  A    between atoms: P_4  and  N_6 
REMARK    5  A    between atoms: P_4  and  O_25 
REMARK    6  A    between atoms: C_7  and  N_9 
REMARK    7  A    between atoms: O_25  and  C_26 
REMARK    8  A    between atoms: C_26  and  C_27 
ROOT
ATOM      1  N   LIG d   1       6.907  -0.598  -6.695  0.00  0.00    -0.338 N 
ATOM      2  C   LIG d   1       7.785   0.574  -6.801  0.00  0.00     0.016 C 
ATOM      3  C   LIG d   1       8.555   0.773  -5.503  0.00  0.00    -0.007 C 
ATOM      4  H   LIG d   1       9.336   1.513  -5.683  0.00  0.00     0.033 H 
ATOM      5  C   LIG d   1       9.226  -0.525  -5.056  0.00  0.00    -0.037 C 
ATOM      6  C   LIG d   1       8.141  -1.585  -4.856  0.00  0.00     0.016 C 
ATOM      7  H   LIG d   1       8.578  -2.501  -4.456  0.00  0.00     0.038 H 
ATOM      8  C   LIG d   1       7.480  -1.865  -6.212  0.00  0.00     0.020 C 
ATOM      9  C   LIG d   1       7.084  -1.061  -3.913  0.00  0.00     0.027 C 
ATOM     10  C   LIG d   1       6.385  -1.973  -3.184  0.00  0.00    -0.042 C 
ATOM     11  C   LIG d   1       5.346  -1.565  -2.341  0.00  0.00    -0.055 C 
ATOM     12  C   LIG d   1       5.029  -0.239  -2.280  0.00  0.00     0.003 C 
ATOM     13  C   LIG d   1       5.766   0.674  -3.045  0.00  0.00     0.252 C 
ATOM     14  O   LIG d   1       5.450   1.854  -3.049  0.00  0.00    -0.268 OA
ATOM     15  N   LIG d   1       6.826   0.261  -3.782  0.00  0.00    -0.312 N 
ATOM     16  C   LIG d   1       7.665   1.288  -4.387  0.00  0.00     0.031 C 
ATOM     17  H   LIG d   1       8.490   0.424  -7.619  0.00  0.00     0.047 H 
ATOM     18  H   LIG d   1       7.182   1.459  -7.004  0.00  0.00     0.047 H 
ATOM     19  H   LIG d   1       9.928  -0.858  -5.821  0.00  0.00     0.028 H 
ATOM     20  H   LIG d   1       9.756  -0.361  -4.118  0.00  0.00     0.028 H 
ATOM     21  H   LIG d   1       6.690  -2.607  -6.092  0.00  0.00     0.047 H 
ATOM     22  H   LIG d   1       8.226  -2.227  -6.917  0.00  0.00     0.047 H 
ATOM     23  H   LIG d   1       6.634  -3.021  -3.259  0.00  0.00     0.064 H 
ATOM     24  H   LIG d   1       4.806  -2.286  -1.747  0.00  0.00     0.062 H 
ATOM     25  H   LIG d   1       4.220   0.101  -1.650  0.00  0.00     0.067 H 
ATOM     26  H   LIG d   1       8.293   1.705  -3.599  0.00  0.00     0.050 H 
ATOM     27  H   LIG d   1       7.028   2.080  -4.781  0.00  0.00     0.050 H 
ENDROOT
BRANCH   1  28
ATOM     28  C   LIG d   1       5.576  -0.513  -7.036  0.00  0.00    -0.039 C 
ATOM     29  N   LIG d   1       5.043   0.649  -7.294  0.00  0.00    -0.195 NA
ATOM     30  S   LIG d   1       4.594  -1.973  -7.124  0.00  0.00    -0.724 SA
BRANCH  29  31
ATOM     31  P   LIG d   1       3.505   0.738  -7.856  0.00  0.00     0.456 P 
ATOM     32  O   LIG d   1       3.194   2.138  -8.219  0.00  0.00    -0.232 OA
BRANCH  31  33
ATOM     33  O   LIG d   1       2.486   0.240  -6.713  0.00  0.00    -0.291 OA
BRANCH  33  34
ATOM     34  C   LIG d   1       2.451   0.805  -5.401  0.00  0.00     0.056 C 
ATOM     35  H   LIG d   1       1.667   1.561  -5.352  0.00  0.00     0.056 H 
ATOM     36  H   LIG d   1       3.414   1.265  -5.178  0.00  0.00     0.056 H 
BRANCH  34  37
ATOM     37  C   LIG d   1       2.163  -0.296  -4.379  0.00  0.00    -0.041 C 
ATOM     38  H   LIG d   1       1.648   0.132  -3.519  0.00  0.00     0.025 H 
ATOM     39  H   LIG d   1       1.534  -1.060  -4.836  0.00  0.00     0.025 H 
ATOM     40  H   LIG d   1       3.102  -0.745  -4.054  0.00  0.00     0.025 H 
ENDBRANCH  34  37
ENDBRANCH  33  34
ENDBRANCH  31  33
BRANCH  31  41
ATOM     41  O   LIG d   1       3.354  -0.199  -9.156  0.00  0.00    -0.291 OA
BRANCH  41  42
ATOM     42  C   LIG d   1       2.900   0.290 -10.419  0.00  0.00     0.056 C 
ATOM     43  H   LIG d   1       2.313  -0.481 -10.918  0.00  0.00     0.056 H 
ATOM     44  H   LIG d   1       2.282   1.175 -10.266  0.00  0.00     0.056 H 
BRANCH  42  45
ATOM     45  C   LIG d   1       4.105   0.656 -11.287  0.00  0.00    -0.041 C 
ATOM     46  H   LIG d   1       3.772   0.861 -12.305  0.00  0.00     0.025 H 
ATOM     47  H   LIG d   1       4.591   1.542 -10.880  0.00  0.00     0.025 H 
ATOM     48  H   LIG d   1       4.812  -0.174 -11.296  0.00  0.00     0.025 H 
ENDBRANCH  42  45
ENDBRANCH  41  42
ENDBRANCH  31  41
ENDBRANCH  29  31
ENDBRANCH   1  28
TORSDOF 8
ENDMDL
MODEL 9
REMARK VINA RESULT:      -5.5      2.795      6.820
REMARK  8 active torsions:
REMARK  status: ('A' for Active; 'I' for Inactive)
REMARK    1  A    between atoms: C_1  and  C_2 
REMARK    2  A    between atoms: C_2  and  O_3 
REMARK    3  A    between atoms: O_3  and  P_4 
REMARK    4  A    between atoms: P_4  and  N_6 
REMARK    5  A    between atoms: P_4  and  O_25 
REMARK    6  A    between atoms: C_7  and  N_9 
REMARK    7  A    between atoms: O_25  and  C_26 
REMARK    8  A    between atoms: C_26  and  C_27 
ROOT
ATOM      1  N   LIG d   1       4.552   0.376  -7.832  0.00  0.00    -0.338 N 
ATOM      2  C   LIG d   1       5.489   1.172  -8.635  0.00  0.00     0.016 C 
ATOM      3  C   LIG d   1       4.848   1.561  -9.960  0.00  0.00    -0.007 C 
ATOM      4  H   LIG d   1       5.482   2.311 -10.435  0.00  0.00     0.033 H 
ATOM      5  C   LIG d   1       3.466   2.177  -9.742  0.00  0.00    -0.037 C 
ATOM      6  C   LIG d   1       2.587   1.149  -9.025  0.00  0.00     0.016 C 
ATOM      7  H   LIG d   1       1.569   1.526  -8.930  0.00  0.00     0.038 H 
ATOM      8  C   LIG d   1       3.185   0.886  -7.637  0.00  0.00     0.020 C 
ATOM      9  C   LIG d   1       2.589  -0.150  -9.796  0.00  0.00     0.027 C 
ATOM     10  C   LIG d   1       1.498  -0.953  -9.674  0.00  0.00    -0.042 C 
ATOM     11  C   LIG d   1       1.458  -2.200 -10.306  0.00  0.00    -0.055 C 
ATOM     12  C   LIG d   1       2.542  -2.610 -11.026  0.00  0.00     0.003 C 
ATOM     13  C   LIG d   1       3.653  -1.760 -11.129  0.00  0.00     0.252 C 
ATOM     14  O   LIG d   1       4.654  -2.141 -11.716  0.00  0.00    -0.268 OA
ATOM     15  N   LIG d   1       3.626  -0.519 -10.583  0.00  0.00    -0.312 N 
ATOM     16  C   LIG d   1       4.729   0.378 -10.903  0.00  0.00     0.031 C 
ATOM     17  H   LIG d   1       5.759   2.074  -8.086  0.00  0.00     0.047 H 
ATOM     18  H   LIG d   1       6.388   0.586  -8.826  0.00  0.00     0.047 H 
ATOM     19  H   LIG d   1       3.556   3.074  -9.130  0.00  0.00     0.028 H 
ATOM     20  H   LIG d   1       3.021   2.431 -10.704  0.00  0.00     0.028 H 
ATOM     21  H   LIG d   1       2.585   0.142  -7.111  0.00  0.00     0.047 H 
ATOM     22  H   LIG d   1       3.213   1.812  -7.066  0.00  0.00     0.047 H 
ATOM     23  H   LIG d   1       0.655  -0.625  -9.084  0.00  0.00     0.064 H 
ATOM     24  H   LIG d   1       0.584  -2.829 -10.226  0.00  0.00     0.062 H 
ATOM     25  H   LIG d   1       2.545  -3.575 -11.509  0.00  0.00     0.067 H 
ATOM     26  H   LIG d   1       4.567   0.750 -11.915  0.00  0.00     0.050 H 
ATOM     27  H   LIG d   1       5.662  -0.185 -10.883  0.00  0.00     0.050 H 
ENDROOT
BRANCH   1  28
ATOM     28  C   LIG d   1       4.942  -0.822  -7.279  0.00  0.00    -0.039 C 
ATOM     29  N   LIG d   1       4.518  -1.161  -6.093  0.00  0.00    -0.195 NA
ATOM     30  S   LIG d   1       6.014  -1.897  -8.173  0.00  0.00    -0.724 SA
BRANCH  29  31
ATOM     31  P   LIG d   1       4.847  -2.654  -5.501  0.00  0.00     0.456 P 
ATOM     32  O   LIG d   1       4.312  -3.680  -6.422  0.00  0.00    -0.232 OA
BRANCH  31  33
ATOM     33  O   LIG d   1       4.159  -2.821  -4.054  0.00  0.00    -0.291 OA
BRANCH  33  34
ATOM     34  C   LIG d   1       3.605  -1.725  -3.325  0.00  0.00     0.056 C 
ATOM     35  H   LIG d   1       2.557  -1.927  -3.105  0.00  0.00     0.056 H 
ATOM     36  H   LIG d   1       3.682  -0.816  -3.921  0.00  0.00     0.056 H 
BRANCH  34  37
ATOM     37  C   LIG d   1       4.375  -1.541  -2.016  0.00  0.00    -0.041 C 
ATOM     38  H   LIG d   1       3.672  -1.377  -1.200  0.00  0.00     0.025 H 
ATOM     39  H   LIG d   1       4.964  -2.436  -1.812  0.00  0.00     0.025 H 
ATOM     40  H   LIG d   1       5.039  -0.681  -2.102  0.00  0.00     0.025 H 
ENDBRANCH  34  37
ENDBRANCH  33  34
ENDBRANCH  31  33
BRANCH  31  41
ATOM     41  O   LIG d   1       6.441  -2.838  -5.362  0.00  0.00    -0.291 OA
BRANCH  41  42
ATOM     42  C   LIG d   1       7.217  -2.168  -4.366  0.00  0.00     0.056 C 
ATOM     43  H   LIG d   1       7.750  -1.335  -4.822  0.00  0.00     0.056 H 
ATOM     44  H   LIG d   1       6.558  -1.793  -3.583  0.00  0.00     0.056 H 
BRANCH  42  45
ATOM     45  C   LIG d   1       8.223  -3.148  -3.760  0.00  0.00    -0.041 C 
ATOM     46  H   LIG d   1       8.024  -4.152  -4.136  0.00  0.00     0.025 H 
ATOM     47  H   LIG d   1       9.233  -2.850  -4.037  0.00  0.00     0.025 H 
ATOM     48  H   LIG d   1       8.127  -3.141  -2.673  0.00  0.00     0.025 H 
ENDBRANCH  42  45
ENDBRANCH  41  42
ENDBRANCH  31  41
ENDBRANCH  29  31
ENDBRANCH   1  28
TORSDOF 8
ENDMDL
MODEL 10
REMARK VINA RESULT:      -5.5      2.079      3.871
REMARK  8 active torsions:
REMARK  status: ('A' for Active; 'I' for Inactive)
REMARK    1  A    between atoms: C_1  and  C_2 
REMARK    2  A    between atoms: C_2  and  O_3 
REMARK    3  A    between atoms: O_3  and  P_4 
REMARK    4  A    between atoms: P_4  and  N_6 
REMARK    5  A    between atoms: P_4  and  O_25 
REMARK    6  A    between atoms: C_7  and  N_9 
REMARK    7  A    between atoms: O_25  and  C_26 
REMARK    8  A    between atoms: C_26  and  C_27 
ROOT
ATOM      1  N   LIG d   1       6.241  -1.791  -6.005  0.00  0.00    -0.338 N 
ATOM      2  C   LIG d   1       7.632  -1.518  -5.624  0.00  0.00     0.016 C 
ATOM      3  C   LIG d   1       7.777  -1.537  -4.109  0.00  0.00    -0.007 C 
ATOM      4  H   LIG d   1       8.841  -1.537  -3.870  0.00  0.00     0.033 H 
ATOM      5  C   LIG d   1       7.157  -2.800  -3.513  0.00  0.00    -0.037 C 
ATOM      6  C   LIG d   1       5.674  -2.835  -3.891  0.00  0.00     0.016 C 
ATOM      7  H   LIG d   1       5.183  -3.682  -3.411  0.00  0.00     0.038 H 
ATOM      8  C   LIG d   1       5.567  -2.959  -5.416  0.00  0.00     0.020 C 
ATOM      9  C   LIG d   1       5.010  -1.545  -3.473  0.00  0.00     0.027 C 
ATOM     10  C   LIG d   1       3.679  -1.585  -3.198  0.00  0.00    -0.042 C 
ATOM     11  C   LIG d   1       2.985  -0.416  -2.869  0.00  0.00    -0.055 C 
ATOM     12  C   LIG d   1       3.660   0.770  -2.853  0.00  0.00     0.003 C 
ATOM     13  C   LIG d   1       5.031   0.777  -3.144  0.00  0.00     0.252 C 
ATOM     14  O   LIG d   1       5.632   1.839  -3.197  0.00  0.00    -0.268 OA
ATOM     15  N   LIG d   1       5.696  -0.382  -3.369  0.00  0.00    -0.312 N 
ATOM     16  C   LIG d   1       7.149  -0.316  -3.463  0.00  0.00     0.031 C 
ATOM     17  H   LIG d   1       8.281  -2.280  -6.058  0.00  0.00     0.047 H 
ATOM     18  H   LIG d   1       7.925  -0.539  -6.004  0.00  0.00     0.047 H 
ATOM     19  H   LIG d   1       7.659  -3.680  -3.914  0.00  0.00     0.028 H 
ATOM     20  H   LIG d   1       7.258  -2.782  -2.428  0.00  0.00     0.028 H 
ATOM     21  H   LIG d   1       4.517  -2.969  -5.714  0.00  0.00     0.047 H 
ATOM     22  H   LIG d   1       6.056  -3.874  -5.747  0.00  0.00     0.047 H 
ATOM     23  H   LIG d   1       3.153  -2.527  -3.234  0.00  0.00     0.064 H 
ATOM     24  H   LIG d   1       1.932  -0.451  -2.630  0.00  0.00     0.062 H 
ATOM     25  H   LIG d   1       3.144   1.689  -2.619  0.00  0.00     0.067 H 
ATOM     26  H   LIG d   1       7.539  -0.213  -2.450  0.00  0.00     0.050 H 
ATOM     27  H   LIG d   1       7.427   0.569  -4.035  0.00  0.00     0.050 H 
ENDROOT
BRANCH   1  28
ATOM     28  C   LIG d   1       5.580  -0.968  -6.889  0.00  0.00    -0.039 C 
ATOM     29  N   LIG d   1       6.178  -0.564  -7.975  0.00  0.00    -0.195 NA
ATOM     30  S   LIG d   1       3.926  -0.462  -6.552  0.00  0.00    -0.724 SA
BRANCH  29  31
ATOM     31  P   LIG d   1       5.342   0.280  -9.106  0.00  0.00     0.456 P 
ATOM     32  O   LIG d   1       6.180   0.451 -10.313  0.00  0.00    -0.232 OA
BRANCH  31  33
ATOM     33  O   LIG d   1       4.950   1.726  -8.514  0.00  0.00    -0.291 OA
BRANCH  33  34
ATOM     34  C   LIG d   1       4.044   2.615  -9.170  0.00  0.00     0.056 C 
ATOM     35  H   LIG d   1       4.123   2.484 -10.250  0.00  0.00     0.056 H 
ATOM     36  H   LIG d   1       4.294   3.644  -8.910  0.00  0.00     0.056 H 
BRANCH  34  37
ATOM     37  C   LIG d   1       2.614   2.310  -8.722  0.00  0.00    -0.041 C 
ATOM     38  H   LIG d   1       2.180   1.558  -9.380  0.00  0.00     0.025 H 
ATOM     39  H   LIG d   1       2.627   1.933  -7.699  0.00  0.00     0.025 H 
ATOM     40  H   LIG d   1       2.017   3.221  -8.766  0.00  0.00     0.025 H 
ENDBRANCH  34  37
ENDBRANCH  33  34
ENDBRANCH  31  33
BRANCH  31  41
ATOM     41  O   LIG d   1       4.001  -0.523  -9.492  0.00  0.00    -0.291 OA
BRANCH  41  42
ATOM     42  C   LIG d   1       4.011  -1.738 -10.245  0.00  0.00     0.056 C 
ATOM     43  H   LIG d   1       3.466  -1.592 -11.176  0.00  0.00     0.056 H 
ATOM     44  H   LIG d   1       5.041  -2.020 -10.467  0.00  0.00     0.056 H 
BRANCH  42  45
ATOM     45  C   LIG d   1       3.345  -2.848  -9.430  0.00  0.00    -0.041 C 
ATOM     46  H   LIG d   1       2.401  -3.127  -9.901  0.00  0.00     0.025 H 
ATOM     47  H   LIG d   1       4.002  -3.716  -9.392  0.00  0.00     0.025 H 
ATOM     48  H   LIG d   1       3.154  -2.491  -8.418  0.00  0.00     0.025 H 
ENDBRANCH  42  45
ENDBRANCH  41  42
ENDBRANCH  31  41
ENDBRANCH  29  31
ENDBRANCH   1  28
TORSDOF 8
ENDMDL
