MODEL 1
REMARK VINA RESULT:      -7.5      0.000      0.000
REMARK  5 active torsions:
REMARK  status: ('A' for Active; 'I' for Inactive)
REMARK    1  A    between atoms: C_1  and  C_2 
REMARK    2  A    between atoms: C_3  and  C_22 
REMARK    3  A    between atoms: C_9  and  O_13 
REMARK    4  A    between atoms: O_13  and  C_14 
REMARK    5  A    between atoms: C_14  and  C_16 
ROOT
ATOM      1  C   LIG d   1      10.159   5.299  -2.492  0.00  0.00     0.114 A 
ATOM      2  C   LIG d   1      10.482   6.014  -3.600  0.00  0.00     0.067 A 
ATOM      3  C   LIG d   1      10.249   5.410  -4.923  0.00  0.00     0.200 A 
ATOM      4  O   LIG d   1      10.519   6.004  -5.954  0.00  0.00    -0.286 OA
ATOM      5  C   LIG d   1       9.672   4.054  -4.943  0.00  0.00     0.065 A 
ATOM      6  C   LIG d   1       9.413   3.393  -6.145  0.00  0.00    -0.044 A 
ATOM      7  C   LIG d   1       8.878   2.138  -6.127  0.00  0.00    -0.018 A 
ATOM      8  C   LIG d   1       8.591   1.513  -4.914  0.00  0.00     0.136 A 
ATOM      9  C   LIG d   1       8.842   2.154  -3.713  0.00  0.00     0.024 A 
ATOM     10  C   LIG d   1       9.386   3.433  -3.714  0.00  0.00     0.142 A 
ATOM     11  O   LIG d   1       9.633   4.073  -2.555  0.00  0.00    -0.459 OA
ATOM     12  H   LIG d   1       9.634   3.875  -7.086  0.00  0.00     0.063 H 
ATOM     13  H   LIG d   1       8.676   1.626  -7.056  0.00  0.00     0.065 H 
ATOM     14  H   LIG d   1       8.617   1.662  -2.779  0.00  0.00     0.069 H 
ENDROOT
BRANCH   2  15
ATOM     15  C   LIG d   1      11.060   7.375  -3.481  0.00  0.00    -0.007 A 
ATOM     16  C   LIG d   1      10.220   8.487  -3.429  0.00  0.00    -0.008 A 
ATOM     17  C   LIG d   1      10.767   9.752  -3.318  0.00  0.00     0.163 A 
ATOM     18  H   LIG d   1       9.148   8.361  -3.474  0.00  0.00     0.066 H 
ATOM     19  C   LIG d   1      12.145   9.914  -3.259  0.00  0.00     0.162 A 
ATOM     20  O   LIG d   1       9.957  10.849  -3.266  0.00  0.00    -0.488 OA
ATOM     21  C   LIG d   1      12.981   8.810  -3.310  0.00  0.00    -0.016 A 
ATOM     22  O   LIG d   1      12.671  11.169  -3.148  0.00  0.00    -0.488 OA
ATOM     23  C   LIG d   1      12.441   7.543  -3.417  0.00  0.00    -0.050 A 
ATOM     24  H   LIG d   1      14.052   8.940  -3.263  0.00  0.00     0.066 H 
ATOM     25  H   LIG d   1      13.092   6.681  -3.453  0.00  0.00     0.062 H 
ATOM     26  C   LIG d   1      12.432  11.840  -1.910  0.00  0.00     0.093 C 
ATOM     27  C   LIG d   1      11.079  12.533  -1.924  0.00  0.00     0.016 C 
ATOM     28  H   LIG d   1      12.456  11.114  -1.098  0.00  0.00     0.070 H 
ATOM     29  H   LIG d   1      13.213  12.584  -1.749  0.00  0.00     0.070 H 
ATOM     30  C   LIG d   1       9.926  11.546  -2.019  0.00  0.00     0.093 C 
ATOM     31  H   LIG d   1      10.971  13.115  -1.010  0.00  0.00     0.033 H 
ATOM     32  H   LIG d   1      11.037  13.208  -2.778  0.00  0.00     0.033 H 
ATOM     33  H   LIG d   1      10.001  10.826  -1.204  0.00  0.00     0.070 H 
ATOM     34  H   LIG d   1       8.983  12.086  -1.934  0.00  0.00     0.070 H 
ENDBRANCH   2  15
BRANCH   1  35
ATOM     35  C   LIG d   1      10.398   5.916  -1.137  0.00  0.00    -0.006 C 
ATOM     36  H   LIG d   1      10.857   6.896  -1.260  0.00  0.00     0.031 H 
ATOM     37  H   LIG d   1       9.447   6.023  -0.615  0.00  0.00     0.031 H 
ATOM     38  H   LIG d   1      11.061   5.274  -0.558  0.00  0.00     0.031 H 
ENDBRANCH   1  35
BRANCH   8  39
ATOM     39  O   LIG d   1       8.059   0.263  -4.911  0.00  0.00    -0.422 OA
BRANCH  39  40
ATOM     40  C   LIG d   1       6.721   0.169  -5.038  0.00  0.00     0.344 C 
ATOM     41  O   LIG d   1       6.201   0.330  -6.124  0.00  0.00    -0.244 OA
BRANCH  40  42
ATOM     42  C   LIG d   1       5.887  -0.132  -3.856  0.00  0.00     0.059 A 
ATOM     43  C   LIG d   1       5.539  -1.452  -3.560  0.00  0.00    -0.048 A 
ATOM     44  C   LIG d   1       4.760  -1.725  -2.455  0.00  0.00    -0.061 A 
ATOM     45  H   LIG d   1       5.881  -2.257  -4.195  0.00  0.00     0.063 H 
ATOM     46  C   LIG d   1       4.322  -0.696  -1.642  0.00  0.00    -0.062 A 
ATOM     47  H   LIG d   1       4.492  -2.746  -2.226  0.00  0.00     0.062 H 
ATOM     48  C   LIG d   1       4.662   0.614  -1.930  0.00  0.00    -0.061 A 
ATOM     49  H   LIG d   1       3.712  -0.916  -0.778  0.00  0.00     0.062 H 
ATOM     50  C   LIG d   1       5.446   0.902  -3.028  0.00  0.00    -0.048 A 
ATOM     51  H   LIG d   1       4.317   1.413  -1.290  0.00  0.00     0.062 H 
ATOM     52  H   LIG d   1       5.715   1.924  -3.247  0.00  0.00     0.063 H 
ENDBRANCH  40  42
ENDBRANCH  39  40
ENDBRANCH   8  39
TORSDOF 5
ENDMDL
MODEL 2
REMARK VINA RESULT:      -7.4      8.032     12.024
REMARK  5 active torsions:
REMARK  status: ('A' for Active; 'I' for Inactive)
REMARK    1  A    between atoms: C_1  and  C_2 
REMARK    2  A    between atoms: C_3  and  C_22 
REMARK    3  A    between atoms: C_9  and  O_13 
REMARK    4  A    between atoms: O_13  and  C_14 
REMARK    5  A    between atoms: C_14  and  C_16 
ROOT
ATOM      1  C   LIG d   1       6.929  -4.714  -5.006  0.00  0.00     0.114 A 
ATOM      2  C   LIG d   1       5.604  -4.488  -5.189  0.00  0.00     0.067 A 
ATOM      3  C   LIG d   1       4.744  -5.614  -5.593  0.00  0.00     0.200 A 
ATOM      4  O   LIG d   1       3.546  -5.472  -5.771  0.00  0.00    -0.286 OA
ATOM      5  C   LIG d   1       5.401  -6.921  -5.771  0.00  0.00     0.065 A 
ATOM      6  C   LIG d   1       4.676  -8.051  -6.153  0.00  0.00    -0.044 A 
ATOM      7  C   LIG d   1       5.316  -9.247  -6.308  0.00  0.00    -0.018 A 
ATOM      8  C   LIG d   1       6.689  -9.343  -6.087  0.00  0.00     0.136 A 
ATOM      9  C   LIG d   1       7.422  -8.233  -5.708  0.00  0.00     0.024 A 
ATOM     10  C   LIG d   1       6.786  -7.008  -5.545  0.00  0.00     0.142 A 
ATOM     11  O   LIG d   1       7.484  -5.918  -5.173  0.00  0.00    -0.459 OA
ATOM     12  H   LIG d   1       3.612  -7.979  -6.323  0.00  0.00     0.063 H 
ATOM     13  H   LIG d   1       4.756 -10.122  -6.602  0.00  0.00     0.065 H 
ATOM     14  H   LIG d   1       8.485  -8.317  -5.540  0.00  0.00     0.069 H 
ENDROOT
BRANCH   2  15
ATOM     15  C   LIG d   1       5.031  -3.135  -4.986  0.00  0.00    -0.007 A 
ATOM     16  C   LIG d   1       4.573  -2.752  -3.726  0.00  0.00    -0.008 A 
ATOM     17  C   LIG d   1       4.042  -1.489  -3.546  0.00  0.00     0.163 A 
ATOM     18  H   LIG d   1       4.634  -3.439  -2.894  0.00  0.00     0.066 H 
ATOM     19  C   LIG d   1       3.965  -0.605  -4.616  0.00  0.00     0.162 A 
ATOM     20  O   LIG d   1       3.588  -1.101  -2.319  0.00  0.00    -0.488 OA
ATOM     21  C   LIG d   1       4.420  -0.983  -5.868  0.00  0.00    -0.016 A 
ATOM     22  O   LIG d   1       3.438   0.640  -4.423  0.00  0.00    -0.488 OA
ATOM     23  C   LIG d   1       4.956  -2.243  -6.054  0.00  0.00    -0.050 A 
ATOM     24  H   LIG d   1       4.359  -0.294  -6.697  0.00  0.00     0.066 H 
ATOM     25  H   LIG d   1       5.315  -2.537  -7.030  0.00  0.00     0.062 H 
ATOM     26  C   LIG d   1       4.208   1.525  -3.609  0.00  0.00     0.093 C 
ATOM     27  C   LIG d   1       3.913   1.298  -2.135  0.00  0.00     0.016 C 
ATOM     28  H   LIG d   1       5.268   1.352  -3.794  0.00  0.00     0.070 H 
ATOM     29  H   LIG d   1       3.962   2.555  -3.868  0.00  0.00     0.070 H 
ATOM     30  C   LIG d   1       4.347  -0.082  -1.665  0.00  0.00     0.093 C 
ATOM     31  H   LIG d   1       4.437   2.052  -1.549  0.00  0.00     0.033 H 
ATOM     32  H   LIG d   1       2.841   1.406  -1.969  0.00  0.00     0.033 H 
ATOM     33  H   LIG d   1       5.405  -0.221  -1.890  0.00  0.00     0.070 H 
ATOM     34  H   LIG d   1       4.196  -0.158  -0.588  0.00  0.00     0.070 H 
ENDBRANCH   2  15
BRANCH   1  35
ATOM     35  C   LIG d   1       7.810  -3.562  -4.592  0.00  0.00    -0.006 C 
ATOM     36  H   LIG d   1       8.838  -3.766  -4.889  0.00  0.00     0.031 H 
ATOM     37  H   LIG d   1       7.465  -2.649  -5.077  0.00  0.00     0.031 H 
ATOM     38  H   LIG d   1       7.762  -3.440  -3.510  0.00  0.00     0.031 H 
ENDBRANCH   1  35
BRANCH   8  39
ATOM     39  O   LIG d   1       7.312 -10.540  -6.245  0.00  0.00    -0.422 OA
BRANCH  39  40
ATOM     40  C   LIG d   1       6.980 -11.521  -5.383  0.00  0.00     0.344 C 
ATOM     41  O   LIG d   1       6.677 -12.620  -5.802  0.00  0.00    -0.244 OA
BRANCH  40  42
ATOM     42  C   LIG d   1       6.986 -11.259  -3.930  0.00  0.00     0.059 A 
ATOM     43  C   LIG d   1       5.785 -11.232  -3.217  0.00  0.00    -0.048 A 
ATOM     44  C   LIG d   1       5.797 -10.987  -1.860  0.00  0.00    -0.061 A 
ATOM     45  H   LIG d   1       4.849 -11.405  -3.728  0.00  0.00     0.063 H 
ATOM     46  C   LIG d   1       6.996 -10.767  -1.204  0.00  0.00    -0.062 A 
ATOM     47  H   LIG d   1       4.868 -10.967  -1.308  0.00  0.00     0.062 H 
ATOM     48  C   LIG d   1       8.188 -10.791  -1.904  0.00  0.00    -0.061 A 
ATOM     49  H   LIG d   1       6.999 -10.575  -0.142  0.00  0.00     0.062 H 
ATOM     50  C   LIG d   1       8.192 -11.041  -3.261  0.00  0.00    -0.048 A 
ATOM     51  H   LIG d   1       9.121 -10.619  -1.386  0.00  0.00     0.062 H 
ATOM     52  H   LIG d   1       9.125 -11.065  -3.804  0.00  0.00     0.063 H 
ENDBRANCH  40  42
ENDBRANCH  39  40
ENDBRANCH   8  39
TORSDOF 5
ENDMDL
MODEL 3
REMARK VINA RESULT:      -7.3      1.927      2.609
REMARK  5 active torsions:
REMARK  status: ('A' for Active; 'I' for Inactive)
REMARK    1  A    between atoms: C_1  and  C_2 
REMARK    2  A    between atoms: C_3  and  C_22 
REMARK    3  A    between atoms: C_9  and  O_13 
REMARK    4  A    between atoms: O_13  and  C_14 
REMARK    5  A    between atoms: C_14  and  C_16 
ROOT
ATOM      1  C   LIG d   1       9.916   5.679  -7.037  0.00  0.00     0.114 A 
ATOM      2  C   LIG d   1      10.250   6.354  -5.907  0.00  0.00     0.067 A 
ATOM      3  C   LIG d   1      10.117   5.670  -4.610  0.00  0.00     0.200 A 
ATOM      4  O   LIG d   1      10.402   6.224  -3.562  0.00  0.00    -0.286 OA
ATOM      5  C   LIG d   1       9.623   4.281  -4.639  0.00  0.00     0.065 A 
ATOM      6  C   LIG d   1       9.460   3.545  -3.464  0.00  0.00    -0.044 A 
ATOM      7  C   LIG d   1       9.001   2.261  -3.526  0.00  0.00    -0.018 A 
ATOM      8  C   LIG d   1       8.693   1.683  -4.757  0.00  0.00     0.136 A 
ATOM      9  C   LIG d   1       8.848   2.400  -5.931  0.00  0.00     0.024 A 
ATOM     10  C   LIG d   1       9.315   3.708  -5.885  0.00  0.00     0.142 A 
ATOM     11  O   LIG d   1       9.476   4.418  -7.018  0.00  0.00    -0.459 OA
ATOM     12  H   LIG d   1       9.699   3.990  -2.509  0.00  0.00     0.063 H 
ATOM     13  H   LIG d   1       8.876   1.689  -2.619  0.00  0.00     0.065 H 
ATOM     14  H   LIG d   1       8.606   1.944  -6.880  0.00  0.00     0.069 H 
ENDROOT
BRANCH   2  15
ATOM     15  C   LIG d   1      10.739   7.752  -5.977  0.00  0.00    -0.007 A 
ATOM     16  C   LIG d   1       9.836   8.812  -5.897  0.00  0.00    -0.008 A 
ATOM     17  C   LIG d   1      10.300  10.112  -5.963  0.00  0.00     0.163 A 
ATOM     18  H   LIG d   1       8.779   8.618  -5.784  0.00  0.00     0.066 H 
ATOM     19  C   LIG d   1      11.659  10.362  -6.108  0.00  0.00     0.162 A 
ATOM     20  O   LIG d   1       9.428  11.159  -5.888  0.00  0.00    -0.488 OA
ATOM     21  C   LIG d   1      12.557   9.311  -6.187  0.00  0.00    -0.016 A 
ATOM     22  O   LIG d   1      12.104  11.651  -6.170  0.00  0.00    -0.488 OA
ATOM     23  C   LIG d   1      12.101   8.009  -6.117  0.00  0.00    -0.050 A 
ATOM     24  H   LIG d   1      13.614   9.508  -6.298  0.00  0.00     0.066 H 
ATOM     25  H   LIG d   1      12.801   7.188  -6.175  0.00  0.00     0.062 H 
ATOM     26  C   LIG d   1      11.983  12.413  -4.968  0.00  0.00     0.093 C 
ATOM     27  C   LIG d   1      10.594  13.019  -4.850  0.00  0.00     0.016 C 
ATOM     28  H   LIG d   1      12.166  11.764  -4.112  0.00  0.00     0.070 H 
ATOM     29  H   LIG d   1      12.723  13.214  -4.976  0.00  0.00     0.070 H 
ATOM     30  C   LIG d   1       9.512  11.960  -4.707  0.00  0.00     0.093 C 
ATOM     31  H   LIG d   1      10.566  13.672  -3.978  0.00  0.00     0.033 H 
ATOM     32  H   LIG d   1      10.390  13.613  -5.741  0.00  0.00     0.033 H 
ATOM     33  H   LIG d   1       9.746  11.320  -3.855  0.00  0.00     0.070 H 
ATOM     34  H   LIG d   1       8.552  12.448  -4.536  0.00  0.00     0.070 H 
ENDBRANCH   2  15
BRANCH   1  35
ATOM     35  C   LIG d   1      10.052   6.379  -8.365  0.00  0.00    -0.006 C 
ATOM     36  H   LIG d   1      10.301   5.651  -9.136  0.00  0.00     0.031 H 
ATOM     37  H   LIG d   1       9.110   6.867  -8.617  0.00  0.00     0.031 H 
ATOM     38  H   LIG d   1      10.843   7.126  -8.302  0.00  0.00     0.031 H 
ENDBRANCH   1  35
BRANCH   8  39
ATOM     39  O   LIG d   1       8.236   0.405  -4.804  0.00  0.00    -0.422 OA
BRANCH  39  40
ATOM     40  C   LIG d   1       6.912   0.235  -4.986  0.00  0.00     0.344 C 
ATOM     41  O   LIG d   1       6.440   0.290  -6.104  0.00  0.00    -0.244 OA
BRANCH  40  42
ATOM     42  C   LIG d   1       6.035  -0.019  -3.825  0.00  0.00     0.059 A 
ATOM     43  C   LIG d   1       5.649  -1.324  -3.509  0.00  0.00    -0.048 A 
ATOM     44  C   LIG d   1       4.830  -1.553  -2.423  0.00  0.00    -0.061 A 
ATOM     45  H   LIG d   1       5.993  -2.151  -4.113  0.00  0.00     0.063 H 
ATOM     46  C   LIG d   1       4.389  -0.494  -1.649  0.00  0.00    -0.062 A 
ATOM     47  H   LIG d   1       4.531  -2.562  -2.179  0.00  0.00     0.062 H 
ATOM     48  C   LIG d   1       4.767   0.800  -1.957  0.00  0.00    -0.061 A 
ATOM     49  H   LIG d   1       3.747  -0.681  -0.801  0.00  0.00     0.062 H 
ATOM     50  C   LIG d   1       5.591   1.044  -3.036  0.00  0.00    -0.048 A 
ATOM     51  H   LIG d   1       4.420   1.622  -1.348  0.00  0.00     0.062 H 
ATOM     52  H   LIG d   1       5.889   2.055  -3.271  0.00  0.00     0.063 H 
ENDBRANCH  40  42
ENDBRANCH  39  40
ENDBRANCH   8  39
TORSDOF 5
ENDMDL
MODEL 4
REMARK VINA RESULT:      -7.1      5.611      6.901
REMARK  5 active torsions:
REMARK  status: ('A' for Active; 'I' for Inactive)
REMARK    1  A    between atoms: C_1  and  C_2 
REMARK    2  A    between atoms: C_3  and  C_22 
REMARK    3  A    between atoms: C_9  and  O_13 
REMARK    4  A    between atoms: O_13  and  C_14 
REMARK    5  A    between atoms: C_14  and  C_16 
ROOT
ATOM      1  C   LIG d   1       9.682   2.362  -7.565  0.00  0.00     0.114 A 
ATOM      2  C   LIG d   1       8.789   2.800  -8.489  0.00  0.00     0.067 A 
ATOM      3  C   LIG d   1       7.492   2.112  -8.601  0.00  0.00     0.200 A 
ATOM      4  O   LIG d   1       6.650   2.462  -9.411  0.00  0.00    -0.286 OA
ATOM      5  C   LIG d   1       7.258   0.982  -7.684  0.00  0.00     0.065 A 
ATOM      6  C   LIG d   1       6.062   0.263  -7.709  0.00  0.00    -0.044 A 
ATOM      7  C   LIG d   1       5.878  -0.778  -6.846  0.00  0.00    -0.018 A 
ATOM      8  C   LIG d   1       6.880  -1.127  -5.942  0.00  0.00     0.136 A 
ATOM      9  C   LIG d   1       8.072  -0.425  -5.904  0.00  0.00     0.024 A 
ATOM     10  C   LIG d   1       8.275   0.638  -6.775  0.00  0.00     0.142 A 
ATOM     11  O   LIG d   1       9.427   1.335  -6.750  0.00  0.00    -0.459 OA
ATOM     12  H   LIG d   1       5.284   0.532  -8.409  0.00  0.00     0.063 H 
ATOM     13  H   LIG d   1       4.952  -1.334  -6.864  0.00  0.00     0.065 H 
ATOM     14  H   LIG d   1       8.842  -0.703  -5.200  0.00  0.00     0.069 H 
ENDROOT
BRANCH   2  15
ATOM     15  C   LIG d   1       9.114   3.948  -9.370  0.00  0.00    -0.007 A 
ATOM     16  C   LIG d   1       9.757   3.733 -10.589  0.00  0.00    -0.008 A 
ATOM     17  C   LIG d   1      10.056   4.809 -11.404  0.00  0.00     0.163 A 
ATOM     18  H   LIG d   1      10.020   2.731 -10.895  0.00  0.00     0.066 H 
ATOM     19  C   LIG d   1       9.717   6.098 -11.011  0.00  0.00     0.162 A 
ATOM     20  O   LIG d   1      10.686   4.613 -12.598  0.00  0.00    -0.488 OA
ATOM     21  C   LIG d   1       9.078   6.313  -9.801  0.00  0.00    -0.016 A 
ATOM     22  O   LIG d   1      10.017   7.151 -11.826  0.00  0.00    -0.488 OA
ATOM     23  C   LIG d   1       8.772   5.243  -8.983  0.00  0.00    -0.050 A 
ATOM     24  H   LIG d   1       8.815   7.317  -9.499  0.00  0.00     0.066 H 
ATOM     25  H   LIG d   1       8.270   5.409  -8.041  0.00  0.00     0.062 H 
ATOM     26  C   LIG d   1       9.289   7.219 -13.053  0.00  0.00     0.093 C 
ATOM     27  C   LIG d   1       9.944   6.355 -14.118  0.00  0.00     0.016 C 
ATOM     28  H   LIG d   1       8.270   6.871 -12.885  0.00  0.00     0.070 H 
ATOM     29  H   LIG d   1       9.263   8.253 -13.397  0.00  0.00     0.070 H 
ATOM     30  C   LIG d   1       9.907   4.876 -13.767  0.00  0.00     0.093 C 
ATOM     31  H   LIG d   1       9.426   6.506 -15.064  0.00  0.00     0.033 H 
ATOM     32  H   LIG d   1      10.983   6.664 -14.234  0.00  0.00     0.033 H 
ATOM     33  H   LIG d   1       8.874   4.576 -13.585  0.00  0.00     0.070 H 
ATOM     34  H   LIG d   1      10.306   4.299 -14.601  0.00  0.00     0.070 H 
ENDBRANCH   2  15
BRANCH   1  35
ATOM     35  C   LIG d   1      11.010   3.066  -7.450  0.00  0.00    -0.006 C 
ATOM     36  H   LIG d   1      11.272   3.506  -8.411  0.00  0.00     0.031 H 
ATOM     37  H   LIG d   1      10.942   3.850  -6.697  0.00  0.00     0.031 H 
ATOM     38  H   LIG d   1      11.777   2.347  -7.159  0.00  0.00     0.031 H 
ENDBRANCH   1  35
BRANCH   8  39
ATOM     39  O   LIG d   1       6.683  -2.166  -5.089  0.00  0.00    -0.422 OA
BRANCH  39  40
ATOM     40  C   LIG d   1       6.642  -1.877  -3.773  0.00  0.00     0.344 C 
ATOM     41  O   LIG d   1       7.484  -2.333  -3.025  0.00  0.00    -0.244 OA
BRANCH  40  42
ATOM     42  C   LIG d   1       5.574  -1.006  -3.242  0.00  0.00     0.059 A 
ATOM     43  C   LIG d   1       4.272  -1.495  -3.108  0.00  0.00    -0.048 A 
ATOM     44  C   LIG d   1       3.279  -0.676  -2.611  0.00  0.00    -0.061 A 
ATOM     45  H   LIG d   1       4.044  -2.512  -3.393  0.00  0.00     0.063 H 
ATOM     46  C   LIG d   1       3.570   0.626  -2.246  0.00  0.00    -0.062 A 
ATOM     47  H   LIG d   1       2.272  -1.054  -2.508  0.00  0.00     0.062 H 
ATOM     48  C   LIG d   1       4.857   1.116  -2.376  0.00  0.00    -0.061 A 
ATOM     49  H   LIG d   1       2.789   1.262  -1.858  0.00  0.00     0.062 H 
ATOM     50  C   LIG d   1       5.862   0.307  -2.866  0.00  0.00    -0.048 A 
ATOM     51  H   LIG d   1       5.078   2.134  -2.088  0.00  0.00     0.062 H 
ATOM     52  H   LIG d   1       6.867   0.690  -2.961  0.00  0.00     0.063 H 
ENDBRANCH  40  42
ENDBRANCH  39  40
ENDBRANCH   8  39
TORSDOF 5
ENDMDL
MODEL 5
REMARK VINA RESULT:      -7.1      9.004     13.808
REMARK  5 active torsions:
REMARK  status: ('A' for Active; 'I' for Inactive)
REMARK    1  A    between atoms: C_1  and  C_2 
REMARK    2  A    between atoms: C_3  and  C_22 
REMARK    3  A    between atoms: C_9  and  O_13 
REMARK    4  A    between atoms: O_13  and  C_14 
REMARK    5  A    between atoms: C_14  and  C_16 
ROOT
ATOM      1  C   LIG d   1       6.392  -4.650  -7.384  0.00  0.00     0.114 A 
ATOM      2  C   LIG d   1       5.877  -4.994  -6.177  0.00  0.00     0.067 A 
ATOM      3  C   LIG d   1       5.125  -3.982  -5.415  0.00  0.00     0.200 A 
ATOM      4  O   LIG d   1       4.639  -4.232  -4.325  0.00  0.00    -0.286 OA
ATOM      5  C   LIG d   1       4.987  -2.651  -6.034  0.00  0.00     0.065 A 
ATOM      6  C   LIG d   1       4.294  -1.622  -5.395  0.00  0.00    -0.044 A 
ATOM      7  C   LIG d   1       4.185  -0.402  -5.997  0.00  0.00    -0.018 A 
ATOM      8  C   LIG d   1       4.764  -0.180  -7.246  0.00  0.00     0.136 A 
ATOM      9  C   LIG d   1       5.455  -1.189  -7.893  0.00  0.00     0.024 A 
ATOM     10  C   LIG d   1       5.574  -2.437  -7.294  0.00  0.00     0.142 A 
ATOM     11  O   LIG d   1       6.239  -3.433  -7.912  0.00  0.00    -0.459 OA
ATOM     12  H   LIG d   1       3.845  -1.792  -4.428  0.00  0.00     0.063 H 
ATOM     13  H   LIG d   1       3.648   0.395  -5.504  0.00  0.00     0.065 H 
ATOM     14  H   LIG d   1       5.899  -1.007  -8.860  0.00  0.00     0.069 H 
ENDROOT
BRANCH   2  15
ATOM     15  C   LIG d   1       6.068  -6.361  -5.633  0.00  0.00    -0.007 A 
ATOM     16  C   LIG d   1       5.025  -7.286  -5.689  0.00  0.00    -0.008 A 
ATOM     17  C   LIG d   1       5.212  -8.557  -5.180  0.00  0.00     0.163 A 
ATOM     18  H   LIG d   1       4.077  -7.010  -6.127  0.00  0.00     0.066 H 
ATOM     19  C   LIG d   1       6.431  -8.912  -4.617  0.00  0.00     0.162 A 
ATOM     20  O   LIG d   1       4.201  -9.472  -5.226  0.00  0.00    -0.488 OA
ATOM     21  C   LIG d   1       7.468  -7.995  -4.562  0.00  0.00    -0.016 A 
ATOM     22  O   LIG d   1       6.602 -10.172  -4.120  0.00  0.00    -0.488 OA
ATOM     23  C   LIG d   1       7.290  -6.724  -5.072  0.00  0.00    -0.050 A 
ATOM     24  H   LIG d   1       8.416  -8.274  -4.124  0.00  0.00     0.066 H 
ATOM     25  H   LIG d   1       8.100  -6.009  -5.033  0.00  0.00     0.062 H 
ATOM     26  C   LIG d   1       6.618 -11.227  -5.082  0.00  0.00     0.093 C 
ATOM     27  C   LIG d   1       5.204 -11.674  -5.417  0.00  0.00     0.016 C 
ATOM     28  H   LIG d   1       7.109 -10.877  -5.990  0.00  0.00     0.070 H 
ATOM     29  H   LIG d   1       7.174 -12.073  -4.677  0.00  0.00     0.070 H 
ATOM     30  C   LIG d   1       4.400 -10.582  -6.104  0.00  0.00     0.093 C 
ATOM     31  H   LIG d   1       5.254 -12.542  -6.074  0.00  0.00     0.033 H 
ATOM     32  H   LIG d   1       4.697 -11.960  -4.496  0.00  0.00     0.033 H 
ATOM     33  H   LIG d   1       4.936 -10.245  -6.992  0.00  0.00     0.070 H 
ATOM     34  H   LIG d   1       3.431 -10.983  -6.401  0.00  0.00     0.070 H 
ENDBRANCH   2  15
BRANCH   1  35
ATOM     35  C   LIG d   1       7.162  -5.686  -8.164  0.00  0.00    -0.006 C 
ATOM     36  H   LIG d   1       7.879  -5.190  -8.817  0.00  0.00     0.031 H 
ATOM     37  H   LIG d   1       7.691  -6.341  -7.473  0.00  0.00     0.031 H 
ATOM     38  H   LIG d   1       6.469  -6.275  -8.766  0.00  0.00     0.031 H 
ENDBRANCH   1  35
BRANCH   8  39
ATOM     39  O   LIG d   1       4.647   1.040  -7.833  0.00  0.00    -0.422 OA
BRANCH  39  40
ATOM     40  C   LIG d   1       3.455   1.341  -8.385  0.00  0.00     0.344 C 
ATOM     41  O   LIG d   1       2.793   2.256  -7.937  0.00  0.00    -0.244 OA
BRANCH  40  42
ATOM     42  C   LIG d   1       2.955   0.559  -9.533  0.00  0.00     0.059 A 
ATOM     43  C   LIG d   1       1.754  -0.147  -9.431  0.00  0.00    -0.048 A 
ATOM     44  C   LIG d   1       1.293  -0.875 -10.508  0.00  0.00    -0.061 A 
ATOM     45  H   LIG d   1       1.188  -0.122  -8.512  0.00  0.00     0.063 H 
ATOM     46  C   LIG d   1       2.017  -0.908 -11.687  0.00  0.00    -0.062 A 
ATOM     47  H   LIG d   1       0.364  -1.422 -10.430  0.00  0.00     0.062 H 
ATOM     48  C   LIG d   1       3.207  -0.211 -11.794  0.00  0.00    -0.061 A 
ATOM     49  H   LIG d   1       1.651  -1.480 -12.526  0.00  0.00     0.062 H 
ATOM     50  C   LIG d   1       3.678   0.527 -10.727  0.00  0.00    -0.048 A 
ATOM     51  H   LIG d   1       3.767  -0.240 -12.717  0.00  0.00     0.062 H 
ATOM     52  H   LIG d   1       4.604   1.075 -10.816  0.00  0.00     0.063 H 
ENDBRANCH  40  42
ENDBRANCH  39  40
ENDBRANCH   8  39
TORSDOF 5
ENDMDL
MODEL 6
REMARK VINA RESULT:      -7.1      8.253     12.565
REMARK  5 active torsions:
REMARK  status: ('A' for Active; 'I' for Inactive)
REMARK    1  A    between atoms: C_1  and  C_2 
REMARK    2  A    between atoms: C_3  and  C_22 
REMARK    3  A    between atoms: C_9  and  O_13 
REMARK    4  A    between atoms: O_13  and  C_14 
REMARK    5  A    between atoms: C_14  and  C_16 
ROOT
ATOM      1  C   LIG d   1       2.550   0.213  -9.173  0.00  0.00     0.114 A 
ATOM      2  C   LIG d   1       3.059  -0.847  -8.495  0.00  0.00     0.067 A 
ATOM      3  C   LIG d   1       2.825  -2.202  -9.023  0.00  0.00     0.200 A 
ATOM      4  O   LIG d   1       3.258  -3.192  -8.458  0.00  0.00    -0.286 OA
ATOM      5  C   LIG d   1       2.045  -2.303 -10.269  0.00  0.00     0.065 A 
ATOM      6  C   LIG d   1       1.768  -3.541 -10.852  0.00  0.00    -0.044 A 
ATOM      7  C   LIG d   1       1.042  -3.600 -12.007  0.00  0.00    -0.018 A 
ATOM      8  C   LIG d   1       0.576  -2.429 -12.604  0.00  0.00     0.136 A 
ATOM      9  C   LIG d   1       0.842  -1.194 -12.039  0.00  0.00     0.024 A 
ATOM     10  C   LIG d   1       1.580  -1.117 -10.864  0.00  0.00     0.142 A 
ATOM     11  O   LIG d   1       1.851   0.077 -10.303  0.00  0.00    -0.459 OA
ATOM     12  H   LIG d   1       2.128  -4.449 -10.391  0.00  0.00     0.063 H 
ATOM     13  H   LIG d   1       0.828  -4.556 -12.460  0.00  0.00     0.065 H 
ATOM     14  H   LIG d   1       0.477  -0.294 -12.509  0.00  0.00     0.069 H 
ENDROOT
BRANCH   2  15
ATOM     15  C   LIG d   1       3.833  -0.646  -7.246  0.00  0.00    -0.007 A 
ATOM     16  C   LIG d   1       3.168  -0.420  -6.041  0.00  0.00    -0.008 A 
ATOM     17  C   LIG d   1       3.899  -0.234  -4.882  0.00  0.00     0.163 A 
ATOM     18  H   LIG d   1       2.089  -0.392  -6.013  0.00  0.00     0.066 H 
ATOM     19  C   LIG d   1       5.286  -0.272  -4.917  0.00  0.00     0.162 A 
ATOM     20  O   LIG d   1       3.261  -0.012  -3.696  0.00  0.00    -0.488 OA
ATOM     21  C   LIG d   1       5.949  -0.497  -6.113  0.00  0.00    -0.016 A 
ATOM     22  O   LIG d   1       5.995  -0.088  -3.764  0.00  0.00    -0.488 OA
ATOM     23  C   LIG d   1       5.226  -0.688  -7.275  0.00  0.00    -0.050 A 
ATOM     24  H   LIG d   1       7.028  -0.526  -6.137  0.00  0.00     0.066 H 
ATOM     25  H   LIG d   1       5.741  -0.867  -8.207  0.00  0.00     0.062 H 
ATOM     26  C   LIG d   1       5.885  -1.127  -2.790  0.00  0.00     0.093 C 
ATOM     27  C   LIG d   1       4.649  -0.930  -1.928  0.00  0.00     0.016 C 
ATOM     28  H   LIG d   1       5.819  -2.089  -3.298  0.00  0.00     0.070 H 
ATOM     29  H   LIG d   1       6.770  -1.116  -2.154  0.00  0.00     0.070 H 
ATOM     30  C   LIG d   1       3.361  -1.056  -2.726  0.00  0.00     0.093 C 
ATOM     31  H   LIG d   1       4.648  -1.677  -1.135  0.00  0.00     0.033 H 
ATOM     32  H   LIG d   1       4.688   0.061  -1.475  0.00  0.00     0.033 H 
ATOM     33  H   LIG d   1       3.347  -2.021  -3.234  0.00  0.00     0.070 H 
ATOM     34  H   LIG d   1       2.510  -0.997  -2.047  0.00  0.00     0.070 H 
ENDBRANCH   2  15
BRANCH   1  35
ATOM     35  C   LIG d   1       2.789   1.601  -8.632  0.00  0.00    -0.006 C 
ATOM     36  H   LIG d   1       3.815   1.901  -8.842  0.00  0.00     0.031 H 
ATOM     37  H   LIG d   1       2.101   2.299  -9.109  0.00  0.00     0.031 H 
ATOM     38  H   LIG d   1       2.622   1.604  -7.555  0.00  0.00     0.031 H 
ENDBRANCH   1  35
BRANCH   8  39
ATOM     39  O   LIG d   1      -0.145  -2.503 -13.753  0.00  0.00    -0.422 OA
BRANCH  39  40
ATOM     40  C   LIG d   1      -1.471  -2.282 -13.658  0.00  0.00     0.344 C 
ATOM     41  O   LIG d   1      -2.201  -3.151 -13.224  0.00  0.00    -0.244 OA
BRANCH  40  42
ATOM     42  C   LIG d   1      -2.036  -0.984 -14.079  0.00  0.00     0.059 A 
ATOM     43  C   LIG d   1      -2.204  -0.700 -15.437  0.00  0.00    -0.048 A 
ATOM     44  C   LIG d   1      -2.732   0.514 -15.823  0.00  0.00    -0.061 A 
ATOM     45  H   LIG d   1      -1.922  -1.430 -16.181  0.00  0.00     0.063 H 
ATOM     46  C   LIG d   1      -3.095   1.449 -14.871  0.00  0.00    -0.062 A 
ATOM     47  H   LIG d   1      -2.862   0.734 -16.873  0.00  0.00     0.062 H 
ATOM     48  C   LIG d   1      -2.930   1.174 -13.525  0.00  0.00    -0.061 A 
ATOM     49  H   LIG d   1      -3.507   2.398 -15.180  0.00  0.00     0.062 H 
ATOM     50  C   LIG d   1      -2.409  -0.038 -13.123  0.00  0.00    -0.048 A 
ATOM     51  H   LIG d   1      -3.216   1.909 -12.786  0.00  0.00     0.062 H 
ATOM     52  H   LIG d   1      -2.287  -0.253 -12.072  0.00  0.00     0.063 H 
ENDBRANCH  40  42
ENDBRANCH  39  40
ENDBRANCH   8  39
TORSDOF 5
ENDMDL
MODEL 7
REMARK VINA RESULT:      -7.0      9.128     12.464
REMARK  5 active torsions:
REMARK  status: ('A' for Active; 'I' for Inactive)
REMARK    1  A    between atoms: C_1  and  C_2 
REMARK    2  A    between atoms: C_3  and  C_22 
REMARK    3  A    between atoms: C_9  and  O_13 
REMARK    4  A    between atoms: O_13  and  C_14 
REMARK    5  A    between atoms: C_14  and  C_16 
ROOT
ATOM      1  C   LIG d   1       7.076  -5.058  -5.072  0.00  0.00     0.114 A 
ATOM      2  C   LIG d   1       5.760  -4.809  -5.292  0.00  0.00     0.067 A 
ATOM      3  C   LIG d   1       4.869  -5.940  -5.602  0.00  0.00     0.200 A 
ATOM      4  O   LIG d   1       3.678  -5.779  -5.807  0.00  0.00    -0.286 OA
ATOM      5  C   LIG d   1       5.485  -7.278  -5.649  0.00  0.00     0.065 A 
ATOM      6  C   LIG d   1       4.728  -8.416  -5.935  0.00  0.00    -0.044 A 
ATOM      7  C   LIG d   1       5.331  -9.640  -5.970  0.00  0.00    -0.018 A 
ATOM      8  C   LIG d   1       6.698  -9.758  -5.724  0.00  0.00     0.136 A 
ATOM      9  C   LIG d   1       7.463  -8.640  -5.440  0.00  0.00     0.024 A 
ATOM     10  C   LIG d   1       6.865  -7.387  -5.399  0.00  0.00     0.142 A 
ATOM     11  O   LIG d   1       7.593  -6.288  -5.120  0.00  0.00    -0.459 OA
ATOM     12  H   LIG d   1       3.669  -8.327  -6.125  0.00  0.00     0.063 H 
ATOM     13  H   LIG d   1       4.747 -10.521  -6.190  0.00  0.00     0.065 H 
ATOM     14  H   LIG d   1       8.521  -8.742  -5.252  0.00  0.00     0.069 H 
ENDROOT
BRANCH   2  15
ATOM     15  C   LIG d   1       5.229  -3.426  -5.223  0.00  0.00    -0.007 A 
ATOM     16  C   LIG d   1       5.175  -2.641  -6.374  0.00  0.00    -0.008 A 
ATOM     17  C   LIG d   1       4.678  -1.353  -6.301  0.00  0.00     0.163 A 
ATOM     18  H   LIG d   1       5.518  -3.037  -7.319  0.00  0.00     0.066 H 
ATOM     19  C   LIG d   1       4.236  -0.844  -5.087  0.00  0.00     0.162 A 
ATOM     20  O   LIG d   1       4.620  -0.573  -7.419  0.00  0.00    -0.488 OA
ATOM     21  C   LIG d   1       4.288  -1.622  -3.942  0.00  0.00    -0.016 A 
ATOM     22  O   LIG d   1       3.747   0.430  -5.029  0.00  0.00    -0.488 OA
ATOM     23  C   LIG d   1       4.779  -2.912  -4.009  0.00  0.00    -0.050 A 
ATOM     24  H   LIG d   1       3.943  -1.223  -2.999  0.00  0.00     0.066 H 
ATOM     25  H   LIG d   1       4.817  -3.521  -3.117  0.00  0.00     0.062 H 
ATOM     26  C   LIG d   1       2.504   0.654  -5.697  0.00  0.00     0.093 C 
ATOM     27  C   LIG d   1       2.728   0.929  -7.175  0.00  0.00     0.016 C 
ATOM     28  H   LIG d   1       1.874  -0.228  -5.587  0.00  0.00     0.070 H 
ATOM     29  H   LIG d   1       2.004   1.511  -5.245  0.00  0.00     0.070 H 
ATOM     30  C   LIG d   1       3.311  -0.272  -7.905  0.00  0.00     0.093 C 
ATOM     31  H   LIG d   1       1.776   1.192  -7.634  0.00  0.00     0.033 H 
ATOM     32  H   LIG d   1       3.413   1.770  -7.279  0.00  0.00     0.033 H 
ATOM     33  H   LIG d   1       2.663  -1.135  -7.750  0.00  0.00     0.070 H 
ATOM     34  H   LIG d   1       3.366  -0.052  -8.971  0.00  0.00     0.070 H 
ENDBRANCH   2  15
BRANCH   1  35
ATOM     35  C   LIG d   1       7.989  -3.901  -4.755  0.00  0.00    -0.006 C 
ATOM     36  H   LIG d   1       7.620  -3.378  -3.874  0.00  0.00     0.031 H 
ATOM     37  H   LIG d   1       8.994  -4.274  -4.562  0.00  0.00     0.031 H 
ATOM     38  H   LIG d   1       8.012  -3.215  -5.602  0.00  0.00     0.031 H 
ENDBRANCH   1  35
BRANCH   8  39
ATOM     39  O   LIG d   1       7.285 -10.983  -5.763  0.00  0.00    -0.422 OA
BRANCH  39  40
ATOM     40  C   LIG d   1       6.872 -11.887  -4.854  0.00  0.00     0.344 C 
ATOM     41  O   LIG d   1       6.361 -12.927  -5.221  0.00  0.00    -0.244 OA
BRANCH  40  42
ATOM     42  C   LIG d   1       7.040 -11.615  -3.412  0.00  0.00     0.059 A 
ATOM     43  C   LIG d   1       8.320 -11.541  -2.858  0.00  0.00    -0.048 A 
ATOM     44  C   LIG d   1       8.470 -11.286  -1.510  0.00  0.00    -0.061 A 
ATOM     45  H   LIG d   1       9.190 -11.682  -3.483  0.00  0.00     0.063 H 
ATOM     46  C   LIG d   1       7.357 -11.105  -0.709  0.00  0.00    -0.062 A 
ATOM     47  H   LIG d   1       9.460 -11.229  -1.081  0.00  0.00     0.062 H 
ATOM     48  C   LIG d   1       6.087 -11.177  -1.252  0.00  0.00    -0.061 A 
ATOM     49  H   LIG d   1       7.482 -10.906   0.345  0.00  0.00     0.062 H 
ATOM     50  C   LIG d   1       5.922 -11.426  -2.599  0.00  0.00    -0.048 A 
ATOM     51  H   LIG d   1       5.222 -11.034  -0.621  0.00  0.00     0.062 H 
ATOM     52  H   LIG d   1       4.929 -11.476  -3.022  0.00  0.00     0.063 H 
ENDBRANCH  40  42
ENDBRANCH  39  40
ENDBRANCH   8  39
TORSDOF 5
ENDMDL
MODEL 8
REMARK VINA RESULT:      -7.0      7.515     13.729
REMARK  5 active torsions:
REMARK  status: ('A' for Active; 'I' for Inactive)
REMARK    1  A    between atoms: C_1  and  C_2 
REMARK    2  A    between atoms: C_3  and  C_22 
REMARK    3  A    between atoms: C_9  and  O_13 
REMARK    4  A    between atoms: O_13  and  C_14 
REMARK    5  A    between atoms: C_14  and  C_16 
ROOT
ATOM      1  C   LIG d   1       2.548  -1.452  -9.203  0.00  0.00     0.114 A 
ATOM      2  C   LIG d   1       2.627  -2.699  -9.733  0.00  0.00     0.067 A 
ATOM      3  C   LIG d   1       3.712  -3.589  -9.287  0.00  0.00     0.200 A 
ATOM      4  O   LIG d   1       3.833  -4.720  -9.726  0.00  0.00    -0.286 OA
ATOM      5  C   LIG d   1       4.645  -3.048  -8.283  0.00  0.00     0.065 A 
ATOM      6  C   LIG d   1       5.707  -3.811  -7.795  0.00  0.00    -0.044 A 
ATOM      7  C   LIG d   1       6.553  -3.279  -6.864  0.00  0.00    -0.018 A 
ATOM      8  C   LIG d   1       6.360  -1.978  -6.401  0.00  0.00     0.136 A 
ATOM      9  C   LIG d   1       5.311  -1.209  -6.874  0.00  0.00     0.024 A 
ATOM     10  C   LIG d   1       4.441  -1.735  -7.821  0.00  0.00     0.142 A 
ATOM     11  O   LIG d   1       3.413  -1.002  -8.290  0.00  0.00    -0.459 OA
ATOM     12  H   LIG d   1       5.859  -4.819  -8.152  0.00  0.00     0.063 H 
ATOM     13  H   LIG d   1       7.375  -3.868  -6.485  0.00  0.00     0.065 H 
ATOM     14  H   LIG d   1       5.170  -0.202  -6.509  0.00  0.00     0.069 H 
ENDROOT
BRANCH   2  15
ATOM     15  C   LIG d   1       1.640  -3.156 -10.741  0.00  0.00    -0.007 A 
ATOM     16  C   LIG d   1       0.591  -3.994 -10.362  0.00  0.00    -0.008 A 
ATOM     17  C   LIG d   1      -0.324  -4.415 -11.308  0.00  0.00     0.163 A 
ATOM     18  H   LIG d   1       0.494  -4.311  -9.334  0.00  0.00     0.066 H 
ATOM     19  C   LIG d   1      -0.200  -4.006 -12.630  0.00  0.00     0.162 A 
ATOM     20  O   LIG d   1      -1.355  -5.235 -10.951  0.00  0.00    -0.488 OA
ATOM     21  C   LIG d   1       0.841  -3.174 -13.009  0.00  0.00    -0.016 A 
ATOM     22  O   LIG d   1      -1.112  -4.429 -13.554  0.00  0.00    -0.488 OA
ATOM     23  C   LIG d   1       1.756  -2.746 -12.067  0.00  0.00    -0.050 A 
ATOM     24  H   LIG d   1       0.934  -2.858 -14.037  0.00  0.00     0.066 H 
ATOM     25  H   LIG d   1       2.566  -2.094 -12.361  0.00  0.00     0.062 H 
ATOM     26  C   LIG d   1      -2.436  -3.913 -13.407  0.00  0.00     0.093 C 
ATOM     27  C   LIG d   1      -3.231  -4.742 -12.411  0.00  0.00     0.016 C 
ATOM     28  H   LIG d   1      -2.383  -2.883 -13.056  0.00  0.00     0.070 H 
ATOM     29  H   LIG d   1      -2.939  -3.937 -14.374  0.00  0.00     0.070 H 
ATOM     30  C   LIG d   1      -2.661  -4.658 -11.004  0.00  0.00     0.093 C 
ATOM     31  H   LIG d   1      -4.260  -4.386 -12.397  0.00  0.00     0.033 H 
ATOM     32  H   LIG d   1      -3.224  -5.784 -12.733  0.00  0.00     0.033 H 
ATOM     33  H   LIG d   1      -2.604  -3.612 -10.702  0.00  0.00     0.070 H 
ATOM     34  H   LIG d   1      -3.318  -5.194 -10.318  0.00  0.00     0.070 H 
ENDBRANCH   2  15
BRANCH   1  35
ATOM     35  C   LIG d   1       1.438  -0.540  -9.659  0.00  0.00    -0.006 C 
ATOM     36  H   LIG d   1       1.859   0.405  -9.998  0.00  0.00     0.031 H 
ATOM     37  H   LIG d   1       0.894  -1.010 -10.478  0.00  0.00     0.031 H 
ATOM     38  H   LIG d   1       0.756  -0.356  -8.828  0.00  0.00     0.031 H 
ENDBRANCH   1  35
BRANCH   8  39
ATOM     39  O   LIG d   1       7.209  -1.462  -5.475  0.00  0.00    -0.422 OA
BRANCH  39  40
ATOM     40  C   LIG d   1       6.974  -1.779  -4.186  0.00  0.00     0.344 C 
ATOM     41  O   LIG d   1       7.508  -2.752  -3.693  0.00  0.00    -0.244 OA
BRANCH  40  42
ATOM     42  C   LIG d   1       6.068  -0.942  -3.374  0.00  0.00     0.059 A 
ATOM     43  C   LIG d   1       5.075  -1.537  -2.592  0.00  0.00    -0.048 A 
ATOM     44  C   LIG d   1       4.233  -0.749  -1.836  0.00  0.00    -0.061 A 
ATOM     45  H   LIG d   1       4.968  -2.612  -2.580  0.00  0.00     0.063 H 
ATOM     46  C   LIG d   1       4.369   0.628  -1.851  0.00  0.00    -0.062 A 
ATOM     47  H   LIG d   1       3.465  -1.209  -1.231  0.00  0.00     0.062 H 
ATOM     48  C   LIG d   1       5.350   1.223  -2.623  0.00  0.00    -0.061 A 
ATOM     49  H   LIG d   1       3.706   1.239  -1.257  0.00  0.00     0.062 H 
ATOM     50  C   LIG d   1       6.204   0.448  -3.379  0.00  0.00    -0.048 A 
ATOM     51  H   LIG d   1       5.451   2.299  -2.629  0.00  0.00     0.062 H 
ATOM     52  H   LIG d   1       6.973   0.915  -3.977  0.00  0.00     0.063 H 
ENDBRANCH  40  42
ENDBRANCH  39  40
ENDBRANCH   8  39
TORSDOF 5
ENDMDL
MODEL 9
REMARK VINA RESULT:      -7.0      3.261      4.311
REMARK  5 active torsions:
REMARK  status: ('A' for Active; 'I' for Inactive)
REMARK    1  A    between atoms: C_1  and  C_2 
REMARK    2  A    between atoms: C_3  and  C_22 
REMARK    3  A    between atoms: C_9  and  O_13 
REMARK    4  A    between atoms: O_13  and  C_14 
REMARK    5  A    between atoms: C_14  and  C_16 
ROOT
ATOM      1  C   LIG d   1       9.640   4.765  -7.950  0.00  0.00     0.114 A 
ATOM      2  C   LIG d   1       9.902   5.721  -7.023  0.00  0.00     0.067 A 
ATOM      3  C   LIG d   1       9.826   5.362  -5.596  0.00  0.00     0.200 A 
ATOM      4  O   LIG d   1      10.052   6.178  -4.719  0.00  0.00    -0.286 OA
ATOM      5  C   LIG d   1       9.465   3.968  -5.280  0.00  0.00     0.065 A 
ATOM      6  C   LIG d   1       9.365   3.527  -3.960  0.00  0.00    -0.044 A 
ATOM      7  C   LIG d   1       9.028   2.230  -3.702  0.00  0.00    -0.018 A 
ATOM      8  C   LIG d   1       8.783   1.345  -4.751  0.00  0.00     0.136 A 
ATOM      9  C   LIG d   1       8.878   1.767  -6.066  0.00  0.00     0.024 A 
ATOM     10  C   LIG d   1       9.220   3.084  -6.346  0.00  0.00     0.142 A 
ATOM     11  O   LIG d   1       9.320   3.511  -7.620  0.00  0.00    -0.459 OA
ATOM     12  H   LIG d   1       9.555   4.210  -3.145  0.00  0.00     0.063 H 
ATOM     13  H   LIG d   1       8.952   1.886  -2.681  0.00  0.00     0.065 H 
ATOM     14  H   LIG d   1       8.686   1.074  -6.872  0.00  0.00     0.069 H 
ENDROOT
BRANCH   2  15
ATOM     15  C   LIG d   1      10.258   7.100  -7.437  0.00  0.00    -0.007 A 
ATOM     16  C   LIG d   1      11.598   7.463  -7.576  0.00  0.00    -0.008 A 
ATOM     17  C   LIG d   1      11.920   8.750  -7.963  0.00  0.00     0.163 A 
ATOM     18  H   LIG d   1      12.379   6.742  -7.383  0.00  0.00     0.066 H 
ATOM     19  C   LIG d   1      10.916   9.676  -8.213  0.00  0.00     0.162 A 
ATOM     20  O   LIG d   1      13.226   9.120  -8.102  0.00  0.00    -0.488 OA
ATOM     21  C   LIG d   1       9.585   9.317  -8.076  0.00  0.00    -0.016 A 
ATOM     22  O   LIG d   1      11.249  10.944  -8.596  0.00  0.00    -0.488 OA
ATOM     23  C   LIG d   1       9.255   8.032  -7.694  0.00  0.00    -0.050 A 
ATOM     24  H   LIG d   1       8.806  10.040  -8.272  0.00  0.00     0.066 H 
ATOM     25  H   LIG d   1       8.217   7.749  -7.591  0.00  0.00     0.062 H 
ATOM     26  C   LIG d   1      11.836  11.072  -9.891  0.00  0.00     0.093 C 
ATOM     27  C   LIG d   1      13.334  10.819  -9.833  0.00  0.00     0.016 C 
ATOM     28  H   LIG d   1      11.376  10.351 -10.567  0.00  0.00     0.070 H 
ATOM     29  H   LIG d   1      11.658  12.080 -10.267  0.00  0.00     0.070 H 
ATOM     30  C   LIG d   1      13.663   9.388  -9.436  0.00  0.00     0.093 C 
ATOM     31  H   LIG d   1      13.765  11.021 -10.813  0.00  0.00     0.033 H 
ATOM     32  H   LIG d   1      13.779  11.498  -9.106  0.00  0.00     0.033 H 
ATOM     33  H   LIG d   1      13.165   8.701 -10.121  0.00  0.00     0.070 H 
ATOM     34  H   LIG d   1      14.741   9.237  -9.497  0.00  0.00     0.070 H 
ENDBRANCH   2  15
BRANCH   1  35
ATOM     35  C   LIG d   1       9.718   5.131  -9.410  0.00  0.00    -0.006 C 
ATOM     36  H   LIG d   1       8.827   5.689  -9.693  0.00  0.00     0.031 H 
ATOM     37  H   LIG d   1      10.602   5.744  -9.584  0.00  0.00     0.031 H 
ATOM     38  H   LIG d   1       9.783   4.222 -10.009  0.00  0.00     0.031 H 
ENDBRANCH   1  35
BRANCH   8  39
ATOM     39  O   LIG d   1       8.449   0.057  -4.480  0.00  0.00    -0.422 OA
BRANCH  39  40
ATOM     40  C   LIG d   1       7.181  -0.314  -4.744  0.00  0.00     0.344 C 
ATOM     41  O   LIG d   1       6.867  -0.647  -5.869  0.00  0.00    -0.244 OA
BRANCH  40  42
ATOM     42  C   LIG d   1       6.173  -0.317  -3.664  0.00  0.00     0.059 A 
ATOM     43  C   LIG d   1       5.619  -1.521  -3.224  0.00  0.00    -0.048 A 
ATOM     44  C   LIG d   1       4.679  -1.516  -2.215  0.00  0.00    -0.061 A 
ATOM     45  H   LIG d   1       5.928  -2.454  -3.672  0.00  0.00     0.063 H 
ATOM     46  C   LIG d   1       4.283  -0.321  -1.639  0.00  0.00    -0.062 A 
ATOM     47  H   LIG d   1       4.250  -2.447  -1.874  0.00  0.00     0.062 H 
ATOM     48  C   LIG d   1       4.827   0.875  -2.071  0.00  0.00    -0.061 A 
ATOM     49  H   LIG d   1       3.546  -0.324  -0.850  0.00  0.00     0.062 H 
ATOM     50  C   LIG d   1       5.774   0.884  -3.075  0.00  0.00    -0.048 A 
ATOM     51  H   LIG d   1       4.514   1.804  -1.617  0.00  0.00     0.062 H 
ATOM     52  H   LIG d   1       6.201   1.819  -3.406  0.00  0.00     0.063 H 
ENDBRANCH  40  42
ENDBRANCH  39  40
ENDBRANCH   8  39
TORSDOF 5
ENDMDL
MODEL 10
REMARK VINA RESULT:      -6.7      8.245     13.701
REMARK  5 active torsions:
REMARK  status: ('A' for Active; 'I' for Inactive)
REMARK    1  A    between atoms: C_1  and  C_2 
REMARK    2  A    between atoms: C_3  and  C_22 
REMARK    3  A    between atoms: C_9  and  O_13 
REMARK    4  A    between atoms: O_13  and  C_14 
REMARK    5  A    between atoms: C_14  and  C_16 
ROOT
ATOM      1  C   LIG d   1       8.330  -7.388  -4.484  0.00  0.00     0.114 A 
ATOM      2  C   LIG d   1       9.255  -7.104  -3.532  0.00  0.00     0.067 A 
ATOM      3  C   LIG d   1       9.526  -5.693  -3.209  0.00  0.00     0.200 A 
ATOM      4  O   LIG d   1      10.344  -5.375  -2.362  0.00  0.00    -0.286 OA
ATOM      5  C   LIG d   1       8.758  -4.681  -3.958  0.00  0.00     0.065 A 
ATOM      6  C   LIG d   1       8.940  -3.316  -3.727  0.00  0.00    -0.044 A 
ATOM      7  C   LIG d   1       8.213  -2.406  -4.438  0.00  0.00    -0.018 A 
ATOM      8  C   LIG d   1       7.291  -2.833  -5.392  0.00  0.00     0.136 A 
ATOM      9  C   LIG d   1       7.098  -4.182  -5.633  0.00  0.00     0.024 A 
ATOM     10  C   LIG d   1       7.830  -5.122  -4.918  0.00  0.00     0.142 A 
ATOM     11  O   LIG d   1       7.653  -6.440  -5.136  0.00  0.00    -0.459 OA
ATOM     12  H   LIG d   1       9.653  -2.982  -2.988  0.00  0.00     0.063 H 
ATOM     13  H   LIG d   1       8.351  -1.350  -4.260  0.00  0.00     0.065 H 
ATOM     14  H   LIG d   1       6.382  -4.504  -6.374  0.00  0.00     0.069 H 
ENDROOT
BRANCH   2  15
ATOM     15  C   LIG d   1       9.979  -8.192  -2.830  0.00  0.00    -0.007 A 
ATOM     16  C   LIG d   1       9.449  -8.744  -1.664  0.00  0.00    -0.008 A 
ATOM     17  C   LIG d   1      10.131  -9.758  -1.017  0.00  0.00     0.163 A 
ATOM     18  H   LIG d   1       8.511  -8.382  -1.269  0.00  0.00     0.066 H 
ATOM     19  C   LIG d   1      11.336 -10.224  -1.526  0.00  0.00     0.162 A 
ATOM     20  O   LIG d   1       9.625 -10.307   0.125  0.00  0.00    -0.488 OA
ATOM     21  C   LIG d   1      11.864  -9.677  -2.684  0.00  0.00    -0.016 A 
ATOM     22  O   LIG d   1      11.998 -11.227  -0.877  0.00  0.00    -0.488 OA
ATOM     23  C   LIG d   1      11.186  -8.667  -3.339  0.00  0.00    -0.050 A 
ATOM     24  H   LIG d   1      12.801 -10.042  -3.077  0.00  0.00     0.066 H 
ATOM     25  H   LIG d   1      11.595  -8.242  -4.244  0.00  0.00     0.062 H 
ATOM     26  C   LIG d   1      11.369 -12.509  -0.902  0.00  0.00     0.093 C 
ATOM     27  C   LIG d   1      10.338 -12.626   0.209  0.00  0.00     0.016 C 
ATOM     28  H   LIG d   1      10.879 -12.649  -1.865  0.00  0.00     0.070 H 
ATOM     29  H   LIG d   1      12.127 -13.282  -0.769  0.00  0.00     0.070 H 
ATOM     30  C   LIG d   1       9.178 -11.661   0.024  0.00  0.00     0.093 C 
ATOM     31  H   LIG d   1       9.950 -13.644   0.225  0.00  0.00     0.033 H 
ATOM     32  H   LIG d   1      10.821 -12.419   1.163  0.00  0.00     0.033 H 
ATOM     33  H   LIG d   1       8.731 -11.819  -0.958  0.00  0.00     0.070 H 
ATOM     34  H   LIG d   1       8.428 -11.849   0.793  0.00  0.00     0.070 H 
ENDBRANCH   2  15
BRANCH   1  35
ATOM     35  C   LIG d   1       8.053  -8.833  -4.815  0.00  0.00    -0.006 C 
ATOM     36  H   LIG d   1       8.990  -9.388  -4.834  0.00  0.00     0.031 H 
ATOM     37  H   LIG d   1       7.394  -9.258  -4.058  0.00  0.00     0.031 H 
ATOM     38  H   LIG d   1       7.573  -8.895  -5.792  0.00  0.00     0.031 H 
ENDBRANCH   1  35
BRANCH   8  39
ATOM     39  O   LIG d   1       6.574  -1.916  -6.092  0.00  0.00    -0.422 OA
BRANCH  39  40
ATOM     40  C   LIG d   1       5.288  -1.739  -5.730  0.00  0.00     0.344 C 
ATOM     41  O   LIG d   1       4.400  -1.896  -6.544  0.00  0.00    -0.244 OA
BRANCH  40  42
ATOM     42  C   LIG d   1       4.959  -1.354  -4.342  0.00  0.00     0.059 A 
ATOM     43  C   LIG d   1       5.305  -0.088  -3.864  0.00  0.00    -0.048 A 
ATOM     44  C   LIG d   1       4.994   0.264  -2.567  0.00  0.00    -0.061 A 
ATOM     45  H   LIG d   1       5.813   0.613  -4.509  0.00  0.00     0.063 H 
ATOM     46  C   LIG d   1       4.343  -0.634  -1.740  0.00  0.00    -0.062 A 
ATOM     47  H   LIG d   1       5.262   1.243  -2.197  0.00  0.00     0.062 H 
ATOM     48  C   LIG d   1       3.998  -1.889  -2.207  0.00  0.00    -0.061 A 
ATOM     49  H   LIG d   1       4.103  -0.352  -0.725  0.00  0.00     0.062 H 
ATOM     50  C   LIG d   1       4.296  -2.253  -3.504  0.00  0.00    -0.048 A 
ATOM     51  H   LIG d   1       3.489  -2.585  -1.556  0.00  0.00     0.062 H 
ATOM     52  H   LIG d   1       4.021  -3.232  -3.868  0.00  0.00     0.063 H 
ENDBRANCH  40  42
ENDBRANCH  39  40
ENDBRANCH   8  39
TORSDOF 5
ENDMDL
