MODEL 1
REMARK VINA RESULT:      -6.2      0.000      0.000
REMARK  6 active torsions:
REMARK  status: ('A' for Active; 'I' for Inactive)
REMARK    1  A    between atoms: C_4  and  C_7 
REMARK    2  A    between atoms: C_7  and  C_9 
REMARK    3  A    between atoms: C_7  and  O_19 
REMARK    4  A    between atoms: C_9  and  C_10 
REMARK    5  A    between atoms: C_10  and  O_12 
REMARK    6  A    between atoms: O_12  and  C_13 
ROOT
ATOM      1  C   LIG d   1       3.501  -0.888  -6.817  0.00  0.00     0.075 C 
ATOM      2  H   LIG d   1       3.023  -1.087  -7.777  0.00  0.00     0.041 H 
ATOM      3  H   LIG d   1       3.362  -1.745  -6.158  0.00  0.00     0.041 H 
ENDROOT
BRANCH   1   4
ATOM      4  C   LIG d   1       4.996  -0.645  -7.032  0.00  0.00     0.090 C 
ATOM      5  H   LIG d   1       5.331  -1.196  -7.911  0.00  0.00     0.065 H 
BRANCH   4   6
ATOM      6  C   LIG d   1       5.760  -1.118  -5.822  0.00  0.00    -0.019 A 
ATOM      7  C   LIG d   1       6.494  -0.217  -5.073  0.00  0.00    -0.056 A 
ATOM      8  C   LIG d   1       7.194  -0.651  -3.963  0.00  0.00    -0.061 A 
ATOM      9  H   LIG d   1       6.520   0.826  -5.355  0.00  0.00     0.062 H 
ATOM     10  C   LIG d   1       7.161  -1.984  -3.602  0.00  0.00    -0.062 A 
ATOM     11  H   LIG d   1       7.768   0.053  -3.378  0.00  0.00     0.062 H 
ATOM     12  C   LIG d   1       6.426  -2.885  -4.350  0.00  0.00    -0.061 A 
ATOM     13  H   LIG d   1       7.708  -2.323  -2.735  0.00  0.00     0.062 H 
ATOM     14  C   LIG d   1       5.723  -2.451  -5.458  0.00  0.00    -0.056 A 
ATOM     15  H   LIG d   1       6.401  -3.927  -4.069  0.00  0.00     0.062 H 
ATOM     16  H   LIG d   1       5.145  -3.154  -6.041  0.00  0.00     0.062 H 
ENDBRANCH   4   6
BRANCH   4  17
ATOM     17  O   LIG d   1       5.228   0.751  -7.227  0.00  0.00    -0.387 OA
ATOM     18  H   LIG d   1       4.476   1.311  -6.993  0.00  0.00     0.210 HD
ENDBRANCH   4  17
ENDBRANCH   1   4
BRANCH   1  19
ATOM     19  C   LIG d   1       2.878   0.333  -6.191  0.00  0.00     0.315 C 
ATOM     20  O   LIG d   1       2.980   1.408  -6.731  0.00  0.00    -0.250 OA
BRANCH  19  21
ATOM     21  O   LIG d   1       2.210   0.225  -5.031  0.00  0.00    -0.426 OA
BRANCH  21  22
ATOM     22  C   LIG d   1       2.952   0.073  -3.902  0.00  0.00     0.132 A 
ATOM     23  C   LIG d   1       3.573   1.172  -3.326  0.00  0.00    -0.019 A 
ATOM     24  C   LIG d   1       4.327   1.015  -2.179  0.00  0.00    -0.058 A 
ATOM     25  H   LIG d   1       3.466   2.149  -3.774  0.00  0.00     0.065 H 
ATOM     26  C   LIG d   1       4.462  -0.235  -1.605  0.00  0.00    -0.061 A 
ATOM     27  H   LIG d   1       4.810   1.870  -1.731  0.00  0.00     0.062 H 
ATOM     28  C   LIG d   1       3.845  -1.332  -2.178  0.00  0.00    -0.058 A 
ATOM     29  H   LIG d   1       5.052  -0.356  -0.709  0.00  0.00     0.062 H 
ATOM     30  C   LIG d   1       3.085  -1.179  -3.322  0.00  0.00    -0.019 A 
ATOM     31  H   LIG d   1       3.952  -2.308  -1.727  0.00  0.00     0.062 H 
ATOM     32  H   LIG d   1       2.599  -2.036  -3.766  0.00  0.00     0.065 H 
ENDBRANCH  21  22
ENDBRANCH  19  21
ENDBRANCH   1  19
TORSDOF 6
ENDMDL
MODEL 2
REMARK VINA RESULT:      -6.0      2.471      4.571
REMARK  6 active torsions:
REMARK  status: ('A' for Active; 'I' for Inactive)
REMARK    1  A    between atoms: C_4  and  C_7 
REMARK    2  A    between atoms: C_7  and  C_9 
REMARK    3  A    between atoms: C_7  and  O_19 
REMARK    4  A    between atoms: C_9  and  C_10 
REMARK    5  A    between atoms: C_10  and  O_12 
REMARK    6  A    between atoms: O_12  and  C_13 
ROOT
ATOM      1  C   LIG d   1       2.922   0.015  -6.825  0.00  0.00     0.075 C 
ATOM      2  H   LIG d   1       2.187  -0.737  -7.111  0.00  0.00     0.041 H 
ATOM      3  H   LIG d   1       3.872  -0.471  -6.601  0.00  0.00     0.041 H 
ENDROOT
BRANCH   1   4
ATOM      4  C   LIG d   1       3.113   1.005  -7.975  0.00  0.00     0.090 C 
ATOM      5  H   LIG d   1       2.438   1.850  -7.844  0.00  0.00     0.065 H 
BRANCH   4   6
ATOM      6  C   LIG d   1       2.812   0.320  -9.283  0.00  0.00    -0.019 A 
ATOM      7  C   LIG d   1       1.726  -0.530  -9.384  0.00  0.00    -0.056 A 
ATOM      8  C   LIG d   1       1.450  -1.158 -10.584  0.00  0.00    -0.061 A 
ATOM      9  H   LIG d   1       1.094  -0.702  -8.525  0.00  0.00     0.062 H 
ATOM     10  C   LIG d   1       2.258  -0.937 -11.682  0.00  0.00    -0.062 A 
ATOM     11  H   LIG d   1       0.602  -1.822 -10.662  0.00  0.00     0.062 H 
ATOM     12  C   LIG d   1       3.343  -0.087 -11.582  0.00  0.00    -0.061 A 
ATOM     13  H   LIG d   1       2.043  -1.428 -12.620  0.00  0.00     0.062 H 
ATOM     14  C   LIG d   1       3.618   0.545 -10.384  0.00  0.00    -0.056 A 
ATOM     15  H   LIG d   1       3.976   0.086 -12.440  0.00  0.00     0.062 H 
ATOM     16  H   LIG d   1       4.464   1.213 -10.305  0.00  0.00     0.062 H 
ENDBRANCH   4   6
BRANCH   4  17
ATOM     17  O   LIG d   1       4.464   1.472  -7.982  0.00  0.00    -0.387 OA
ATOM     18  H   LIG d   1       5.044   1.004  -7.367  0.00  0.00     0.210 HD
ENDBRANCH   4  17
ENDBRANCH   1   4
BRANCH   1  19
ATOM     19  C   LIG d   1       2.436   0.752  -5.603  0.00  0.00     0.315 C 
ATOM     20  O   LIG d   1       2.454   1.960  -5.579  0.00  0.00    -0.250 OA
BRANCH  19  21
ATOM     21  O   LIG d   1       1.983   0.067  -4.541  0.00  0.00    -0.426 OA
BRANCH  21  22
ATOM     22  C   LIG d   1       2.876  -0.199  -3.551  0.00  0.00     0.132 A 
ATOM     23  C   LIG d   1       3.222  -1.512  -3.262  0.00  0.00    -0.019 A 
ATOM     24  C   LIG d   1       4.130  -1.779  -2.255  0.00  0.00    -0.058 A 
ATOM     25  H   LIG d   1       2.783  -2.322  -3.825  0.00  0.00     0.065 H 
ATOM     26  C   LIG d   1       4.693  -0.742  -1.537  0.00  0.00    -0.061 A 
ATOM     27  H   LIG d   1       4.400  -2.801  -2.031  0.00  0.00     0.062 H 
ATOM     28  C   LIG d   1       4.349   0.567  -1.822  0.00  0.00    -0.058 A 
ATOM     29  H   LIG d   1       5.402  -0.954  -0.750  0.00  0.00     0.062 H 
ATOM     30  C   LIG d   1       3.446   0.840  -2.832  0.00  0.00    -0.019 A 
ATOM     31  H   LIG d   1       4.790   1.376  -1.258  0.00  0.00     0.062 H 
ATOM     32  H   LIG d   1       3.181   1.863  -3.056  0.00  0.00     0.065 H 
ENDBRANCH  21  22
ENDBRANCH  19  21
ENDBRANCH   1  19
TORSDOF 6
ENDMDL
MODEL 3
REMARK VINA RESULT:      -5.8      0.709      3.494
REMARK  6 active torsions:
REMARK  status: ('A' for Active; 'I' for Inactive)
REMARK    1  A    between atoms: C_4  and  C_7 
REMARK    2  A    between atoms: C_7  and  C_9 
REMARK    3  A    between atoms: C_7  and  O_19 
REMARK    4  A    between atoms: C_9  and  C_10 
REMARK    5  A    between atoms: C_10  and  O_12 
REMARK    6  A    between atoms: O_12  and  C_13 
ROOT
ATOM      1  C   LIG d   1       3.341  -0.744  -6.348  0.00  0.00     0.075 C 
ATOM      2  H   LIG d   1       3.615  -1.694  -5.888  0.00  0.00     0.041 H 
ATOM      3  H   LIG d   1       2.552  -0.911  -7.082  0.00  0.00     0.041 H 
ENDROOT
BRANCH   1   4
ATOM      4  C   LIG d   1       2.840   0.220  -5.271  0.00  0.00     0.090 C 
ATOM      5  H   LIG d   1       3.133   1.237  -5.529  0.00  0.00     0.065 H 
BRANCH   4   6
ATOM      6  C   LIG d   1       3.442  -0.155  -3.942  0.00  0.00    -0.019 A 
ATOM      7  C   LIG d   1       3.999   0.820  -3.135  0.00  0.00    -0.056 A 
ATOM      8  C   LIG d   1       4.551   0.475  -1.916  0.00  0.00    -0.061 A 
ATOM      9  H   LIG d   1       4.002   1.851  -3.458  0.00  0.00     0.062 H 
ATOM     10  C   LIG d   1       4.546  -0.844  -1.503  0.00  0.00    -0.062 A 
ATOM     11  H   LIG d   1       4.986   1.237  -1.286  0.00  0.00     0.062 H 
ATOM     12  C   LIG d   1       3.988  -1.819  -2.309  0.00  0.00    -0.061 A 
ATOM     13  H   LIG d   1       4.978  -1.114  -0.550  0.00  0.00     0.062 H 
ATOM     14  C   LIG d   1       3.433  -1.474  -3.526  0.00  0.00    -0.056 A 
ATOM     15  H   LIG d   1       3.985  -2.849  -1.987  0.00  0.00     0.062 H 
ATOM     16  H   LIG d   1       2.993  -2.235  -4.155  0.00  0.00     0.062 H 
ENDBRANCH   4   6
BRANCH   4  17
ATOM     17  O   LIG d   1       1.415   0.142  -5.188  0.00  0.00    -0.387 OA
ATOM     18  H   LIG d   1       0.985   0.988  -5.010  0.00  0.00     0.210 HD
ENDBRANCH   4  17
ENDBRANCH   1   4
BRANCH   1  19
ATOM     19  C   LIG d   1       4.546  -0.152  -7.032  0.00  0.00     0.315 C 
ATOM     20  O   LIG d   1       4.494   0.966  -7.486  0.00  0.00    -0.250 OA
BRANCH  19  21
ATOM     21  O   LIG d   1       5.677  -0.867  -7.136  0.00  0.00    -0.426 OA
BRANCH  21  22
ATOM     22  C   LIG d   1       6.238  -1.308  -5.979  0.00  0.00     0.132 A 
ATOM     23  C   LIG d   1       6.846  -0.407  -5.114  0.00  0.00    -0.019 A 
ATOM     24  C   LIG d   1       7.415  -0.858  -3.939  0.00  0.00    -0.058 A 
ATOM     25  H   LIG d   1       6.873   0.643  -5.361  0.00  0.00     0.065 H 
ATOM     26  C   LIG d   1       7.379  -2.203  -3.623  0.00  0.00    -0.061 A 
ATOM     27  H   LIG d   1       7.887  -0.157  -3.266  0.00  0.00     0.062 H 
ATOM     28  C   LIG d   1       6.776  -3.102  -4.483  0.00  0.00    -0.058 A 
ATOM     29  H   LIG d   1       7.825  -2.553  -2.704  0.00  0.00     0.062 H 
ATOM     30  C   LIG d   1       6.199  -2.656  -5.657  0.00  0.00    -0.019 A 
ATOM     31  H   LIG d   1       6.749  -4.153  -4.234  0.00  0.00     0.062 H 
ATOM     32  H   LIG d   1       5.724  -3.359  -6.326  0.00  0.00     0.065 H 
ENDBRANCH  21  22
ENDBRANCH  19  21
ENDBRANCH   1  19
TORSDOF 6
ENDMDL
MODEL 4
REMARK VINA RESULT:      -5.8      2.011      3.200
REMARK  6 active torsions:
REMARK  status: ('A' for Active; 'I' for Inactive)
REMARK    1  A    between atoms: C_4  and  C_7 
REMARK    2  A    between atoms: C_7  and  C_9 
REMARK    3  A    between atoms: C_7  and  O_19 
REMARK    4  A    between atoms: C_9  and  C_10 
REMARK    5  A    between atoms: C_10  and  O_12 
REMARK    6  A    between atoms: O_12  and  C_13 
ROOT
ATOM      1  C   LIG d   1       6.165  -2.486  -4.143  0.00  0.00     0.075 C 
ATOM      2  H   LIG d   1       6.901  -3.277  -3.996  0.00  0.00     0.041 H 
ATOM      3  H   LIG d   1       6.262  -1.748  -3.346  0.00  0.00     0.041 H 
ENDROOT
BRANCH   1   4
ATOM      4  C   LIG d   1       6.403  -1.811  -5.495  0.00  0.00     0.090 C 
ATOM      5  H   LIG d   1       7.079  -2.422  -6.092  0.00  0.00     0.065 H 
BRANCH   4   6
ATOM      6  C   LIG d   1       7.013  -0.451  -5.278  0.00  0.00    -0.019 A 
ATOM      7  C   LIG d   1       7.130   0.058  -3.998  0.00  0.00    -0.056 A 
ATOM      8  C   LIG d   1       7.690   1.306  -3.799  0.00  0.00    -0.061 A 
ATOM      9  H   LIG d   1       6.782  -0.519  -3.154  0.00  0.00     0.062 H 
ATOM     10  C   LIG d   1       8.134   2.045  -4.880  0.00  0.00    -0.062 A 
ATOM     11  H   LIG d   1       7.780   1.703  -2.799  0.00  0.00     0.062 H 
ATOM     12  C   LIG d   1       8.019   1.535  -6.159  0.00  0.00    -0.061 A 
ATOM     13  H   LIG d   1       8.572   3.020  -4.725  0.00  0.00     0.062 H 
ATOM     14  C   LIG d   1       7.462   0.286  -6.359  0.00  0.00    -0.056 A 
ATOM     15  H   LIG d   1       8.364   2.112  -7.004  0.00  0.00     0.062 H 
ATOM     16  H   LIG d   1       7.375  -0.114  -7.358  0.00  0.00     0.062 H 
ENDBRANCH   4   6
BRANCH   4  17
ATOM     17  O   LIG d   1       5.157  -1.670  -6.182  0.00  0.00    -0.387 OA
ATOM     18  H   LIG d   1       4.913  -2.439  -6.714  0.00  0.00     0.210 HD
ENDBRANCH   4  17
ENDBRANCH   1   4
BRANCH   1  19
ATOM     19  C   LIG d   1       4.779  -3.077  -4.113  0.00  0.00     0.315 C 
ATOM     20  O   LIG d   1       4.475  -3.943  -4.898  0.00  0.00    -0.250 OA
BRANCH  19  21
ATOM     21  O   LIG d   1       3.883  -2.643  -3.212  0.00  0.00    -0.426 OA
BRANCH  21  22
ATOM     22  C   LIG d   1       3.840  -1.304  -2.981  0.00  0.00     0.132 A 
ATOM     23  C   LIG d   1       4.441  -0.775  -1.847  0.00  0.00    -0.019 A 
ATOM     24  C   LIG d   1       4.396   0.586  -1.614  0.00  0.00    -0.058 A 
ATOM     25  H   LIG d   1       4.945  -1.428  -1.149  0.00  0.00     0.065 H 
ATOM     26  C   LIG d   1       3.753   1.420  -2.507  0.00  0.00    -0.061 A 
ATOM     27  H   LIG d   1       4.865   0.997  -0.731  0.00  0.00     0.062 H 
ATOM     28  C   LIG d   1       3.152   0.897  -3.637  0.00  0.00    -0.058 A 
ATOM     29  H   LIG d   1       3.718   2.484  -2.323  0.00  0.00     0.062 H 
ATOM     30  C   LIG d   1       3.200  -0.463  -3.879  0.00  0.00    -0.019 A 
ATOM     31  H   LIG d   1       2.650   1.551  -4.335  0.00  0.00     0.062 H 
ATOM     32  H   LIG d   1       2.733  -0.871  -4.764  0.00  0.00     0.065 H 
ENDBRANCH  21  22
ENDBRANCH  19  21
ENDBRANCH   1  19
TORSDOF 6
ENDMDL
MODEL 5
REMARK VINA RESULT:      -5.7      2.198      4.040
REMARK  6 active torsions:
REMARK  status: ('A' for Active; 'I' for Inactive)
REMARK    1  A    between atoms: C_4  and  C_7 
REMARK    2  A    between atoms: C_7  and  C_9 
REMARK    3  A    between atoms: C_7  and  O_19 
REMARK    4  A    between atoms: C_9  and  C_10 
REMARK    5  A    between atoms: C_10  and  O_12 
REMARK    6  A    between atoms: O_12  and  C_13 
ROOT
ATOM      1  C   LIG d   1       5.363  -1.245  -6.166  0.00  0.00     0.075 C 
ATOM      2  H   LIG d   1       6.446  -1.354  -6.218  0.00  0.00     0.041 H 
ATOM      3  H   LIG d   1       5.116  -0.270  -5.746  0.00  0.00     0.041 H 
ENDROOT
BRANCH   1   4
ATOM      4  C   LIG d   1       4.769  -1.360  -7.571  0.00  0.00     0.090 C 
ATOM      5  H   LIG d   1       5.495  -1.829  -8.235  0.00  0.00     0.065 H 
BRANCH   4   6
ATOM      6  C   LIG d   1       4.430   0.015  -8.088  0.00  0.00    -0.019 A 
ATOM      7  C   LIG d   1       3.155   0.521  -7.920  0.00  0.00    -0.056 A 
ATOM      8  C   LIG d   1       2.845   1.782  -8.393  0.00  0.00    -0.061 A 
ATOM      9  H   LIG d   1       2.401  -0.069  -7.418  0.00  0.00     0.062 H 
ATOM     10  C   LIG d   1       3.809   2.536  -9.034  0.00  0.00    -0.062 A 
ATOM     11  H   LIG d   1       1.848   2.177  -8.262  0.00  0.00     0.062 H 
ATOM     12  C   LIG d   1       5.084   2.030  -9.202  0.00  0.00    -0.061 A 
ATOM     13  H   LIG d   1       3.567   3.522  -9.405  0.00  0.00     0.062 H 
ATOM     14  C   LIG d   1       5.396   0.771  -8.725  0.00  0.00    -0.056 A 
ATOM     15  H   LIG d   1       5.838   2.619  -9.703  0.00  0.00     0.062 H 
ATOM     16  H   LIG d   1       6.394   0.377  -8.852  0.00  0.00     0.062 H 
ENDBRANCH   4   6
BRANCH   4  17
ATOM     17  O   LIG d   1       3.584  -2.157  -7.523  0.00  0.00    -0.387 OA
ATOM     18  H   LIG d   1       3.359  -2.579  -8.362  0.00  0.00     0.210 HD
ENDBRANCH   4  17
ENDBRANCH   1   4
BRANCH   1  19
ATOM     19  C   LIG d   1       4.791  -2.328  -5.288  0.00  0.00     0.315 C 
ATOM     20  O   LIG d   1       5.286  -3.430  -5.288  0.00  0.00    -0.250 OA
BRANCH  19  21
ATOM     21  O   LIG d   1       3.731  -2.069  -4.506  0.00  0.00    -0.426 OA
BRANCH  21  22
ATOM     22  C   LIG d   1       3.812  -0.979  -3.698  0.00  0.00     0.132 A 
ATOM     23  C   LIG d   1       4.529  -1.045  -2.511  0.00  0.00    -0.019 A 
ATOM     24  C   LIG d   1       4.610   0.064  -1.692  0.00  0.00    -0.058 A 
ATOM     25  H   LIG d   1       5.024  -1.963  -2.231  0.00  0.00     0.065 H 
ATOM     26  C   LIG d   1       3.977   1.239  -2.052  0.00  0.00    -0.061 A 
ATOM     27  H   LIG d   1       5.169   0.012  -0.769  0.00  0.00     0.062 H 
ATOM     28  C   LIG d   1       3.261   1.308  -3.233  0.00  0.00    -0.058 A 
ATOM     29  H   LIG d   1       4.041   2.104  -1.409  0.00  0.00     0.062 H 
ATOM     30  C   LIG d   1       3.182   0.203  -4.059  0.00  0.00    -0.019 A 
ATOM     31  H   LIG d   1       2.767   2.227  -3.512  0.00  0.00     0.062 H 
ATOM     32  H   LIG d   1       2.626   0.259  -4.984  0.00  0.00     0.065 H 
ENDBRANCH  21  22
ENDBRANCH  19  21
ENDBRANCH   1  19
TORSDOF 6
ENDMDL
MODEL 6
REMARK VINA RESULT:      -5.3      2.721      4.891
REMARK  6 active torsions:
REMARK  status: ('A' for Active; 'I' for Inactive)
REMARK    1  A    between atoms: C_4  and  C_7 
REMARK    2  A    between atoms: C_7  and  C_9 
REMARK    3  A    between atoms: C_7  and  O_19 
REMARK    4  A    between atoms: C_9  and  C_10 
REMARK    5  A    between atoms: C_10  and  O_12 
REMARK    6  A    between atoms: O_12  and  C_13 
ROOT
ATOM      1  C   LIG d   1       3.684  -0.919  -7.333  0.00  0.00     0.075 C 
ATOM      2  H   LIG d   1       3.117  -1.359  -6.511  0.00  0.00     0.041 H 
ATOM      3  H   LIG d   1       3.955  -1.698  -8.045  0.00  0.00     0.041 H 
ENDROOT
BRANCH   1   4
ATOM      4  C   LIG d   1       2.829   0.139  -8.034  0.00  0.00     0.090 C 
ATOM      5  H   LIG d   1       1.857   0.203  -7.545  0.00  0.00     0.065 H 
BRANCH   4   6
ATOM      6  C   LIG d   1       2.640  -0.245  -9.479  0.00  0.00    -0.019 A 
ATOM      7  C   LIG d   1       1.466  -0.850  -9.886  0.00  0.00    -0.056 A 
ATOM      8  C   LIG d   1       1.294  -1.201 -11.212  0.00  0.00    -0.061 A 
ATOM      9  H   LIG d   1       0.683  -1.047  -9.168  0.00  0.00     0.062 H 
ATOM     10  C   LIG d   1       2.295  -0.949 -12.130  0.00  0.00    -0.062 A 
ATOM     11  H   LIG d   1       0.376  -1.674 -11.530  0.00  0.00     0.062 H 
ATOM     12  C   LIG d   1       3.469  -0.344 -11.723  0.00  0.00    -0.061 A 
ATOM     13  H   LIG d   1       2.161  -1.224 -13.166  0.00  0.00     0.062 H 
ATOM     14  C   LIG d   1       3.641   0.012 -10.398  0.00  0.00    -0.056 A 
ATOM     15  H   LIG d   1       4.253  -0.147 -12.440  0.00  0.00     0.062 H 
ATOM     16  H   LIG d   1       4.557   0.488 -10.080  0.00  0.00     0.062 H 
ENDBRANCH   4   6
BRANCH   4  17
ATOM     17  O   LIG d   1       3.484   1.406  -7.959  0.00  0.00    -0.387 OA
ATOM     18  H   LIG d   1       2.947   2.145  -8.275  0.00  0.00     0.210 HD
ENDBRANCH   4  17
ENDBRANCH   1   4
BRANCH   1  19
ATOM     19  C   LIG d   1       4.934  -0.275  -6.791  0.00  0.00     0.315 C 
ATOM     20  O   LIG d   1       5.951  -0.287  -7.443  0.00  0.00    -0.250 OA
BRANCH  19  21
ATOM     21  O   LIG d   1       4.919   0.312  -5.584  0.00  0.00    -0.426 OA
BRANCH  21  22
ATOM     22  C   LIG d   1       4.500  -0.444  -4.535  0.00  0.00     0.132 A 
ATOM     23  C   LIG d   1       5.268  -1.515  -4.100  0.00  0.00    -0.019 A 
ATOM     24  C   LIG d   1       4.840  -2.282  -3.034  0.00  0.00    -0.058 A 
ATOM     25  H   LIG d   1       6.199  -1.747  -4.595  0.00  0.00     0.065 H 
ATOM     26  C   LIG d   1       3.649  -1.984  -2.400  0.00  0.00    -0.061 A 
ATOM     27  H   LIG d   1       5.438  -3.116  -2.695  0.00  0.00     0.062 H 
ATOM     28  C   LIG d   1       2.881  -0.918  -2.832  0.00  0.00    -0.058 A 
ATOM     29  H   LIG d   1       3.316  -2.585  -1.567  0.00  0.00     0.062 H 
ATOM     30  C   LIG d   1       3.307  -0.144  -3.894  0.00  0.00    -0.019 A 
ATOM     31  H   LIG d   1       1.950  -0.687  -2.335  0.00  0.00     0.062 H 
ATOM     32  H   LIG d   1       2.709   0.691  -4.228  0.00  0.00     0.065 H 
ENDBRANCH  21  22
ENDBRANCH  19  21
ENDBRANCH   1  19
TORSDOF 6
ENDMDL
MODEL 7
REMARK VINA RESULT:      -5.3      1.942      4.610
REMARK  6 active torsions:
REMARK  status: ('A' for Active; 'I' for Inactive)
REMARK    1  A    between atoms: C_4  and  C_7 
REMARK    2  A    between atoms: C_7  and  C_9 
REMARK    3  A    between atoms: C_7  and  O_19 
REMARK    4  A    between atoms: C_9  and  C_10 
REMARK    5  A    between atoms: C_10  and  O_12 
REMARK    6  A    between atoms: O_12  and  C_13 
ROOT
ATOM      1  C   LIG d   1       7.592  -0.371  -4.351  0.00  0.00     0.075 C 
ATOM      2  H   LIG d   1       8.667  -0.192  -4.302  0.00  0.00     0.041 H 
ATOM      3  H   LIG d   1       7.398  -1.440  -4.270  0.00  0.00     0.041 H 
ENDROOT
BRANCH   1   4
ATOM      4  C   LIG d   1       6.900   0.362  -3.200  0.00  0.00     0.090 C 
ATOM      5  H   LIG d   1       7.477   0.230  -2.285  0.00  0.00     0.065 H 
BRANCH   4   6
ATOM      6  C   LIG d   1       5.515  -0.201  -3.006  0.00  0.00    -0.019 A 
ATOM      7  C   LIG d   1       5.325  -1.570  -2.971  0.00  0.00    -0.056 A 
ATOM      8  C   LIG d   1       4.055  -2.086  -2.793  0.00  0.00    -0.061 A 
ATOM      9  H   LIG d   1       6.168  -2.235  -3.083  0.00  0.00     0.062 H 
ATOM     10  C   LIG d   1       2.976  -1.234  -2.650  0.00  0.00    -0.062 A 
ATOM     11  H   LIG d   1       3.906  -3.155  -2.767  0.00  0.00     0.062 H 
ATOM     12  C   LIG d   1       3.167   0.135  -2.684  0.00  0.00    -0.061 A 
ATOM     13  H   LIG d   1       1.983  -1.637  -2.512  0.00  0.00     0.062 H 
ATOM     14  C   LIG d   1       4.437   0.651  -2.858  0.00  0.00    -0.056 A 
ATOM     15  H   LIG d   1       2.324   0.801  -2.573  0.00  0.00     0.062 H 
ATOM     16  H   LIG d   1       4.587   1.721  -2.881  0.00  0.00     0.062 H 
ENDBRANCH   4   6
BRANCH   4  17
ATOM     17  O   LIG d   1       6.809   1.754  -3.510  0.00  0.00    -0.387 OA
ATOM     18  H   LIG d   1       6.073   2.206  -3.075  0.00  0.00     0.210 HD
ENDBRANCH   4  17
ENDBRANCH   1   4
BRANCH   1  19
ATOM     19  C   LIG d   1       7.058   0.138  -5.665  0.00  0.00     0.315 C 
ATOM     20  O   LIG d   1       7.250   1.285  -5.991  0.00  0.00    -0.250 OA
BRANCH  19  21
ATOM     21  O   LIG d   1       6.369  -0.683  -6.473  0.00  0.00    -0.426 OA
BRANCH  21  22
ATOM     22  C   LIG d   1       5.216  -0.200  -7.007  0.00  0.00     0.132 A 
ATOM     23  C   LIG d   1       4.024  -0.318  -6.306  0.00  0.00    -0.019 A 
ATOM     24  C   LIG d   1       2.853   0.174  -6.850  0.00  0.00    -0.058 A 
ATOM     25  H   LIG d   1       4.013  -0.792  -5.336  0.00  0.00     0.065 H 
ATOM     26  C   LIG d   1       2.868   0.782  -8.091  0.00  0.00    -0.061 A 
ATOM     27  H   LIG d   1       1.926   0.083  -6.304  0.00  0.00     0.062 H 
ATOM     28  C   LIG d   1       4.054   0.899  -8.793  0.00  0.00    -0.058 A 
ATOM     29  H   LIG d   1       1.952   1.165  -8.515  0.00  0.00     0.062 H 
ATOM     30  C   LIG d   1       5.229   0.414  -8.250  0.00  0.00    -0.019 A 
ATOM     31  H   LIG d   1       4.064   1.374  -9.762  0.00  0.00     0.062 H 
ATOM     32  H   LIG d   1       6.156   0.510  -8.796  0.00  0.00     0.065 H 
ENDBRANCH  21  22
ENDBRANCH  19  21
ENDBRANCH   1  19
TORSDOF 6
ENDMDL
MODEL 8
REMARK VINA RESULT:      -5.2      1.932      4.604
REMARK  6 active torsions:
REMARK  status: ('A' for Active; 'I' for Inactive)
REMARK    1  A    between atoms: C_4  and  C_7 
REMARK    2  A    between atoms: C_7  and  C_9 
REMARK    3  A    between atoms: C_7  and  O_19 
REMARK    4  A    between atoms: C_9  and  C_10 
REMARK    5  A    between atoms: C_10  and  O_12 
REMARK    6  A    between atoms: O_12  and  C_13 
ROOT
ATOM      1  C   LIG d   1       6.165  -2.640  -4.801  0.00  0.00     0.075 C 
ATOM      2  H   LIG d   1       6.525  -3.669  -4.820  0.00  0.00     0.041 H 
ATOM      3  H   LIG d   1       5.088  -2.629  -4.966  0.00  0.00     0.041 H 
ENDROOT
BRANCH   1   4
ATOM      4  C   LIG d   1       6.479  -2.014  -3.440  0.00  0.00     0.090 C 
ATOM      5  H   LIG d   1       6.547  -2.799  -2.687  0.00  0.00     0.065 H 
BRANCH   4   6
ATOM      6  C   LIG d   1       5.381  -1.052  -3.065  0.00  0.00    -0.019 A 
ATOM      7  C   LIG d   1       5.685   0.268  -2.786  0.00  0.00    -0.056 A 
ATOM      8  C   LIG d   1       4.678   1.150  -2.442  0.00  0.00    -0.061 A 
ATOM      9  H   LIG d   1       6.709   0.609  -2.837  0.00  0.00     0.062 H 
ATOM     10  C   LIG d   1       3.368   0.714  -2.377  0.00  0.00    -0.062 A 
ATOM     11  H   LIG d   1       4.916   2.181  -2.224  0.00  0.00     0.062 H 
ATOM     12  C   LIG d   1       3.065  -0.605  -2.657  0.00  0.00    -0.061 A 
ATOM     13  H   LIG d   1       2.581   1.403  -2.108  0.00  0.00     0.062 H 
ATOM     14  C   LIG d   1       4.071  -1.487  -3.005  0.00  0.00    -0.056 A 
ATOM     15  H   LIG d   1       2.042  -0.947  -2.606  0.00  0.00     0.062 H 
ATOM     16  H   LIG d   1       3.833  -2.518  -3.228  0.00  0.00     0.062 H 
ENDBRANCH   4   6
BRANCH   4  17
ATOM     17  O   LIG d   1       7.722  -1.314  -3.514  0.00  0.00    -0.387 OA
ATOM     18  H   LIG d   1       7.823  -0.775  -4.309  0.00  0.00     0.210 HD
ENDBRANCH   4  17
ENDBRANCH   1   4
BRANCH   1  19
ATOM     19  C   LIG d   1       6.847  -1.849  -5.887  0.00  0.00     0.315 C 
ATOM     20  O   LIG d   1       7.834  -2.290  -6.427  0.00  0.00    -0.250 OA
BRANCH  19  21
ATOM     21  O   LIG d   1       6.359  -0.653  -6.254  0.00  0.00    -0.426 OA
BRANCH  21  22
ATOM     22  C   LIG d   1       5.170  -0.648  -6.913  0.00  0.00     0.132 A 
ATOM     23  C   LIG d   1       4.063  -0.033  -6.343  0.00  0.00    -0.019 A 
ATOM     24  C   LIG d   1       2.856  -0.029  -7.015  0.00  0.00    -0.058 A 
ATOM     25  H   LIG d   1       4.147   0.441  -5.377  0.00  0.00     0.065 H 
ATOM     26  C   LIG d   1       2.749  -0.636  -8.252  0.00  0.00    -0.061 A 
ATOM     27  H   LIG d   1       1.995   0.449  -6.572  0.00  0.00     0.062 H 
ATOM     28  C   LIG d   1       3.850  -1.250  -8.822  0.00  0.00    -0.058 A 
ATOM     29  H   LIG d   1       1.804  -0.631  -8.775  0.00  0.00     0.062 H 
ATOM     30  C   LIG d   1       5.061  -1.251  -8.157  0.00  0.00    -0.019 A 
ATOM     31  H   LIG d   1       3.764  -1.723  -9.788  0.00  0.00     0.062 H 
ATOM     32  H   LIG d   1       5.922  -1.727  -8.605  0.00  0.00     0.065 H 
ENDBRANCH  21  22
ENDBRANCH  19  21
ENDBRANCH   1  19
TORSDOF 6
ENDMDL
MODEL 9
REMARK VINA RESULT:      -5.1      4.551      6.251
REMARK  6 active torsions:
REMARK  status: ('A' for Active; 'I' for Inactive)
REMARK    1  A    between atoms: C_4  and  C_7 
REMARK    2  A    between atoms: C_7  and  C_9 
REMARK    3  A    between atoms: C_7  and  O_19 
REMARK    4  A    between atoms: C_9  and  C_10 
REMARK    5  A    between atoms: C_10  and  O_12 
REMARK    6  A    between atoms: O_12  and  C_13 
ROOT
ATOM      1  C   LIG d   1       7.893   1.901  -3.983  0.00  0.00     0.075 C 
ATOM      2  H   LIG d   1       7.092   2.636  -4.069  0.00  0.00     0.041 H 
ATOM      3  H   LIG d   1       8.248   1.871  -2.953  0.00  0.00     0.041 H 
ENDROOT
BRANCH   1   4
ATOM      4  C   LIG d   1       7.365   0.522  -4.381  0.00  0.00     0.090 C 
ATOM      5  H   LIG d   1       6.991   0.557  -5.404  0.00  0.00     0.065 H 
BRANCH   4   6
ATOM      6  C   LIG d   1       6.248   0.123  -3.451  0.00  0.00    -0.019 A 
ATOM      7  C   LIG d   1       5.555   1.091  -2.749  0.00  0.00    -0.056 A 
ATOM      8  C   LIG d   1       4.530   0.725  -1.897  0.00  0.00    -0.061 A 
ATOM      9  H   LIG d   1       5.814   2.133  -2.868  0.00  0.00     0.062 H 
ATOM     10  C   LIG d   1       4.199  -0.608  -1.746  0.00  0.00    -0.062 A 
ATOM     11  H   LIG d   1       3.989   1.482  -1.348  0.00  0.00     0.062 H 
ATOM     12  C   LIG d   1       4.892  -1.576  -2.448  0.00  0.00    -0.061 A 
ATOM     13  H   LIG d   1       3.399  -0.895  -1.079  0.00  0.00     0.062 H 
ATOM     14  C   LIG d   1       5.914  -1.210  -3.304  0.00  0.00    -0.056 A 
ATOM     15  H   LIG d   1       4.635  -2.618  -2.330  0.00  0.00     0.062 H 
ATOM     16  H   LIG d   1       6.454  -1.966  -3.857  0.00  0.00     0.062 H 
ENDBRANCH   4   6
BRANCH   4  17
ATOM     17  O   LIG d   1       8.423  -0.436  -4.294  0.00  0.00    -0.387 OA
ATOM     18  H   LIG d   1       9.050  -0.397  -5.028  0.00  0.00     0.210 HD
ENDBRANCH   4  17
ENDBRANCH   1   4
BRANCH   1  19
ATOM     19  C   LIG d   1       9.029   2.287  -4.894  0.00  0.00     0.315 C 
ATOM     20  O   LIG d   1       8.969   2.038  -6.075  0.00  0.00    -0.250 OA
BRANCH  19  21
ATOM     21  O   LIG d   1      10.109   2.909  -4.395  0.00  0.00    -0.426 OA
BRANCH  21  22
ATOM     22  C   LIG d   1       9.926   4.160  -3.894  0.00  0.00     0.132 A 
ATOM     23  C   LIG d   1      10.230   4.428  -2.566  0.00  0.00    -0.019 A 
ATOM     24  C   LIG d   1      10.042   5.699  -2.060  0.00  0.00    -0.058 A 
ATOM     25  H   LIG d   1      10.614   3.643  -1.932  0.00  0.00     0.065 H 
ATOM     26  C   LIG d   1       9.553   6.703  -2.873  0.00  0.00    -0.061 A 
ATOM     27  H   LIG d   1      10.280   5.908  -1.027  0.00  0.00     0.062 H 
ATOM     28  C   LIG d   1       9.247   6.439  -4.196  0.00  0.00    -0.058 A 
ATOM     29  H   LIG d   1       9.407   7.697  -2.475  0.00  0.00     0.062 H 
ATOM     30  C   LIG d   1       9.439   5.170  -4.709  0.00  0.00    -0.019 A 
ATOM     31  H   LIG d   1       8.865   7.225  -4.829  0.00  0.00     0.062 H 
ATOM     32  H   LIG d   1       9.204   4.965  -5.744  0.00  0.00     0.065 H 
ENDBRANCH  21  22
ENDBRANCH  19  21
ENDBRANCH   1  19
TORSDOF 6
ENDMDL
