MODEL 1
REMARK VINA RESULT:      -7.0      0.000      0.000
REMARK  6 active torsions:
REMARK  status: ('A' for Active; 'I' for Inactive)
REMARK    1  A    between atoms: C_1  and  O_2 
REMARK    2  A    between atoms: O_2  and  C_3 
REMARK    3  A    between atoms: C_6  and  C_9 
REMARK    4  A    between atoms: N_12  and  C_13 
REMARK    5  A    between atoms: C_17  and  O_19 
REMARK    6  A    between atoms: O_19  and  C_20 
ROOT
ATOM      1  C   LIG d   1       3.716  -0.792  -6.359  0.00  0.00     0.142 A 
ATOM      2  C   LIG d   1       4.312  -1.927  -5.914  0.00  0.00     0.053 A 
ATOM      3  C   LIG d   1       4.703  -2.024  -4.552  0.00  0.00     0.221 A 
ATOM      4  N   LIG d   1       5.287  -3.113  -4.078  0.00  0.00    -0.204 N 
ATOM      5  C   LIG d   1       4.432  -0.857  -3.684  0.00  0.00     0.088 A 
ATOM      6  C   LIG d   1       4.780  -0.860  -2.337  0.00  0.00    -0.045 A 
ATOM      7  C   LIG d   1       4.511   0.248  -1.560  0.00  0.00    -0.061 A 
ATOM      8  C   LIG d   1       3.896   1.358  -2.118  0.00  0.00    -0.058 A 
ATOM      9  C   LIG d   1       3.546   1.372  -3.453  0.00  0.00    -0.018 A 
ATOM     10  C   LIG d   1       3.810   0.266  -4.250  0.00  0.00     0.142 A 
ATOM     11  O   LIG d   1       3.481   0.263  -5.560  0.00  0.00    -0.454 OA
ATOM     12  H   LIG d   1       4.487  -2.752  -6.589  0.00  0.00     0.072 H 
ATOM     13  H   LIG d   1       5.259  -1.726  -1.901  0.00  0.00     0.063 H 
ATOM     14  H   LIG d   1       4.780   0.249  -0.514  0.00  0.00     0.062 H 
ATOM     15  H   LIG d   1       3.690   2.221  -1.501  0.00  0.00     0.062 H 
ATOM     16  H   LIG d   1       3.068   2.242  -3.877  0.00  0.00     0.065 H 
ATOM     17  H   LIG d   1       5.465  -3.194  -3.127  0.00  0.00     0.454 HD
ENDROOT
BRANCH   4  18
ATOM     18  C   LIG d   1       5.639  -4.122  -4.925  0.00  0.00     0.210 A 
ATOM     19  C   LIG d   1       4.693  -5.073  -5.317  0.00  0.00     0.051 A 
ATOM     20  C   LIG d   1       5.058  -6.090  -6.181  0.00  0.00     0.126 A 
ATOM     21  H   LIG d   1       3.680  -5.012  -4.947  0.00  0.00     0.072 H 
ATOM     22  C   LIG d   1       6.363  -6.171  -6.650  0.00  0.00    -0.019 A 
ATOM     23  C   LIG d   1       7.304  -5.233  -6.260  0.00  0.00    -0.052 A 
ATOM     24  H   LIG d   1       6.646  -6.969  -7.321  0.00  0.00     0.065 H 
ATOM     25  C   LIG d   1       6.951  -4.211  -5.404  0.00  0.00     0.010 A 
ATOM     26  H   LIG d   1       8.316  -5.302  -6.629  0.00  0.00     0.062 H 
ATOM     27  H   LIG d   1       7.688  -3.482  -5.102  0.00  0.00     0.068 H 
BRANCH  20  28
ATOM     28  O   LIG d   1       4.140  -7.015  -6.568  0.00  0.00    -0.495 OA
BRANCH  28  29
ATOM     29  C   LIG d   1       4.633  -8.305  -6.935  0.00  0.00     0.079 C 
ATOM     30  H   LIG d   1       4.590  -8.970  -6.073  0.00  0.00     0.066 H 
ATOM     31  H   LIG d   1       4.022  -8.713  -7.739  0.00  0.00     0.066 H 
ATOM     32  H   LIG d   1       5.666  -8.216  -7.273  0.00  0.00     0.066 H 
ENDBRANCH  28  29
ENDBRANCH  20  28
ENDBRANCH   4  18
BRANCH   1  33
ATOM     33  C   LIG d   1       3.318  -0.710  -7.777  0.00  0.00     0.018 A 
ATOM     34  C   LIG d   1       3.387  -1.845  -8.590  0.00  0.00    -0.048 A 
ATOM     35  C   LIG d   1       3.014  -1.765  -9.914  0.00  0.00    -0.019 A 
ATOM     36  H   LIG d   1       3.731  -2.783  -8.181  0.00  0.00     0.063 H 
ATOM     37  C   LIG d   1       2.571  -0.558 -10.441  0.00  0.00     0.120 A 
ATOM     38  H   LIG d   1       3.066  -2.641 -10.544  0.00  0.00     0.065 H 
ATOM     39  C   LIG d   1       2.506   0.574  -9.638  0.00  0.00    -0.019 A 
ATOM     40  C   LIG d   1       2.872   0.502  -8.312  0.00  0.00    -0.048 A 
ATOM     41  H   LIG d   1       2.166   1.511 -10.052  0.00  0.00     0.065 H 
ATOM     42  H   LIG d   1       2.817   1.381  -7.686  0.00  0.00     0.063 H 
BRANCH  37  43
ATOM     43  O   LIG d   1       2.205  -0.483 -11.747  0.00  0.00    -0.495 OA
BRANCH  43  44
ATOM     44  C   LIG d   1       1.362  -1.522 -12.245  0.00  0.00     0.079 C 
ATOM     45  H   LIG d   1       1.966  -2.397 -12.488  0.00  0.00     0.066 H 
ATOM     46  H   LIG d   1       0.626  -1.789 -11.487  0.00  0.00     0.066 H 
ATOM     47  H   LIG d   1       0.850  -1.175 -13.143  0.00  0.00     0.066 H 
ENDBRANCH  43  44
ENDBRANCH  37  43
ENDBRANCH   1  33
TORSDOF 6
ENDMDL
MODEL 2
REMARK VINA RESULT:      -7.0      1.740      5.608
REMARK  6 active torsions:
REMARK  status: ('A' for Active; 'I' for Inactive)
REMARK    1  A    between atoms: C_1  and  O_2 
REMARK    2  A    between atoms: O_2  and  C_3 
REMARK    3  A    between atoms: C_6  and  C_9 
REMARK    4  A    between atoms: N_12  and  C_13 
REMARK    5  A    between atoms: C_17  and  O_19 
REMARK    6  A    between atoms: O_19  and  C_20 
ROOT
ATOM      1  C   LIG d   1       4.352  -2.993  -5.622  0.00  0.00     0.142 A 
ATOM      2  C   LIG d   1       4.177  -1.891  -6.396  0.00  0.00     0.053 A 
ATOM      3  C   LIG d   1       4.092  -0.613  -5.783  0.00  0.00     0.221 A 
ATOM      4  N   LIG d   1       3.922   0.486  -6.501  0.00  0.00    -0.204 N 
ATOM      5  C   LIG d   1       4.201  -0.560  -4.308  0.00  0.00     0.088 A 
ATOM      6  C   LIG d   1       4.129   0.648  -3.620  0.00  0.00    -0.045 A 
ATOM      7  C   LIG d   1       4.234   0.656  -2.245  0.00  0.00    -0.061 A 
ATOM      8  C   LIG d   1       4.412  -0.531  -1.552  0.00  0.00    -0.058 A 
ATOM      9  C   LIG d   1       4.485  -1.734  -2.223  0.00  0.00    -0.018 A 
ATOM     10  C   LIG d   1       4.380  -1.762  -3.608  0.00  0.00     0.142 A 
ATOM     11  O   LIG d   1       4.444  -2.930  -4.283  0.00  0.00    -0.454 OA
ATOM     12  H   LIG d   1       4.105  -1.985  -7.469  0.00  0.00     0.072 H 
ATOM     13  H   LIG d   1       3.991   1.574  -4.161  0.00  0.00     0.063 H 
ATOM     14  H   LIG d   1       4.178   1.591  -1.707  0.00  0.00     0.062 H 
ATOM     15  H   LIG d   1       4.493  -0.513  -0.475  0.00  0.00     0.062 H 
ATOM     16  H   LIG d   1       4.624  -2.652  -1.673  0.00  0.00     0.065 H 
ATOM     17  H   LIG d   1       3.957   1.356  -6.072  0.00  0.00     0.454 HD
ENDROOT
BRANCH   4  18
ATOM     18  C   LIG d   1       3.699   0.396  -7.843  0.00  0.00     0.210 A 
ATOM     19  C   LIG d   1       2.572  -0.278  -8.324  0.00  0.00     0.051 A 
ATOM     20  C   LIG d   1       2.350  -0.360  -9.687  0.00  0.00     0.126 A 
ATOM     21  H   LIG d   1       1.876  -0.730  -7.633  0.00  0.00     0.072 H 
ATOM     22  C   LIG d   1       3.251   0.216 -10.575  0.00  0.00    -0.019 A 
ATOM     23  C   LIG d   1       4.370   0.879 -10.102  0.00  0.00    -0.052 A 
ATOM     24  H   LIG d   1       3.077   0.146 -11.639  0.00  0.00     0.065 H 
ATOM     25  C   LIG d   1       4.599   0.973  -8.745  0.00  0.00     0.010 A 
ATOM     26  H   LIG d   1       5.064   1.325 -10.798  0.00  0.00     0.062 H 
ATOM     27  H   LIG d   1       5.473   1.491  -8.380  0.00  0.00     0.068 H 
BRANCH  20  28
ATOM     28  O   LIG d   1       1.254  -1.009 -10.159  0.00  0.00    -0.495 OA
BRANCH  28  29
ATOM     29  C   LIG d   1       1.330  -2.434 -10.245  0.00  0.00     0.079 C 
ATOM     30  H   LIG d   1       2.268  -2.719 -10.721  0.00  0.00     0.066 H 
ATOM     31  H   LIG d   1       1.286  -2.861  -9.245  0.00  0.00     0.066 H 
ATOM     32  H   LIG d   1       0.494  -2.806 -10.838  0.00  0.00     0.066 H 
ENDBRANCH  28  29
ENDBRANCH  20  28
ENDBRANCH   4  18
BRANCH   1  33
ATOM     33  C   LIG d   1       4.437  -4.312  -6.278  0.00  0.00     0.018 A 
ATOM     34  C   LIG d   1       4.719  -5.453  -5.521  0.00  0.00    -0.048 A 
ATOM     35  C   LIG d   1       4.798  -6.683  -6.137  0.00  0.00    -0.019 A 
ATOM     36  H   LIG d   1       4.873  -5.371  -4.456  0.00  0.00     0.063 H 
ATOM     37  C   LIG d   1       4.599  -6.790  -7.508  0.00  0.00     0.120 A 
ATOM     38  H   LIG d   1       5.014  -7.566  -5.553  0.00  0.00     0.065 H 
ATOM     39  C   LIG d   1       4.325  -5.658  -8.265  0.00  0.00    -0.019 A 
ATOM     40  C   LIG d   1       4.239  -4.424  -7.657  0.00  0.00    -0.048 A 
ATOM     41  H   LIG d   1       4.175  -5.744  -9.330  0.00  0.00     0.065 H 
ATOM     42  H   LIG d   1       4.021  -3.545  -8.245  0.00  0.00     0.063 H 
BRANCH  37  43
ATOM     43  O   LIG d   1       4.678  -8.004  -8.110  0.00  0.00    -0.495 OA
BRANCH  43  44
ATOM     44  C   LIG d   1       4.543  -9.154  -7.274  0.00  0.00     0.079 C 
ATOM     45  H   LIG d   1       3.909  -8.911  -6.421  0.00  0.00     0.066 H 
ATOM     46  H   LIG d   1       4.092  -9.966  -7.843  0.00  0.00     0.066 H 
ATOM     47  H   LIG d   1       5.526  -9.462  -6.919  0.00  0.00     0.066 H 
ENDBRANCH  43  44
ENDBRANCH  37  43
ENDBRANCH   1  33
TORSDOF 6
ENDMDL
MODEL 3
REMARK VINA RESULT:      -6.7      3.543      6.237
REMARK  6 active torsions:
REMARK  status: ('A' for Active; 'I' for Inactive)
REMARK    1  A    between atoms: C_1  and  O_2 
REMARK    2  A    between atoms: O_2  and  C_3 
REMARK    3  A    between atoms: C_6  and  C_9 
REMARK    4  A    between atoms: N_12  and  C_13 
REMARK    5  A    between atoms: C_17  and  O_19 
REMARK    6  A    between atoms: O_19  and  C_20 
ROOT
ATOM      1  C   LIG d   1       7.195  -2.539  -3.786  0.00  0.00     0.142 A 
ATOM      2  C   LIG d   1       6.322  -3.202  -4.588  0.00  0.00     0.053 A 
ATOM      3  C   LIG d   1       4.965  -2.787  -4.638  0.00  0.00     0.221 A 
ATOM      4  N   LIG d   1       4.083  -3.407  -5.406  0.00  0.00    -0.204 N 
ATOM      5  C   LIG d   1       4.578  -1.633  -3.797  0.00  0.00     0.088 A 
ATOM      6  C   LIG d   1       3.270  -1.156  -3.781  0.00  0.00    -0.045 A 
ATOM      7  C   LIG d   1       2.948  -0.079  -2.983  0.00  0.00    -0.061 A 
ATOM      8  C   LIG d   1       3.920   0.526  -2.201  0.00  0.00    -0.058 A 
ATOM      9  C   LIG d   1       5.219   0.062  -2.209  0.00  0.00    -0.018 A 
ATOM     10  C   LIG d   1       5.562  -1.023  -3.006  0.00  0.00     0.142 A 
ATOM     11  O   LIG d   1       6.827  -1.496  -3.023  0.00  0.00    -0.454 OA
ATOM     12  H   LIG d   1       6.657  -4.039  -5.183  0.00  0.00     0.072 H 
ATOM     13  H   LIG d   1       2.512  -1.627  -4.391  0.00  0.00     0.063 H 
ATOM     14  H   LIG d   1       1.935   0.295  -2.968  0.00  0.00     0.062 H 
ATOM     15  H   LIG d   1       3.656   1.370  -1.580  0.00  0.00     0.062 H 
ATOM     16  H   LIG d   1       5.968   0.541  -1.597  0.00  0.00     0.065 H 
ATOM     17  H   LIG d   1       3.184  -3.053  -5.495  0.00  0.00     0.454 HD
ENDROOT
BRANCH   4  18
ATOM     18  C   LIG d   1       4.437  -4.542  -6.073  0.00  0.00     0.210 A 
ATOM     19  C   LIG d   1       4.374  -5.782  -5.431  0.00  0.00     0.051 A 
ATOM     20  C   LIG d   1       4.731  -6.930  -6.116  0.00  0.00     0.126 A 
ATOM     21  H   LIG d   1       4.046  -5.844  -4.404  0.00  0.00     0.072 H 
ATOM     22  C   LIG d   1       5.160  -6.848  -7.435  0.00  0.00    -0.019 A 
ATOM     23  C   LIG d   1       5.229  -5.622  -8.072  0.00  0.00    -0.052 A 
ATOM     24  H   LIG d   1       5.442  -7.746  -7.966  0.00  0.00     0.065 H 
ATOM     25  C   LIG d   1       4.870  -4.471  -7.401  0.00  0.00     0.010 A 
ATOM     26  H   LIG d   1       5.562  -5.566  -9.097  0.00  0.00     0.062 H 
ATOM     27  H   LIG d   1       4.925  -3.516  -7.901  0.00  0.00     0.068 H 
BRANCH  20  28
ATOM     28  O   LIG d   1       4.667  -8.138  -5.498  0.00  0.00    -0.495 OA
BRANCH  28  29
ATOM     29  C   LIG d   1       5.496  -9.179  -6.018  0.00  0.00     0.079 C 
ATOM     30  H   LIG d   1       5.244 -10.122  -5.533  0.00  0.00     0.066 H 
ATOM     31  H   LIG d   1       5.337  -9.269  -7.092  0.00  0.00     0.066 H 
ATOM     32  H   LIG d   1       6.542  -8.940  -5.825  0.00  0.00     0.066 H 
ENDBRANCH  28  29
ENDBRANCH  20  28
ENDBRANCH   4  18
BRANCH   1  33
ATOM     33  C   LIG d   1       8.600  -2.986  -3.747  0.00  0.00     0.018 A 
ATOM     34  C   LIG d   1       9.038  -3.831  -2.722  0.00  0.00    -0.048 A 
ATOM     35  C   LIG d   1      10.351  -4.245  -2.689  0.00  0.00    -0.019 A 
ATOM     36  H   LIG d   1       8.348  -4.157  -1.959  0.00  0.00     0.063 H 
ATOM     37  C   LIG d   1      11.240  -3.825  -3.671  0.00  0.00     0.120 A 
ATOM     38  H   LIG d   1      10.691  -4.898  -1.898  0.00  0.00     0.065 H 
ATOM     39  C   LIG d   1      10.811  -2.982  -4.688  0.00  0.00    -0.019 A 
ATOM     40  C   LIG d   1       9.498  -2.566  -4.733  0.00  0.00    -0.048 A 
ATOM     41  H   LIG d   1      11.505  -2.654  -5.446  0.00  0.00     0.065 H 
ATOM     42  H   LIG d   1       9.163  -1.914  -5.526  0.00  0.00     0.063 H 
BRANCH  37  43
ATOM     43  O   LIG d   1      12.534  -4.236  -3.633  0.00  0.00    -0.495 OA
BRANCH  43  44
ATOM     44  C   LIG d   1      13.539  -3.228  -3.744  0.00  0.00     0.079 C 
ATOM     45  H   LIG d   1      13.938  -3.001  -2.755  0.00  0.00     0.066 H 
ATOM     46  H   LIG d   1      14.343  -3.585  -4.387  0.00  0.00     0.066 H 
ATOM     47  H   LIG d   1      13.103  -2.326  -4.175  0.00  0.00     0.066 H 
ENDBRANCH  43  44
ENDBRANCH  37  43
ENDBRANCH   1  33
TORSDOF 6
ENDMDL
MODEL 4
REMARK VINA RESULT:      -6.5      1.389      2.185
REMARK  6 active torsions:
REMARK  status: ('A' for Active; 'I' for Inactive)
REMARK    1  A    between atoms: C_1  and  O_2 
REMARK    2  A    between atoms: O_2  and  C_3 
REMARK    3  A    between atoms: C_6  and  C_9 
REMARK    4  A    between atoms: N_12  and  C_13 
REMARK    5  A    between atoms: C_17  and  O_19 
REMARK    6  A    between atoms: O_19  and  C_20 
ROOT
ATOM      1  C   LIG d   1       3.973  -0.842  -6.478  0.00  0.00     0.142 A 
ATOM      2  C   LIG d   1       4.612  -1.949  -6.021  0.00  0.00     0.053 A 
ATOM      3  C   LIG d   1       4.929  -2.053  -4.641  0.00  0.00     0.221 A 
ATOM      4  N   LIG d   1       5.552  -3.115  -4.155  0.00  0.00    -0.204 N 
ATOM      5  C   LIG d   1       4.537  -0.925  -3.768  0.00  0.00     0.088 A 
ATOM      6  C   LIG d   1       4.807  -0.938  -2.403  0.00  0.00    -0.045 A 
ATOM      7  C   LIG d   1       4.426   0.133  -1.622  0.00  0.00    -0.061 A 
ATOM      8  C   LIG d   1       3.776   1.216  -2.193  0.00  0.00    -0.058 A 
ATOM      9  C   LIG d   1       3.503   1.240  -3.545  0.00  0.00    -0.018 A 
ATOM     10  C   LIG d   1       3.880   0.171  -4.347  0.00  0.00     0.142 A 
ATOM     11  O   LIG d   1       3.627   0.178  -5.674  0.00  0.00    -0.454 OA
ATOM     12  H   LIG d   1       4.876  -2.745  -6.701  0.00  0.00     0.072 H 
ATOM     13  H   LIG d   1       5.313  -1.783  -1.957  0.00  0.00     0.063 H 
ATOM     14  H   LIG d   1       4.634   0.126  -0.562  0.00  0.00     0.062 H 
ATOM     15  H   LIG d   1       3.482   2.050  -1.572  0.00  0.00     0.062 H 
ATOM     16  H   LIG d   1       2.996   2.089  -3.979  0.00  0.00     0.065 H 
ATOM     17  H   LIG d   1       5.679  -3.208  -3.198  0.00  0.00     0.454 HD
ENDROOT
BRANCH   4  18
ATOM     18  C   LIG d   1       6.014  -4.081  -5.000  0.00  0.00     0.210 A 
ATOM     19  C   LIG d   1       7.340  -4.054  -5.439  0.00  0.00     0.051 A 
ATOM     20  C   LIG d   1       7.802  -5.041  -6.293  0.00  0.00     0.126 A 
ATOM     21  H   LIG d   1       8.003  -3.267  -5.111  0.00  0.00     0.072 H 
ATOM     22  C   LIG d   1       6.946  -6.048  -6.719  0.00  0.00    -0.019 A 
ATOM     23  C   LIG d   1       5.631  -6.075  -6.290  0.00  0.00    -0.052 A 
ATOM     24  H   LIG d   1       7.308  -6.815  -7.389  0.00  0.00     0.065 H 
ATOM     25  C   LIG d   1       5.160  -5.100  -5.435  0.00  0.00     0.010 A 
ATOM     26  H   LIG d   1       4.972  -6.862  -6.625  0.00  0.00     0.062 H 
ATOM     27  H   LIG d   1       4.133  -5.125  -5.102  0.00  0.00     0.068 H 
BRANCH  20  28
ATOM     28  O   LIG d   1       9.092  -5.021  -6.719  0.00  0.00    -0.495 OA
BRANCH  28  29
ATOM     29  C   LIG d   1       9.804  -3.790  -6.577  0.00  0.00     0.079 C 
ATOM     30  H   LIG d   1       9.784  -3.477  -5.534  0.00  0.00     0.066 H 
ATOM     31  H   LIG d   1      10.836  -3.928  -6.896  0.00  0.00     0.066 H 
ATOM     32  H   LIG d   1       9.332  -3.026  -7.195  0.00  0.00     0.066 H 
ENDBRANCH  28  29
ENDBRANCH  20  28
ENDBRANCH   4  18
BRANCH   1  33
ATOM     33  C   LIG d   1       3.652  -0.752  -7.915  0.00  0.00     0.018 A 
ATOM     34  C   LIG d   1       2.443  -0.184  -8.329  0.00  0.00    -0.048 A 
ATOM     35  C   LIG d   1       2.148  -0.102  -9.672  0.00  0.00    -0.019 A 
ATOM     36  H   LIG d   1       1.744   0.190  -7.597  0.00  0.00     0.063 H 
ATOM     37  C   LIG d   1       3.048  -0.583 -10.614  0.00  0.00     0.120 A 
ATOM     38  H   LIG d   1       1.214   0.337  -9.993  0.00  0.00     0.065 H 
ATOM     39  C   LIG d   1       4.248  -1.154 -10.208  0.00  0.00    -0.019 A 
ATOM     40  C   LIG d   1       4.555  -1.235  -8.867  0.00  0.00    -0.048 A 
ATOM     41  H   LIG d   1       4.943  -1.530 -10.943  0.00  0.00     0.065 H 
ATOM     42  H   LIG d   1       5.490  -1.674  -8.551  0.00  0.00     0.063 H 
BRANCH  37  43
ATOM     43  O   LIG d   1       2.752  -0.501 -11.937  0.00  0.00    -0.495 OA
BRANCH  43  44
ATOM     44  C   LIG d   1       3.840  -0.616 -12.854  0.00  0.00     0.079 C 
ATOM     45  H   LIG d   1       3.811  -1.595 -13.332  0.00  0.00     0.066 H 
ATOM     46  H   LIG d   1       3.760   0.162 -13.614  0.00  0.00     0.066 H 
ATOM     47  H   LIG d   1       4.782  -0.502 -12.317  0.00  0.00     0.066 H 
ENDBRANCH  43  44
ENDBRANCH  37  43
ENDBRANCH   1  33
TORSDOF 6
ENDMDL
MODEL 5
REMARK VINA RESULT:      -6.5      1.834      5.692
REMARK  6 active torsions:
REMARK  status: ('A' for Active; 'I' for Inactive)
REMARK    1  A    between atoms: C_1  and  O_2 
REMARK    2  A    between atoms: O_2  and  C_3 
REMARK    3  A    between atoms: C_6  and  C_9 
REMARK    4  A    between atoms: N_12  and  C_13 
REMARK    5  A    between atoms: C_17  and  O_19 
REMARK    6  A    between atoms: O_19  and  C_20 
ROOT
ATOM      1  C   LIG d   1       5.062  -3.230  -7.000  0.00  0.00     0.142 A 
ATOM      2  C   LIG d   1       5.410  -2.677  -5.810  0.00  0.00     0.053 A 
ATOM      3  C   LIG d   1       6.368  -3.330  -4.990  0.00  0.00     0.221 A 
ATOM      4  N   LIG d   1       6.735  -2.825  -3.823  0.00  0.00    -0.204 N 
ATOM      5  C   LIG d   1       6.940  -4.599  -5.494  0.00  0.00     0.088 A 
ATOM      6  C   LIG d   1       7.885  -5.308  -4.759  0.00  0.00    -0.045 A 
ATOM      7  C   LIG d   1       8.394  -6.488  -5.262  0.00  0.00    -0.061 A 
ATOM      8  C   LIG d   1       7.968  -6.963  -6.492  0.00  0.00    -0.058 A 
ATOM      9  C   LIG d   1       7.032  -6.267  -7.229  0.00  0.00    -0.018 A 
ATOM     10  C   LIG d   1       6.507  -5.078  -6.739  0.00  0.00     0.142 A 
ATOM     11  O   LIG d   1       5.585  -4.386  -7.442  0.00  0.00    -0.454 OA
ATOM     12  H   LIG d   1       4.963  -1.748  -5.489  0.00  0.00     0.072 H 
ATOM     13  H   LIG d   1       8.218  -4.938  -3.799  0.00  0.00     0.063 H 
ATOM     14  H   LIG d   1       9.128  -7.042  -4.695  0.00  0.00     0.062 H 
ATOM     15  H   LIG d   1       8.373  -7.887  -6.877  0.00  0.00     0.062 H 
ATOM     16  H   LIG d   1       6.707  -6.646  -8.187  0.00  0.00     0.065 H 
ATOM     17  H   LIG d   1       7.455  -3.238  -3.320  0.00  0.00     0.454 HD
ENDROOT
BRANCH   4  18
ATOM     18  C   LIG d   1       6.101  -1.724  -3.326  0.00  0.00     0.210 A 
ATOM     19  C   LIG d   1       6.630  -0.450  -3.548  0.00  0.00     0.051 A 
ATOM     20  C   LIG d   1       5.977   0.662  -3.045  0.00  0.00     0.126 A 
ATOM     21  H   LIG d   1       7.544  -0.333  -4.113  0.00  0.00     0.072 H 
ATOM     22  C   LIG d   1       4.806   0.510  -2.313  0.00  0.00    -0.019 A 
ATOM     23  C   LIG d   1       4.283  -0.751  -2.088  0.00  0.00    -0.052 A 
ATOM     24  H   LIG d   1       4.302   1.380  -1.918  0.00  0.00     0.065 H 
ATOM     25  C   LIG d   1       4.921  -1.867  -2.589  0.00  0.00     0.010 A 
ATOM     26  H   LIG d   1       3.372  -0.861  -1.519  0.00  0.00     0.062 H 
ATOM     27  H   LIG d   1       4.510  -2.849  -2.411  0.00  0.00     0.068 H 
BRANCH  20  28
ATOM     28  O   LIG d   1       6.485   1.904  -3.262  0.00  0.00    -0.495 OA
BRANCH  28  29
ATOM     29  C   LIG d   1       7.757   1.981  -3.910  0.00  0.00     0.079 C 
ATOM     30  H   LIG d   1       8.362   2.751  -3.432  0.00  0.00     0.066 H 
ATOM     31  H   LIG d   1       8.264   1.020  -3.833  0.00  0.00     0.066 H 
ATOM     32  H   LIG d   1       7.614   2.233  -4.961  0.00  0.00     0.066 H 
ENDBRANCH  28  29
ENDBRANCH  20  28
ENDBRANCH   4  18
BRANCH   1  33
ATOM     33  C   LIG d   1       4.064  -2.537  -7.837  0.00  0.00     0.018 A 
ATOM     34  C   LIG d   1       3.432  -3.218  -8.882  0.00  0.00    -0.048 A 
ATOM     35  C   LIG d   1       2.501  -2.568  -9.661  0.00  0.00    -0.019 A 
ATOM     36  H   LIG d   1       3.673  -4.252  -9.076  0.00  0.00     0.063 H 
ATOM     37  C   LIG d   1       2.191  -1.237  -9.411  0.00  0.00     0.120 A 
ATOM     38  H   LIG d   1       2.011  -3.093 -10.468  0.00  0.00     0.065 H 
ATOM     39  C   LIG d   1       2.820  -0.554  -8.378  0.00  0.00    -0.019 A 
ATOM     40  C   LIG d   1       3.749  -1.197  -7.589  0.00  0.00    -0.048 A 
ATOM     41  H   LIG d   1       2.579   0.481  -8.190  0.00  0.00     0.065 H 
ATOM     42  H   LIG d   1       4.235  -0.668  -6.783  0.00  0.00     0.063 H 
BRANCH  37  43
ATOM     43  O   LIG d   1       1.273  -0.599 -10.183  0.00  0.00    -0.495 OA
BRANCH  43  44
ATOM     44  C   LIG d   1       1.106  -1.074 -11.519  0.00  0.00     0.079 C 
ATOM     45  H   LIG d   1       0.267  -1.768 -11.557  0.00  0.00     0.066 H 
ATOM     46  H   LIG d   1       0.911  -0.232 -12.183  0.00  0.00     0.066 H 
ATOM     47  H   LIG d   1       2.015  -1.585 -11.839  0.00  0.00     0.066 H 
ENDBRANCH  43  44
ENDBRANCH  37  43
ENDBRANCH   1  33
TORSDOF 6
ENDMDL
MODEL 6
REMARK VINA RESULT:      -6.5      4.992      8.200
REMARK  6 active torsions:
REMARK  status: ('A' for Active; 'I' for Inactive)
REMARK    1  A    between atoms: C_1  and  O_2 
REMARK    2  A    between atoms: O_2  and  C_3 
REMARK    3  A    between atoms: C_6  and  C_9 
REMARK    4  A    between atoms: N_12  and  C_13 
REMARK    5  A    between atoms: C_17  and  O_19 
REMARK    6  A    between atoms: O_19  and  C_20 
ROOT
ATOM      1  C   LIG d   1       7.425  -1.848  -3.896  0.00  0.00     0.142 A 
ATOM      2  C   LIG d   1       7.725  -0.529  -4.005  0.00  0.00     0.053 A 
ATOM      3  C   LIG d   1       6.724   0.441  -3.734  0.00  0.00     0.221 A 
ATOM      4  N   LIG d   1       6.975   1.737  -3.828  0.00  0.00    -0.204 N 
ATOM      5  C   LIG d   1       5.387  -0.057  -3.341  0.00  0.00     0.088 A 
ATOM      6  C   LIG d   1       4.344   0.819  -3.056  0.00  0.00    -0.045 A 
ATOM      7  C   LIG d   1       3.111   0.316  -2.695  0.00  0.00    -0.061 A 
ATOM      8  C   LIG d   1       2.913  -1.054  -2.614  0.00  0.00    -0.058 A 
ATOM      9  C   LIG d   1       3.941  -1.931  -2.893  0.00  0.00    -0.018 A 
ATOM     10  C   LIG d   1       5.188  -1.444  -3.260  0.00  0.00     0.142 A 
ATOM     11  O   LIG d   1       6.204  -2.286  -3.544  0.00  0.00    -0.454 OA
ATOM     12  H   LIG d   1       8.718  -0.218  -4.295  0.00  0.00     0.072 H 
ATOM     13  H   LIG d   1       4.498   1.887  -3.118  0.00  0.00     0.063 H 
ATOM     14  H   LIG d   1       2.299   0.992  -2.472  0.00  0.00     0.062 H 
ATOM     15  H   LIG d   1       1.944  -1.437  -2.329  0.00  0.00     0.062 H 
ATOM     16  H   LIG d   1       3.775  -2.996  -2.827  0.00  0.00     0.065 H 
ATOM     17  H   LIG d   1       6.306   2.383  -3.552  0.00  0.00     0.454 HD
ENDROOT
BRANCH   4  18
ATOM     18  C   LIG d   1       8.176   2.165  -4.313  0.00  0.00     0.210 A 
ATOM     19  C   LIG d   1       9.168   2.614  -3.437  0.00  0.00     0.051 A 
ATOM     20  C   LIG d   1      10.385   3.041  -3.938  0.00  0.00     0.126 A 
ATOM     21  H   LIG d   1       8.985   2.624  -2.373  0.00  0.00     0.072 H 
ATOM     22  C   LIG d   1      10.615   3.034  -5.308  0.00  0.00    -0.019 A 
ATOM     23  C   LIG d   1       9.633   2.595  -6.178  0.00  0.00    -0.052 A 
ATOM     24  H   LIG d   1      11.565   3.373  -5.696  0.00  0.00     0.065 H 
ATOM     25  C   LIG d   1       8.418   2.161  -5.691  0.00  0.00     0.010 A 
ATOM     26  H   LIG d   1       9.820   2.591  -7.242  0.00  0.00     0.062 H 
ATOM     27  H   LIG d   1       7.655   1.819  -6.374  0.00  0.00     0.068 H 
BRANCH  20  28
ATOM     28  O   LIG d   1      11.354   3.475  -3.089  0.00  0.00    -0.495 OA
BRANCH  28  29
ATOM     29  C   LIG d   1      10.965   4.413  -2.084  0.00  0.00     0.079 C 
ATOM     30  H   LIG d   1      11.695   5.220  -2.037  0.00  0.00     0.066 H 
ATOM     31  H   LIG d   1       9.986   4.823  -2.328  0.00  0.00     0.066 H 
ATOM     32  H   LIG d   1      10.917   3.910  -1.118  0.00  0.00     0.066 H 
ENDBRANCH  28  29
ENDBRANCH  20  28
ENDBRANCH   4  18
BRANCH   1  33
ATOM     33  C   LIG d   1       8.479  -2.840  -4.183  0.00  0.00     0.018 A 
ATOM     34  C   LIG d   1       8.793  -3.822  -3.239  0.00  0.00    -0.048 A 
ATOM     35  C   LIG d   1       9.778  -4.746  -3.511  0.00  0.00    -0.019 A 
ATOM     36  H   LIG d   1       8.264  -3.855  -2.298  0.00  0.00     0.063 H 
ATOM     37  C   LIG d   1      10.458  -4.703  -4.721  0.00  0.00     0.120 A 
ATOM     38  H   LIG d   1      10.021  -5.505  -2.782  0.00  0.00     0.065 H 
ATOM     39  C   LIG d   1      10.154  -3.726  -5.661  0.00  0.00    -0.019 A 
ATOM     40  C   LIG d   1       9.167  -2.801  -5.400  0.00  0.00    -0.048 A 
ATOM     41  H   LIG d   1      10.688  -3.694  -6.598  0.00  0.00     0.065 H 
ATOM     42  H   LIG d   1       8.927  -2.044  -6.133  0.00  0.00     0.063 H 
BRANCH  37  43
ATOM     43  O   LIG d   1      11.429  -5.616  -4.984  0.00  0.00    -0.495 OA
BRANCH  43  44
ATOM     44  C   LIG d   1      12.109  -6.182  -3.863  0.00  0.00     0.079 C 
ATOM     45  H   LIG d   1      13.008  -6.696  -4.205  0.00  0.00     0.066 H 
ATOM     46  H   LIG d   1      12.386  -5.390  -3.168  0.00  0.00     0.066 H 
ATOM     47  H   LIG d   1      11.453  -6.893  -3.361  0.00  0.00     0.066 H 
ENDBRANCH  43  44
ENDBRANCH  37  43
ENDBRANCH   1  33
TORSDOF 6
ENDMDL
MODEL 7
REMARK VINA RESULT:      -6.3      8.543     10.148
REMARK  6 active torsions:
REMARK  status: ('A' for Active; 'I' for Inactive)
REMARK    1  A    between atoms: C_1  and  O_2 
REMARK    2  A    between atoms: O_2  and  C_3 
REMARK    3  A    between atoms: C_6  and  C_9 
REMARK    4  A    between atoms: N_12  and  C_13 
REMARK    5  A    between atoms: C_17  and  O_19 
REMARK    6  A    between atoms: O_19  and  C_20 
ROOT
ATOM      1  C   LIG d   1      10.257   6.831  -3.638  0.00  0.00     0.142 A 
ATOM      2  C   LIG d   1      10.342   5.491  -3.439  0.00  0.00     0.053 A 
ATOM      3  C   LIG d   1      10.612   4.993  -2.137  0.00  0.00     0.221 A 
ATOM      4  N   LIG d   1      10.703   3.693  -1.901  0.00  0.00    -0.204 N 
ATOM      5  C   LIG d   1      10.789   5.986  -1.055  0.00  0.00     0.088 A 
ATOM      6  C   LIG d   1      11.057   5.591   0.253  0.00  0.00    -0.045 A 
ATOM      7  C   LIG d   1      11.216   6.546   1.234  0.00  0.00    -0.061 A 
ATOM      8  C   LIG d   1      11.108   7.893   0.921  0.00  0.00    -0.058 A 
ATOM      9  C   LIG d   1      10.842   8.295  -0.371  0.00  0.00    -0.018 A 
ATOM     10  C   LIG d   1      10.680   7.347  -1.373  0.00  0.00     0.142 A 
ATOM     11  O   LIG d   1      10.426   7.722  -2.645  0.00  0.00    -0.454 OA
ATOM     12  H   LIG d   1      10.204   4.808  -4.265  0.00  0.00     0.072 H 
ATOM     13  H   LIG d   1      11.141   4.541   0.498  0.00  0.00     0.063 H 
ATOM     14  H   LIG d   1      11.424   6.245   2.250  0.00  0.00     0.062 H 
ATOM     15  H   LIG d   1      11.235   8.633   1.698  0.00  0.00     0.062 H 
ATOM     16  H   LIG d   1      10.760   9.347  -0.604  0.00  0.00     0.065 H 
ATOM     17  H   LIG d   1      10.799   3.371  -0.991  0.00  0.00     0.454 HD
ENDROOT
BRANCH   4  18
ATOM     18  C   LIG d   1      10.662   2.808  -2.937  0.00  0.00     0.210 A 
ATOM     19  C   LIG d   1       9.434   2.346  -3.419  0.00  0.00     0.051 A 
ATOM     20  C   LIG d   1       9.402   1.451  -4.474  0.00  0.00     0.126 A 
ATOM     21  H   LIG d   1       8.513   2.689  -2.970  0.00  0.00     0.072 H 
ATOM     22  C   LIG d   1      10.587   1.006  -5.045  0.00  0.00    -0.019 A 
ATOM     23  C   LIG d   1      11.805   1.457  -4.568  0.00  0.00    -0.052 A 
ATOM     24  H   LIG d   1      10.558   0.304  -5.866  0.00  0.00     0.065 H 
ATOM     25  C   LIG d   1      11.850   2.353  -3.520  0.00  0.00     0.010 A 
ATOM     26  H   LIG d   1      12.722   1.107  -5.018  0.00  0.00     0.062 H 
ATOM     27  H   LIG d   1      12.802   2.703  -3.150  0.00  0.00     0.068 H 
BRANCH  20  28
ATOM     28  O   LIG d   1       8.210   1.003  -4.948  0.00  0.00    -0.495 OA
BRANCH  28  29
ATOM     29  C   LIG d   1       7.153   0.843  -4.000  0.00  0.00     0.079 C 
ATOM     30  H   LIG d   1       7.412   1.359  -3.076  0.00  0.00     0.066 H 
ATOM     31  H   LIG d   1       6.233   1.262  -4.406  0.00  0.00     0.066 H 
ATOM     32  H   LIG d   1       7.008  -0.218  -3.794  0.00  0.00     0.066 H 
ENDBRANCH  28  29
ENDBRANCH  20  28
ENDBRANCH   4  18
BRANCH   1  33
ATOM     33  C   LIG d   1       9.977   7.329  -4.998  0.00  0.00     0.018 A 
ATOM     34  C   LIG d   1      10.000   6.450  -6.084  0.00  0.00    -0.048 A 
ATOM     35  C   LIG d   1       9.738   6.919  -7.353  0.00  0.00    -0.019 A 
ATOM     36  H   LIG d   1      10.223   5.405  -5.929  0.00  0.00     0.063 H 
ATOM     37  C   LIG d   1       9.451   8.264  -7.553  0.00  0.00     0.120 A 
ATOM     38  H   LIG d   1       9.754   6.241  -8.193  0.00  0.00     0.065 H 
ATOM     39  C   LIG d   1       9.432   9.143  -6.476  0.00  0.00    -0.019 A 
ATOM     40  C   LIG d   1       9.688   8.682  -5.204  0.00  0.00    -0.048 A 
ATOM     41  H   LIG d   1       9.213  10.187  -6.637  0.00  0.00     0.065 H 
ATOM     42  H   LIG d   1       9.669   9.364  -4.367  0.00  0.00     0.063 H 
BRANCH  37  43
ATOM     43  O   LIG d   1       9.193   8.722  -8.805  0.00  0.00    -0.495 OA
BRANCH  43  44
ATOM     44  C   LIG d   1      10.002   8.207  -9.864  0.00  0.00     0.079 C 
ATOM     45  H   LIG d   1      10.143   8.977 -10.622  0.00  0.00     0.066 H 
ATOM     46  H   LIG d   1      10.971   7.905  -9.468  0.00  0.00     0.066 H 
ATOM     47  H   LIG d   1       9.507   7.344 -10.311  0.00  0.00     0.066 H 
ENDBRANCH  43  44
ENDBRANCH  37  43
ENDBRANCH   1  33
TORSDOF 6
ENDMDL
MODEL 8
REMARK VINA RESULT:      -6.2      4.420      7.463
REMARK  6 active torsions:
REMARK  status: ('A' for Active; 'I' for Inactive)
REMARK    1  A    between atoms: C_1  and  O_2 
REMARK    2  A    between atoms: O_2  and  C_3 
REMARK    3  A    between atoms: C_6  and  C_9 
REMARK    4  A    between atoms: N_12  and  C_13 
REMARK    5  A    between atoms: C_17  and  O_19 
REMARK    6  A    between atoms: O_19  and  C_20 
ROOT
ATOM      1  C   LIG d   1       8.814   0.214  -5.020  0.00  0.00     0.142 A 
ATOM      2  C   LIG d   1       7.634  -0.082  -4.417  0.00  0.00     0.053 A 
ATOM      3  C   LIG d   1       7.333  -1.432  -4.095  0.00  0.00     0.221 A 
ATOM      4  N   LIG d   1       6.195  -1.764  -3.507  0.00  0.00    -0.204 N 
ATOM      5  C   LIG d   1       8.345  -2.454  -4.444  0.00  0.00     0.088 A 
ATOM      6  C   LIG d   1       8.137  -3.802  -4.167  0.00  0.00    -0.045 A 
ATOM      7  C   LIG d   1       9.103  -4.725  -4.509  0.00  0.00    -0.061 A 
ATOM      8  C   LIG d   1      10.276  -4.312  -5.124  0.00  0.00    -0.058 A 
ATOM      9  C   LIG d   1      10.492  -2.978  -5.402  0.00  0.00    -0.018 A 
ATOM     10  C   LIG d   1       9.530  -2.035  -5.066  0.00  0.00     0.142 A 
ATOM     11  O   LIG d   1       9.721  -0.726  -5.337  0.00  0.00    -0.454 OA
ATOM     12  H   LIG d   1       6.930   0.702  -4.182  0.00  0.00     0.072 H 
ATOM     13  H   LIG d   1       7.223  -4.125  -3.688  0.00  0.00     0.063 H 
ATOM     14  H   LIG d   1       8.947  -5.772  -4.296  0.00  0.00     0.062 H 
ATOM     15  H   LIG d   1      11.026  -5.043  -5.387  0.00  0.00     0.062 H 
ATOM     16  H   LIG d   1      11.409  -2.668  -5.881  0.00  0.00     0.065 H 
ATOM     17  H   LIG d   1       6.047  -2.677  -3.214  0.00  0.00     0.454 HD
ENDROOT
BRANCH   4  18
ATOM     18  C   LIG d   1       5.229  -0.821  -3.311  0.00  0.00     0.210 A 
ATOM     19  C   LIG d   1       4.294  -0.554  -4.316  0.00  0.00     0.051 A 
ATOM     20  C   LIG d   1       3.314   0.400  -4.107  0.00  0.00     0.126 A 
ATOM     21  H   LIG d   1       4.336  -1.093  -5.251  0.00  0.00     0.072 H 
ATOM     22  C   LIG d   1       3.267   1.098  -2.906  0.00  0.00    -0.019 A 
ATOM     23  C   LIG d   1       4.193   0.839  -1.911  0.00  0.00    -0.052 A 
ATOM     24  H   LIG d   1       2.503   1.845  -2.748  0.00  0.00     0.065 H 
ATOM     25  C   LIG d   1       5.172  -0.114  -2.106  0.00  0.00     0.010 A 
ATOM     26  H   LIG d   1       4.149   1.384  -0.981  0.00  0.00     0.062 H 
ATOM     27  H   LIG d   1       5.893  -0.313  -1.327  0.00  0.00     0.068 H 
BRANCH  20  28
ATOM     28  O   LIG d   1       2.401   0.661  -5.079  0.00  0.00    -0.495 OA
BRANCH  28  29
ATOM     29  C   LIG d   1       2.760   0.311  -6.417  0.00  0.00     0.079 C 
ATOM     30  H   LIG d   1       3.468  -0.517  -6.399  0.00  0.00     0.066 H 
ATOM     31  H   LIG d   1       1.868   0.014  -6.967  0.00  0.00     0.066 H 
ATOM     32  H   LIG d   1       3.219   1.171  -6.906  0.00  0.00     0.066 H 
ENDBRANCH  28  29
ENDBRANCH  20  28
ENDBRANCH   4  18
BRANCH   1  33
ATOM     33  C   LIG d   1       9.108   1.622  -5.347  0.00  0.00     0.018 A 
ATOM     34  C   LIG d   1       9.575   1.963  -6.620  0.00  0.00    -0.048 A 
ATOM     35  C   LIG d   1       9.848   3.279  -6.921  0.00  0.00    -0.019 A 
ATOM     36  H   LIG d   1       9.721   1.196  -7.365  0.00  0.00     0.063 H 
ATOM     37  C   LIG d   1       9.661   4.267  -5.962  0.00  0.00     0.120 A 
ATOM     38  H   LIG d   1      10.209   3.544  -7.904  0.00  0.00     0.065 H 
ATOM     39  C   LIG d   1       9.202   3.932  -4.693  0.00  0.00    -0.019 A 
ATOM     40  C   LIG d   1       8.921   2.619  -4.385  0.00  0.00    -0.048 A 
ATOM     41  H   LIG d   1       9.062   4.702  -3.950  0.00  0.00     0.065 H 
ATOM     42  H   LIG d   1       8.560   2.360  -3.400  0.00  0.00     0.063 H 
BRANCH  37  43
ATOM     43  O   LIG d   1       9.933   5.563  -6.263  0.00  0.00    -0.495 OA
BRANCH  43  44
ATOM     44  C   LIG d   1       9.577   6.544  -5.288  0.00  0.00     0.079 C 
ATOM     45  H   LIG d   1       9.991   7.511  -5.578  0.00  0.00     0.066 H 
ATOM     46  H   LIG d   1       8.492   6.617  -5.224  0.00  0.00     0.066 H 
ATOM     47  H   LIG d   1       9.980   6.254  -4.317  0.00  0.00     0.066 H 
ENDBRANCH  43  44
ENDBRANCH  37  43
ENDBRANCH   1  33
TORSDOF 6
ENDMDL
MODEL 9
REMARK VINA RESULT:      -6.1      8.754     10.388
REMARK  6 active torsions:
REMARK  status: ('A' for Active; 'I' for Inactive)
REMARK    1  A    between atoms: C_1  and  O_2 
REMARK    2  A    between atoms: O_2  and  C_3 
REMARK    3  A    between atoms: C_6  and  C_9 
REMARK    4  A    between atoms: N_12  and  C_13 
REMARK    5  A    between atoms: C_17  and  O_19 
REMARK    6  A    between atoms: O_19  and  C_20 
ROOT
ATOM      1  C   LIG d   1      10.253   6.795  -3.626  0.00  0.00     0.142 A 
ATOM      2  C   LIG d   1      10.317   5.453  -3.437  0.00  0.00     0.053 A 
ATOM      3  C   LIG d   1      10.582   4.941  -2.139  0.00  0.00     0.221 A 
ATOM      4  N   LIG d   1      10.653   3.638  -1.913  0.00  0.00    -0.204 N 
ATOM      5  C   LIG d   1      10.778   5.923  -1.050  0.00  0.00     0.088 A 
ATOM      6  C   LIG d   1      11.043   5.514   0.254  0.00  0.00    -0.045 A 
ATOM      7  C   LIG d   1      11.220   6.460   1.242  0.00  0.00    -0.061 A 
ATOM      8  C   LIG d   1      11.133   7.810   0.939  0.00  0.00    -0.058 A 
ATOM      9  C   LIG d   1      10.870   8.227  -0.351  0.00  0.00    -0.018 A 
ATOM     10  C   LIG d   1      10.690   7.288  -1.358  0.00  0.00     0.142 A 
ATOM     11  O   LIG d   1      10.439   7.676  -2.627  0.00  0.00    -0.454 OA
ATOM     12  H   LIG d   1      10.166   4.778  -4.267  0.00  0.00     0.072 H 
ATOM     13  H   LIG d   1      11.110   4.462   0.491  0.00  0.00     0.063 H 
ATOM     14  H   LIG d   1      11.425   6.148   2.255  0.00  0.00     0.062 H 
ATOM     15  H   LIG d   1      11.273   8.543   1.720  0.00  0.00     0.062 H 
ATOM     16  H   LIG d   1      10.805   9.281  -0.575  0.00  0.00     0.065 H 
ATOM     17  H   LIG d   1      10.745   3.308  -1.005  0.00  0.00     0.454 HD
ENDROOT
BRANCH   4  18
ATOM     18  C   LIG d   1      10.595   2.761  -2.955  0.00  0.00     0.210 A 
ATOM     19  C   LIG d   1      11.772   2.251  -3.510  0.00  0.00     0.051 A 
ATOM     20  C   LIG d   1      11.703   1.356  -4.564  0.00  0.00     0.126 A 
ATOM     21  H   LIG d   1      12.731   2.551  -3.115  0.00  0.00     0.072 H 
ATOM     22  C   LIG d   1      10.469   0.977  -5.075  0.00  0.00    -0.019 A 
ATOM     23  C   LIG d   1       9.302   1.484  -4.532  0.00  0.00    -0.052 A 
ATOM     24  H   LIG d   1      10.419   0.282  -5.901  0.00  0.00     0.065 H 
ATOM     25  C   LIG d   1       9.357   2.371  -3.477  0.00  0.00     0.010 A 
ATOM     26  H   LIG d   1       8.346   1.183  -4.934  0.00  0.00     0.062 H 
ATOM     27  H   LIG d   1       8.444   2.765  -3.055  0.00  0.00     0.068 H 
BRANCH  20  28
ATOM     28  O   LIG d   1      12.845   0.854  -5.104  0.00  0.00    -0.495 OA
BRANCH  28  29
ATOM     29  C   LIG d   1      12.857   0.643  -6.517  0.00  0.00     0.079 C 
ATOM     30  H   LIG d   1      12.453  -0.344  -6.741  0.00  0.00     0.066 H 
ATOM     31  H   LIG d   1      12.248   1.404  -7.004  0.00  0.00     0.066 H 
ATOM     32  H   LIG d   1      13.881   0.708  -6.885  0.00  0.00     0.066 H 
ENDBRANCH  28  29
ENDBRANCH  20  28
ENDBRANCH   4  18
BRANCH   1  33
ATOM     33  C   LIG d   1       9.977   7.308  -4.982  0.00  0.00     0.018 A 
ATOM     34  C   LIG d   1       9.684   8.661  -5.172  0.00  0.00    -0.048 A 
ATOM     35  C   LIG d   1       9.426   9.135  -6.440  0.00  0.00    -0.019 A 
ATOM     36  H   LIG d   1       9.659   9.333  -4.328  0.00  0.00     0.063 H 
ATOM     37  C   LIG d   1       9.458   8.271  -7.527  0.00  0.00     0.120 A 
ATOM     38  H   LIG d   1       9.200  10.181  -6.589  0.00  0.00     0.065 H 
ATOM     39  C   LIG d   1       9.743   6.924  -7.341  0.00  0.00    -0.019 A 
ATOM     40  C   LIG d   1      10.007   6.441  -6.078  0.00  0.00    -0.048 A 
ATOM     41  H   LIG d   1       9.762   6.255  -8.188  0.00  0.00     0.065 H 
ATOM     42  H   LIG d   1      10.234   5.395  -5.935  0.00  0.00     0.063 H 
BRANCH  37  43
ATOM     43  O   LIG d   1       9.203   8.743  -8.775  0.00  0.00    -0.495 OA
BRANCH  43  44
ATOM     44  C   LIG d   1       9.992   8.216  -9.842  0.00  0.00     0.079 C 
ATOM     45  H   LIG d   1      10.250   9.018 -10.534  0.00  0.00     0.066 H 
ATOM     46  H   LIG d   1      10.905   7.778  -9.438  0.00  0.00     0.066 H 
ATOM     47  H   LIG d   1       9.425   7.450 -10.370  0.00  0.00     0.066 H 
ENDBRANCH  43  44
ENDBRANCH  37  43
ENDBRANCH   1  33
TORSDOF 6
ENDMDL
