MODEL 1
REMARK VINA RESULT:      -4.9      0.000      0.000
REMARK  11 active torsions:
REMARK  status: ('A' for Active; 'I' for Inactive)
REMARK    1  A    between atoms: C_1  and  C_2 
REMARK    2  A    between atoms: C_2  and  C_3 
REMARK    3  A    between atoms: C_3  and  C_5 
REMARK    4  A    between atoms: C_3  and  N_16 
REMARK    5  A    between atoms: C_5  and  C_7 
REMARK    6  A    between atoms: C_5  and  O_15 
REMARK    7  A    between atoms: C_10  and  O_14 
REMARK    8  A    between atoms: C_11  and  O_13 
REMARK    9  A    between atoms: N_16  and  C_17 
REMARK   10  A    between atoms: C_17  and  C_18 
REMARK   11  A    between atoms: C_17  and  C_19 
ROOT
ATOM      1  C   LIG d   1       5.032  -0.778  -3.390  0.00  0.00     0.008 C 
ATOM      2  H   LIG d   1       6.108  -0.759  -3.215  0.00  0.00     0.088 H 
ENDROOT
BRANCH   1   3
ATOM      3  C   LIG d   1       4.297  -0.476  -2.082  0.00  0.00    -0.010 C 
ATOM      4  H   LIG d   1       4.684  -1.120  -1.291  0.00  0.00     0.032 H 
ATOM      5  H   LIG d   1       3.231  -0.662  -2.213  0.00  0.00     0.032 H 
BRANCH   3   6
ATOM      6  C   LIG d   1       4.516   0.988  -1.700  0.00  0.00    -0.060 C 
ATOM      7  H   LIG d   1       5.133   1.041  -0.803  0.00  0.00     0.023 H 
ATOM      8  H   LIG d   1       5.018   1.505  -2.517  0.00  0.00     0.023 H 
ATOM      9  H   LIG d   1       3.554   1.463  -1.507  0.00  0.00     0.023 H 
ENDBRANCH   3   6
ENDBRANCH   1   3
BRANCH   1  10
ATOM     10  C   LIG d   1       4.623  -2.163  -3.897  0.00  0.00     0.123 C 
ATOM     11  H   LIG d   1       3.980  -2.054  -4.771  0.00  0.00     0.070 H 
BRANCH  10  12
ATOM     12  C   LIG d   1       5.855  -2.943  -4.274  0.00  0.00    -0.010 A 
ATOM     13  C   LIG d   1       7.092  -2.559  -3.790  0.00  0.00    -0.011 A 
ATOM     14  C   LIG d   1       8.225  -3.279  -4.133  0.00  0.00     0.159 A 
ATOM     15  H   LIG d   1       7.174  -1.699  -3.141  0.00  0.00     0.066 H 
ATOM     16  C   LIG d   1       8.116  -4.383  -4.973  0.00  0.00     0.158 A 
ATOM     17  C   LIG d   1       6.875  -4.761  -5.459  0.00  0.00    -0.016 A 
ATOM     18  C   LIG d   1       5.748  -4.041  -5.109  0.00  0.00    -0.052 A 
ATOM     19  H   LIG d   1       6.788  -5.617  -6.110  0.00  0.00     0.066 H 
ATOM     20  H   LIG d   1       4.781  -4.336  -5.489  0.00  0.00     0.062 H 
BRANCH  14  21
ATOM     21  O   LIG d   1       9.441  -2.905  -3.652  0.00  0.00    -0.503 OA
ATOM     22  H   LIG d   1      10.183  -3.387  -4.042  0.00  0.00     0.292 HD
ENDBRANCH  14  21
BRANCH  16  23
ATOM     23  O   LIG d   1       9.226  -5.091  -5.315  0.00  0.00    -0.503 OA
ATOM     24  H   LIG d   1       9.199  -5.455  -6.211  0.00  0.00     0.292 HD
ENDBRANCH  16  23
ENDBRANCH  10  12
BRANCH  10  25
ATOM     25  O   LIG d   1       3.916  -2.857  -2.868  0.00  0.00    -0.382 OA
ATOM     26  H   LIG d   1       4.241  -2.676  -1.975  0.00  0.00     0.210 HD
ENDBRANCH  10  25
ENDBRANCH   1  10
BRANCH   1  27
ATOM     27  N   LIG d   1       4.681   0.234  -4.394  0.00  0.00     0.233 N 
ATOM     28  H   LIG d   1       4.419   1.092  -3.930  0.00  0.00     0.202 HD
ATOM     29  H   LIG d   1       5.476   0.405  -4.992  0.00  0.00     0.202 HD
BRANCH  27  30
ATOM     30  C   LIG d   1       3.555  -0.248  -5.203  0.00  0.00    -0.028 C 
ATOM     31  H   LIG d   1       3.337  -1.284  -4.943  0.00  0.00     0.085 H 
BRANCH  30  32
ATOM     32  C   LIG d   1       2.322   0.615  -4.928  0.00  0.00    -0.022 C 
ATOM     33  H   LIG d   1       2.394   1.044  -3.928  0.00  0.00     0.028 H 
ATOM     34  H   LIG d   1       2.268   1.417  -5.665  0.00  0.00     0.028 H 
ATOM     35  H   LIG d   1       1.425   0.000  -4.995  0.00  0.00     0.028 H 
ENDBRANCH  30  32
BRANCH  30  36
ATOM     36  C   LIG d   1       3.918  -0.161  -6.686  0.00  0.00    -0.022 C 
ATOM     37  H   LIG d   1       3.336   0.633  -7.156  0.00  0.00     0.028 H 
ATOM     38  H   LIG d   1       4.981   0.058  -6.788  0.00  0.00     0.028 H 
ATOM     39  H   LIG d   1       3.694  -1.110  -7.172  0.00  0.00     0.028 H 
ENDBRANCH  30  36
ENDBRANCH  27  30
ENDBRANCH   1  27
TORSDOF 11
ENDMDL
MODEL 2
REMARK VINA RESULT:      -4.7      2.069      3.300
REMARK  11 active torsions:
REMARK  status: ('A' for Active; 'I' for Inactive)
REMARK    1  A    between atoms: C_1  and  C_2 
REMARK    2  A    between atoms: C_2  and  C_3 
REMARK    3  A    between atoms: C_3  and  C_5 
REMARK    4  A    between atoms: C_3  and  N_16 
REMARK    5  A    between atoms: C_5  and  C_7 
REMARK    6  A    between atoms: C_5  and  O_15 
REMARK    7  A    between atoms: C_10  and  O_14 
REMARK    8  A    between atoms: C_11  and  O_13 
REMARK    9  A    between atoms: N_16  and  C_17 
REMARK   10  A    between atoms: C_17  and  C_18 
REMARK   11  A    between atoms: C_17  and  C_19 
ROOT
ATOM      1  C   LIG d   1       6.061  -0.619  -4.573  0.00  0.00     0.008 C 
ATOM      2  H   LIG d   1       5.765  -0.917  -5.579  0.00  0.00     0.088 H 
ENDROOT
BRANCH   1   3
ATOM      3  C   LIG d   1       7.434   0.056  -4.623  0.00  0.00    -0.010 C 
ATOM      4  H   LIG d   1       7.732   0.194  -5.663  0.00  0.00     0.032 H 
ATOM      5  H   LIG d   1       8.166  -0.572  -4.116  0.00  0.00     0.032 H 
BRANCH   3   6
ATOM      6  C   LIG d   1       7.360   1.416  -3.929  0.00  0.00    -0.060 C 
ATOM      7  H   LIG d   1       6.358   1.565  -3.526  0.00  0.00     0.023 H 
ATOM      8  H   LIG d   1       8.087   1.450  -3.118  0.00  0.00     0.023 H 
ATOM      9  H   LIG d   1       7.582   2.205  -4.649  0.00  0.00     0.023 H 
ENDBRANCH   3   6
ENDBRANCH   1   3
BRANCH   1  10
ATOM     10  C   LIG d   1       6.133  -1.855  -3.675  0.00  0.00     0.123 C 
ATOM     11  H   LIG d   1       5.341  -1.807  -2.926  0.00  0.00     0.070 H 
BRANCH  10  12
ATOM     12  C   LIG d   1       5.957  -3.095  -4.512  0.00  0.00    -0.010 A 
ATOM     13  C   LIG d   1       4.692  -3.482  -4.916  0.00  0.00    -0.011 A 
ATOM     14  C   LIG d   1       4.529  -4.620  -5.690  0.00  0.00     0.159 A 
ATOM     15  H   LIG d   1       3.831  -2.894  -4.631  0.00  0.00     0.066 H 
ATOM     16  C   LIG d   1       5.639  -5.377  -6.051  0.00  0.00     0.158 A 
ATOM     17  C   LIG d   1       6.903  -4.987  -5.639  0.00  0.00    -0.016 A 
ATOM     18  C   LIG d   1       7.060  -3.848  -4.871  0.00  0.00    -0.052 A 
ATOM     19  H   LIG d   1       7.767  -5.573  -5.918  0.00  0.00     0.066 H 
ATOM     20  H   LIG d   1       8.045  -3.546  -4.550  0.00  0.00     0.062 H 
BRANCH  14  21
ATOM     21  O   LIG d   1       3.286  -4.997  -6.092  0.00  0.00    -0.503 OA
ATOM     22  H   LIG d   1       2.669  -4.261  -6.209  0.00  0.00     0.292 HD
ENDBRANCH  14  21
BRANCH  16  23
ATOM     23  O   LIG d   1       5.484  -6.497  -6.807  0.00  0.00    -0.503 OA
ATOM     24  H   LIG d   1       5.123  -6.329  -7.688  0.00  0.00     0.292 HD
ENDBRANCH  16  23
ENDBRANCH  10  12
BRANCH  10  25
ATOM     25  O   LIG d   1       7.403  -1.898  -3.022  0.00  0.00    -0.382 OA
ATOM     26  H   LIG d   1       7.587  -2.734  -2.572  0.00  0.00     0.210 HD
ENDBRANCH  10  25
ENDBRANCH   1  10
BRANCH   1  27
ATOM     27  N   LIG d   1       5.073   0.323  -4.031  0.00  0.00     0.233 N 
ATOM     28  H   LIG d   1       5.539   1.167  -3.735  0.00  0.00     0.202 HD
ATOM     29  H   LIG d   1       4.394   0.546  -4.745  0.00  0.00     0.202 HD
BRANCH  27  30
ATOM     30  C   LIG d   1       4.392  -0.288  -2.883  0.00  0.00    -0.028 C 
ATOM     31  H   LIG d   1       4.859  -1.245  -2.650  0.00  0.00     0.085 H 
BRANCH  30  32
ATOM     32  C   LIG d   1       4.501   0.640  -1.672  0.00  0.00    -0.022 C 
ATOM     33  H   LIG d   1       4.462   0.049  -0.756  0.00  0.00     0.028 H 
ATOM     34  H   LIG d   1       5.444   1.184  -1.714  0.00  0.00     0.028 H 
ATOM     35  H   LIG d   1       3.672   1.348  -1.681  0.00  0.00     0.028 H 
ENDBRANCH  30  32
BRANCH  30  36
ATOM     36  C   LIG d   1       2.917  -0.510  -3.223  0.00  0.00    -0.022 C 
ATOM     37  H   LIG d   1       2.826  -0.801  -4.270  0.00  0.00     0.028 H 
ATOM     38  H   LIG d   1       2.512  -1.301  -2.590  0.00  0.00     0.028 H 
ATOM     39  H   LIG d   1       2.361   0.412  -3.052  0.00  0.00     0.028 H 
ENDBRANCH  30  36
ENDBRANCH  27  30
ENDBRANCH   1  27
TORSDOF 11
ENDMDL
MODEL 3
REMARK VINA RESULT:      -4.7      3.538      5.075
REMARK  11 active torsions:
REMARK  status: ('A' for Active; 'I' for Inactive)
REMARK    1  A    between atoms: C_1  and  C_2 
REMARK    2  A    between atoms: C_2  and  C_3 
REMARK    3  A    between atoms: C_3  and  C_5 
REMARK    4  A    between atoms: C_3  and  N_16 
REMARK    5  A    between atoms: C_5  and  C_7 
REMARK    6  A    between atoms: C_5  and  O_15 
REMARK    7  A    between atoms: C_10  and  O_14 
REMARK    8  A    between atoms: C_11  and  O_13 
REMARK    9  A    between atoms: N_16  and  C_17 
REMARK   10  A    between atoms: C_17  and  C_18 
REMARK   11  A    between atoms: C_17  and  C_19 
ROOT
ATOM      1  C   LIG d   1       4.177  -0.170  -3.930  0.00  0.00     0.008 C 
ATOM      2  H   LIG d   1       4.733  -1.006  -4.355  0.00  0.00     0.088 H 
ENDROOT
BRANCH   1   3
ATOM      3  C   LIG d   1       3.577  -0.587  -2.586  0.00  0.00    -0.010 C 
ATOM      4  H   LIG d   1       2.499  -0.423  -2.603  0.00  0.00     0.032 H 
ATOM      5  H   LIG d   1       4.022   0.007  -1.788  0.00  0.00     0.032 H 
BRANCH   3   6
ATOM      6  C   LIG d   1       3.862  -2.069  -2.337  0.00  0.00    -0.060 C 
ATOM      7  H   LIG d   1       3.446  -2.661  -3.152  0.00  0.00     0.023 H 
ATOM      8  H   LIG d   1       4.939  -2.228  -2.287  0.00  0.00     0.023 H 
ATOM      9  H   LIG d   1       3.405  -2.375  -1.396  0.00  0.00     0.023 H 
ENDBRANCH   3   6
ENDBRANCH   1   3
BRANCH   1  10
ATOM     10  C   LIG d   1       3.054   0.235  -4.887  0.00  0.00     0.123 C 
ATOM     11  H   LIG d   1       2.923   1.317  -4.856  0.00  0.00     0.070 H 
BRANCH  10  12
ATOM     12  C   LIG d   1       3.410  -0.188  -6.288  0.00  0.00    -0.010 A 
ATOM     13  C   LIG d   1       2.960   0.550  -7.368  0.00  0.00    -0.011 A 
ATOM     14  C   LIG d   1       3.292   0.164  -8.657  0.00  0.00     0.159 A 
ATOM     15  H   LIG d   1       2.354   1.428  -7.205  0.00  0.00     0.066 H 
ATOM     16  C   LIG d   1       4.069  -0.971  -8.862  0.00  0.00     0.158 A 
ATOM     17  C   LIG d   1       4.513  -1.709  -7.777  0.00  0.00    -0.016 A 
ATOM     18  C   LIG d   1       4.183  -1.317  -6.493  0.00  0.00    -0.052 A 
ATOM     19  H   LIG d   1       5.117  -2.591  -7.934  0.00  0.00     0.066 H 
ATOM     20  H   LIG d   1       4.529  -1.893  -5.648  0.00  0.00     0.062 H 
BRANCH  14  21
ATOM     21  O   LIG d   1       2.854   0.892  -9.719  0.00  0.00    -0.503 OA
ATOM     22  H   LIG d   1       3.434   0.848 -10.492  0.00  0.00     0.292 HD
ENDBRANCH  14  21
BRANCH  16  23
ATOM     23  O   LIG d   1       4.394  -1.356 -10.126  0.00  0.00    -0.503 OA
ATOM     24  H   LIG d   1       3.832  -0.968 -10.811  0.00  0.00     0.292 HD
ENDBRANCH  16  23
ENDBRANCH  10  12
BRANCH  10  25
ATOM     25  O   LIG d   1       1.838  -0.404  -4.492  0.00  0.00    -0.382 OA
ATOM     26  H   LIG d   1       1.933  -0.996  -3.732  0.00  0.00     0.210 HD
ENDBRANCH  10  25
ENDBRANCH   1  10
BRANCH   1  27
ATOM     27  N   LIG d   1       5.083   0.968  -3.729  0.00  0.00     0.233 N 
ATOM     28  H   LIG d   1       5.122   1.521  -4.573  0.00  0.00     0.202 HD
ATOM     29  H   LIG d   1       4.743   1.539  -2.970  0.00  0.00     0.202 HD
BRANCH  27  30
ATOM     30  C   LIG d   1       6.427   0.474  -3.406  0.00  0.00    -0.028 C 
ATOM     31  H   LIG d   1       6.475   0.213  -2.349  0.00  0.00     0.085 H 
BRANCH  30  32
ATOM     32  C   LIG d   1       6.732  -0.765  -4.250  0.00  0.00    -0.022 C 
ATOM     33  H   LIG d   1       6.756  -0.489  -5.305  0.00  0.00     0.028 H 
ATOM     34  H   LIG d   1       7.699  -1.175  -3.960  0.00  0.00     0.028 H 
ATOM     35  H   LIG d   1       5.957  -1.515  -4.089  0.00  0.00     0.028 H 
ENDBRANCH  30  32
BRANCH  30  36
ATOM     36  C   LIG d   1       7.458   1.563  -3.710  0.00  0.00    -0.022 C 
ATOM     37  H   LIG d   1       7.733   1.518  -4.764  0.00  0.00     0.028 H 
ATOM     38  H   LIG d   1       7.030   2.541  -3.487  0.00  0.00     0.028 H 
ATOM     39  H   LIG d   1       8.344   1.406  -3.096  0.00  0.00     0.028 H 
ENDBRANCH  30  36
ENDBRANCH  27  30
ENDBRANCH   1  27
TORSDOF 11
ENDMDL
MODEL 4
REMARK VINA RESULT:      -4.7      2.683      5.758
REMARK  11 active torsions:
REMARK  status: ('A' for Active; 'I' for Inactive)
REMARK    1  A    between atoms: C_1  and  C_2 
REMARK    2  A    between atoms: C_2  and  C_3 
REMARK    3  A    between atoms: C_3  and  C_5 
REMARK    4  A    between atoms: C_3  and  N_16 
REMARK    5  A    between atoms: C_5  and  C_7 
REMARK    6  A    between atoms: C_5  and  O_15 
REMARK    7  A    between atoms: C_10  and  O_14 
REMARK    8  A    between atoms: C_11  and  O_13 
REMARK    9  A    between atoms: N_16  and  C_17 
REMARK   10  A    between atoms: C_17  and  C_18 
REMARK   11  A    between atoms: C_17  and  C_19 
ROOT
ATOM      1  C   LIG d   1       6.229  -3.155  -5.166  0.00  0.00     0.008 C 
ATOM      2  H   LIG d   1       6.769  -2.412  -4.579  0.00  0.00     0.088 H 
ENDROOT
BRANCH   1   3
ATOM      3  C   LIG d   1       6.208  -2.728  -6.635  0.00  0.00    -0.010 C 
ATOM      4  H   LIG d   1       5.175  -2.605  -6.962  0.00  0.00     0.032 H 
ATOM      5  H   LIG d   1       6.693  -3.491  -7.243  0.00  0.00     0.032 H 
BRANCH   3   6
ATOM      6  C   LIG d   1       6.953  -1.401  -6.792  0.00  0.00    -0.060 C 
ATOM      7  H   LIG d   1       7.825  -1.547  -7.428  0.00  0.00     0.023 H 
ATOM      8  H   LIG d   1       6.290  -0.665  -7.248  0.00  0.00     0.023 H 
ATOM      9  H   LIG d   1       7.272  -1.045  -5.813  0.00  0.00     0.023 H 
ENDBRANCH   3   6
ENDBRANCH   1   3
BRANCH   1  10
ATOM     10  C   LIG d   1       4.794  -3.268  -4.647  0.00  0.00     0.123 C 
ATOM     11  H   LIG d   1       4.722  -4.112  -3.960  0.00  0.00     0.070 H 
BRANCH  10  12
ATOM     12  C   LIG d   1       4.418  -2.000  -3.926  0.00  0.00    -0.010 A 
ATOM     13  C   LIG d   1       3.829  -0.959  -4.621  0.00  0.00    -0.011 A 
ATOM     14  C   LIG d   1       3.479   0.206  -3.958  0.00  0.00     0.159 A 
ATOM     15  H   LIG d   1       3.639  -1.057  -5.680  0.00  0.00     0.066 H 
ATOM     16  C   LIG d   1       3.730   0.330  -2.595  0.00  0.00     0.158 A 
ATOM     17  C   LIG d   1       4.325  -0.714  -1.906  0.00  0.00    -0.016 A 
ATOM     18  C   LIG d   1       4.668  -1.876  -2.572  0.00  0.00    -0.052 A 
ATOM     19  H   LIG d   1       4.521  -0.620  -0.848  0.00  0.00     0.066 H 
ATOM     20  H   LIG d   1       5.132  -2.689  -2.033  0.00  0.00     0.062 H 
BRANCH  14  21
ATOM     21  O   LIG d   1       2.895   1.227  -4.640  0.00  0.00    -0.503 OA
ATOM     22  H   LIG d   1       2.033   1.005  -5.020  0.00  0.00     0.292 HD
ENDBRANCH  14  21
BRANCH  16  23
ATOM     23  O   LIG d   1       3.392   1.473  -1.941  0.00  0.00    -0.503 OA
ATOM     24  H   LIG d   1       2.840   2.074  -2.460  0.00  0.00     0.292 HD
ENDBRANCH  16  23
ENDBRANCH  10  12
BRANCH  10  25
ATOM     25  O   LIG d   1       3.905  -3.473  -5.746  0.00  0.00    -0.382 OA
ATOM     26  H   LIG d   1       4.212  -4.132  -6.384  0.00  0.00     0.210 HD
ENDBRANCH  10  25
ENDBRANCH   1  10
BRANCH   1  27
ATOM     27  N   LIG d   1       6.898  -4.457  -5.044  0.00  0.00     0.233 N 
ATOM     28  H   LIG d   1       6.445  -5.002  -4.327  0.00  0.00     0.202 HD
ATOM     29  H   LIG d   1       6.843  -4.947  -5.925  0.00  0.00     0.202 HD
BRANCH  27  30
ATOM     30  C   LIG d   1       8.307  -4.252  -4.686  0.00  0.00    -0.028 C 
ATOM     31  H   LIG d   1       8.858  -3.905  -5.560  0.00  0.00     0.085 H 
BRANCH  30  32
ATOM     32  C   LIG d   1       8.404  -3.205  -3.575  0.00  0.00    -0.022 C 
ATOM     33  H   LIG d   1       7.426  -2.748  -3.419  0.00  0.00     0.028 H 
ATOM     34  H   LIG d   1       8.733  -3.683  -2.652  0.00  0.00     0.028 H 
ATOM     35  H   LIG d   1       9.122  -2.436  -3.861  0.00  0.00     0.028 H 
ENDBRANCH  30  32
BRANCH  30  36
ATOM     36  C   LIG d   1       8.906  -5.571  -4.196  0.00  0.00    -0.022 C 
ATOM     37  H   LIG d   1       9.372  -5.419  -3.222  0.00  0.00     0.028 H 
ATOM     38  H   LIG d   1       8.116  -6.318  -4.108  0.00  0.00     0.028 H 
ATOM     39  H   LIG d   1       9.655  -5.917  -4.907  0.00  0.00     0.028 H 
ENDBRANCH  30  36
ENDBRANCH  27  30
ENDBRANCH   1  27
TORSDOF 11
ENDMDL
MODEL 5
REMARK VINA RESULT:      -4.7      1.913      2.728
REMARK  11 active torsions:
REMARK  status: ('A' for Active; 'I' for Inactive)
REMARK    1  A    between atoms: C_1  and  C_2 
REMARK    2  A    between atoms: C_2  and  C_3 
REMARK    3  A    between atoms: C_3  and  C_5 
REMARK    4  A    between atoms: C_3  and  N_16 
REMARK    5  A    between atoms: C_5  and  C_7 
REMARK    6  A    between atoms: C_5  and  O_15 
REMARK    7  A    between atoms: C_10  and  O_14 
REMARK    8  A    between atoms: C_11  and  O_13 
REMARK    9  A    between atoms: N_16  and  C_17 
REMARK   10  A    between atoms: C_17  and  C_18 
REMARK   11  A    between atoms: C_17  and  C_19 
ROOT
ATOM      1  C   LIG d   1       3.484  -0.123  -5.249  0.00  0.00     0.008 C 
ATOM      2  H   LIG d   1       4.246   0.638  -5.417  0.00  0.00     0.088 H 
ENDROOT
BRANCH   1   3
ATOM      3  C   LIG d   1       2.818   0.112  -3.892  0.00  0.00    -0.010 C 
ATOM      4  H   LIG d   1       2.758  -0.832  -3.349  0.00  0.00     0.032 H 
ATOM      5  H   LIG d   1       1.813   0.508  -4.043  0.00  0.00     0.032 H 
BRANCH   3   6
ATOM      6  C   LIG d   1       3.645   1.113  -3.083  0.00  0.00    -0.060 C 
ATOM      7  H   LIG d   1       3.109   2.059  -3.019  0.00  0.00     0.023 H 
ATOM      8  H   LIG d   1       3.809   0.720  -2.080  0.00  0.00     0.023 H 
ATOM      9  H   LIG d   1       4.605   1.271  -3.573  0.00  0.00     0.023 H 
ENDBRANCH   3   6
ENDBRANCH   1   3
BRANCH   1  10
ATOM     10  C   LIG d   1       4.134  -1.508  -5.265  0.00  0.00     0.123 C 
ATOM     11  H   LIG d   1       3.915  -2.001  -6.213  0.00  0.00     0.070 H 
BRANCH  10  12
ATOM     12  C   LIG d   1       5.626  -1.364  -5.108  0.00  0.00    -0.010 A 
ATOM     13  C   LIG d   1       6.303  -2.156  -4.198  0.00  0.00    -0.011 A 
ATOM     14  C   LIG d   1       7.675  -2.028  -4.056  0.00  0.00     0.159 A 
ATOM     15  H   LIG d   1       5.763  -2.876  -3.601  0.00  0.00     0.066 H 
ATOM     16  C   LIG d   1       8.368  -1.095  -4.822  0.00  0.00     0.158 A 
ATOM     17  C   LIG d   1       7.683  -0.302  -5.729  0.00  0.00    -0.016 A 
ATOM     18  C   LIG d   1       6.314  -0.438  -5.869  0.00  0.00    -0.052 A 
ATOM     19  H   LIG d   1       8.218   0.422  -6.325  0.00  0.00     0.066 H 
ATOM     20  H   LIG d   1       5.781   0.181  -6.576  0.00  0.00     0.062 H 
BRANCH  14  21
ATOM     21  O   LIG d   1       8.343  -2.809  -3.165  0.00  0.00    -0.503 OA
ATOM     22  H   LIG d   1       8.456  -3.726  -3.453  0.00  0.00     0.292 HD
ENDBRANCH  14  21
BRANCH  16  23
ATOM     23  O   LIG d   1       9.714  -0.964  -4.683  0.00  0.00    -0.503 OA
ATOM     24  H   LIG d   1      10.105  -1.576  -4.045  0.00  0.00     0.292 HD
ENDBRANCH  16  23
ENDBRANCH  10  12
BRANCH  10  25
ATOM     25  O   LIG d   1       3.615  -2.291  -4.189  0.00  0.00    -0.382 OA
ATOM     26  H   LIG d   1       3.092  -1.785  -3.551  0.00  0.00     0.210 HD
ENDBRANCH  10  25
ENDBRANCH   1  10
BRANCH   1  27
ATOM     27  N   LIG d   1       2.472  -0.045  -6.311  0.00  0.00     0.233 N 
ATOM     28  H   LIG d   1       1.936  -0.900  -6.329  0.00  0.00     0.202 HD
ATOM     29  H   LIG d   1       1.856   0.734  -6.132  0.00  0.00     0.202 HD
BRANCH  27  30
ATOM     30  C   LIG d   1       3.136   0.143  -7.607  0.00  0.00    -0.028 C 
ATOM     31  H   LIG d   1       4.200  -0.064  -7.504  0.00  0.00     0.085 H 
BRANCH  30  32
ATOM     32  C   LIG d   1       2.528  -0.812  -8.635  0.00  0.00    -0.022 C 
ATOM     33  H   LIG d   1       3.123  -0.790  -9.549  0.00  0.00     0.028 H 
ATOM     34  H   LIG d   1       2.520  -1.825  -8.232  0.00  0.00     0.028 H 
ATOM     35  H   LIG d   1       1.507  -0.504  -8.860  0.00  0.00     0.028 H 
ENDBRANCH  30  32
BRANCH  30  36
ATOM     36  C   LIG d   1       2.940   1.587  -8.075  0.00  0.00    -0.022 C 
ATOM     37  H   LIG d   1       3.171   2.269  -7.256  0.00  0.00     0.028 H 
ATOM     38  H   LIG d   1       3.605   1.790  -8.915  0.00  0.00     0.028 H 
ATOM     39  H   LIG d   1       1.906   1.731  -8.388  0.00  0.00     0.028 H 
ENDBRANCH  30  36
ENDBRANCH  27  30
ENDBRANCH   1  27
TORSDOF 11
ENDMDL
MODEL 6
REMARK VINA RESULT:      -4.5      3.482      4.422
REMARK  11 active torsions:
REMARK  status: ('A' for Active; 'I' for Inactive)
REMARK    1  A    between atoms: C_1  and  C_2 
REMARK    2  A    between atoms: C_2  and  C_3 
REMARK    3  A    between atoms: C_3  and  C_5 
REMARK    4  A    between atoms: C_3  and  N_16 
REMARK    5  A    between atoms: C_5  and  C_7 
REMARK    6  A    between atoms: C_5  and  O_15 
REMARK    7  A    between atoms: C_10  and  O_14 
REMARK    8  A    between atoms: C_11  and  O_13 
REMARK    9  A    between atoms: N_16  and  C_17 
REMARK   10  A    between atoms: C_17  and  C_18 
REMARK   11  A    between atoms: C_17  and  C_19 
ROOT
ATOM      1  C   LIG d   1       5.187  -0.560  -3.680  0.00  0.00     0.008 C 
ATOM      2  H   LIG d   1       5.118   0.527  -3.632  0.00  0.00     0.088 H 
ENDROOT
BRANCH   1   3
ATOM      3  C   LIG d   1       4.941  -1.149  -2.289  0.00  0.00    -0.010 C 
ATOM      4  H   LIG d   1       4.679  -0.348  -1.597  0.00  0.00     0.032 H 
ATOM      5  H   LIG d   1       5.845  -1.649  -1.941  0.00  0.00     0.032 H 
BRANCH   3   6
ATOM      6  C   LIG d   1       3.794  -2.158  -2.358  0.00  0.00    -0.060 C 
ATOM      7  H   LIG d   1       4.164  -3.104  -2.751  0.00  0.00     0.023 H 
ATOM      8  H   LIG d   1       3.387  -2.313  -1.359  0.00  0.00     0.023 H 
ATOM      9  H   LIG d   1       3.010  -1.775  -3.013  0.00  0.00     0.023 H 
ENDBRANCH   3   6
ENDBRANCH   1   3
BRANCH   1  10
ATOM     10  C   LIG d   1       6.582  -0.961  -4.164  0.00  0.00     0.123 C 
ATOM     11  H   LIG d   1       6.490  -1.662  -4.995  0.00  0.00     0.070 H 
BRANCH  10  12
ATOM     12  C   LIG d   1       7.326   0.266  -4.624  0.00  0.00    -0.010 A 
ATOM     13  C   LIG d   1       7.845   1.148  -3.693  0.00  0.00    -0.011 A 
ATOM     14  C   LIG d   1       8.534   2.274  -4.115  0.00  0.00     0.159 A 
ATOM     15  H   LIG d   1       7.716   0.956  -2.638  0.00  0.00     0.066 H 
ATOM     16  C   LIG d   1       8.693   2.520  -5.475  0.00  0.00     0.158 A 
ATOM     17  C   LIG d   1       8.167   1.635  -6.402  0.00  0.00    -0.016 A 
ATOM     18  C   LIG d   1       7.486   0.511  -5.975  0.00  0.00    -0.052 A 
ATOM     19  H   LIG d   1       8.290   1.824  -7.459  0.00  0.00     0.066 H 
ATOM     20  H   LIG d   1       7.076  -0.178  -6.699  0.00  0.00     0.062 H 
BRANCH  14  21
ATOM     21  O   LIG d   1       9.049   3.139  -3.200  0.00  0.00    -0.503 OA
ATOM     22  H   LIG d   1       8.423   3.813  -2.900  0.00  0.00     0.292 HD
ENDBRANCH  14  21
BRANCH  16  23
ATOM     23  O   LIG d   1       9.365   3.626  -5.893  0.00  0.00    -0.503 OA
ATOM     24  H   LIG d   1      10.265   3.695  -5.544  0.00  0.00     0.292 HD
ENDBRANCH  16  23
ENDBRANCH  10  12
BRANCH  10  25
ATOM     25  O   LIG d   1       7.298  -1.580  -3.095  0.00  0.00    -0.382 OA
ATOM     26  H   LIG d   1       7.353  -2.543  -3.163  0.00  0.00     0.210 HD
ENDBRANCH  10  25
ENDBRANCH   1  10
BRANCH   1  27
ATOM     27  N   LIG d   1       4.178  -1.074  -4.615  0.00  0.00     0.233 N 
ATOM     28  H   LIG d   1       4.600  -1.761  -5.222  0.00  0.00     0.202 HD
ATOM     29  H   LIG d   1       3.425  -1.501  -4.096  0.00  0.00     0.202 HD
BRANCH  27  30
ATOM     30  C   LIG d   1       3.649   0.033  -5.422  0.00  0.00    -0.028 C 
ATOM     31  H   LIG d   1       4.314   0.892  -5.342  0.00  0.00     0.085 H 
BRANCH  30  32
ATOM     32  C   LIG d   1       3.554  -0.402  -6.885  0.00  0.00    -0.022 C 
ATOM     33  H   LIG d   1       4.549  -0.402  -7.330  0.00  0.00     0.028 H 
ATOM     34  H   LIG d   1       3.132  -1.406  -6.940  0.00  0.00     0.028 H 
ATOM     35  H   LIG d   1       2.913   0.291  -7.430  0.00  0.00     0.028 H 
ENDBRANCH  30  32
BRANCH  30  36
ATOM     36  C   LIG d   1       2.257   0.416  -4.913  0.00  0.00    -0.022 C 
ATOM     37  H   LIG d   1       2.271   1.447  -4.560  0.00  0.00     0.028 H 
ATOM     38  H   LIG d   1       1.534   0.318  -5.723  0.00  0.00     0.028 H 
ATOM     39  H   LIG d   1       1.976  -0.245  -4.094  0.00  0.00     0.028 H 
ENDBRANCH  30  36
ENDBRANCH  27  30
ENDBRANCH   1  27
TORSDOF 11
ENDMDL
MODEL 7
REMARK VINA RESULT:      -4.5      3.323      5.426
REMARK  11 active torsions:
REMARK  status: ('A' for Active; 'I' for Inactive)
REMARK    1  A    between atoms: C_1  and  C_2 
REMARK    2  A    between atoms: C_2  and  C_3 
REMARK    3  A    between atoms: C_3  and  C_5 
REMARK    4  A    between atoms: C_3  and  N_16 
REMARK    5  A    between atoms: C_5  and  C_7 
REMARK    6  A    between atoms: C_5  and  O_15 
REMARK    7  A    between atoms: C_10  and  O_14 
REMARK    8  A    between atoms: C_11  and  O_13 
REMARK    9  A    between atoms: N_16  and  C_17 
REMARK   10  A    between atoms: C_17  and  C_18 
REMARK   11  A    between atoms: C_17  and  C_19 
ROOT
ATOM      1  C   LIG d   1       5.557  -0.649  -4.985  0.00  0.00     0.008 C 
ATOM      2  H   LIG d   1       6.234  -0.274  -5.753  0.00  0.00     0.088 H 
ENDROOT
BRANCH   1   3
ATOM      3  C   LIG d   1       6.074  -1.988  -4.458  0.00  0.00    -0.010 C 
ATOM      4  H   LIG d   1       6.262  -2.660  -5.296  0.00  0.00     0.032 H 
ATOM      5  H   LIG d   1       5.329  -2.431  -3.797  0.00  0.00     0.032 H 
BRANCH   3   6
ATOM      6  C   LIG d   1       7.374  -1.764  -3.684  0.00  0.00    -0.060 C 
ATOM      7  H   LIG d   1       7.311  -2.259  -2.716  0.00  0.00     0.023 H 
ATOM      8  H   LIG d   1       8.209  -2.178  -4.250  0.00  0.00     0.023 H 
ATOM      9  H   LIG d   1       7.530  -0.695  -3.535  0.00  0.00     0.023 H 
ENDBRANCH   3   6
ENDBRANCH   1   3
BRANCH   1  10
ATOM     10  C   LIG d   1       4.162  -0.842  -5.586  0.00  0.00     0.123 C 
ATOM     11  H   LIG d   1       3.414  -0.434  -4.905  0.00  0.00     0.070 H 
BRANCH  10  12
ATOM     12  C   LIG d   1       4.081  -0.124  -6.908  0.00  0.00    -0.010 A 
ATOM     13  C   LIG d   1       5.224   0.061  -7.665  0.00  0.00    -0.011 A 
ATOM     14  C   LIG d   1       5.150   0.717  -8.883  0.00  0.00     0.159 A 
ATOM     15  H   LIG d   1       6.174  -0.310  -7.307  0.00  0.00     0.066 H 
ATOM     16  C   LIG d   1       3.926   1.197  -9.338  0.00  0.00     0.158 A 
ATOM     17  C   LIG d   1       2.785   1.013  -8.573  0.00  0.00    -0.016 A 
ATOM     18  C   LIG d   1       2.865   0.354  -7.361  0.00  0.00    -0.052 A 
ATOM     19  H   LIG d   1       1.834   1.385  -8.925  0.00  0.00     0.066 H 
ATOM     20  H   LIG d   1       1.976   0.211  -6.766  0.00  0.00     0.062 H 
BRANCH  14  21
ATOM     21  O   LIG d   1       6.272   0.894  -9.630  0.00  0.00    -0.503 OA
ATOM     22  H   LIG d   1       6.216   0.519 -10.521  0.00  0.00     0.292 HD
ENDBRANCH  14  21
BRANCH  16  23
ATOM     23  O   LIG d   1       3.849   1.845 -10.531  0.00  0.00    -0.503 OA
ATOM     24  H   LIG d   1       2.945   2.042 -10.814  0.00  0.00     0.292 HD
ENDBRANCH  16  23
ENDBRANCH  10  12
BRANCH  10  25
ATOM     25  O   LIG d   1       3.918  -2.235  -5.785  0.00  0.00    -0.382 OA
ATOM     26  H   LIG d   1       2.981  -2.475  -5.778  0.00  0.00     0.210 HD
ENDBRANCH  10  25
ENDBRANCH   1  10
BRANCH   1  27
ATOM     27  N   LIG d   1       5.484   0.317  -3.881  0.00  0.00     0.233 N 
ATOM     28  H   LIG d   1       6.219   0.126  -3.217  0.00  0.00     0.202 HD
ATOM     29  H   LIG d   1       5.595   1.252  -4.245  0.00  0.00     0.202 HD
BRANCH  27  30
ATOM     30  C   LIG d   1       4.181   0.202  -3.215  0.00  0.00    -0.028 C 
ATOM     31  H   LIG d   1       3.498  -0.365  -3.846  0.00  0.00     0.085 H 
BRANCH  30  32
ATOM     32  C   LIG d   1       4.354  -0.517  -1.876  0.00  0.00    -0.022 C 
ATOM     33  H   LIG d   1       3.903  -1.508  -1.935  0.00  0.00     0.028 H 
ATOM     34  H   LIG d   1       5.416  -0.614  -1.649  0.00  0.00     0.028 H 
ATOM     35  H   LIG d   1       3.866   0.057  -1.089  0.00  0.00     0.028 H 
ENDBRANCH  30  32
BRANCH  30  36
ATOM     36  C   LIG d   1       3.608   1.600  -2.971  0.00  0.00    -0.022 C 
ATOM     37  H   LIG d   1       4.287   2.348  -3.381  0.00  0.00     0.028 H 
ATOM     38  H   LIG d   1       2.636   1.685  -3.459  0.00  0.00     0.028 H 
ATOM     39  H   LIG d   1       3.491   1.764  -1.900  0.00  0.00     0.028 H 
ENDBRANCH  30  36
ENDBRANCH  27  30
ENDBRANCH   1  27
TORSDOF 11
ENDMDL
MODEL 8
REMARK VINA RESULT:      -4.5     10.542     12.373
REMARK  11 active torsions:
REMARK  status: ('A' for Active; 'I' for Inactive)
REMARK    1  A    between atoms: C_1  and  C_2 
REMARK    2  A    between atoms: C_2  and  C_3 
REMARK    3  A    between atoms: C_3  and  C_5 
REMARK    4  A    between atoms: C_3  and  N_16 
REMARK    5  A    between atoms: C_5  and  C_7 
REMARK    6  A    between atoms: C_5  and  O_15 
REMARK    7  A    between atoms: C_10  and  O_14 
REMARK    8  A    between atoms: C_11  and  O_13 
REMARK    9  A    between atoms: N_16  and  C_17 
REMARK   10  A    between atoms: C_17  and  C_18 
REMARK   11  A    between atoms: C_17  and  C_19 
ROOT
ATOM      1  C   LIG d   1       9.532  10.550  -2.014  0.00  0.00     0.008 C 
ATOM      2  H   LIG d   1      10.124   9.908  -2.666  0.00  0.00     0.088 H 
ENDROOT
BRANCH   1   3
ATOM      3  C   LIG d   1      10.450  11.566  -1.329  0.00  0.00    -0.010 C 
ATOM      4  H   LIG d   1      10.265  11.555  -0.254  0.00  0.00     0.032 H 
ATOM      5  H   LIG d   1      10.247  12.562  -1.722  0.00  0.00     0.032 H 
BRANCH   3   6
ATOM      6  C   LIG d   1      11.909  11.198  -1.598  0.00  0.00    -0.060 C 
ATOM      7  H   LIG d   1      12.523  12.098  -1.565  0.00  0.00     0.023 H 
ATOM      8  H   LIG d   1      12.252  10.496  -0.839  0.00  0.00     0.023 H 
ATOM      9  H   LIG d   1      11.994  10.737  -2.583  0.00  0.00     0.023 H 
ENDBRANCH   3   6
ENDBRANCH   1   3
BRANCH   1  10
ATOM     10  C   LIG d   1       8.836   9.696  -0.952  0.00  0.00     0.123 C 
ATOM     11  H   LIG d   1       7.794   9.543  -1.236  0.00  0.00     0.070 H 
BRANCH  10  12
ATOM     12  C   LIG d   1       9.528   8.362  -0.848  0.00  0.00    -0.010 A 
ATOM     13  C   LIG d   1      10.404   8.117   0.194  0.00  0.00    -0.011 A 
ATOM     14  C   LIG d   1      11.037   6.889   0.294  0.00  0.00     0.159 A 
ATOM     15  H   LIG d   1      10.591   8.883   0.932  0.00  0.00     0.066 H 
ATOM     16  C   LIG d   1      10.797   5.906  -0.662  0.00  0.00     0.158 A 
ATOM     17  C   LIG d   1       9.922   6.159  -1.706  0.00  0.00    -0.016 A 
ATOM     18  C   LIG d   1       9.290   7.384  -1.797  0.00  0.00    -0.052 A 
ATOM     19  H   LIG d   1       9.734   5.397  -2.449  0.00  0.00     0.066 H 
ATOM     20  H   LIG d   1       8.608   7.580  -2.612  0.00  0.00     0.062 H 
BRANCH  14  21
ATOM     21  O   LIG d   1      11.894   6.646   1.321  0.00  0.00    -0.503 OA
ATOM     22  H   LIG d   1      12.783   6.388   1.039  0.00  0.00     0.292 HD
ENDBRANCH  14  21
BRANCH  16  23
ATOM     23  O   LIG d   1      11.419   4.701  -0.570  0.00  0.00    -0.503 OA
ATOM     24  H   LIG d   1      12.384   4.753  -0.603  0.00  0.00     0.292 HD
ENDBRANCH  16  23
ENDBRANCH  10  12
BRANCH  10  25
ATOM     25  O   LIG d   1       8.894  10.362   0.310  0.00  0.00    -0.382 OA
ATOM     26  H   LIG d   1       8.669   9.799   1.064  0.00  0.00     0.210 HD
ENDBRANCH  10  25
ENDBRANCH   1  10
BRANCH   1  27
ATOM     27  N   LIG d   1       8.523  11.261  -2.810  0.00  0.00     0.233 N 
ATOM     28  H   LIG d   1       7.619  10.837  -2.662  0.00  0.00     0.202 HD
ATOM     29  H   LIG d   1       8.491  12.229  -2.526  0.00  0.00     0.202 HD
BRANCH  27  30
ATOM     30  C   LIG d   1       8.876  11.179  -4.233  0.00  0.00    -0.028 C 
ATOM     31  H   LIG d   1       7.971  11.043  -4.824  0.00  0.00     0.085 H 
BRANCH  30  32
ATOM     32  C   LIG d   1       9.575  12.471  -4.660  0.00  0.00    -0.022 C 
ATOM     33  H   LIG d   1       9.158  13.311  -4.104  0.00  0.00     0.028 H 
ATOM     34  H   LIG d   1      10.642  12.392  -4.454  0.00  0.00     0.028 H 
ATOM     35  H   LIG d   1       9.422  12.631  -5.727  0.00  0.00     0.028 H 
ENDBRANCH  30  32
BRANCH  30  36
ATOM     36  C   LIG d   1       9.815   9.993  -4.458  0.00  0.00    -0.022 C 
ATOM     37  H   LIG d   1       9.698   9.626  -5.478  0.00  0.00     0.028 H 
ATOM     38  H   LIG d   1      10.847  10.311  -4.302  0.00  0.00     0.028 H 
ATOM     39  H   LIG d   1       9.571   9.197  -3.755  0.00  0.00     0.028 H 
ENDBRANCH  30  36
ENDBRANCH  27  30
ENDBRANCH   1  27
TORSDOF 11
ENDMDL
MODEL 9
REMARK VINA RESULT:      -4.3      2.614      5.498
REMARK  11 active torsions:
REMARK  status: ('A' for Active; 'I' for Inactive)
REMARK    1  A    between atoms: C_1  and  C_2 
REMARK    2  A    between atoms: C_2  and  C_3 
REMARK    3  A    between atoms: C_3  and  C_5 
REMARK    4  A    between atoms: C_3  and  N_16 
REMARK    5  A    between atoms: C_5  and  C_7 
REMARK    6  A    between atoms: C_5  and  O_15 
REMARK    7  A    between atoms: C_10  and  O_14 
REMARK    8  A    between atoms: C_11  and  O_13 
REMARK    9  A    between atoms: N_16  and  C_17 
REMARK   10  A    between atoms: C_17  and  C_18 
REMARK   11  A    between atoms: C_17  and  C_19 
ROOT
ATOM      1  C   LIG d   1       6.072  -2.804  -5.802  0.00  0.00     0.008 C 
ATOM      2  H   LIG d   1       5.745  -1.889  -6.295  0.00  0.00     0.088 H 
ENDROOT
BRANCH   1   3
ATOM      3  C   LIG d   1       6.195  -3.926  -6.835  0.00  0.00    -0.010 C 
ATOM      4  H   LIG d   1       6.635  -3.530  -7.750  0.00  0.00     0.032 H 
ATOM      5  H   LIG d   1       5.206  -4.330  -7.053  0.00  0.00     0.032 H 
BRANCH   3   6
ATOM      6  C   LIG d   1       7.088  -5.036  -6.279  0.00  0.00    -0.060 C 
ATOM      7  H   LIG d   1       6.508  -5.953  -6.178  0.00  0.00     0.023 H 
ATOM      8  H   LIG d   1       7.921  -5.207  -6.961  0.00  0.00     0.023 H 
ATOM      9  H   LIG d   1       7.473  -4.740  -5.303  0.00  0.00     0.023 H 
ENDBRANCH   3   6
ENDBRANCH   1   3
BRANCH   1  10
ATOM     10  C   LIG d   1       5.049  -3.202  -4.736  0.00  0.00     0.123 C 
ATOM     11  H   LIG d   1       5.512  -3.891  -4.028  0.00  0.00     0.070 H 
BRANCH  10  12
ATOM     12  C   LIG d   1       4.581  -1.971  -4.004  0.00  0.00    -0.010 A 
ATOM     13  C   LIG d   1       3.997  -0.932  -4.705  0.00  0.00    -0.011 A 
ATOM     14  C   LIG d   1       3.562   0.199  -4.033  0.00  0.00     0.159 A 
ATOM     15  H   LIG d   1       3.878  -1.003  -5.776  0.00  0.00     0.066 H 
ATOM     16  C   LIG d   1       3.722   0.290  -2.654  0.00  0.00     0.158 A 
ATOM     17  C   LIG d   1       4.312  -0.753  -1.958  0.00  0.00    -0.016 A 
ATOM     18  C   LIG d   1       4.739  -1.881  -2.633  0.00  0.00    -0.052 A 
ATOM     19  H   LIG d   1       4.437  -0.685  -0.887  0.00  0.00     0.066 H 
ATOM     20  H   LIG d   1       5.199  -2.693  -2.090  0.00  0.00     0.062 H 
BRANCH  14  21
ATOM     21  O   LIG d   1       2.983   1.219  -4.721  0.00  0.00    -0.503 OA
ATOM     22  H   LIG d   1       3.563   1.982  -4.855  0.00  0.00     0.292 HD
ENDBRANCH  14  21
BRANCH  16  23
ATOM     23  O   LIG d   1       3.300   1.399  -1.990  0.00  0.00    -0.503 OA
ATOM     24  H   LIG d   1       2.761   1.209  -1.210  0.00  0.00     0.292 HD
ENDBRANCH  16  23
ENDBRANCH  10  12
BRANCH  10  25
ATOM     25  O   LIG d   1       3.933  -3.839  -5.360  0.00  0.00    -0.382 OA
ATOM     26  H   LIG d   1       3.093  -3.378  -5.229  0.00  0.00     0.210 HD
ENDBRANCH  10  25
ENDBRANCH   1  10
BRANCH   1  27
ATOM     27  N   LIG d   1       7.377  -2.578  -5.168  0.00  0.00     0.233 N 
ATOM     28  H   LIG d   1       7.241  -2.219  -4.234  0.00  0.00     0.202 HD
ATOM     29  H   LIG d   1       7.885  -3.449  -5.122  0.00  0.00     0.202 HD
BRANCH  27  30
ATOM     30  C   LIG d   1       8.144  -1.606  -5.957  0.00  0.00    -0.028 C 
ATOM     31  H   LIG d   1       8.350  -2.020  -6.944  0.00  0.00     0.085 H 
BRANCH  30  32
ATOM     32  C   LIG d   1       7.334  -0.316  -6.105  0.00  0.00    -0.022 C 
ATOM     33  H   LIG d   1       7.754   0.286  -6.911  0.00  0.00     0.028 H 
ATOM     34  H   LIG d   1       6.298  -0.562  -6.337  0.00  0.00     0.028 H 
ATOM     35  H   LIG d   1       7.374   0.247  -5.173  0.00  0.00     0.028 H 
ENDBRANCH  30  32
BRANCH  30  36
ATOM     36  C   LIG d   1       9.464  -1.300  -5.247  0.00  0.00    -0.022 C 
ATOM     37  H   LIG d   1       9.957  -2.234  -4.979  0.00  0.00     0.028 H 
ATOM     38  H   LIG d   1      10.110  -0.726  -5.913  0.00  0.00     0.028 H 
ATOM     39  H   LIG d   1       9.266  -0.721  -4.346  0.00  0.00     0.028 H 
ENDBRANCH  30  36
ENDBRANCH  27  30
ENDBRANCH   1  27
TORSDOF 11
ENDMDL
MODEL 10
REMARK VINA RESULT:      -4.2     10.590     11.918
REMARK  11 active torsions:
REMARK  status: ('A' for Active; 'I' for Inactive)
REMARK    1  A    between atoms: C_1  and  C_2 
REMARK    2  A    between atoms: C_2  and  C_3 
REMARK    3  A    between atoms: C_3  and  C_5 
REMARK    4  A    between atoms: C_3  and  N_16 
REMARK    5  A    between atoms: C_5  and  C_7 
REMARK    6  A    between atoms: C_5  and  O_15 
REMARK    7  A    between atoms: C_10  and  O_14 
REMARK    8  A    between atoms: C_11  and  O_13 
REMARK    9  A    between atoms: N_16  and  C_17 
REMARK   10  A    between atoms: C_17  and  C_18 
REMARK   11  A    between atoms: C_17  and  C_19 
ROOT
ATOM      1  C   LIG d   1       9.522   9.874  -1.517  0.00  0.00     0.008 C 
ATOM      2  H   LIG d   1      10.512  10.043  -1.939  0.00  0.00     0.088 H 
ENDROOT
BRANCH   1   3
ATOM      3  C   LIG d   1       9.559  10.124  -0.008  0.00  0.00    -0.010 C 
ATOM      4  H   LIG d   1       9.285   9.209   0.518  0.00  0.00     0.032 H 
ATOM      5  H   LIG d   1       8.853  10.915   0.247  0.00  0.00     0.032 H 
BRANCH   3   6
ATOM      6  C   LIG d   1      10.970  10.546   0.404  0.00  0.00    -0.060 C 
ATOM      7  H   LIG d   1      11.334  11.313  -0.279  0.00  0.00     0.023 H 
ATOM      8  H   LIG d   1      10.947  10.945   1.419  0.00  0.00     0.023 H 
ATOM      9  H   LIG d   1      11.634   9.682   0.369  0.00  0.00     0.023 H 
ENDBRANCH   3   6
ENDBRANCH   1   3
BRANCH   1  10
ATOM     10  C   LIG d   1       9.094   8.429  -1.784  0.00  0.00     0.123 C 
ATOM     11  H   LIG d   1       8.703   8.347  -2.799  0.00  0.00     0.070 H 
BRANCH  10  12
ATOM     12  C   LIG d   1      10.283   7.517  -1.630  0.00  0.00    -0.010 A 
ATOM     13  C   LIG d   1      10.254   6.494  -0.699  0.00  0.00    -0.011 A 
ATOM     14  C   LIG d   1      11.345   5.652  -0.560  0.00  0.00     0.159 A 
ATOM     15  H   LIG d   1       9.378   6.351  -0.083  0.00  0.00     0.066 H 
ATOM     16  C   LIG d   1      12.473   5.843  -1.352  0.00  0.00     0.158 A 
ATOM     17  C   LIG d   1      12.499   6.872  -2.279  0.00  0.00    -0.016 A 
ATOM     18  C   LIG d   1      11.405   7.706  -2.417  0.00  0.00    -0.052 A 
ATOM     19  H   LIG d   1      13.373   7.022  -2.895  0.00  0.00     0.066 H 
ATOM     20  H   LIG d   1      11.426   8.508  -3.140  0.00  0.00     0.062 H 
BRANCH  14  21
ATOM     21  O   LIG d   1      11.315   4.643   0.351  0.00  0.00    -0.503 OA
ATOM     22  H   LIG d   1      11.073   4.927   1.244  0.00  0.00     0.292 HD
ENDBRANCH  14  21
BRANCH  16  23
ATOM     23  O   LIG d   1      13.548   5.022  -1.216  0.00  0.00    -0.503 OA
ATOM     24  H   LIG d   1      14.005   4.830  -2.047  0.00  0.00     0.292 HD
ENDBRANCH  16  23
ENDBRANCH  10  12
BRANCH  10  25
ATOM     25  O   LIG d   1       8.081   8.051  -0.850  0.00  0.00    -0.382 OA
ATOM     26  H   LIG d   1       8.069   8.586  -0.044  0.00  0.00     0.210 HD
ENDBRANCH  10  25
ENDBRANCH   1  10
BRANCH   1  27
ATOM     27  N   LIG d   1       8.560  10.792  -2.142  0.00  0.00     0.233 N 
ATOM     28  H   LIG d   1       7.847  10.259  -2.619  0.00  0.00     0.202 HD
ATOM     29  H   LIG d   1       8.132  11.365  -1.431  0.00  0.00     0.202 HD
BRANCH  27  30
ATOM     30  C   LIG d   1       9.258  11.649  -3.108  0.00  0.00    -0.028 C 
ATOM     31  H   LIG d   1      10.300  11.760  -2.810  0.00  0.00     0.085 H 
BRANCH  30  32
ATOM     32  C   LIG d   1       9.191  11.013  -4.497  0.00  0.00    -0.022 C 
ATOM     33  H   LIG d   1       8.262  11.308  -4.988  0.00  0.00     0.028 H 
ATOM     34  H   LIG d   1      10.039  11.349  -5.093  0.00  0.00     0.028 H 
ATOM     35  H   LIG d   1       9.222   9.928  -4.402  0.00  0.00     0.028 H 
ENDBRANCH  30  32
BRANCH  30  36
ATOM     36  C   LIG d   1       8.590  13.025  -3.145  0.00  0.00    -0.022 C 
ATOM     37  H   LIG d   1       8.984  13.598  -3.985  0.00  0.00     0.028 H 
ATOM     38  H   LIG d   1       7.512  12.903  -3.261  0.00  0.00     0.028 H 
ATOM     39  H   LIG d   1       8.796  13.555  -2.215  0.00  0.00     0.028 H 
ENDBRANCH  30  36
ENDBRANCH  27  30
ENDBRANCH   1  27
TORSDOF 11
ENDMDL
