MODEL 1
REMARK VINA RESULT:      -5.6      0.000      0.000
REMARK  8 active torsions:
REMARK  status: ('A' for Active; 'I' for Inactive)
REMARK    1  A    between atoms: C_1  and  C_2 
REMARK    2  A    between atoms: C_2  and  C_3 
REMARK    3  A    between atoms: C_3  and  O_4 
REMARK    4  A    between atoms: O_4  and  C_5 
REMARK    5  A    between atoms: C_5  and  C_6 
REMARK    6  A    between atoms: C_11  and  C_15 
REMARK    7  A    between atoms: C_11  and  C_16 
REMARK    8  A    between atoms: C_19  and  N_21 
ROOT
ATOM      1  C   LIG d   1       5.825  -1.871  -4.294  0.00  0.00     0.128 C 
ATOM      2  H   LIG d   1       6.328  -2.676  -4.831  0.00  0.00     0.076 H 
ATOM      3  C   LIG d   1       6.845  -1.041  -3.465  0.00  0.00     0.013 C 
ATOM      4  C   LIG d   1       7.343  -0.060  -4.540  0.00  0.00     0.171 C 
ATOM      5  C   LIG d   1       7.514   1.353  -3.960  0.00  0.00     0.019 C 
ATOM      6  C   LIG d   1       8.837   1.783  -4.655  0.00  0.00     0.154 C 
ATOM      7  O   LIG d   1       9.573   0.544  -4.742  0.00  0.00    -0.451 OA
ATOM      8  C   LIG d   1       8.705  -0.445  -5.053  0.00  0.00     0.325 C 
ATOM      9  O   LIG d   1       8.976  -1.465  -5.641  0.00  0.00    -0.250 OA
ATOM     10  C   LIG d   1       6.297  -0.093  -5.621  0.00  0.00     0.325 C 
ATOM     11  O   LIG d   1       6.350   0.497  -6.673  0.00  0.00    -0.250 OA
ATOM     12  O   LIG d   1       5.287  -0.898  -5.217  0.00  0.00    -0.458 OA
ATOM     13  H   LIG d   1       6.354  -0.513  -2.648  0.00  0.00     0.032 H 
ATOM     14  H   LIG d   1       7.657  -1.668  -3.096  0.00  0.00     0.032 H 
ATOM     15  H   LIG d   1       6.687   2.001  -4.249  0.00  0.00     0.032 H 
ATOM     16  H   LIG d   1       7.629   1.324  -2.876  0.00  0.00     0.032 H 
ENDROOT
BRANCH   1  17
ATOM     17  C   LIG d   1       4.722  -2.429  -3.393  0.00  0.00     0.085 C 
ATOM     18  H   LIG d   1       5.077  -3.335  -2.903  0.00  0.00     0.060 H 
ATOM     19  H   LIG d   1       3.844  -2.662  -3.996  0.00  0.00     0.060 H 
BRANCH  17  20
ATOM     20  O   LIG d   1       4.375  -1.457  -2.405  0.00  0.00    -0.376 OA
BRANCH  20  21
ATOM     21  C   LIG d   1       3.157  -0.761  -2.675  0.00  0.00     0.048 C 
ATOM     22  H   LIG d   1       2.407  -1.040  -1.935  0.00  0.00     0.056 H 
ATOM     23  H   LIG d   1       2.802  -1.025  -3.671  0.00  0.00     0.056 H 
BRANCH  21  24
ATOM     24  C   LIG d   1       3.405   0.747  -2.606  0.00  0.00    -0.032 C 
ATOM     25  H   LIG d   1       2.499   1.250  -2.269  0.00  0.00     0.029 H 
ATOM     26  H   LIG d   1       3.680   1.116  -3.593  0.00  0.00     0.029 H 
BRANCH  24  27
ATOM     27  C   LIG d   1       4.542   1.032  -1.621  0.00  0.00    -0.063 C 
ATOM     28  H   LIG d   1       5.481   0.664  -2.036  0.00  0.00     0.023 H 
ATOM     29  H   LIG d   1       4.614   2.106  -1.450  0.00  0.00     0.023 H 
ATOM     30  H   LIG d   1       4.339   0.526  -0.677  0.00  0.00     0.023 H 
ENDBRANCH  24  27
ENDBRANCH  21  24
ENDBRANCH  20  21
ENDBRANCH  17  20
ENDBRANCH   1  17
BRANCH   6  31
ATOM     31  C   LIG d   1       8.557   2.347  -6.049  0.00  0.00    -0.019 C 
ATOM     32  H   LIG d   1       9.488   2.709  -6.488  0.00  0.00     0.027 H 
ATOM     33  H   LIG d   1       8.139   1.563  -6.680  0.00  0.00     0.027 H 
ATOM     34  H   LIG d   1       7.847   3.170  -5.972  0.00  0.00     0.027 H 
ENDBRANCH   6  31
BRANCH   6  35
ATOM     35  C   LIG d   1       9.581   2.787  -3.811  0.00  0.00     0.094 A 
ATOM     36  N   LIG d   1       9.215   4.056  -3.764  0.00  0.00    -0.226 NA
ATOM     37  C   LIG d   1       9.867   4.924  -3.021  0.00  0.00     0.156 A 
ATOM     38  S   LIG d   1      11.085   3.993  -2.325  0.00  0.00    -0.061 SA
ATOM     39  C   LIG d   1      10.658   2.429  -3.072  0.00  0.00     0.004 A 
ATOM     40  H   LIG d   1      11.128   1.463  -2.964  0.00  0.00     0.071 H 
BRANCH  37  41
ATOM     41  N   LIG d   1       9.617   6.278  -2.856  0.00  0.00    -0.338 N 
ATOM     42  H   LIG d   1       9.679   6.878  -3.615  0.00  0.00     0.144 HD
ATOM     43  H   LIG d   1       9.380   6.624  -1.981  0.00  0.00     0.144 HD
ENDBRANCH  37  41
ENDBRANCH   6  35
TORSDOF 8
ENDMDL
MODEL 2
REMARK VINA RESULT:      -5.4      6.141      7.999
REMARK  8 active torsions:
REMARK  status: ('A' for Active; 'I' for Inactive)
REMARK    1  A    between atoms: C_1  and  C_2 
REMARK    2  A    between atoms: C_2  and  C_3 
REMARK    3  A    between atoms: C_3  and  O_4 
REMARK    4  A    between atoms: O_4  and  C_5 
REMARK    5  A    between atoms: C_5  and  C_6 
REMARK    6  A    between atoms: C_11  and  C_15 
REMARK    7  A    between atoms: C_11  and  C_16 
REMARK    8  A    between atoms: C_19  and  N_21 
ROOT
ATOM      1  C   LIG d   1       5.714  -0.485  -5.447  0.00  0.00     0.128 C 
ATOM      2  H   LIG d   1       5.237   0.246  -4.794  0.00  0.00     0.076 H 
ATOM      3  C   LIG d   1       4.647  -1.319  -6.211  0.00  0.00     0.013 C 
ATOM      4  C   LIG d   1       4.366  -0.386  -7.401  0.00  0.00     0.171 C 
ATOM      5  C   LIG d   1       4.211  -1.186  -8.704  0.00  0.00     0.019 C 
ATOM      6  C   LIG d   1       3.025  -0.425  -9.362  0.00  0.00     0.154 C 
ATOM      7  O   LIG d   1       2.228  -0.026  -8.226  0.00  0.00    -0.451 OA
ATOM      8  C   LIG d   1       3.063   0.349  -7.231  0.00  0.00     0.325 C 
ATOM      9  O   LIG d   1       2.808   1.140  -6.354  0.00  0.00    -0.250 OA
ATOM     10  C   LIG d   1       5.544   0.547  -7.460  0.00  0.00     0.325 C 
ATOM     11  O   LIG d   1       5.672   1.475  -8.223  0.00  0.00    -0.250 OA
ATOM     12  O   LIG d   1       6.435   0.176  -6.512  0.00  0.00    -0.458 OA
ATOM     13  H   LIG d   1       5.057  -2.272  -6.547  0.00  0.00     0.032 H 
ATOM     14  H   LIG d   1       3.754  -1.467  -5.605  0.00  0.00     0.032 H 
ATOM     15  H   LIG d   1       5.111  -1.122  -9.316  0.00  0.00     0.032 H 
ATOM     16  H   LIG d   1       3.948  -2.225  -8.501  0.00  0.00     0.032 H 
ENDROOT
BRANCH   1  17
ATOM     17  C   LIG d   1       6.645  -1.397  -4.648  0.00  0.00     0.085 C 
ATOM     18  H   LIG d   1       7.656  -0.992  -4.667  0.00  0.00     0.060 H 
ATOM     19  H   LIG d   1       6.645  -2.394  -5.091  0.00  0.00     0.060 H 
BRANCH  17  20
ATOM     20  O   LIG d   1       6.190  -1.479  -3.296  0.00  0.00    -0.376 OA
BRANCH  20  21
ATOM     21  C   LIG d   1       5.552  -0.290  -2.824  0.00  0.00     0.048 C 
ATOM     22  H   LIG d   1       5.218   0.305  -3.674  0.00  0.00     0.056 H 
ATOM     23  H   LIG d   1       6.258   0.288  -2.229  0.00  0.00     0.056 H 
BRANCH  21  24
ATOM     24  C   LIG d   1       4.346  -0.667  -1.961  0.00  0.00    -0.032 C 
ATOM     25  H   LIG d   1       3.551   0.063  -2.108  0.00  0.00     0.029 H 
ATOM     26  H   LIG d   1       4.640  -0.677  -0.912  0.00  0.00     0.029 H 
BRANCH  24  27
ATOM     27  C   LIG d   1       3.845  -2.056  -2.363  0.00  0.00    -0.063 C 
ATOM     28  H   LIG d   1       3.198  -1.969  -3.236  0.00  0.00     0.023 H 
ATOM     29  H   LIG d   1       4.696  -2.694  -2.602  0.00  0.00     0.023 H 
ATOM     30  H   LIG d   1       3.284  -2.492  -1.537  0.00  0.00     0.023 H 
ENDBRANCH  24  27
ENDBRANCH  21  24
ENDBRANCH  20  21
ENDBRANCH  17  20
ENDBRANCH   1  17
BRANCH   6  31
ATOM     31  C   LIG d   1       3.527   0.801 -10.128  0.00  0.00    -0.019 C 
ATOM     32  H   LIG d   1       3.676   1.627  -9.433  0.00  0.00     0.027 H 
ATOM     33  H   LIG d   1       4.472   0.562 -10.615  0.00  0.00     0.027 H 
ATOM     34  H   LIG d   1       2.792   1.086 -10.880  0.00  0.00     0.027 H 
ENDBRANCH   6  31
BRANCH   6  35
ATOM     35  C   LIG d   1       2.241  -1.339 -10.269  0.00  0.00     0.094 A 
ATOM     36  N   LIG d   1       1.677  -2.444  -9.815  0.00  0.00    -0.226 NA
ATOM     37  C   LIG d   1       0.991  -3.233 -10.613  0.00  0.00     0.156 A 
ATOM     38  S   LIG d   1       1.104  -2.462 -12.105  0.00  0.00    -0.061 SA
ATOM     39  C   LIG d   1       2.090  -1.066 -11.587  0.00  0.00     0.004 A 
ATOM     40  H   LIG d   1       2.462  -0.234 -12.165  0.00  0.00     0.071 H 
BRANCH  37  41
ATOM     41  N   LIG d   1       0.338  -4.417 -10.303  0.00  0.00    -0.338 N 
ATOM     42  H   LIG d   1      -0.175  -4.487  -9.483  0.00  0.00     0.144 HD
ATOM     43  H   LIG d   1       0.396  -5.175 -10.906  0.00  0.00     0.144 HD
ENDBRANCH  37  41
ENDBRANCH   6  35
TORSDOF 8
ENDMDL
MODEL 3
REMARK VINA RESULT:      -5.4      1.503      2.205
REMARK  8 active torsions:
REMARK  status: ('A' for Active; 'I' for Inactive)
REMARK    1  A    between atoms: C_1  and  C_2 
REMARK    2  A    between atoms: C_2  and  C_3 
REMARK    3  A    between atoms: C_3  and  O_4 
REMARK    4  A    between atoms: O_4  and  C_5 
REMARK    5  A    between atoms: C_5  and  C_6 
REMARK    6  A    between atoms: C_11  and  C_15 
REMARK    7  A    between atoms: C_11  and  C_16 
REMARK    8  A    between atoms: C_19  and  N_21 
ROOT
ATOM      1  C   LIG d   1       7.075  -0.115  -5.103  0.00  0.00     0.128 C 
ATOM      2  H   LIG d   1       7.782  -0.904  -5.362  0.00  0.00     0.076 H 
ATOM      3  C   LIG d   1       7.601   0.725  -3.905  0.00  0.00     0.013 C 
ATOM      4  C   LIG d   1       8.502   1.727  -4.646  0.00  0.00     0.171 C 
ATOM      5  C   LIG d   1       8.365   3.138  -4.047  0.00  0.00     0.019 C 
ATOM      6  C   LIG d   1       9.849   3.601  -4.081  0.00  0.00     0.154 C 
ATOM      7  O   LIG d   1      10.575   2.378  -3.834  0.00  0.00    -0.451 OA
ATOM      8  C   LIG d   1       9.958   1.376  -4.500  0.00  0.00     0.325 C 
ATOM      9  O   LIG d   1      10.486   0.369  -4.908  0.00  0.00    -0.250 OA
ATOM     10  C   LIG d   1       8.046   1.687  -6.078  0.00  0.00     0.325 C 
ATOM     11  O   LIG d   1       8.548   2.290  -6.997  0.00  0.00    -0.250 OA
ATOM     12  O   LIG d   1       6.981   0.857  -6.167  0.00  0.00    -0.458 OA
ATOM     13  H   LIG d   1       6.786   1.233  -3.391  0.00  0.00     0.032 H 
ATOM     14  H   LIG d   1       8.179   0.110  -3.215  0.00  0.00     0.032 H 
ATOM     15  H   LIG d   1       7.738   3.772  -4.673  0.00  0.00     0.032 H 
ATOM     16  H   LIG d   1       7.987   3.098  -3.025  0.00  0.00     0.032 H 
ENDROOT
BRANCH   1  17
ATOM     17  C   LIG d   1       5.700  -0.706  -4.787  0.00  0.00     0.085 C 
ATOM     18  H   LIG d   1       5.695  -1.094  -3.769  0.00  0.00     0.060 H 
ATOM     19  H   LIG d   1       5.483  -1.515  -5.485  0.00  0.00     0.060 H 
BRANCH  17  20
ATOM     20  O   LIG d   1       4.703   0.311  -4.913  0.00  0.00    -0.376 OA
BRANCH  20  21
ATOM     21  C   LIG d   1       3.684   0.255  -3.913  0.00  0.00     0.048 C 
ATOM     22  H   LIG d   1       3.739  -0.700  -3.391  0.00  0.00     0.056 H 
ATOM     23  H   LIG d   1       2.707   0.357  -4.385  0.00  0.00     0.056 H 
BRANCH  21  24
ATOM     24  C   LIG d   1       3.889   1.396  -2.913  0.00  0.00    -0.032 C 
ATOM     25  H   LIG d   1       2.924   1.837  -2.662  0.00  0.00     0.029 H 
ATOM     26  H   LIG d   1       4.531   2.156  -3.356  0.00  0.00     0.029 H 
BRANCH  24  27
ATOM     27  C   LIG d   1       4.546   0.849  -1.644  0.00  0.00    -0.063 C 
ATOM     28  H   LIG d   1       4.658   1.654  -0.918  0.00  0.00     0.023 H 
ATOM     29  H   LIG d   1       3.921   0.062  -1.221  0.00  0.00     0.023 H 
ATOM     30  H   LIG d   1       5.527   0.442  -1.890  0.00  0.00     0.023 H 
ENDBRANCH  24  27
ENDBRANCH  21  24
ENDBRANCH  20  21
ENDBRANCH  17  20
ENDBRANCH   1  17
BRANCH   6  31
ATOM     31  C   LIG d   1      10.205   4.176  -5.453  0.00  0.00    -0.019 C 
ATOM     32  H   LIG d   1      11.289   4.198  -5.567  0.00  0.00     0.027 H 
ATOM     33  H   LIG d   1       9.771   3.550  -6.233  0.00  0.00     0.027 H 
ATOM     34  H   LIG d   1       9.810   5.188  -5.537  0.00  0.00     0.027 H 
ENDBRANCH   6  31
BRANCH   6  35
ATOM     35  C   LIG d   1      10.118   4.610  -2.993  0.00  0.00     0.094 A 
ATOM     36  N   LIG d   1       9.485   5.770  -2.955  0.00  0.00    -0.226 NA
ATOM     37  C   LIG d   1       9.722   6.641  -1.998  0.00  0.00     0.156 A 
ATOM     38  S   LIG d   1      10.895   5.876  -1.065  0.00  0.00    -0.061 SA
ATOM     39  C   LIG d   1      11.022   4.370  -2.014  0.00  0.00     0.004 A 
ATOM     40  H   LIG d   1      11.648   3.505  -1.852  0.00  0.00     0.071 H 
BRANCH  37  41
ATOM     41  N   LIG d   1       9.149   7.890  -1.809  0.00  0.00    -0.338 N 
ATOM     42  H   LIG d   1       9.092   8.514  -2.549  0.00  0.00     0.144 HD
ATOM     43  H   LIG d   1       8.807   8.139  -0.936  0.00  0.00     0.144 HD
ENDBRANCH  37  41
ENDBRANCH   6  35
TORSDOF 8
ENDMDL
MODEL 4
REMARK VINA RESULT:      -5.1      3.465      5.094
REMARK  8 active torsions:
REMARK  status: ('A' for Active; 'I' for Inactive)
REMARK    1  A    between atoms: C_1  and  C_2 
REMARK    2  A    between atoms: C_2  and  C_3 
REMARK    3  A    between atoms: C_3  and  O_4 
REMARK    4  A    between atoms: O_4  and  C_5 
REMARK    5  A    between atoms: C_5  and  C_6 
REMARK    6  A    between atoms: C_11  and  C_15 
REMARK    7  A    between atoms: C_11  and  C_16 
REMARK    8  A    between atoms: C_19  and  N_21 
ROOT
ATOM      1  C   LIG d   1       8.893   1.789  -3.843  0.00  0.00     0.128 C 
ATOM      2  H   LIG d   1       9.190   1.670  -2.800  0.00  0.00     0.076 H 
ATOM      3  C   LIG d   1       8.439   3.249  -4.123  0.00  0.00     0.013 C 
ATOM      4  C   LIG d   1       9.798   3.914  -4.398  0.00  0.00     0.171 C 
ATOM      5  C   LIG d   1       9.698   4.911  -5.564  0.00  0.00     0.019 C 
ATOM      6  C   LIG d   1      10.586   6.066  -5.022  0.00  0.00     0.154 C 
ATOM      7  O   LIG d   1      10.339   6.023  -3.600  0.00  0.00    -0.451 OA
ATOM      8  C   LIG d   1      10.264   4.727  -3.221  0.00  0.00     0.325 C 
ATOM      9  O   LIG d   1      10.526   4.296  -2.123  0.00  0.00    -0.250 OA
ATOM     10  C   LIG d   1      10.736   2.782  -4.716  0.00  0.00     0.325 C 
ATOM     11  O   LIG d   1      11.920   2.884  -4.929  0.00  0.00    -0.250 OA
ATOM     12  O   LIG d   1      10.031   1.627  -4.719  0.00  0.00    -0.458 OA
ATOM     13  H   LIG d   1       7.791   3.299  -4.999  0.00  0.00     0.032 H 
ATOM     14  H   LIG d   1       7.954   3.686  -3.250  0.00  0.00     0.032 H 
ATOM     15  H   LIG d   1      10.112   4.489  -6.480  0.00  0.00     0.032 H 
ATOM     16  H   LIG d   1       8.669   5.241  -5.714  0.00  0.00     0.032 H 
ENDROOT
BRANCH   1  17
ATOM     17  C   LIG d   1       7.786   0.797  -4.205  0.00  0.00     0.085 C 
ATOM     18  H   LIG d   1       7.994  -0.166  -3.740  0.00  0.00     0.060 H 
ATOM     19  H   LIG d   1       7.745   0.678  -5.288  0.00  0.00     0.060 H 
BRANCH  17  20
ATOM     20  O   LIG d   1       6.530   1.292  -3.734  0.00  0.00    -0.376 OA
BRANCH  20  21
ATOM     21  C   LIG d   1       5.684   0.288  -3.169  0.00  0.00     0.048 C 
ATOM     22  H   LIG d   1       6.291  -0.555  -2.840  0.00  0.00     0.056 H 
ATOM     23  H   LIG d   1       4.970  -0.049  -3.920  0.00  0.00     0.056 H 
BRANCH  21  24
ATOM     24  C   LIG d   1       4.929   0.872  -1.973  0.00  0.00    -0.032 C 
ATOM     25  H   LIG d   1       5.476   1.729  -1.581  0.00  0.00     0.029 H 
ATOM     26  H   LIG d   1       4.837   0.113  -1.196  0.00  0.00     0.029 H 
BRANCH  24  27
ATOM     27  C   LIG d   1       3.535   1.317  -2.419  0.00  0.00    -0.063 C 
ATOM     28  H   LIG d   1       3.324   0.913  -3.409  0.00  0.00     0.023 H 
ATOM     29  H   LIG d   1       2.792   0.949  -1.711  0.00  0.00     0.023 H 
ATOM     30  H   LIG d   1       3.496   2.405  -2.455  0.00  0.00     0.023 H 
ENDBRANCH  24  27
ENDBRANCH  21  24
ENDBRANCH  20  21
ENDBRANCH  17  20
ENDBRANCH   1  17
BRANCH   6  31
ATOM     31  C   LIG d   1      12.062   5.801  -5.324  0.00  0.00    -0.019 C 
ATOM     32  H   LIG d   1      12.460   5.093  -4.596  0.00  0.00     0.027 H 
ATOM     33  H   LIG d   1      12.159   5.385  -6.326  0.00  0.00     0.027 H 
ATOM     34  H   LIG d   1      12.619   6.736  -5.264  0.00  0.00     0.027 H 
ENDBRANCH   6  31
BRANCH   6  35
ATOM     35  C   LIG d   1      10.151   7.390  -5.599  0.00  0.00     0.094 A 
ATOM     36  N   LIG d   1       9.578   7.470  -6.787  0.00  0.00    -0.226 NA
ATOM     37  C   LIG d   1       9.197   8.628  -7.281  0.00  0.00     0.156 A 
ATOM     38  S   LIG d   1       9.643   9.721  -6.080  0.00  0.00    -0.061 SA
ATOM     39  C   LIG d   1      10.336   8.549  -4.925  0.00  0.00     0.004 A 
ATOM     40  H   LIG d   1      10.780   8.719  -3.956  0.00  0.00     0.071 H 
BRANCH  37  41
ATOM     41  N   LIG d   1       8.584   8.887  -8.497  0.00  0.00    -0.338 N 
ATOM     42  H   LIG d   1       8.746   8.306  -9.255  0.00  0.00     0.144 HD
ATOM     43  H   LIG d   1       7.993   9.651  -8.588  0.00  0.00     0.144 HD
ENDBRANCH  37  41
ENDBRANCH   6  35
TORSDOF 8
ENDMDL
MODEL 5
REMARK VINA RESULT:      -5.0      2.432      4.241
REMARK  8 active torsions:
REMARK  status: ('A' for Active; 'I' for Inactive)
REMARK    1  A    between atoms: C_1  and  C_2 
REMARK    2  A    between atoms: C_2  and  C_3 
REMARK    3  A    between atoms: C_3  and  O_4 
REMARK    4  A    between atoms: O_4  and  C_5 
REMARK    5  A    between atoms: C_5  and  C_6 
REMARK    6  A    between atoms: C_11  and  C_15 
REMARK    7  A    between atoms: C_11  and  C_16 
REMARK    8  A    between atoms: C_19  and  N_21 
ROOT
ATOM      1  C   LIG d   1       8.943   1.347  -4.851  0.00  0.00     0.128 C 
ATOM      2  H   LIG d   1       9.751   0.616  -4.804  0.00  0.00     0.076 H 
ATOM      3  C   LIG d   1       8.942   2.248  -3.584  0.00  0.00     0.013 C 
ATOM      4  C   LIG d   1       9.974   3.310  -3.998  0.00  0.00     0.171 C 
ATOM      5  C   LIG d   1       9.530   4.713  -3.553  0.00  0.00     0.019 C 
ATOM      6  C   LIG d   1      10.889   5.299  -3.075  0.00  0.00     0.154 C 
ATOM      7  O   LIG d   1      11.564   4.144  -2.531  0.00  0.00    -0.451 OA
ATOM      8  C   LIG d   1      11.302   3.083  -3.326  0.00  0.00     0.325 C 
ATOM      9  O   LIG d   1      12.012   2.117  -3.473  0.00  0.00    -0.250 OA
ATOM     10  C   LIG d   1      10.068   3.208  -5.496  0.00  0.00     0.325 C 
ATOM     11  O   LIG d   1      10.821   3.836  -6.201  0.00  0.00    -0.250 OA
ATOM     12  O   LIG d   1       9.168   2.291  -5.922  0.00  0.00    -0.458 OA
ATOM     13  H   LIG d   1       7.962   2.695  -3.417  0.00  0.00     0.032 H 
ATOM     14  H   LIG d   1       9.276   1.695  -2.705  0.00  0.00     0.032 H 
ATOM     15  H   LIG d   1       9.125   5.283  -4.389  0.00  0.00     0.032 H 
ATOM     16  H   LIG d   1       8.814   4.659  -2.732  0.00  0.00     0.032 H 
ENDROOT
BRANCH   1  17
ATOM     17  C   LIG d   1       7.592   0.649  -5.020  0.00  0.00     0.085 C 
ATOM     18  H   LIG d   1       7.690  -0.402  -4.754  0.00  0.00     0.060 H 
ATOM     19  H   LIG d   1       7.268   0.733  -6.058  0.00  0.00     0.060 H 
BRANCH  17  20
ATOM     20  O   LIG d   1       6.625   1.268  -4.169  0.00  0.00    -0.376 OA
BRANCH  20  21
ATOM     21  C   LIG d   1       5.744   0.346  -3.523  0.00  0.00     0.048 C 
ATOM     22  H   LIG d   1       6.311  -0.519  -3.180  0.00  0.00     0.056 H 
ATOM     23  H   LIG d   1       4.977   0.024  -4.227  0.00  0.00     0.056 H 
BRANCH  21  24
ATOM     24  C   LIG d   1       5.082   1.029  -2.324  0.00  0.00    -0.032 C 
ATOM     25  H   LIG d   1       5.287   2.099  -2.356  0.00  0.00     0.029 H 
ATOM     26  H   LIG d   1       5.481   0.611  -1.401  0.00  0.00     0.029 H 
BRANCH  24  27
ATOM     27  C   LIG d   1       3.570   0.797  -2.377  0.00  0.00    -0.063 C 
ATOM     28  H   LIG d   1       3.192   0.637  -1.367  0.00  0.00     0.023 H 
ATOM     29  H   LIG d   1       3.083   1.669  -2.814  0.00  0.00     0.023 H 
ATOM     30  H   LIG d   1       3.359  -0.081  -2.987  0.00  0.00     0.023 H 
ENDBRANCH  24  27
ENDBRANCH  21  24
ENDBRANCH  20  21
ENDBRANCH  17  20
ENDBRANCH   1  17
BRANCH   6  31
ATOM     31  C   LIG d   1      11.673   5.878  -4.255  0.00  0.00    -0.019 C 
ATOM     32  H   LIG d   1      11.775   5.119  -5.031  0.00  0.00     0.027 H 
ATOM     33  H   LIG d   1      11.139   6.739  -4.657  0.00  0.00     0.027 H 
ATOM     34  H   LIG d   1      12.661   6.188  -3.917  0.00  0.00     0.027 H 
ENDBRANCH   6  31
BRANCH   6  35
ATOM     35  C   LIG d   1      10.676   6.344  -2.010  0.00  0.00     0.094 A 
ATOM     36  N   LIG d   1       9.620   7.138  -2.024  0.00  0.00    -0.226 NA
ATOM     37  C   LIG d   1       9.438   8.044  -1.087  0.00  0.00     0.156 A 
ATOM     38  S   LIG d   1      10.786   7.846  -0.098  0.00  0.00    -0.061 SA
ATOM     39  C   LIG d   1      11.560   6.514  -0.999  0.00  0.00     0.004 A 
ATOM     40  H   LIG d   1      12.481   5.987  -0.794  0.00  0.00     0.071 H 
BRANCH  37  41
ATOM     41  N   LIG d   1       8.395   8.946  -0.951  0.00  0.00    -0.338 N 
ATOM     42  H   LIG d   1       7.925   9.020  -0.106  0.00  0.00     0.144 HD
ATOM     43  H   LIG d   1       8.135   9.503  -1.702  0.00  0.00     0.144 HD
ENDBRANCH  37  41
ENDBRANCH   6  35
TORSDOF 8
ENDMDL
MODEL 6
REMARK VINA RESULT:      -5.0      6.136      9.650
REMARK  8 active torsions:
REMARK  status: ('A' for Active; 'I' for Inactive)
REMARK    1  A    between atoms: C_1  and  C_2 
REMARK    2  A    between atoms: C_2  and  C_3 
REMARK    3  A    between atoms: C_3  and  O_4 
REMARK    4  A    between atoms: O_4  and  C_5 
REMARK    5  A    between atoms: C_5  and  C_6 
REMARK    6  A    between atoms: C_11  and  C_15 
REMARK    7  A    between atoms: C_11  and  C_16 
REMARK    8  A    between atoms: C_19  and  N_21 
ROOT
ATOM      1  C   LIG d   1      11.285   9.228   0.999  0.00  0.00     0.128 C 
ATOM      2  H   LIG d   1      10.302   9.674   1.151  0.00  0.00     0.076 H 
ATOM      3  C   LIG d   1      11.159   7.708   0.701  0.00  0.00     0.013 C 
ATOM      4  C   LIG d   1      10.902   7.743  -0.815  0.00  0.00     0.171 C 
ATOM      5  C   LIG d   1      11.667   6.618  -1.530  0.00  0.00     0.019 C 
ATOM      6  C   LIG d   1      10.598   6.165  -2.565  0.00  0.00     0.154 C 
ATOM      7  O   LIG d   1       9.358   6.358  -1.851  0.00  0.00    -0.451 OA
ATOM      8  C   LIG d   1       9.452   7.501  -1.136  0.00  0.00     0.325 C 
ATOM      9  O   LIG d   1       8.528   8.209  -0.809  0.00  0.00    -0.250 OA
ATOM     10  C   LIG d   1      11.367   9.101  -1.264  0.00  0.00     0.325 C 
ATOM     11  O   LIG d   1      11.275   9.545  -2.384  0.00  0.00    -0.250 OA
ATOM     12  O   LIG d   1      11.901   9.746  -0.201  0.00  0.00    -0.458 OA
ATOM     13  H   LIG d   1      12.086   7.182   0.931  0.00  0.00     0.032 H 
ATOM     14  H   LIG d   1      10.316   7.269   1.234  0.00  0.00     0.032 H 
ATOM     15  H   LIG d   1      12.560   7.000  -2.025  0.00  0.00     0.032 H 
ATOM     16  H   LIG d   1      11.917   5.810  -0.841  0.00  0.00     0.032 H 
ENDROOT
BRANCH   1  17
ATOM     17  C   LIG d   1      12.181   9.470   2.215  0.00  0.00     0.085 C 
ATOM     18  H   LIG d   1      11.946  10.438   2.654  0.00  0.00     0.060 H 
ATOM     19  H   LIG d   1      13.226   9.456   1.904  0.00  0.00     0.060 H 
BRANCH  17  20
ATOM     20  O   LIG d   1      11.960   8.442   3.183  0.00  0.00    -0.376 OA
BRANCH  20  21
ATOM     21  C   LIG d   1      12.039   8.891   4.537  0.00  0.00     0.048 C 
ATOM     22  H   LIG d   1      11.375   9.743   4.677  0.00  0.00     0.056 H 
ATOM     23  H   LIG d   1      13.064   9.187   4.762  0.00  0.00     0.056 H 
BRANCH  21  24
ATOM     24  C   LIG d   1      11.619   7.757   5.475  0.00  0.00    -0.032 C 
ATOM     25  H   LIG d   1      10.853   8.118   6.161  0.00  0.00     0.029 H 
ATOM     26  H   LIG d   1      12.484   7.417   6.044  0.00  0.00     0.029 H 
BRANCH  24  27
ATOM     27  C   LIG d   1      11.061   6.595   4.652  0.00  0.00    -0.063 C 
ATOM     28  H   LIG d   1      10.899   6.923   3.625  0.00  0.00     0.023 H 
ATOM     29  H   LIG d   1      11.771   5.768   4.662  0.00  0.00     0.023 H 
ATOM     30  H   LIG d   1      10.115   6.266   5.082  0.00  0.00     0.023 H 
ENDBRANCH  24  27
ENDBRANCH  21  24
ENDBRANCH  20  21
ENDBRANCH  17  20
ENDBRANCH   1  17
BRANCH   6  31
ATOM     31  C   LIG d   1      10.647   7.046  -3.814  0.00  0.00    -0.019 C 
ATOM     32  H   LIG d   1      10.933   6.440  -4.674  0.00  0.00     0.027 H 
ATOM     33  H   LIG d   1       9.665   7.484  -3.988  0.00  0.00     0.027 H 
ATOM     34  H   LIG d   1      11.379   7.840  -3.670  0.00  0.00     0.027 H 
ENDBRANCH   6  31
BRANCH   6  35
ATOM     35  C   LIG d   1      10.786   4.713  -2.925  0.00  0.00     0.094 A 
ATOM     36  N   LIG d   1       9.755   3.899  -3.069  0.00  0.00    -0.226 NA
ATOM     37  C   LIG d   1       9.928   2.634  -3.389  0.00  0.00     0.156 A 
ATOM     38  S   LIG d   1      11.602   2.493  -3.501  0.00  0.00    -0.061 SA
ATOM     39  C   LIG d   1      12.019   4.185  -3.110  0.00  0.00     0.004 A 
ATOM     40  H   LIG d   1      12.987   4.657  -3.042  0.00  0.00     0.071 H 
BRANCH  37  41
ATOM     41  N   LIG d   1       8.966   1.654  -3.582  0.00  0.00    -0.338 N 
ATOM     42  H   LIG d   1       9.081   0.993  -4.281  0.00  0.00     0.144 HD
ATOM     43  H   LIG d   1       8.178   1.632  -3.016  0.00  0.00     0.144 HD
ENDBRANCH  37  41
ENDBRANCH   6  35
TORSDOF 8
ENDMDL
MODEL 7
REMARK VINA RESULT:      -4.8      8.430     10.618
REMARK  8 active torsions:
REMARK  status: ('A' for Active; 'I' for Inactive)
REMARK    1  A    between atoms: C_1  and  C_2 
REMARK    2  A    between atoms: C_2  and  C_3 
REMARK    3  A    between atoms: C_3  and  O_4 
REMARK    4  A    between atoms: O_4  and  C_5 
REMARK    5  A    between atoms: C_5  and  C_6 
REMARK    6  A    between atoms: C_11  and  C_15 
REMARK    7  A    between atoms: C_11  and  C_16 
REMARK    8  A    between atoms: C_19  and  N_21 
ROOT
ATOM      1  C   LIG d   1      10.672  11.706  -5.405  0.00  0.00     0.128 C 
ATOM      2  H   LIG d   1      11.016  12.684  -5.067  0.00  0.00     0.076 H 
ATOM      3  C   LIG d   1      11.326  10.572  -4.568  0.00  0.00     0.013 C 
ATOM      4  C   LIG d   1      10.370  10.530  -3.364  0.00  0.00     0.171 C 
ATOM      5  C   LIG d   1      10.095   9.081  -2.929  0.00  0.00     0.019 C 
ATOM      6  C   LIG d   1      10.125   9.243  -1.382  0.00  0.00     0.154 C 
ATOM      7  O   LIG d   1      11.119  10.271  -1.185  0.00  0.00    -0.451 OA
ATOM      8  C   LIG d   1      10.971  11.199  -2.157  0.00  0.00     0.325 C 
ATOM      9  O   LIG d   1      11.271  12.366  -2.072  0.00  0.00    -0.250 OA
ATOM     10  C   LIG d   1       9.116  11.216  -3.830  0.00  0.00     0.325 C 
ATOM     11  O   LIG d   1       8.142  11.445  -3.153  0.00  0.00    -0.250 OA
ATOM     12  O   LIG d   1       9.262  11.540  -5.136  0.00  0.00    -0.458 OA
ATOM     13  H   LIG d   1      11.318   9.626  -5.110  0.00  0.00     0.032 H 
ATOM     14  H   LIG d   1      12.337  10.840  -4.260  0.00  0.00     0.032 H 
ATOM     15  H   LIG d   1       9.118   8.745  -3.273  0.00  0.00     0.032 H 
ATOM     16  H   LIG d   1      10.884   8.410  -3.270  0.00  0.00     0.032 H 
ENDROOT
BRANCH   1  17
ATOM     17  C   LIG d   1      10.964  11.518  -6.895  0.00  0.00     0.085 C 
ATOM     18  H   LIG d   1      11.878  10.938  -7.016  0.00  0.00     0.060 H 
ATOM     19  H   LIG d   1      11.087  12.493  -7.367  0.00  0.00     0.060 H 
BRANCH  17  20
ATOM     20  O   LIG d   1       9.876  10.826  -7.511  0.00  0.00    -0.376 OA
BRANCH  20  21
ATOM     21  C   LIG d   1      10.226   9.545  -8.041  0.00  0.00     0.048 C 
ATOM     22  H   LIG d   1      11.145   9.196  -7.572  0.00  0.00     0.056 H 
ATOM     23  H   LIG d   1      10.375   9.628  -9.118  0.00  0.00     0.056 H 
BRANCH  21  24
ATOM     24  C   LIG d   1       9.099   8.551  -7.758  0.00  0.00    -0.032 C 
ATOM     25  H   LIG d   1       9.191   7.696  -8.427  0.00  0.00     0.029 H 
ATOM     26  H   LIG d   1       8.137   9.036  -7.919  0.00  0.00     0.029 H 
BRANCH  24  27
ATOM     27  C   LIG d   1       9.192   8.075  -6.307  0.00  0.00    -0.063 C 
ATOM     28  H   LIG d   1      10.044   7.402  -6.199  0.00  0.00     0.023 H 
ATOM     29  H   LIG d   1       9.322   8.935  -5.650  0.00  0.00     0.023 H 
ATOM     30  H   LIG d   1       8.277   7.547  -6.038  0.00  0.00     0.023 H 
ENDBRANCH  24  27
ENDBRANCH  21  24
ENDBRANCH  20  21
ENDBRANCH  17  20
ENDBRANCH   1  17
BRANCH   6  31
ATOM     31  C   LIG d   1       8.762   9.700  -0.860  0.00  0.00    -0.019 C 
ATOM     32  H   LIG d   1       8.898  10.529  -0.165  0.00  0.00     0.027 H 
ATOM     33  H   LIG d   1       8.143  10.025  -1.696  0.00  0.00     0.027 H 
ATOM     34  H   LIG d   1       8.273   8.872  -0.347  0.00  0.00     0.027 H 
ENDBRANCH   6  31
BRANCH   6  35
ATOM     35  C   LIG d   1      10.548   7.957  -0.719  0.00  0.00     0.094 A 
ATOM     36  N   LIG d   1      10.568   6.813  -1.381  0.00  0.00    -0.226 NA
ATOM     37  C   LIG d   1      10.944   5.696  -0.796  0.00  0.00     0.156 A 
ATOM     38  S   LIG d   1      11.292   6.186   0.776  0.00  0.00    -0.061 SA
ATOM     39  C   LIG d   1      10.918   7.921   0.583  0.00  0.00     0.004 A 
ATOM     40  H   LIG d   1      10.973   8.722   1.305  0.00  0.00     0.071 H 
BRANCH  37  41
ATOM     41  N   LIG d   1      11.026   4.424  -1.340  0.00  0.00    -0.338 N 
ATOM     42  H   LIG d   1      10.460   4.178  -2.088  0.00  0.00     0.144 HD
ATOM     43  H   LIG d   1      11.650   3.778  -0.971  0.00  0.00     0.144 HD
ENDBRANCH  37  41
ENDBRANCH   6  35
TORSDOF 8
ENDMDL
MODEL 8
REMARK VINA RESULT:      -4.8      3.310      6.436
REMARK  8 active torsions:
REMARK  status: ('A' for Active; 'I' for Inactive)
REMARK    1  A    between atoms: C_1  and  C_2 
REMARK    2  A    between atoms: C_2  and  C_3 
REMARK    3  A    between atoms: C_3  and  O_4 
REMARK    4  A    between atoms: O_4  and  C_5 
REMARK    5  A    between atoms: C_5  and  C_6 
REMARK    6  A    between atoms: C_11  and  C_15 
REMARK    7  A    between atoms: C_11  and  C_16 
REMARK    8  A    between atoms: C_19  and  N_21 
ROOT
ATOM      1  C   LIG d   1      10.362   3.589  -5.047  0.00  0.00     0.128 C 
ATOM      2  H   LIG d   1      10.530   3.660  -6.122  0.00  0.00     0.076 H 
ATOM      3  C   LIG d   1       8.848   3.422  -4.736  0.00  0.00     0.013 C 
ATOM      4  C   LIG d   1       8.699   1.900  -4.896  0.00  0.00     0.171 C 
ATOM      5  C   LIG d   1       7.778   1.319  -3.810  0.00  0.00     0.019 C 
ATOM      6  C   LIG d   1       6.973   0.286  -4.649  0.00  0.00     0.154 C 
ATOM      7  O   LIG d   1       6.869   0.928  -5.938  0.00  0.00    -0.451 OA
ATOM      8  C   LIG d   1       8.043   1.542  -6.203  0.00  0.00     0.325 C 
ATOM      9  O   LIG d   1       8.491   1.767  -7.302  0.00  0.00    -0.250 OA
ATOM     10  C   LIG d   1      10.095   1.351  -4.790  0.00  0.00     0.325 C 
ATOM     11  O   LIG d   1      10.412   0.194  -4.926  0.00  0.00    -0.250 OA
ATOM     12  O   LIG d   1      10.940   2.374  -4.519  0.00  0.00    -0.458 OA
ATOM     13  H   LIG d   1       8.617   3.736  -3.718  0.00  0.00     0.032 H 
ATOM     14  H   LIG d   1       8.235   3.957  -5.461  0.00  0.00     0.032 H 
ATOM     15  H   LIG d   1       8.354   0.829  -3.025  0.00  0.00     0.032 H 
ATOM     16  H   LIG d   1       7.124   2.087  -3.396  0.00  0.00     0.032 H 
ENDROOT
BRANCH   1  17
ATOM     17  C   LIG d   1      10.931   4.814  -4.329  0.00  0.00     0.085 C 
ATOM     18  H   LIG d   1      10.189   5.611  -4.327  0.00  0.00     0.060 H 
ATOM     19  H   LIG d   1      11.829   5.154  -4.847  0.00  0.00     0.060 H 
BRANCH  17  20
ATOM     20  O   LIG d   1      11.262   4.467  -2.983  0.00  0.00    -0.376 OA
BRANCH  20  21
ATOM     21  C   LIG d   1      10.497   5.163  -1.997  0.00  0.00     0.048 C 
ATOM     22  H   LIG d   1      11.119   5.356  -1.123  0.00  0.00     0.056 H 
ATOM     23  H   LIG d   1       9.640   4.554  -1.707  0.00  0.00     0.056 H 
BRANCH  21  24
ATOM     24  C   LIG d   1      10.005   6.491  -2.577  0.00  0.00    -0.032 C 
ATOM     25  H   LIG d   1       9.286   6.297  -3.372  0.00  0.00     0.029 H 
ATOM     26  H   LIG d   1      10.851   7.047  -2.980  0.00  0.00     0.029 H 
BRANCH  24  27
ATOM     27  C   LIG d   1       9.336   7.312  -1.473  0.00  0.00    -0.063 C 
ATOM     28  H   LIG d   1       9.063   6.655  -0.646  0.00  0.00     0.023 H 
ATOM     29  H   LIG d   1      10.027   8.076  -1.117  0.00  0.00     0.023 H 
ATOM     30  H   LIG d   1       8.439   7.789  -1.868  0.00  0.00     0.023 H 
ENDBRANCH  24  27
ENDBRANCH  21  24
ENDBRANCH  20  21
ENDBRANCH  17  20
ENDBRANCH   1  17
BRANCH   6  31
ATOM     31  C   LIG d   1       7.738  -1.034  -4.761  0.00  0.00    -0.019 C 
ATOM     32  H   LIG d   1       7.058  -1.864  -4.571  0.00  0.00     0.027 H 
ATOM     33  H   LIG d   1       8.155  -1.127  -5.763  0.00  0.00     0.027 H 
ATOM     34  H   LIG d   1       8.545  -1.049  -4.028  0.00  0.00     0.027 H 
ENDBRANCH   6  31
BRANCH   6  35
ATOM     35  C   LIG d   1       5.606   0.064  -4.052  0.00  0.00     0.094 A 
ATOM     36  N   LIG d   1       4.510   0.151  -4.784  0.00  0.00    -0.226 NA
ATOM     37  C   LIG d   1       3.322  -0.050  -4.256  0.00  0.00     0.156 A 
ATOM     38  S   LIG d   1       3.671  -0.371  -2.641  0.00  0.00    -0.061 SA
ATOM     39  C   LIG d   1       5.448  -0.228  -2.739  0.00  0.00     0.004 A 
ATOM     40  H   LIG d   1       6.191  -0.343  -1.965  0.00  0.00     0.071 H 
BRANCH  37  41
ATOM     41  N   LIG d   1       2.083  -0.001  -4.877  0.00  0.00    -0.338 N 
ATOM     42  H   LIG d   1       1.273  -0.047  -4.346  0.00  0.00     0.144 HD
ATOM     43  H   LIG d   1       2.028   0.078  -5.842  0.00  0.00     0.144 HD
ENDBRANCH  37  41
ENDBRANCH   6  35
TORSDOF 8
ENDMDL
MODEL 9
REMARK VINA RESULT:      -4.7      5.822      8.173
REMARK  8 active torsions:
REMARK  status: ('A' for Active; 'I' for Inactive)
REMARK    1  A    between atoms: C_1  and  C_2 
REMARK    2  A    between atoms: C_2  and  C_3 
REMARK    3  A    between atoms: C_3  and  O_4 
REMARK    4  A    between atoms: O_4  and  C_5 
REMARK    5  A    between atoms: C_5  and  C_6 
REMARK    6  A    between atoms: C_11  and  C_15 
REMARK    7  A    between atoms: C_11  and  C_16 
REMARK    8  A    between atoms: C_19  and  N_21 
ROOT
ATOM      1  C   LIG d   1      10.843   6.831  -1.335  0.00  0.00     0.128 C 
ATOM      2  H   LIG d   1      11.858   6.499  -1.116  0.00  0.00     0.076 H 
ATOM      3  C   LIG d   1      10.752   7.413  -2.774  0.00  0.00     0.013 C 
ATOM      4  C   LIG d   1      10.543   6.123  -3.582  0.00  0.00     0.171 C 
ATOM      5  C   LIG d   1       9.511   6.335  -4.702  0.00  0.00     0.019 C 
ATOM      6  C   LIG d   1      10.179   5.534  -5.855  0.00  0.00     0.154 C 
ATOM      7  O   LIG d   1      11.588   5.741  -5.617  0.00  0.00    -0.451 OA
ATOM      8  C   LIG d   1      11.805   5.698  -4.283  0.00  0.00     0.325 C 
ATOM      9  O   LIG d   1      12.836   5.373  -3.745  0.00  0.00    -0.250 OA
ATOM     10  C   LIG d   1      10.073   5.101  -2.583  0.00  0.00     0.325 C 
ATOM     11  O   LIG d   1       9.858   3.935  -2.813  0.00  0.00    -0.250 OA
ATOM     12  O   LIG d   1       9.936   5.706  -1.381  0.00  0.00    -0.458 OA
ATOM     13  H   LIG d   1       9.899   8.085  -2.875  0.00  0.00     0.032 H 
ATOM     14  H   LIG d   1      11.679   7.911  -3.057  0.00  0.00     0.032 H 
ATOM     15  H   LIG d   1       8.544   5.910  -4.434  0.00  0.00     0.032 H 
ATOM     16  H   LIG d   1       9.418   7.392  -4.958  0.00  0.00     0.032 H 
ENDROOT
BRANCH   1  17
ATOM     17  C   LIG d   1      10.377   7.860  -0.303  0.00  0.00     0.085 C 
ATOM     18  H   LIG d   1      10.997   8.752  -0.373  0.00  0.00     0.060 H 
ATOM     19  H   LIG d   1      10.462   7.435   0.697  0.00  0.00     0.060 H 
BRANCH  17  20
ATOM     20  O   LIG d   1       9.014   8.207  -0.558  0.00  0.00    -0.376 OA
BRANCH  20  21
ATOM     21  C   LIG d   1       8.783   9.612  -0.678  0.00  0.00     0.048 C 
ATOM     22  H   LIG d   1       7.812   9.859  -0.249  0.00  0.00     0.056 H 
ATOM     23  H   LIG d   1       8.798   9.893  -1.731  0.00  0.00     0.056 H 
BRANCH  21  24
ATOM     24  C   LIG d   1       9.880  10.374   0.069  0.00  0.00    -0.032 C 
ATOM     25  H   LIG d   1      10.729   9.714   0.241  0.00  0.00     0.029 H 
ATOM     26  H   LIG d   1       9.493  10.724   1.025  0.00  0.00     0.029 H 
BRANCH  24  27
ATOM     27  C   LIG d   1      10.328  11.574  -0.770  0.00  0.00    -0.063 C 
ATOM     28  H   LIG d   1      10.297  12.476  -0.158  0.00  0.00     0.023 H 
ATOM     29  H   LIG d   1      11.345  11.409  -1.125  0.00  0.00     0.023 H 
ATOM     30  H   LIG d   1       9.658  11.690  -1.622  0.00  0.00     0.023 H 
ENDBRANCH  24  27
ENDBRANCH  21  24
ENDBRANCH  20  21
ENDBRANCH  17  20
ENDBRANCH   1  17
BRANCH   6  31
ATOM     31  C   LIG d   1       9.826   4.049  -5.758  0.00  0.00    -0.019 C 
ATOM     32  H   LIG d   1       9.055   3.909  -5.000  0.00  0.00     0.027 H 
ATOM     33  H   LIG d   1       9.456   3.700  -6.722  0.00  0.00     0.027 H 
ATOM     34  H   LIG d   1      10.714   3.482  -5.482  0.00  0.00     0.027 H 
ENDBRANCH   6  31
BRANCH   6  35
ATOM     35  C   LIG d   1       9.778   6.093  -7.197  0.00  0.00     0.094 A 
ATOM     36  N   LIG d   1       9.390   7.349  -7.333  0.00  0.00    -0.226 NA
ATOM     37  C   LIG d   1       9.046   7.830  -8.508  0.00  0.00     0.156 A 
ATOM     38  S   LIG d   1       9.235   6.509  -9.533  0.00  0.00    -0.061 SA
ATOM     39  C   LIG d   1       9.792   5.329  -8.314  0.00  0.00     0.004 A 
ATOM     40  H   LIG d   1      10.066   4.291  -8.435  0.00  0.00     0.071 H 
BRANCH  37  41
ATOM     41  N   LIG d   1       8.623   9.112  -8.825  0.00  0.00    -0.338 N 
ATOM     42  H   LIG d   1       7.740   9.411  -8.560  0.00  0.00     0.144 HD
ATOM     43  H   LIG d   1       9.212   9.710  -9.313  0.00  0.00     0.144 HD
ENDBRANCH  37  41
ENDBRANCH   6  35
TORSDOF 8
ENDMDL
