MODEL 1
REMARK VINA RESULT:      -4.8      0.000      0.000
REMARK  5 active torsions:
REMARK  status: ('A' for Active; 'I' for Inactive)
REMARK    1  A    between atoms: C_1  and  O_2 
REMARK    2  A    between atoms: O_2  and  C_3 
REMARK    3  A    between atoms: C_3  and  C_5 
REMARK    4  A    between atoms: C_5  and  C_6 
REMARK    5  A    between atoms: C_9  and  O_13 
ROOT
ATOM      1  C   LIG d   1       4.988  -1.661  -2.997  0.00  0.00    -0.035 A 
ATOM      2  C   LIG d   1       6.325  -1.311  -3.007  0.00  0.00    -0.054 A 
ATOM      3  C   LIG d   1       7.215  -1.997  -3.811  0.00  0.00    -0.019 A 
ATOM      4  C   LIG d   1       6.768  -3.047  -4.600  0.00  0.00     0.131 A 
ATOM      5  C   LIG d   1       5.426  -3.401  -4.585  0.00  0.00     0.059 A 
ATOM      6  C   LIG d   1       4.539  -2.708  -3.782  0.00  0.00    -0.041 A 
ATOM      7 BR   LIG d   1       4.812  -4.831  -5.658  0.00  0.00    -0.046 Br
ATOM      8  H   LIG d   1       6.673  -0.496  -2.390  0.00  0.00     0.062 H 
ATOM      9  H   LIG d   1       8.259  -1.719  -3.821  0.00  0.00     0.065 H 
ATOM     10  H   LIG d   1       3.495  -2.983  -3.770  0.00  0.00     0.063 H 
ENDROOT
BRANCH   1  11
ATOM     11  C   LIG d   1       4.019  -0.907  -2.125  0.00  0.00     0.070 C 
ATOM     12  H   LIG d   1       3.086  -1.465  -2.051  0.00  0.00     0.043 H 
ATOM     13  H   LIG d   1       4.447  -0.782  -1.129  0.00  0.00     0.043 H 
BRANCH  11  14
ATOM     14  C   LIG d   1       3.748   0.448  -2.727  0.00  0.00     0.311 C 
ATOM     15  O   LIG d   1       3.489   1.386  -2.010  0.00  0.00    -0.251 OA
BRANCH  14  16
ATOM     16  O   LIG d   1       3.795   0.613  -4.058  0.00  0.00    -0.468 OA
BRANCH  16  17
ATOM     17  C   LIG d   1       2.535   0.539  -4.777  0.00  0.00     0.082 C 
ATOM     18  H   LIG d   1       2.121   1.541  -4.888  0.00  0.00     0.066 H 
ATOM     19  H   LIG d   1       2.704   0.104  -5.762  0.00  0.00     0.066 H 
ATOM     20  H   LIG d   1       1.835  -0.083  -4.220  0.00  0.00     0.066 H 
ENDBRANCH  16  17
ENDBRANCH  14  16
ENDBRANCH  11  14
ENDBRANCH   1  11
BRANCH   4  21
ATOM     21  O   LIG d   1       7.643  -3.727  -5.387  0.00  0.00    -0.506 OA
ATOM     22  H   LIG d   1       8.243  -4.306  -4.898  0.00  0.00     0.292 HD
ENDBRANCH   4  21
TORSDOF 5
ENDMDL
MODEL 2
REMARK VINA RESULT:      -4.7      2.576      2.973
REMARK  5 active torsions:
REMARK  status: ('A' for Active; 'I' for Inactive)
REMARK    1  A    between atoms: C_1  and  O_2 
REMARK    2  A    between atoms: O_2  and  C_3 
REMARK    3  A    between atoms: C_3  and  C_5 
REMARK    4  A    between atoms: C_5  and  C_6 
REMARK    5  A    between atoms: C_9  and  O_13 
ROOT
ATOM      1  C   LIG d   1       5.521  -0.780  -2.771  0.00  0.00    -0.035 A 
ATOM      2  C   LIG d   1       6.058  -1.973  -3.217  0.00  0.00    -0.054 A 
ATOM      3  C   LIG d   1       7.233  -1.976  -3.942  0.00  0.00    -0.019 A 
ATOM      4  C   LIG d   1       7.870  -0.779  -4.234  0.00  0.00     0.131 A 
ATOM      5  C   LIG d   1       7.327   0.419  -3.790  0.00  0.00     0.059 A 
ATOM      6  C   LIG d   1       6.153   0.415  -3.060  0.00  0.00    -0.041 A 
ATOM      7 BR   LIG d   1       8.191   2.054  -4.183  0.00  0.00    -0.046 Br
ATOM      8  H   LIG d   1       5.560  -2.906  -2.993  0.00  0.00     0.062 H 
ATOM      9  H   LIG d   1       7.654  -2.909  -4.287  0.00  0.00     0.065 H 
ATOM     10  H   LIG d   1       5.730   1.347  -2.714  0.00  0.00     0.063 H 
ENDROOT
BRANCH   1  11
ATOM     11  C   LIG d   1       4.242  -0.781  -1.974  0.00  0.00     0.070 C 
ATOM     12  H   LIG d   1       3.822  -1.787  -1.963  0.00  0.00     0.043 H 
ATOM     13  H   LIG d   1       4.450  -0.464  -0.952  0.00  0.00     0.043 H 
BRANCH  11  14
ATOM     14  C   LIG d   1       3.256   0.169  -2.604  0.00  0.00     0.311 C 
ATOM     15  O   LIG d   1       3.151   1.296  -2.182  0.00  0.00    -0.251 OA
BRANCH  14  16
ATOM     16  O   LIG d   1       2.496  -0.236  -3.633  0.00  0.00    -0.468 OA
BRANCH  16  17
ATOM     17  C   LIG d   1       2.612   0.511  -4.873  0.00  0.00     0.082 C 
ATOM     18  H   LIG d   1       2.596  -0.180  -5.716  0.00  0.00     0.066 H 
ATOM     19  H   LIG d   1       1.776   1.206  -4.957  0.00  0.00     0.066 H 
ATOM     20  H   LIG d   1       3.549   1.066  -4.876  0.00  0.00     0.066 H 
ENDBRANCH  16  17
ENDBRANCH  14  16
ENDBRANCH  11  14
ENDBRANCH   1  11
BRANCH   4  21
ATOM     21  O   LIG d   1       9.023  -0.778  -4.953  0.00  0.00    -0.506 OA
ATOM     22  H   LIG d   1       9.818  -0.917  -4.421  0.00  0.00     0.292 HD
ENDBRANCH   4  21
TORSDOF 5
ENDMDL
MODEL 3
REMARK VINA RESULT:      -4.6      2.747      4.874
REMARK  5 active torsions:
REMARK  status: ('A' for Active; 'I' for Inactive)
REMARK    1  A    between atoms: C_1  and  O_2 
REMARK    2  A    between atoms: O_2  and  C_3 
REMARK    3  A    between atoms: C_3  and  C_5 
REMARK    4  A    between atoms: C_5  and  C_6 
REMARK    5  A    between atoms: C_9  and  O_13 
ROOT
ATOM      1  C   LIG d   1       5.485  -2.322  -3.870  0.00  0.00    -0.035 A 
ATOM      2  C   LIG d   1       4.474  -2.228  -2.932  0.00  0.00    -0.054 A 
ATOM      3  C   LIG d   1       4.297  -1.058  -2.219  0.00  0.00    -0.019 A 
ATOM      4  C   LIG d   1       5.143   0.020  -2.435  0.00  0.00     0.131 A 
ATOM      5  C   LIG d   1       6.161  -0.078  -3.374  0.00  0.00     0.059 A 
ATOM      6  C   LIG d   1       6.330  -1.249  -4.088  0.00  0.00    -0.041 A 
ATOM      7 BR   LIG d   1       7.317   1.388  -3.674  0.00  0.00    -0.046 Br
ATOM      8  H   LIG d   1       3.817  -3.069  -2.760  0.00  0.00     0.062 H 
ATOM      9  H   LIG d   1       3.504  -0.984  -1.489  0.00  0.00     0.065 H 
ATOM     10  H   LIG d   1       7.122  -1.326  -4.819  0.00  0.00     0.063 H 
ENDROOT
BRANCH   1  11
ATOM     11  C   LIG d   1       5.671  -3.597  -4.650  0.00  0.00     0.070 C 
ATOM     12  H   LIG d   1       6.664  -3.607  -5.100  0.00  0.00     0.043 H 
ATOM     13  H   LIG d   1       5.567  -4.452  -3.981  0.00  0.00     0.043 H 
BRANCH  11  14
ATOM     14  C   LIG d   1       4.627  -3.680  -5.735  0.00  0.00     0.311 C 
ATOM     15  O   LIG d   1       4.502  -2.772  -6.523  0.00  0.00    -0.251 OA
BRANCH  14  16
ATOM     16  O   LIG d   1       3.839  -4.762  -5.827  0.00  0.00    -0.468 OA
BRANCH  16  17
ATOM     17  C   LIG d   1       4.490  -6.031  -6.102  0.00  0.00     0.082 C 
ATOM     18  H   LIG d   1       3.997  -6.517  -6.944  0.00  0.00     0.066 H 
ATOM     19  H   LIG d   1       5.538  -5.856  -6.347  0.00  0.00     0.066 H 
ATOM     20  H   LIG d   1       4.424  -6.671  -5.223  0.00  0.00     0.066 H 
ENDBRANCH  16  17
ENDBRANCH  14  16
ENDBRANCH  11  14
ENDBRANCH   1  11
BRANCH   4  21
ATOM     21  O   LIG d   1       4.975   1.170  -1.730  0.00  0.00    -0.506 OA
ATOM     22  H   LIG d   1       5.616   1.860  -1.947  0.00  0.00     0.292 HD
ENDBRANCH   4  21
TORSDOF 5
ENDMDL
MODEL 4
REMARK VINA RESULT:      -4.6      1.581      2.093
REMARK  5 active torsions:
REMARK  status: ('A' for Active; 'I' for Inactive)
REMARK    1  A    between atoms: C_1  and  O_2 
REMARK    2  A    between atoms: O_2  and  C_3 
REMARK    3  A    between atoms: C_3  and  C_5 
REMARK    4  A    between atoms: C_5  and  C_6 
REMARK    5  A    between atoms: C_9  and  O_13 
ROOT
ATOM      1  C   LIG d   1       5.112  -1.732  -2.714  0.00  0.00    -0.035 A 
ATOM      2  C   LIG d   1       4.241  -2.587  -3.362  0.00  0.00    -0.054 A 
ATOM      3  C   LIG d   1       4.683  -3.354  -4.422  0.00  0.00    -0.019 A 
ATOM      4  C   LIG d   1       6.000  -3.256  -4.846  0.00  0.00     0.131 A 
ATOM      5  C   LIG d   1       6.873  -2.393  -4.198  0.00  0.00     0.059 A 
ATOM      6  C   LIG d   1       6.426  -1.632  -3.134  0.00  0.00    -0.041 A 
ATOM      7 BR   LIG d   1       8.670  -2.256  -4.770  0.00  0.00    -0.046 Br
ATOM      8  H   LIG d   1       3.214  -2.660  -3.034  0.00  0.00     0.062 H 
ATOM      9  H   LIG d   1       4.003  -4.026  -4.925  0.00  0.00     0.065 H 
ATOM     10  H   LIG d   1       7.104  -0.959  -2.630  0.00  0.00     0.063 H 
ENDROOT
BRANCH   1  11
ATOM     11  C   LIG d   1       4.628  -0.901  -1.554  0.00  0.00     0.070 C 
ATOM     12  H   LIG d   1       3.700  -1.322  -1.168  0.00  0.00     0.043 H 
ATOM     13  H   LIG d   1       5.382  -0.902  -0.767  0.00  0.00     0.043 H 
BRANCH  11  14
ATOM     14  C   LIG d   1       4.385   0.513  -2.014  0.00  0.00     0.311 C 
ATOM     15  O   LIG d   1       5.285   1.320  -1.987  0.00  0.00    -0.251 OA
BRANCH  14  16
ATOM     16  O   LIG d   1       3.171   0.877  -2.454  0.00  0.00    -0.468 OA
BRANCH  16  17
ATOM     17  C   LIG d   1       2.965   0.885  -3.892  0.00  0.00     0.082 C 
ATOM     18  H   LIG d   1       1.980   1.292  -4.116  0.00  0.00     0.066 H 
ATOM     19  H   LIG d   1       3.729   1.502  -4.364  0.00  0.00     0.066 H 
ATOM     20  H   LIG d   1       3.033  -0.134  -4.274  0.00  0.00     0.066 H 
ENDBRANCH  16  17
ENDBRANCH  14  16
ENDBRANCH  11  14
ENDBRANCH   1  11
BRANCH   4  21
ATOM     21  O   LIG d   1       6.436  -4.005  -5.893  0.00  0.00    -0.506 OA
ATOM     22  H   LIG d   1       6.547  -4.943  -5.686  0.00  0.00     0.292 HD
ENDBRANCH   4  21
TORSDOF 5
ENDMDL
MODEL 5
REMARK VINA RESULT:      -4.6      2.961      4.581
REMARK  5 active torsions:
REMARK  status: ('A' for Active; 'I' for Inactive)
REMARK    1  A    between atoms: C_1  and  O_2 
REMARK    2  A    between atoms: O_2  and  C_3 
REMARK    3  A    between atoms: C_3  and  C_5 
REMARK    4  A    between atoms: C_5  and  C_6 
REMARK    5  A    between atoms: C_9  and  O_13 
ROOT
ATOM      1  C   LIG d   1       3.306  -0.139  -5.741  0.00  0.00    -0.035 A 
ATOM      2  C   LIG d   1       2.540   0.442  -4.748  0.00  0.00    -0.054 A 
ATOM      3  C   LIG d   1       2.929   0.343  -3.426  0.00  0.00    -0.019 A 
ATOM      4  C   LIG d   1       4.084  -0.351  -3.094  0.00  0.00     0.131 A 
ATOM      5  C   LIG d   1       4.849  -0.938  -4.092  0.00  0.00     0.059 A 
ATOM      6  C   LIG d   1       4.457  -0.832  -5.414  0.00  0.00    -0.041 A 
ATOM      7 BR   LIG d   1       6.424  -1.884  -3.646  0.00  0.00    -0.046 Br
ATOM      8  H   LIG d   1       1.639   0.979  -5.006  0.00  0.00     0.062 H 
ATOM      9  H   LIG d   1       2.333   0.801  -2.651  0.00  0.00     0.065 H 
ATOM     10  H   LIG d   1       5.052  -1.288  -6.191  0.00  0.00     0.063 H 
ENDROOT
BRANCH   1  11
ATOM     11  C   LIG d   1       2.882  -0.024  -7.182  0.00  0.00     0.070 C 
ATOM     12  H   LIG d   1       3.237  -0.893  -7.736  0.00  0.00     0.043 H 
ATOM     13  H   LIG d   1       1.794   0.023  -7.239  0.00  0.00     0.043 H 
BRANCH  11  14
ATOM     14  C   LIG d   1       3.470   1.227  -7.782  0.00  0.00     0.311 C 
ATOM     15  O   LIG d   1       2.797   2.226  -7.875  0.00  0.00    -0.251 OA
BRANCH  14  16
ATOM     16  O   LIG d   1       4.742   1.234  -8.211  0.00  0.00    -0.468 OA
BRANCH  16  17
ATOM     17  C   LIG d   1       5.088   2.203  -9.236  0.00  0.00     0.082 C 
ATOM     18  H   LIG d   1       4.685   1.877 -10.194  0.00  0.00     0.066 H 
ATOM     19  H   LIG d   1       4.664   3.173  -8.975  0.00  0.00     0.066 H 
ATOM     20  H   LIG d   1       6.172   2.286  -9.306  0.00  0.00     0.066 H 
ENDBRANCH  16  17
ENDBRANCH  14  16
ENDBRANCH  11  14
ENDBRANCH   1  11
BRANCH   4  21
ATOM     21  O   LIG d   1       4.465  -0.455  -1.794  0.00  0.00    -0.506 OA
ATOM     22  H   LIG d   1       5.378  -0.748  -1.674  0.00  0.00     0.292 HD
ENDBRANCH   4  21
TORSDOF 5
ENDMDL
MODEL 6
REMARK VINA RESULT:      -4.5      2.826      3.976
REMARK  5 active torsions:
REMARK  status: ('A' for Active; 'I' for Inactive)
REMARK    1  A    between atoms: C_1  and  O_2 
REMARK    2  A    between atoms: O_2  and  C_3 
REMARK    3  A    between atoms: C_3  and  C_5 
REMARK    4  A    between atoms: C_5  and  C_6 
REMARK    5  A    between atoms: C_9  and  O_13 
ROOT
ATOM      1  C   LIG d   1       4.096  -0.326  -4.276  0.00  0.00    -0.035 A 
ATOM      2  C   LIG d   1       2.908   0.367  -4.411  0.00  0.00    -0.054 A 
ATOM      3  C   LIG d   1       2.336   0.524  -5.658  0.00  0.00    -0.019 A 
ATOM      4  C   LIG d   1       2.960  -0.005  -6.779  0.00  0.00     0.131 A 
ATOM      5  C   LIG d   1       4.156  -0.697  -6.642  0.00  0.00     0.059 A 
ATOM      6  C   LIG d   1       4.721  -0.855  -5.391  0.00  0.00    -0.041 A 
ATOM      7 BR   LIG d   1       5.011  -1.421  -8.165  0.00  0.00    -0.046 Br
ATOM      8  H   LIG d   1       2.424   0.783  -3.539  0.00  0.00     0.062 H 
ATOM      9  H   LIG d   1       1.405   1.063  -5.763  0.00  0.00     0.065 H 
ATOM     10  H   LIG d   1       5.652  -1.393  -5.283  0.00  0.00     0.063 H 
ENDROOT
BRANCH   1  11
ATOM     11  C   LIG d   1       4.715  -0.500  -2.914  0.00  0.00     0.070 C 
ATOM     12  H   LIG d   1       3.981  -0.935  -2.234  0.00  0.00     0.043 H 
ATOM     13  H   LIG d   1       5.578  -1.163  -2.988  0.00  0.00     0.043 H 
BRANCH  11  14
ATOM     14  C   LIG d   1       5.156   0.840  -2.385  0.00  0.00     0.311 C 
ATOM     15  O   LIG d   1       4.813   1.196  -1.282  0.00  0.00    -0.251 OA
BRANCH  14  16
ATOM     16  O   LIG d   1       5.929   1.638  -3.138  0.00  0.00    -0.468 OA
BRANCH  16  17
ATOM     17  C   LIG d   1       7.226   1.117  -3.533  0.00  0.00     0.082 C 
ATOM     18  H   LIG d   1       7.266   0.048  -3.327  0.00  0.00     0.066 H 
ATOM     19  H   LIG d   1       7.376   1.288  -4.599  0.00  0.00     0.066 H 
ATOM     20  H   LIG d   1       8.008   1.626  -2.970  0.00  0.00     0.066 H 
ENDBRANCH  16  17
ENDBRANCH  14  16
ENDBRANCH  11  14
ENDBRANCH   1  11
BRANCH   4  21
ATOM     21  O   LIG d   1       2.402   0.153  -8.008  0.00  0.00    -0.506 OA
ATOM     22  H   LIG d   1       1.719  -0.498  -8.216  0.00  0.00     0.292 HD
ENDBRANCH   4  21
TORSDOF 5
ENDMDL
MODEL 7
REMARK VINA RESULT:      -4.3      2.310      4.794
REMARK  5 active torsions:
REMARK  status: ('A' for Active; 'I' for Inactive)
REMARK    1  A    between atoms: C_1  and  O_2 
REMARK    2  A    between atoms: O_2  and  C_3 
REMARK    3  A    between atoms: C_3  and  C_5 
REMARK    4  A    between atoms: C_5  and  C_6 
REMARK    5  A    between atoms: C_9  and  O_13 
ROOT
ATOM      1  C   LIG d   1       4.402  -2.141  -3.660  0.00  0.00    -0.035 A 
ATOM      2  C   LIG d   1       4.717  -1.840  -2.348  0.00  0.00    -0.054 A 
ATOM      3  C   LIG d   1       4.348  -0.623  -1.809  0.00  0.00    -0.019 A 
ATOM      4  C   LIG d   1       3.671   0.303  -2.589  0.00  0.00     0.131 A 
ATOM      5  C   LIG d   1       3.360   0.001  -3.908  0.00  0.00     0.059 A 
ATOM      6  C   LIG d   1       3.727  -1.221  -4.440  0.00  0.00    -0.041 A 
ATOM      7 BR   LIG d   1       2.436   1.259  -4.975  0.00  0.00    -0.046 Br
ATOM      8  H   LIG d   1       5.248  -2.560  -1.742  0.00  0.00     0.062 H 
ATOM      9  H   LIG d   1       4.591  -0.390  -0.783  0.00  0.00     0.065 H 
ATOM     10  H   LIG d   1       3.486  -1.456  -5.466  0.00  0.00     0.063 H 
ENDROOT
BRANCH   1  11
ATOM     11  C   LIG d   1       4.801  -3.472  -4.243  0.00  0.00     0.070 C 
ATOM     12  H   LIG d   1       5.434  -4.005  -3.533  0.00  0.00     0.043 H 
ATOM     13  H   LIG d   1       3.907  -4.063  -4.446  0.00  0.00     0.043 H 
BRANCH  11  14
ATOM     14  C   LIG d   1       5.559  -3.253  -5.527  0.00  0.00     0.311 C 
ATOM     15  O   LIG d   1       6.643  -2.719  -5.504  0.00  0.00    -0.251 OA
BRANCH  14  16
ATOM     16  O   LIG d   1       5.033  -3.652  -6.695  0.00  0.00    -0.468 OA
BRANCH  16  17
ATOM     17  C   LIG d   1       4.041  -4.713  -6.643  0.00  0.00     0.082 C 
ATOM     18  H   LIG d   1       3.488  -4.737  -7.581  0.00  0.00     0.066 H 
ATOM     19  H   LIG d   1       4.542  -5.669  -6.491  0.00  0.00     0.066 H 
ATOM     20  H   LIG d   1       3.353  -4.527  -5.819  0.00  0.00     0.066 H 
ENDBRANCH  16  17
ENDBRANCH  14  16
ENDBRANCH  11  14
ENDBRANCH   1  11
BRANCH   4  21
ATOM     21  O   LIG d   1       3.312   1.504  -2.063  0.00  0.00    -0.506 OA
ATOM     22  H   LIG d   1       3.318   2.230  -2.700  0.00  0.00     0.292 HD
ENDBRANCH   4  21
TORSDOF 5
ENDMDL
MODEL 8
REMARK VINA RESULT:      -4.3      3.020      5.191
REMARK  5 active torsions:
REMARK  status: ('A' for Active; 'I' for Inactive)
REMARK    1  A    between atoms: C_1  and  O_2 
REMARK    2  A    between atoms: O_2  and  C_3 
REMARK    3  A    between atoms: C_3  and  C_5 
REMARK    4  A    between atoms: C_5  and  C_6 
REMARK    5  A    between atoms: C_9  and  O_13 
ROOT
ATOM      1  C   LIG d   1       5.000  -3.030  -5.526  0.00  0.00    -0.035 A 
ATOM      2  C   LIG d   1       4.720  -2.080  -6.490  0.00  0.00    -0.054 A 
ATOM      3  C   LIG d   1       4.327  -0.809  -6.116  0.00  0.00    -0.019 A 
ATOM      4  C   LIG d   1       4.203  -0.490  -4.771  0.00  0.00     0.131 A 
ATOM      5  C   LIG d   1       4.480  -1.447  -3.805  0.00  0.00     0.059 A 
ATOM      6  C   LIG d   1       4.877  -2.716  -4.185  0.00  0.00    -0.041 A 
ATOM      7 BR   LIG d   1       4.313  -1.018  -1.971  0.00  0.00    -0.046 Br
ATOM      8  H   LIG d   1       4.812  -2.329  -7.537  0.00  0.00     0.062 H 
ATOM      9  H   LIG d   1       4.113  -0.066  -6.869  0.00  0.00     0.065 H 
ATOM     10  H   LIG d   1       5.092  -3.461  -3.434  0.00  0.00     0.063 H 
ENDROOT
BRANCH   1  11
ATOM     11  C   LIG d   1       5.434  -4.413  -5.937  0.00  0.00     0.070 C 
ATOM     12  H   LIG d   1       5.831  -4.383  -6.952  0.00  0.00     0.043 H 
ATOM     13  H   LIG d   1       6.206  -4.770  -5.256  0.00  0.00     0.043 H 
BRANCH  11  14
ATOM     14  C   LIG d   1       4.252  -5.347  -5.888  0.00  0.00     0.311 C 
ATOM     15  O   LIG d   1       4.187  -6.194  -5.028  0.00  0.00    -0.251 OA
BRANCH  14  16
ATOM     16  O   LIG d   1       3.271  -5.238  -6.797  0.00  0.00    -0.468 OA
BRANCH  16  17
ATOM     17  C   LIG d   1       3.657  -5.304  -8.196  0.00  0.00     0.082 C 
ATOM     18  H   LIG d   1       2.831  -5.704  -8.782  0.00  0.00     0.066 H 
ATOM     19  H   LIG d   1       3.904  -4.303  -8.551  0.00  0.00     0.066 H 
ATOM     20  H   LIG d   1       4.526  -5.952  -8.302  0.00  0.00     0.066 H 
ENDBRANCH  16  17
ENDBRANCH  14  16
ENDBRANCH  11  14
ENDBRANCH   1  11
BRANCH   4  21
ATOM     21  O   LIG d   1       3.811   0.758  -4.401  0.00  0.00    -0.506 OA
ATOM     22  H   LIG d   1       3.146   1.149  -4.982  0.00  0.00     0.292 HD
ENDBRANCH   4  21
TORSDOF 5
ENDMDL
MODEL 9
REMARK VINA RESULT:      -4.2      3.828      4.881
REMARK  5 active torsions:
REMARK  status: ('A' for Active; 'I' for Inactive)
REMARK    1  A    between atoms: C_1  and  O_2 
REMARK    2  A    between atoms: O_2  and  C_3 
REMARK    3  A    between atoms: C_3  and  C_5 
REMARK    4  A    between atoms: C_5  and  C_6 
REMARK    5  A    between atoms: C_9  and  O_13 
ROOT
ATOM      1  C   LIG d   1       3.429  -0.302  -6.920  0.00  0.00    -0.035 A 
ATOM      2  C   LIG d   1       4.487  -1.174  -7.097  0.00  0.00    -0.054 A 
ATOM      3  C   LIG d   1       5.177  -1.656  -6.003  0.00  0.00    -0.019 A 
ATOM      4  C   LIG d   1       4.816  -1.256  -4.724  0.00  0.00     0.131 A 
ATOM      5  C   LIG d   1       3.757  -0.376  -4.549  0.00  0.00     0.059 A 
ATOM      6  C   LIG d   1       3.067   0.099  -5.648  0.00  0.00    -0.041 A 
ATOM      7 BR   LIG d   1       3.260   0.172  -2.809  0.00  0.00    -0.046 Br
ATOM      8  H   LIG d   1       4.771  -1.483  -8.093  0.00  0.00     0.062 H 
ATOM      9  H   LIG d   1       6.001  -2.341  -6.141  0.00  0.00     0.065 H 
ATOM     10  H   LIG d   1       2.242   0.784  -5.512  0.00  0.00     0.063 H 
ENDROOT
BRANCH   1  11
ATOM     11  C   LIG d   1       2.675   0.217  -8.116  0.00  0.00     0.070 C 
ATOM     12  H   LIG d   1       2.762  -0.493  -8.938  0.00  0.00     0.043 H 
ATOM     13  H   LIG d   1       1.623   0.344  -7.856  0.00  0.00     0.043 H 
BRANCH  11  14
ATOM     14  C   LIG d   1       3.250   1.545  -8.537  0.00  0.00     0.311 C 
ATOM     15  O   LIG d   1       2.844   2.566  -8.033  0.00  0.00    -0.251 OA
BRANCH  14  16
ATOM     16  O   LIG d   1       4.213   1.595  -9.470  0.00  0.00    -0.468 OA
BRANCH  16  17
ATOM     17  C   LIG d   1       3.865   1.136 -10.803  0.00  0.00     0.082 C 
ATOM     18  H   LIG d   1       3.197   0.278 -10.728  0.00  0.00     0.066 H 
ATOM     19  H   LIG d   1       3.365   1.939 -11.344  0.00  0.00     0.066 H 
ATOM     20  H   LIG d   1       4.770   0.846 -11.335  0.00  0.00     0.066 H 
ENDBRANCH  16  17
ENDBRANCH  14  16
ENDBRANCH  11  14
ENDBRANCH   1  11
BRANCH   4  21
ATOM     21  O   LIG d   1       5.498  -1.724  -3.646  0.00  0.00    -0.506 OA
ATOM     22  H   LIG d   1       5.561  -2.688  -3.609  0.00  0.00     0.292 HD
ENDBRANCH   4  21
TORSDOF 5
ENDMDL
