MODEL 1
REMARK VINA RESULT:      -6.1      0.000      0.000
REMARK  9 active torsions:
REMARK  status: ('A' for Active; 'I' for Inactive)
REMARK    1  A    between atoms: C_1  and  N_2 
REMARK    2  A    between atoms: N_5  and  C_8 
REMARK    3  A    between atoms: C_10  and  C_20 
REMARK    4  A    between atoms: C_13  and  C_18 
REMARK    5  A    between atoms: C_15  and  O_17 
REMARK    6  A    between atoms: C_18  and  O_19 
REMARK    7  A    between atoms: C_20  and  N_21 
REMARK    8  A    between atoms: N_21  and  C_22 
REMARK    9  A    between atoms: C_22  and  C_23 
ROOT
ATOM      1  C   LIG d   1       5.610  -3.295  -7.911  0.00  0.00     0.070 C 
ATOM      2  H   LIG d   1       6.165  -3.211  -8.857  0.00  0.00     0.052 H 
ATOM      3  C   LIG d   1       6.513  -3.357  -6.664  0.00  0.00     0.117 C 
ATOM      4  H   LIG d   1       7.579  -3.467  -6.915  0.00  0.00     0.067 H 
ATOM      5  O   LIG d   1       6.130  -4.522  -5.916  0.00  0.00    -0.362 OA
ATOM      6  C   LIG d   1       5.566  -5.461  -6.856  0.00  0.00     0.110 C 
ATOM      7  H   LIG d   1       6.371  -6.029  -7.346  0.00  0.00     0.065 H 
ATOM      8  C   LIG d   1       4.730  -4.563  -7.805  0.00  0.00     0.102 C 
ATOM      9  H   LIG d   1       4.429  -5.021  -8.760  0.00  0.00     0.064 H 
ENDROOT
BRANCH   3  10
ATOM     10  C   LIG d   1       6.315  -2.100  -5.814  0.00  0.00    -0.005 C 
ATOM     11  H   LIG d   1       6.182  -1.229  -6.473  0.00  0.00     0.084 H 
ATOM     12  H   LIG d   1       5.422  -2.222  -5.183  0.00  0.00     0.084 H 
BRANCH  10  13
ATOM     13  N   LIG d   1       7.492  -1.895  -4.960  0.00  0.00     0.232 N 
ATOM     14  H   LIG d   1       8.288  -2.593  -5.259  0.00  0.00     0.202 HD
ATOM     15  H   LIG d   1       7.850  -0.861  -5.072  0.00  0.00     0.202 HD
BRANCH  13  16
ATOM     16  C   LIG d   1       7.165  -2.130  -3.548  0.00  0.00    -0.008 C 
ATOM     17  H   LIG d   1       6.749  -3.142  -3.431  0.00  0.00     0.087 H 
ATOM     18  H   LIG d   1       8.077  -2.036  -2.940  0.00  0.00     0.087 H 
BRANCH  16  19
ATOM     19  C   LIG d   1       6.150  -1.113  -3.091  0.00  0.00    -0.003 A 
ATOM     20  C   LIG d   1       6.404   0.236  -3.253  0.00  0.00    -0.051 A 
ATOM     21  C   LIG d   1       5.473   1.169  -2.835  0.00  0.00    -0.026 A 
ATOM     22  H   LIG d   1       7.328   0.562  -3.707  0.00  0.00     0.062 H 
ATOM     23  C   LIG d   1       4.289   0.752  -2.253  0.00  0.00     0.123 A 
ATOM     24  H   LIG d   1       5.672   2.223  -2.962  0.00  0.00     0.065 H 
ATOM     25  C   LIG d   1       4.037  -0.600  -2.090  0.00  0.00    -0.026 A 
ATOM     26  F   LIG d   1       3.379   1.662  -1.844  0.00  0.00    -0.205 F 
ATOM     27  C   LIG d   1       4.965  -1.531  -2.515  0.00  0.00    -0.051 A 
ATOM     28  H   LIG d   1       3.113  -0.927  -1.637  0.00  0.00     0.065 H 
ATOM     29  H   LIG d   1       4.767  -2.586  -2.394  0.00  0.00     0.062 H 
ENDBRANCH  16  19
ENDBRANCH  13  16
ENDBRANCH  10  13
ENDBRANCH   3  10
BRANCH   1  30
ATOM     30  N   LIG d   1       4.775  -2.086  -7.881  0.00  0.00    -0.284 N 
ATOM     31  C   LIG d   1       5.558  -0.897  -8.248  0.00  0.00     0.040 C 
ATOM     32  C   LIG d   1       4.675   0.348  -8.127  0.00  0.00    -0.019 C 
ATOM     33  H   LIG d   1       5.914  -0.996  -9.283  0.00  0.00     0.048 H 
ATOM     34  H   LIG d   1       6.420  -0.802  -7.570  0.00  0.00     0.048 H 
ATOM     35  N   LIG d   1       3.504   0.200  -9.003  0.00  0.00     0.235 N 
ATOM     36  H   LIG d   1       5.250   1.236  -8.429  0.00  0.00     0.083 H 
ATOM     37  H   LIG d   1       4.341   0.463  -7.086  0.00  0.00     0.083 H 
ATOM     38  C   LIG d   1       2.722  -0.988  -8.638  0.00  0.00    -0.019 C 
ATOM     39  H   LIG d   1       3.865   0.066 -10.034  0.00  0.00     0.203 HD
ATOM     40  C   LIG d   1       3.605  -2.233  -8.758  0.00  0.00     0.040 C 
ATOM     41  H   LIG d   1       2.366  -0.889  -7.602  0.00  0.00     0.083 H 
ATOM     42  H   LIG d   1       1.860  -1.083  -9.315  0.00  0.00     0.083 H 
ATOM     43  H   LIG d   1       3.939  -2.348  -9.799  0.00  0.00     0.048 H 
ATOM     44  H   LIG d   1       3.031  -3.122  -8.456  0.00  0.00     0.048 H 
BRANCH  35  45
ATOM     45  C   LIG d   1       2.670   1.409  -8.975  0.00  0.00    -0.043 C 
ATOM     46  H   LIG d   1       3.306   2.298  -9.095  0.00  0.00     0.078 H 
ATOM     47  H   LIG d   1       2.140   1.466  -8.012  0.00  0.00     0.078 H 
ATOM     48  H   LIG d   1       1.938   1.369  -9.794  0.00  0.00     0.078 H 
ENDBRANCH  35  45
ENDBRANCH   1  30
BRANCH   8  49
ATOM     49  O   LIG d   1       3.459  -4.257  -7.227  0.00  0.00    -0.388 OA
ATOM     50  H   LIG d   1       3.141  -3.209  -7.123  0.00  0.00     0.210 HD
ENDBRANCH   8  49
BRANCH   6  51
ATOM     51  C   LIG d   1       4.668  -6.470  -6.139  0.00  0.00     0.073 C 
ATOM     52  H   LIG d   1       3.916  -6.857  -6.843  0.00  0.00     0.058 H 
ATOM     53  H   LIG d   1       5.280  -7.303  -5.761  0.00  0.00     0.058 H 
BRANCH  51  54
ATOM     54  O   LIG d   1       4.010  -5.828  -5.045  0.00  0.00    -0.392 OA
ATOM     55  H   LIG d   1       2.947  -6.032  -4.846  0.00  0.00     0.209 HD
ENDBRANCH  51  54
ENDBRANCH   6  51
TORSDOF 9
ENDMDL
MODEL 2
REMARK VINA RESULT:      -6.0      3.803      5.189
REMARK  9 active torsions:
REMARK  status: ('A' for Active; 'I' for Inactive)
REMARK    1  A    between atoms: C_1  and  N_2 
REMARK    2  A    between atoms: N_5  and  C_8 
REMARK    3  A    between atoms: C_10  and  C_20 
REMARK    4  A    between atoms: C_13  and  C_18 
REMARK    5  A    between atoms: C_15  and  O_17 
REMARK    6  A    between atoms: C_18  and  O_19 
REMARK    7  A    between atoms: C_20  and  N_21 
REMARK    8  A    between atoms: N_21  and  C_22 
REMARK    9  A    between atoms: C_22  and  C_23 
ROOT
ATOM      1  C   LIG d   1       3.175   0.650 -10.164  0.00  0.00     0.070 C 
ATOM      2  H   LIG d   1       2.503   1.093 -10.914  0.00  0.00     0.052 H 
ATOM      3  C   LIG d   1       2.891   1.118  -8.723  0.00  0.00     0.117 C 
ATOM      4  H   LIG d   1       2.165   1.943  -8.679  0.00  0.00     0.067 H 
ATOM      5  O   LIG d   1       4.128   1.609  -8.183  0.00  0.00    -0.362 OA
ATOM      6  C   LIG d   1       4.929   2.057  -9.298  0.00  0.00     0.110 C 
ATOM      7  H   LIG d   1       4.636   3.079  -9.583  0.00  0.00     0.065 H 
ATOM      8  C   LIG d   1       4.671   0.979 -10.382  0.00  0.00     0.102 C 
ATOM      9  H   LIG d   1       4.958   1.250 -11.410  0.00  0.00     0.064 H 
ENDROOT
BRANCH   3  10
ATOM     10  C   LIG d   1       2.384  -0.056  -7.885  0.00  0.00    -0.005 C 
ATOM     11  H   LIG d   1       1.321   0.098  -7.642  0.00  0.00     0.084 H 
ATOM     12  H   LIG d   1       2.497  -0.990  -8.455  0.00  0.00     0.084 H 
BRANCH  10  13
ATOM     13  N   LIG d   1       3.163  -0.145  -6.643  0.00  0.00     0.232 N 
ATOM     14  H   LIG d   1       3.382  -1.199  -6.421  0.00  0.00     0.202 HD
ATOM     15  H   LIG d   1       4.107   0.408  -6.763  0.00  0.00     0.202 HD
BRANCH  13  16
ATOM     16  C   LIG d   1       2.420   0.430  -5.514  0.00  0.00    -0.008 C 
ATOM     17  H   LIG d   1       2.424   1.527  -5.593  0.00  0.00     0.087 H 
ATOM     18  H   LIG d   1       1.383   0.065  -5.533  0.00  0.00     0.087 H 
BRANCH  16  19
ATOM     19  C   LIG d   1       3.075   0.018  -4.219  0.00  0.00    -0.003 A 
ATOM     20  C   LIG d   1       3.226  -1.323  -3.920  0.00  0.00    -0.051 A 
ATOM     21  C   LIG d   1       3.827  -1.702  -2.733  0.00  0.00    -0.026 A 
ATOM     22  H   LIG d   1       2.876  -2.075  -4.611  0.00  0.00     0.062 H 
ATOM     23  C   LIG d   1       4.274  -0.739  -1.846  0.00  0.00     0.123 A 
ATOM     24  H   LIG d   1       3.944  -2.750  -2.499  0.00  0.00     0.065 H 
ATOM     25  C   LIG d   1       4.122   0.604  -2.148  0.00  0.00    -0.026 A 
ATOM     26  F   LIG d   1       4.862  -1.108  -0.687  0.00  0.00    -0.205 F 
ATOM     27  C   LIG d   1       3.527   0.981  -3.337  0.00  0.00    -0.051 A 
ATOM     28  H   LIG d   1       4.472   1.356  -1.457  0.00  0.00     0.065 H 
ATOM     29  H   LIG d   1       3.413   2.028  -3.576  0.00  0.00     0.062 H 
ENDBRANCH  16  19
ENDBRANCH  13  16
ENDBRANCH  10  13
ENDBRANCH   3  10
BRANCH   1  30
ATOM     30  N   LIG d   1       2.943  -0.795 -10.290  0.00  0.00    -0.284 N 
ATOM     31  C   LIG d   1       1.504  -1.101 -10.275  0.00  0.00     0.040 C 
ATOM     32  C   LIG d   1       1.308  -2.618 -10.327  0.00  0.00    -0.019 C 
ATOM     33  H   LIG d   1       1.021  -0.638 -11.146  0.00  0.00     0.048 H 
ATOM     34  H   LIG d   1       1.055  -0.704  -9.352  0.00  0.00     0.048 H 
ATOM     35  N   LIG d   1       1.944  -3.149 -11.541  0.00  0.00     0.235 N 
ATOM     36  H   LIG d   1       0.233  -2.848 -10.345  0.00  0.00     0.083 H 
ATOM     37  H   LIG d   1       1.767  -3.079  -9.441  0.00  0.00     0.083 H 
ATOM     38  C   LIG d   1       3.380  -2.844 -11.557  0.00  0.00    -0.019 C 
ATOM     39  H   LIG d   1       1.482  -2.657 -12.410  0.00  0.00     0.203 HD
ATOM     40  C   LIG d   1       3.577  -1.326 -11.504  0.00  0.00     0.040 C 
ATOM     41  H   LIG d   1       3.863  -3.308 -10.684  0.00  0.00     0.083 H 
ATOM     42  H   LIG d   1       3.829  -3.241 -12.479  0.00  0.00     0.083 H 
ATOM     43  H   LIG d   1       3.118  -0.866 -12.390  0.00  0.00     0.048 H 
ATOM     44  H   LIG d   1       4.652  -1.096 -11.486  0.00  0.00     0.048 H 
BRANCH  35  45
ATOM     45  C   LIG d   1       1.710  -4.594 -11.668  0.00  0.00    -0.043 C 
ATOM     46  H   LIG d   1       0.705  -4.839 -11.294  0.00  0.00     0.078 H 
ATOM     47  H   LIG d   1       2.462  -5.140 -11.078  0.00  0.00     0.078 H 
ATOM     48  H   LIG d   1       1.790  -4.887 -12.724  0.00  0.00     0.078 H 
ENDBRANCH  35  45
ENDBRANCH   1  30
BRANCH   8  49
ATOM     49  O   LIG d   1       5.485  -0.174 -10.158  0.00  0.00    -0.388 OA
ATOM     50  H   LIG d   1       6.028  -0.288  -9.208  0.00  0.00     0.210 HD
ENDBRANCH   8  49
BRANCH   6  51
ATOM     51  C   LIG d   1       6.410   2.096  -8.919  0.00  0.00     0.073 C 
ATOM     52  H   LIG d   1       7.006   1.635  -9.719  0.00  0.00     0.058 H 
ATOM     53  H   LIG d   1       6.726   3.142  -8.781  0.00  0.00     0.058 H 
BRANCH  51  54
ATOM     54  O   LIG d   1       6.608   1.375  -7.701  0.00  0.00    -0.392 OA
ATOM     55  H   LIG d   1       6.584   0.275  -7.703  0.00  0.00     0.209 HD
ENDBRANCH  51  54
ENDBRANCH   6  51
TORSDOF 9
ENDMDL
MODEL 3
REMARK VINA RESULT:      -6.0      2.221      4.542
REMARK  9 active torsions:
REMARK  status: ('A' for Active; 'I' for Inactive)
REMARK    1  A    between atoms: C_1  and  N_2 
REMARK    2  A    between atoms: N_5  and  C_8 
REMARK    3  A    between atoms: C_10  and  C_20 
REMARK    4  A    between atoms: C_13  and  C_18 
REMARK    5  A    between atoms: C_15  and  O_17 
REMARK    6  A    between atoms: C_18  and  O_19 
REMARK    7  A    between atoms: C_20  and  N_21 
REMARK    8  A    between atoms: N_21  and  C_22 
REMARK    9  A    between atoms: C_22  and  C_23 
ROOT
ATOM      1  C   LIG d   1       5.986  -1.462  -8.015  0.00  0.00     0.070 C 
ATOM      2  H   LIG d   1       6.558  -1.488  -8.954  0.00  0.00     0.052 H 
ATOM      3  C   LIG d   1       4.832  -2.482  -7.963  0.00  0.00     0.117 C 
ATOM      4  H   LIG d   1       4.654  -2.973  -8.931  0.00  0.00     0.067 H 
ATOM      5  O   LIG d   1       3.637  -1.759  -7.626  0.00  0.00    -0.362 OA
ATOM      6  C   LIG d   1       3.823  -0.401  -8.080  0.00  0.00     0.110 C 
ATOM      7  H   LIG d   1       3.578  -0.327  -9.150  0.00  0.00     0.065 H 
ATOM      8  C   LIG d   1       5.304  -0.103  -7.727  0.00  0.00     0.102 C 
ATOM      9  H   LIG d   1       5.750   0.773  -8.223  0.00  0.00     0.064 H 
ENDROOT
BRANCH   3  10
ATOM     10  C   LIG d   1       5.120  -3.541  -6.897  0.00  0.00    -0.005 C 
ATOM     11  H   LIG d   1       4.950  -4.543  -7.319  0.00  0.00     0.084 H 
ATOM     12  H   LIG d   1       6.167  -3.455  -6.568  0.00  0.00     0.084 H 
BRANCH  10  13
ATOM     13  N   LIG d   1       4.228  -3.335  -5.748  0.00  0.00     0.232 N 
ATOM     14  H   LIG d   1       3.819  -2.315  -5.780  0.00  0.00     0.202 HD
ATOM     15  H   LIG d   1       3.404  -4.063  -5.789  0.00  0.00     0.202 HD
BRANCH  13  16
ATOM     16  C   LIG d   1       4.951  -3.514  -4.482  0.00  0.00    -0.008 C 
ATOM     17  H   LIG d   1       4.515  -4.357  -3.926  0.00  0.00     0.087 H 
ATOM     18  H   LIG d   1       6.011  -3.722  -4.691  0.00  0.00     0.087 H 
BRANCH  16  19
ATOM     19  C   LIG d   1       4.840  -2.257  -3.657  0.00  0.00    -0.003 A 
ATOM     20  C   LIG d   1       3.624  -1.900  -3.105  0.00  0.00    -0.051 A 
ATOM     21  C   LIG d   1       3.520  -0.748  -2.347  0.00  0.00    -0.026 A 
ATOM     22  H   LIG d   1       2.755  -2.522  -3.262  0.00  0.00     0.062 H 
ATOM     23  C   LIG d   1       4.634   0.049  -2.146  0.00  0.00     0.123 A 
ATOM     24  H   LIG d   1       2.570  -0.469  -1.916  0.00  0.00     0.065 H 
ATOM     25  C   LIG d   1       5.851  -0.309  -2.701  0.00  0.00    -0.026 A 
ATOM     26  F   LIG d   1       4.535   1.175  -1.406  0.00  0.00    -0.205 F 
ATOM     27  C   LIG d   1       5.954  -1.465  -3.451  0.00  0.00    -0.051 A 
ATOM     28  H   LIG d   1       6.720   0.312  -2.543  0.00  0.00     0.065 H 
ATOM     29  H   LIG d   1       6.904  -1.748  -3.880  0.00  0.00     0.062 H 
ENDBRANCH  16  19
ENDBRANCH  13  16
ENDBRANCH  10  13
ENDBRANCH   3  10
BRANCH   1  30
ATOM     30  N   LIG d   1       6.985  -1.764  -6.982  0.00  0.00    -0.284 N 
ATOM     31  C   LIG d   1       7.768  -2.957  -7.339  0.00  0.00     0.040 C 
ATOM     32  C   LIG d   1       8.741  -3.284  -6.204  0.00  0.00    -0.019 C 
ATOM     33  H   LIG d   1       8.332  -2.763  -8.262  0.00  0.00     0.048 H 
ATOM     34  H   LIG d   1       7.088  -3.808  -7.496  0.00  0.00     0.048 H 
ATOM     35  N   LIG d   1       9.621  -2.130  -5.970  0.00  0.00     0.235 N 
ATOM     36  H   LIG d   1       9.347  -4.158  -6.481  0.00  0.00     0.083 H 
ATOM     37  H   LIG d   1       8.175  -3.505  -5.287  0.00  0.00     0.083 H 
ATOM     38  C   LIG d   1       8.840  -0.938  -5.614  0.00  0.00    -0.019 C 
ATOM     39  H   LIG d   1      10.158  -1.917  -6.906  0.00  0.00     0.203 HD
ATOM     40  C   LIG d   1       7.866  -0.611  -6.749  0.00  0.00     0.040 C 
ATOM     41  H   LIG d   1       8.275  -1.133  -4.690  0.00  0.00     0.083 H 
ATOM     42  H   LIG d   1       9.520  -0.088  -5.456  0.00  0.00     0.083 H 
ATOM     43  H   LIG d   1       8.432  -0.390  -7.666  0.00  0.00     0.048 H 
ATOM     44  H   LIG d   1       7.259   0.263  -6.472  0.00  0.00     0.048 H 
BRANCH  35  45
ATOM     45  C   LIG d   1      10.622  -2.432  -4.938  0.00  0.00    -0.043 C 
ATOM     46  H   LIG d   1      10.119  -2.816  -4.039  0.00  0.00     0.078 H 
ATOM     47  H   LIG d   1      11.175  -1.516  -4.685  0.00  0.00     0.078 H 
ATOM     48  H   LIG d   1      11.323  -3.190  -5.318  0.00  0.00     0.078 H 
ENDBRANCH  35  45
ENDBRANCH   1  30
BRANCH   8  49
ATOM     49  O   LIG d   1       5.437   0.254  -6.350  0.00  0.00    -0.388 OA
ATOM     50  H   LIG d   1       6.060  -0.358  -5.681  0.00  0.00     0.210 HD
ENDBRANCH   8  49
BRANCH   6  51
ATOM     51  C   LIG d   1       2.889   0.552  -7.331  0.00  0.00     0.073 C 
ATOM     52  H   LIG d   1       3.400   1.511  -7.165  0.00  0.00     0.058 H 
ATOM     53  H   LIG d   1       1.980   0.718  -7.928  0.00  0.00     0.058 H 
BRANCH  51  54
ATOM     54  O   LIG d   1       2.533  -0.023  -6.072  0.00  0.00    -0.392 OA
ATOM     55  H   LIG d   1       3.154   0.169  -5.184  0.00  0.00     0.209 HD
ENDBRANCH  51  54
ENDBRANCH   6  51
TORSDOF 9
ENDMDL
MODEL 4
REMARK VINA RESULT:      -5.9      2.877      4.788
REMARK  9 active torsions:
REMARK  status: ('A' for Active; 'I' for Inactive)
REMARK    1  A    between atoms: C_1  and  N_2 
REMARK    2  A    between atoms: N_5  and  C_8 
REMARK    3  A    between atoms: C_10  and  C_20 
REMARK    4  A    between atoms: C_13  and  C_18 
REMARK    5  A    between atoms: C_15  and  O_17 
REMARK    6  A    between atoms: C_18  and  O_19 
REMARK    7  A    between atoms: C_20  and  N_21 
REMARK    8  A    between atoms: N_21  and  C_22 
REMARK    9  A    between atoms: C_22  and  C_23 
ROOT
ATOM      1  C   LIG d   1       2.654  -0.652  -9.103  0.00  0.00     0.070 C 
ATOM      2  H   LIG d   1       1.591  -0.928  -9.040  0.00  0.00     0.052 H 
ATOM      3  C   LIG d   1       3.321  -0.431  -7.731  0.00  0.00     0.117 C 
ATOM      4  H   LIG d   1       2.597  -0.427  -6.902  0.00  0.00     0.067 H 
ATOM      5  O   LIG d   1       3.941   0.865  -7.762  0.00  0.00    -0.362 OA
ATOM      6  C   LIG d   1       3.210   1.661  -8.719  0.00  0.00     0.110 C 
ATOM      7  H   LIG d   1       2.315   2.090  -8.243  0.00  0.00     0.065 H 
ATOM      8  C   LIG d   1       2.921   0.664  -9.871  0.00  0.00     0.102 C 
ATOM      9  H   LIG d   1       2.143   0.969 -10.588  0.00  0.00     0.064 H 
ENDROOT
BRANCH   3  10
ATOM     10  C   LIG d   1       4.376  -1.511  -7.485  0.00  0.00    -0.005 C 
ATOM     11  H   LIG d   1       4.367  -2.230  -8.318  0.00  0.00     0.084 H 
ATOM     12  H   LIG d   1       5.369  -1.043  -7.415  0.00  0.00     0.084 H 
BRANCH  10  13
ATOM     13  N   LIG d   1       4.076  -2.211  -6.229  0.00  0.00     0.232 N 
ATOM     14  H   LIG d   1       3.293  -1.666  -5.683  0.00  0.00     0.202 HD
ATOM     15  H   LIG d   1       3.727  -3.230  -6.452  0.00  0.00     0.202 HD
BRANCH  13  16
ATOM     16  C   LIG d   1       5.270  -2.299  -5.378  0.00  0.00    -0.008 C 
ATOM     17  H   LIG d   1       5.397  -3.334  -5.030  0.00  0.00     0.087 H 
ATOM     18  H   LIG d   1       6.156  -1.995  -5.955  0.00  0.00     0.087 H 
BRANCH  16  19
ATOM     19  C   LIG d   1       5.108  -1.386  -4.189  0.00  0.00    -0.003 A 
ATOM     20  C   LIG d   1       5.658  -0.118  -4.212  0.00  0.00    -0.051 A 
ATOM     21  C   LIG d   1       5.510   0.720  -3.123  0.00  0.00    -0.026 A 
ATOM     22  H   LIG d   1       6.204   0.218  -5.081  0.00  0.00     0.062 H 
ATOM     23  C   LIG d   1       4.811   0.289  -2.009  0.00  0.00     0.123 A 
ATOM     24  H   LIG d   1       5.941   1.710  -3.141  0.00  0.00     0.065 H 
ATOM     25  C   LIG d   1       4.260  -0.982  -1.986  0.00  0.00    -0.026 A 
ATOM     26  F   LIG d   1       4.664   1.107  -0.943  0.00  0.00    -0.205 F 
ATOM     27  C   LIG d   1       4.404  -1.815  -3.080  0.00  0.00    -0.051 A 
ATOM     28  H   LIG d   1       3.714  -1.318  -1.118  0.00  0.00     0.065 H 
ATOM     29  H   LIG d   1       3.970  -2.804  -3.065  0.00  0.00     0.062 H 
ENDBRANCH  16  19
ENDBRANCH  13  16
ENDBRANCH  10  13
ENDBRANCH   3  10
BRANCH   1  30
ATOM     30  N   LIG d   1       3.274  -1.788  -9.798  0.00  0.00    -0.284 N 
ATOM     31  C   LIG d   1       2.698  -3.062  -9.343  0.00  0.00     0.040 C 
ATOM     32  C   LIG d   1       3.424  -4.221 -10.030  0.00  0.00    -0.019 C 
ATOM     33  H   LIG d   1       1.630  -3.095  -9.598  0.00  0.00     0.048 H 
ATOM     34  H   LIG d   1       2.818  -3.150  -8.252  0.00  0.00     0.048 H 
ATOM     35  N   LIG d   1       3.297  -4.079 -11.488  0.00  0.00     0.235 N 
ATOM     36  H   LIG d   1       2.977  -5.174  -9.713  0.00  0.00     0.083 H 
ATOM     37  H   LIG d   1       4.489  -4.205  -9.753  0.00  0.00     0.083 H 
ATOM     38  C   LIG d   1       3.871  -2.806 -11.943  0.00  0.00    -0.019 C 
ATOM     39  H   LIG d   1       2.225  -4.077 -11.736  0.00  0.00     0.203 HD
ATOM     40  C   LIG d   1       3.145  -1.647 -11.255  0.00  0.00     0.040 C 
ATOM     41  H   LIG d   1       4.940  -2.774 -11.687  0.00  0.00     0.083 H 
ATOM     42  H   LIG d   1       3.752  -2.719 -13.033  0.00  0.00     0.083 H 
ATOM     43  H   LIG d   1       2.082  -1.663 -11.533  0.00  0.00     0.048 H 
ATOM     44  H   LIG d   1       3.593  -0.693 -11.572  0.00  0.00     0.048 H 
BRANCH  35  45
ATOM     45  C   LIG d   1       3.915  -5.216 -12.183  0.00  0.00    -0.043 C 
ATOM     46  H   LIG d   1       4.343  -5.910 -11.445  0.00  0.00     0.078 H 
ATOM     47  H   LIG d   1       4.713  -4.849 -12.846  0.00  0.00     0.078 H 
ATOM     48  H   LIG d   1       3.155  -5.738 -12.781  0.00  0.00     0.078 H 
ENDBRANCH  35  45
ENDBRANCH   1  30
BRANCH   8  49
ATOM     49  O   LIG d   1       4.058   0.534 -10.728  0.00  0.00    -0.388 OA
ATOM     50  H   LIG d   1       4.813  -0.239 -10.526  0.00  0.00     0.210 HD
ENDBRANCH   8  49
BRANCH   6  51
ATOM     51  C   LIG d   1       4.065   2.827  -9.217  0.00  0.00     0.073 C 
ATOM     52  H   LIG d   1       3.727   3.128 -10.219  0.00  0.00     0.058 H 
ATOM     53  H   LIG d   1       3.964   3.677  -8.525  0.00  0.00     0.058 H 
BRANCH  51  54
ATOM     54  O   LIG d   1       5.434   2.422  -9.277  0.00  0.00    -0.392 OA
ATOM     55  H   LIG d   1       6.086   2.555  -8.401  0.00  0.00     0.209 HD
ENDBRANCH  51  54
ENDBRANCH   6  51
TORSDOF 9
ENDMDL
MODEL 5
REMARK VINA RESULT:      -5.9      2.770      5.566
REMARK  9 active torsions:
REMARK  status: ('A' for Active; 'I' for Inactive)
REMARK    1  A    between atoms: C_1  and  N_2 
REMARK    2  A    between atoms: N_5  and  C_8 
REMARK    3  A    between atoms: C_10  and  C_20 
REMARK    4  A    between atoms: C_13  and  C_18 
REMARK    5  A    between atoms: C_15  and  O_17 
REMARK    6  A    between atoms: C_18  and  O_19 
REMARK    7  A    between atoms: C_20  and  N_21 
REMARK    8  A    between atoms: N_21  and  C_22 
REMARK    9  A    between atoms: C_22  and  C_23 
ROOT
ATOM      1  C   LIG d   1       6.084  -2.394  -3.865  0.00  0.00     0.070 C 
ATOM      2  H   LIG d   1       6.542  -2.590  -2.885  0.00  0.00     0.052 H 
ATOM      3  C   LIG d   1       4.558  -2.185  -3.808  0.00  0.00     0.117 C 
ATOM      4  H   LIG d   1       4.134  -2.419  -2.820  0.00  0.00     0.067 H 
ATOM      5  O   LIG d   1       3.967  -3.093  -4.751  0.00  0.00    -0.362 OA
ATOM      6  C   LIG d   1       4.874  -4.208  -4.890  0.00  0.00     0.110 C 
ATOM      7  H   LIG d   1       4.706  -4.930  -4.076  0.00  0.00     0.065 H 
ATOM      8  C   LIG d   1       6.272  -3.538  -4.890  0.00  0.00     0.102 C 
ATOM      9  H   LIG d   1       7.127  -4.207  -4.711  0.00  0.00     0.064 H 
ENDROOT
BRANCH   3  10
ATOM     10  C   LIG d   1       4.215  -0.743  -4.184  0.00  0.00    -0.005 C 
ATOM     11  H   LIG d   1       3.903  -0.193  -3.284  0.00  0.00     0.084 H 
ATOM     12  H   LIG d   1       5.101  -0.258  -4.621  0.00  0.00     0.084 H 
BRANCH  10  13
ATOM     13  N   LIG d   1       3.122  -0.739  -5.165  0.00  0.00     0.232 N 
ATOM     14  H   LIG d   1       3.363  -1.431  -5.985  0.00  0.00     0.202 HD
ATOM     15  H   LIG d   1       2.190  -1.060  -4.676  0.00  0.00     0.202 HD
BRANCH  13  16
ATOM     16  C   LIG d   1       2.922   0.604  -5.725  0.00  0.00    -0.008 C 
ATOM     17  H   LIG d   1       1.947   0.996  -5.398  0.00  0.00     0.087 H 
ATOM     18  H   LIG d   1       3.722   1.271  -5.372  0.00  0.00     0.087 H 
BRANCH  16  19
ATOM     19  C   LIG d   1       2.955   0.531  -7.230  0.00  0.00    -0.003 A 
ATOM     20  C   LIG d   1       3.040  -0.697  -7.860  0.00  0.00    -0.051 A 
ATOM     21  C   LIG d   1       3.070  -0.765  -9.241  0.00  0.00    -0.026 A 
ATOM     22  H   LIG d   1       3.083  -1.603  -7.274  0.00  0.00     0.062 H 
ATOM     23  C   LIG d   1       3.016   0.397  -9.991  0.00  0.00     0.123 A 
ATOM     24  H   LIG d   1       3.137  -1.724  -9.732  0.00  0.00     0.065 H 
ATOM     25  C   LIG d   1       2.931   1.626  -9.359  0.00  0.00    -0.026 A 
ATOM     26  F   LIG d   1       3.045   0.332 -11.341  0.00  0.00    -0.205 F 
ATOM     27  C   LIG d   1       2.894   1.691  -7.979  0.00  0.00    -0.051 A 
ATOM     28  H   LIG d   1       2.888   2.532  -9.944  0.00  0.00     0.065 H 
ATOM     29  H   LIG d   1       2.823   2.649  -7.485  0.00  0.00     0.062 H 
ENDBRANCH  16  19
ENDBRANCH  13  16
ENDBRANCH  10  13
ENDBRANCH   3  10
BRANCH   1  30
ATOM     30  N   LIG d   1       6.752  -1.172  -4.331  0.00  0.00    -0.284 N 
ATOM     31  C   LIG d   1       6.753  -0.140  -3.283  0.00  0.00     0.040 C 
ATOM     32  C   LIG d   1       7.386   1.141  -3.833  0.00  0.00    -0.019 C 
ATOM     33  H   LIG d   1       7.333  -0.494  -2.419  0.00  0.00     0.048 H 
ATOM     34  H   LIG d   1       5.719   0.067  -2.971  0.00  0.00     0.048 H 
ATOM     35  N   LIG d   1       8.754   0.852  -4.286  0.00  0.00     0.235 N 
ATOM     36  H   LIG d   1       7.414   1.905  -3.043  0.00  0.00     0.083 H 
ATOM     37  H   LIG d   1       6.790   1.511  -4.680  0.00  0.00     0.083 H 
ATOM     38  C   LIG d   1       8.754  -0.179  -5.332  0.00  0.00    -0.019 C 
ATOM     39  H   LIG d   1       9.322   0.465  -3.426  0.00  0.00     0.203 HD
ATOM     40  C   LIG d   1       8.121  -1.460  -4.782  0.00  0.00     0.040 C 
ATOM     41  H   LIG d   1       8.173   0.176  -6.196  0.00  0.00     0.083 H 
ATOM     42  H   LIG d   1       9.788  -0.384  -5.644  0.00  0.00     0.083 H 
ATOM     43  H   LIG d   1       8.717  -1.829  -3.935  0.00  0.00     0.048 H 
ATOM     44  H   LIG d   1       8.093  -2.224  -5.572  0.00  0.00     0.048 H 
BRANCH  35  45
ATOM     45  C   LIG d   1       9.423   2.075  -4.750  0.00  0.00    -0.043 C 
ATOM     46  H   LIG d   1       9.574   2.021  -5.838  0.00  0.00     0.078 H 
ATOM     47  H   LIG d   1      10.399   2.171  -4.250  0.00  0.00     0.078 H 
ATOM     48  H   LIG d   1       8.801   2.948  -4.509  0.00  0.00     0.078 H 
ENDBRANCH  35  45
ENDBRANCH   1  30
BRANCH   8  49
ATOM     49  O   LIG d   1       6.588  -3.018  -6.184  0.00  0.00    -0.388 OA
ATOM     50  H   LIG d   1       6.491  -1.941  -6.382  0.00  0.00     0.210 HD
ENDBRANCH   8  49
BRANCH   6  51
ATOM     51  C   LIG d   1       4.628  -4.944  -6.208  0.00  0.00     0.073 C 
ATOM     52  H   LIG d   1       5.026  -4.345  -7.041  0.00  0.00     0.058 H 
ATOM     53  H   LIG d   1       5.134  -5.921  -6.184  0.00  0.00     0.058 H 
BRANCH  51  54
ATOM     54  O   LIG d   1       3.224  -5.139  -6.390  0.00  0.00    -0.392 OA
ATOM     55  H   LIG d   1       2.555  -5.166  -5.517  0.00  0.00     0.209 HD
ENDBRANCH  51  54
ENDBRANCH   6  51
TORSDOF 9
ENDMDL
MODEL 6
REMARK VINA RESULT:      -5.9      2.615      3.531
REMARK  9 active torsions:
REMARK  status: ('A' for Active; 'I' for Inactive)
REMARK    1  A    between atoms: C_1  and  N_2 
REMARK    2  A    between atoms: N_5  and  C_8 
REMARK    3  A    between atoms: C_10  and  C_20 
REMARK    4  A    between atoms: C_13  and  C_18 
REMARK    5  A    between atoms: C_15  and  O_17 
REMARK    6  A    between atoms: C_18  and  O_19 
REMARK    7  A    between atoms: C_20  and  N_21 
REMARK    8  A    between atoms: N_21  and  C_22 
REMARK    9  A    between atoms: C_22  and  C_23 
ROOT
ATOM      1  C   LIG d   1       4.000  -3.222  -9.723  0.00  0.00     0.070 C 
ATOM      2  H   LIG d   1       4.700  -3.121 -10.565  0.00  0.00     0.052 H 
ATOM      3  C   LIG d   1       4.367  -2.356  -8.503  0.00  0.00     0.117 C 
ATOM      4  H   LIG d   1       5.359  -1.888  -8.597  0.00  0.00     0.067 H 
ATOM      5  O   LIG d   1       4.413  -3.226  -7.360  0.00  0.00    -0.362 OA
ATOM      6  C   LIG d   1       4.729  -4.548  -7.847  0.00  0.00     0.110 C 
ATOM      7  H   LIG d   1       5.817  -4.648  -7.979  0.00  0.00     0.065 H 
ATOM      8  C   LIG d   1       3.900  -4.658  -9.153  0.00  0.00     0.102 C 
ATOM      9  H   LIG d   1       4.188  -5.468  -9.840  0.00  0.00     0.064 H 
ENDROOT
BRANCH   3  10
ATOM     10  C   LIG d   1       3.307  -1.273  -8.294  0.00  0.00    -0.005 C 
ATOM     11  H   LIG d   1       2.974  -0.893  -9.271  0.00  0.00     0.084 H 
ATOM     12  H   LIG d   1       2.448  -1.701  -7.756  0.00  0.00     0.084 H 
BRANCH  10  13
ATOM     13  N   LIG d   1       3.879  -0.172  -7.508  0.00  0.00     0.232 N 
ATOM     14  H   LIG d   1       4.784  -0.522  -6.991  0.00  0.00     0.202 HD
ATOM     15  H   LIG d   1       4.138   0.661  -8.178  0.00  0.00     0.202 HD
BRANCH  13  16
ATOM     16  C   LIG d   1       2.921   0.310  -6.505  0.00  0.00    -0.008 C 
ATOM     17  H   LIG d   1       2.909   1.411  -6.508  0.00  0.00     0.087 H 
ATOM     18  H   LIG d   1       1.916  -0.068  -6.745  0.00  0.00     0.087 H 
BRANCH  16  19
ATOM     19  C   LIG d   1       3.330  -0.183  -5.140  0.00  0.00    -0.003 A 
ATOM     20  C   LIG d   1       2.405  -0.220  -4.114  0.00  0.00    -0.051 A 
ATOM     21  C   LIG d   1       2.779  -0.673  -2.862  0.00  0.00    -0.026 A 
ATOM     22  H   LIG d   1       1.390   0.103  -4.289  0.00  0.00     0.062 H 
ATOM     23  C   LIG d   1       4.081  -1.087  -2.637  0.00  0.00     0.123 A 
ATOM     24  H   LIG d   1       2.056  -0.702  -2.060  0.00  0.00     0.065 H 
ATOM     25  C   LIG d   1       5.007  -1.048  -3.666  0.00  0.00    -0.026 A 
ATOM     26  F   LIG d   1       4.448  -1.530  -1.415  0.00  0.00    -0.205 F 
ATOM     27  C   LIG d   1       4.629  -0.602  -4.919  0.00  0.00    -0.051 A 
ATOM     28  H   LIG d   1       6.022  -1.372  -3.492  0.00  0.00     0.065 H 
ATOM     29  H   LIG d   1       5.349  -0.576  -5.723  0.00  0.00     0.062 H 
ENDBRANCH  16  19
ENDBRANCH  13  16
ENDBRANCH  10  13
ENDBRANCH   3  10
BRANCH   1  30
ATOM     30  N   LIG d   1       2.709  -2.800 -10.282  0.00  0.00    -0.284 N 
ATOM     31  C   LIG d   1       2.864  -1.603 -11.121  0.00  0.00     0.040 C 
ATOM     32  C   LIG d   1       1.490  -1.150 -11.618  0.00  0.00    -0.019 C 
ATOM     33  H   LIG d   1       3.507  -1.837 -11.981  0.00  0.00     0.048 H 
ATOM     34  H   LIG d   1       3.323  -0.797 -10.528  0.00  0.00     0.048 H 
ATOM     35  N   LIG d   1       0.862  -2.242 -12.376  0.00  0.00     0.235 N 
ATOM     36  H   LIG d   1       1.606  -0.271 -12.268  0.00  0.00     0.083 H 
ATOM     37  H   LIG d   1       0.855  -0.889 -10.758  0.00  0.00     0.083 H 
ATOM     38  C   LIG d   1       0.707  -3.439 -11.539  0.00  0.00    -0.019 C 
ATOM     39  H   LIG d   1       1.525  -2.497 -13.216  0.00  0.00     0.203 HD
ATOM     40  C   LIG d   1       2.082  -3.892 -11.041  0.00  0.00     0.040 C 
ATOM     41  H   LIG d   1       0.064  -3.204 -10.678  0.00  0.00     0.083 H 
ATOM     42  H   LIG d   1       0.248  -4.244 -12.132  0.00  0.00     0.083 H 
ATOM     43  H   LIG d   1       2.716  -4.153 -11.901  0.00  0.00     0.048 H 
ATOM     44  H   LIG d   1       1.966  -4.771 -10.390  0.00  0.00     0.048 H 
BRANCH  35  45
ATOM     45  C   LIG d   1      -0.428  -1.820 -12.937  0.00  0.00    -0.043 C 
ATOM     46  H   LIG d   1      -1.181  -2.601 -12.756  0.00  0.00     0.078 H 
ATOM     47  H   LIG d   1      -0.322  -1.657 -14.020  0.00  0.00     0.078 H 
ATOM     48  H   LIG d   1      -0.749  -0.884 -12.456  0.00  0.00     0.078 H 
ENDBRANCH  35  45
ENDBRANCH   1  30
BRANCH   8  49
ATOM     49  O   LIG d   1       2.542  -5.000  -8.867  0.00  0.00    -0.388 OA
ATOM     50  H   LIG d   1       1.768  -4.870  -9.638  0.00  0.00     0.210 HD
ENDBRANCH   8  49
BRANCH   6  51
ATOM     51  C   LIG d   1       4.292  -5.613  -6.840  0.00  0.00     0.073 C 
ATOM     52  H   LIG d   1       4.079  -6.552  -7.370  0.00  0.00     0.058 H 
ATOM     53  H   LIG d   1       5.097  -5.778  -6.108  0.00  0.00     0.058 H 
BRANCH  51  54
ATOM     54  O   LIG d   1       3.114  -5.171  -6.161  0.00  0.00    -0.392 OA
ATOM     55  H   LIG d   1       2.292  -4.711  -6.729  0.00  0.00     0.209 HD
ENDBRANCH  51  54
ENDBRANCH   6  51
TORSDOF 9
ENDMDL
MODEL 7
REMARK VINA RESULT:      -5.9      5.892      8.042
REMARK  9 active torsions:
REMARK  status: ('A' for Active; 'I' for Inactive)
REMARK    1  A    between atoms: C_1  and  N_2 
REMARK    2  A    between atoms: N_5  and  C_8 
REMARK    3  A    between atoms: C_10  and  C_20 
REMARK    4  A    between atoms: C_13  and  C_18 
REMARK    5  A    between atoms: C_15  and  O_17 
REMARK    6  A    between atoms: C_18  and  O_19 
REMARK    7  A    between atoms: C_20  and  N_21 
REMARK    8  A    between atoms: N_21  and  C_22 
REMARK    9  A    between atoms: C_22  and  C_23 
ROOT
ATOM      1  C   LIG d   1       9.455   4.211  -4.865  0.00  0.00     0.070 C 
ATOM      2  H   LIG d   1       8.574   4.681  -5.327  0.00  0.00     0.052 H 
ATOM      3  C   LIG d   1       9.109   3.155  -3.798  0.00  0.00     0.117 C 
ATOM      4  H   LIG d   1       8.038   3.142  -3.544  0.00  0.00     0.067 H 
ATOM      5  O   LIG d   1       9.825   3.506  -2.602  0.00  0.00    -0.362 OA
ATOM      6  C   LIG d   1      10.041   4.933  -2.642  0.00  0.00     0.110 C 
ATOM      7  H   LIG d   1       9.147   5.457  -2.271  0.00  0.00     0.065 H 
ATOM      8  C   LIG d   1      10.387   5.204  -4.129  0.00  0.00     0.102 C 
ATOM      9  H   LIG d   1      10.324   6.253  -4.455  0.00  0.00     0.064 H 
ENDROOT
BRANCH   3  10
ATOM     10  C   LIG d   1       9.540   1.768  -4.278  0.00  0.00    -0.005 C 
ATOM     11  H   LIG d   1       9.627   1.771  -5.375  0.00  0.00     0.084 H 
ATOM     12  H   LIG d   1      10.513   1.513  -3.833  0.00  0.00     0.084 H 
BRANCH  10  13
ATOM     13  N   LIG d   1       8.539   0.775  -3.867  0.00  0.00     0.232 N 
ATOM     14  H   LIG d   1       8.463  -0.009  -4.635  0.00  0.00     0.202 HD
ATOM     15  H   LIG d   1       8.842   0.324  -2.911  0.00  0.00     0.202 HD
BRANCH  13  16
ATOM     16  C   LIG d   1       7.219   1.397  -3.697  0.00  0.00    -0.008 C 
ATOM     17  H   LIG d   1       7.288   2.207  -2.956  0.00  0.00     0.087 H 
ATOM     18  H   LIG d   1       6.881   1.809  -4.660  0.00  0.00     0.087 H 
BRANCH  16  19
ATOM     19  C   LIG d   1       6.233   0.361  -3.220  0.00  0.00    -0.003 A 
ATOM     20  C   LIG d   1       6.350  -0.949  -3.643  0.00  0.00    -0.051 A 
ATOM     21  C   LIG d   1       5.446  -1.900  -3.205  0.00  0.00    -0.026 A 
ATOM     22  H   LIG d   1       7.147  -1.232  -4.315  0.00  0.00     0.062 H 
ATOM     23  C   LIG d   1       4.424  -1.538  -2.345  0.00  0.00     0.123 A 
ATOM     24  H   LIG d   1       5.538  -2.924  -3.537  0.00  0.00     0.065 H 
ATOM     25  C   LIG d   1       4.308  -0.225  -1.922  0.00  0.00    -0.026 A 
ATOM     26  F   LIG d   1       3.541  -2.466  -1.916  0.00  0.00    -0.205 F 
ATOM     27  C   LIG d   1       5.217   0.722  -2.356  0.00  0.00    -0.051 A 
ATOM     28  H   LIG d   1       3.512   0.058  -1.250  0.00  0.00     0.065 H 
ATOM     29  H   LIG d   1       5.130   1.746  -2.022  0.00  0.00     0.062 H 
ENDBRANCH  16  19
ENDBRANCH  13  16
ENDBRANCH  10  13
ENDBRANCH   3  10
BRANCH   1  30
ATOM     30  N   LIG d   1      10.158   3.588  -5.995  0.00  0.00    -0.284 N 
ATOM     31  C   LIG d   1       9.225   2.828  -6.840  0.00  0.00     0.040 C 
ATOM     32  C   LIG d   1      10.006   2.131  -7.956  0.00  0.00    -0.019 C 
ATOM     33  H   LIG d   1       8.487   3.512  -7.281  0.00  0.00     0.048 H 
ATOM     34  H   LIG d   1       8.708   2.073  -6.228  0.00  0.00     0.048 H 
ATOM     35  N   LIG d   1      10.728   3.138  -8.747  0.00  0.00     0.235 N 
ATOM     36  H   LIG d   1       9.308   1.585  -8.607  0.00  0.00     0.083 H 
ATOM     37  H   LIG d   1      10.727   1.425  -7.517  0.00  0.00     0.083 H 
ATOM     38  C   LIG d   1      11.660   3.899  -7.904  0.00  0.00    -0.019 C 
ATOM     39  H   LIG d   1       9.989   3.842  -9.158  0.00  0.00     0.203 HD
ATOM     40  C   LIG d   1      10.878   4.595  -6.786  0.00  0.00     0.040 C 
ATOM     41  H   LIG d   1      12.398   3.213  -7.463  0.00  0.00     0.083 H 
ATOM     42  H   LIG d   1      12.177   4.652  -8.515  0.00  0.00     0.083 H 
ATOM     43  H   LIG d   1      10.159   5.301  -7.226  0.00  0.00     0.048 H 
ATOM     44  H   LIG d   1      11.577   5.142  -6.135  0.00  0.00     0.048 H 
BRANCH  35  45
ATOM     45  C   LIG d   1      11.430   2.515  -9.878  0.00  0.00    -0.043 C 
ATOM     46  H   LIG d   1      10.931   1.572 -10.146  0.00  0.00     0.078 H 
ATOM     47  H   LIG d   1      12.473   2.310  -9.594  0.00  0.00     0.078 H 
ATOM     48  H   LIG d   1      11.413   3.197 -10.740  0.00  0.00     0.078 H 
ENDBRANCH  35  45
ENDBRANCH   1  30
BRANCH   8  49
ATOM     49  O   LIG d   1      11.760   4.908  -4.395  0.00  0.00    -0.388 OA
ATOM     50  H   LIG d   1      12.553   5.501  -3.915  0.00  0.00     0.210 HD
ENDBRANCH   8  49
BRANCH   6  51
ATOM     51  C   LIG d   1      11.209   5.328  -1.736  0.00  0.00     0.073 C 
ATOM     52  H   LIG d   1      12.145   5.298  -2.312  0.00  0.00     0.058 H 
ATOM     53  H   LIG d   1      11.047   6.346  -1.351  0.00  0.00     0.058 H 
BRANCH  51  54
ATOM     54  O   LIG d   1      11.293   4.413  -0.642  0.00  0.00    -0.392 OA
ATOM     55  H   LIG d   1      12.275   4.051  -0.302  0.00  0.00     0.209 HD
ENDBRANCH  51  54
ENDBRANCH   6  51
TORSDOF 9
ENDMDL
MODEL 8
REMARK VINA RESULT:      -5.8      3.424      6.450
REMARK  9 active torsions:
REMARK  status: ('A' for Active; 'I' for Inactive)
REMARK    1  A    between atoms: C_1  and  N_2 
REMARK    2  A    between atoms: N_5  and  C_8 
REMARK    3  A    between atoms: C_10  and  C_20 
REMARK    4  A    between atoms: C_13  and  C_18 
REMARK    5  A    between atoms: C_15  and  O_17 
REMARK    6  A    between atoms: C_18  and  O_19 
REMARK    7  A    between atoms: C_20  and  N_21 
REMARK    8  A    between atoms: N_21  and  C_22 
REMARK    9  A    between atoms: C_22  and  C_23 
ROOT
ATOM      1  C   LIG d   1       5.392  -1.830  -5.593  0.00  0.00     0.070 C 
ATOM      2  H   LIG d   1       6.421  -2.088  -5.886  0.00  0.00     0.052 H 
ATOM      3  C   LIG d   1       5.034  -0.350  -5.827  0.00  0.00     0.117 C 
ATOM      4  H   LIG d   1       5.906   0.261  -6.104  0.00  0.00     0.067 H 
ATOM      5  O   LIG d   1       4.526   0.168  -4.587  0.00  0.00    -0.362 OA
ATOM      6  C   LIG d   1       5.114  -0.619  -3.529  0.00  0.00     0.110 C 
ATOM      7  H   LIG d   1       6.117  -0.236  -3.289  0.00  0.00     0.065 H 
ATOM      8  C   LIG d   1       5.084  -2.062  -4.095  0.00  0.00     0.102 C 
ATOM      9  H   LIG d   1       5.726  -2.794  -3.580  0.00  0.00     0.064 H 
ENDROOT
BRANCH   3  10
ATOM     10  C   LIG d   1       3.965  -0.239  -6.916  0.00  0.00    -0.005 C 
ATOM     11  H   LIG d   1       4.048  -1.096  -7.601  0.00  0.00     0.084 H 
ATOM     12  H   LIG d   1       2.968  -0.237  -6.452  0.00  0.00     0.084 H 
BRANCH  10  13
ATOM     13  N   LIG d   1       4.158   1.009  -7.667  0.00  0.00     0.232 N 
ATOM     14  H   LIG d   1       4.411   1.821  -6.970  0.00  0.00     0.202 HD
ATOM     15  H   LIG d   1       4.976   0.879  -8.390  0.00  0.00     0.202 HD
BRANCH  13  16
ATOM     16  C   LIG d   1       2.938   1.378  -8.397  0.00  0.00    -0.008 C 
ATOM     17  H   LIG d   1       2.058   1.165  -7.772  0.00  0.00     0.087 H 
ATOM     18  H   LIG d   1       2.965   2.451  -8.639  0.00  0.00     0.087 H 
BRANCH  16  19
ATOM     19  C   LIG d   1       2.854   0.577  -9.672  0.00  0.00    -0.003 A 
ATOM     20  C   LIG d   1       1.800  -0.295  -9.870  0.00  0.00    -0.051 A 
ATOM     21  C   LIG d   1       1.721  -1.029 -11.039  0.00  0.00    -0.026 A 
ATOM     22  H   LIG d   1       1.038  -0.403  -9.113  0.00  0.00     0.062 H 
ATOM     23  C   LIG d   1       2.699  -0.891 -12.009  0.00  0.00     0.123 A 
ATOM     24  H   LIG d   1       0.898  -1.711 -11.194  0.00  0.00     0.065 H 
ATOM     25  C   LIG d   1       3.754  -0.017 -11.809  0.00  0.00    -0.026 A 
ATOM     26  F   LIG d   1       2.623  -1.608 -13.152  0.00  0.00    -0.205 F 
ATOM     27  C   LIG d   1       3.827   0.721 -10.643  0.00  0.00    -0.051 A 
ATOM     28  H   LIG d   1       4.516   0.092 -12.566  0.00  0.00     0.065 H 
ATOM     29  H   LIG d   1       4.647   1.407 -10.488  0.00  0.00     0.062 H 
ENDBRANCH  16  19
ENDBRANCH  13  16
ENDBRANCH  10  13
ENDBRANCH   3  10
BRANCH   1  30
ATOM     30  N   LIG d   1       4.556  -2.700  -6.431  0.00  0.00    -0.284 N 
ATOM     31  C   LIG d   1       4.885  -2.534  -7.854  0.00  0.00     0.040 C 
ATOM     32  C   LIG d   1       3.941  -3.396  -8.696  0.00  0.00    -0.019 C 
ATOM     33  H   LIG d   1       5.924  -2.848  -8.031  0.00  0.00     0.048 H 
ATOM     34  H   LIG d   1       4.768  -1.477  -8.138  0.00  0.00     0.048 H 
ATOM     35  N   LIG d   1       4.071  -4.802  -8.289  0.00  0.00     0.235 N 
ATOM     36  H   LIG d   1       4.203  -3.296  -9.760  0.00  0.00     0.083 H 
ATOM     37  H   LIG d   1       2.903  -3.064  -8.542  0.00  0.00     0.083 H 
ATOM     38  C   LIG d   1       3.743  -4.968  -6.866  0.00  0.00    -0.019 C 
ATOM     39  H   LIG d   1       5.119  -5.102  -8.433  0.00  0.00     0.203 HD
ATOM     40  C   LIG d   1       4.687  -4.106  -6.024  0.00  0.00     0.040 C 
ATOM     41  H   LIG d   1       2.704  -4.653  -6.691  0.00  0.00     0.083 H 
ATOM     42  H   LIG d   1       3.860  -6.024  -6.584  0.00  0.00     0.083 H 
ATOM     43  H   LIG d   1       5.724  -4.438  -6.179  0.00  0.00     0.048 H 
ATOM     44  H   LIG d   1       4.425  -4.205  -4.960  0.00  0.00     0.048 H 
BRANCH  35  45
ATOM     45  C   LIG d   1       3.236  -5.672  -9.127  0.00  0.00    -0.043 C 
ATOM     46  H   LIG d   1       3.879  -6.292  -9.769  0.00  0.00     0.078 H 
ATOM     47  H   LIG d   1       2.578  -5.054  -9.756  0.00  0.00     0.078 H 
ATOM     48  H   LIG d   1       2.624  -6.322  -8.485  0.00  0.00     0.078 H 
ENDBRANCH  35  45
ENDBRANCH   1  30
BRANCH   8  49
ATOM     49  O   LIG d   1       3.793  -2.651  -3.924  0.00  0.00    -0.388 OA
ATOM     50  H   LIG d   1       3.032  -2.545  -4.711  0.00  0.00     0.210 HD
ENDBRANCH   8  49
BRANCH   6  51
ATOM     51  C   LIG d   1       4.273  -0.523  -2.254  0.00  0.00     0.073 C 
ATOM     52  H   LIG d   1       4.249  -1.504  -1.756  0.00  0.00     0.058 H 
ATOM     53  H   LIG d   1       4.717   0.222  -1.577  0.00  0.00     0.058 H 
BRANCH  51  54
ATOM     54  O   LIG d   1       2.942  -0.127  -2.590  0.00  0.00    -0.392 OA
ATOM     55  H   LIG d   1       2.736   0.911  -2.891  0.00  0.00     0.209 HD
ENDBRANCH  51  54
ENDBRANCH   6  51
TORSDOF 9
ENDMDL
MODEL 9
REMARK VINA RESULT:      -5.8      3.197      5.005
REMARK  9 active torsions:
REMARK  status: ('A' for Active; 'I' for Inactive)
REMARK    1  A    between atoms: C_1  and  N_2 
REMARK    2  A    between atoms: N_5  and  C_8 
REMARK    3  A    between atoms: C_10  and  C_20 
REMARK    4  A    between atoms: C_13  and  C_18 
REMARK    5  A    between atoms: C_15  and  O_17 
REMARK    6  A    between atoms: C_18  and  O_19 
REMARK    7  A    between atoms: C_20  and  N_21 
REMARK    8  A    between atoms: N_21  and  C_22 
REMARK    9  A    between atoms: C_22  and  C_23 
ROOT
ATOM      1  C   LIG d   1       5.615  -1.058  -8.145  0.00  0.00     0.070 C 
ATOM      2  H   LIG d   1       5.923  -2.068  -7.838  0.00  0.00     0.052 H 
ATOM      3  C   LIG d   1       4.094  -0.823  -8.074  0.00  0.00     0.117 C 
ATOM      4  H   LIG d   1       3.530  -1.747  -7.877  0.00  0.00     0.067 H 
ATOM      5  O   LIG d   1       3.676  -0.334  -9.359  0.00  0.00    -0.362 OA
ATOM      6  C   LIG d   1       4.620  -0.835 -10.329  0.00  0.00     0.110 C 
ATOM      7  H   LIG d   1       4.349  -1.861 -10.621  0.00  0.00     0.065 H 
ATOM      8  C   LIG d   1       5.985  -0.702  -9.605  0.00  0.00     0.102 C 
ATOM      9  H   LIG d   1       6.819  -1.272 -10.042  0.00  0.00     0.064 H 
ENDROOT
BRANCH   3  10
ATOM     10  C   LIG d   1       3.777   0.211  -6.992  0.00  0.00    -0.005 C 
ATOM     11  H   LIG d   1       4.556   0.180  -6.215  0.00  0.00     0.084 H 
ATOM     12  H   LIG d   1       3.747   1.214  -7.442  0.00  0.00     0.084 H 
BRANCH  10  13
ATOM     13  N   LIG d   1       2.472  -0.094  -6.390  0.00  0.00     0.232 N 
ATOM     14  H   LIG d   1       1.676   0.086  -7.127  0.00  0.00     0.202 HD
ATOM     15  H   LIG d   1       2.450  -1.149  -6.077  0.00  0.00     0.202 HD
BRANCH  13  16
ATOM     16  C   LIG d   1       2.224   0.750  -5.214  0.00  0.00    -0.008 C 
ATOM     17  H   LIG d   1       2.593   1.768  -5.410  0.00  0.00     0.087 H 
ATOM     18  H   LIG d   1       1.144   0.785  -5.008  0.00  0.00     0.087 H 
BRANCH  16  19
ATOM     19  C   LIG d   1       2.946   0.176  -4.021  0.00  0.00    -0.003 A 
ATOM     20  C   LIG d   1       3.576   1.018  -3.125  0.00  0.00    -0.051 A 
ATOM     21  C   LIG d   1       4.238   0.493  -2.030  0.00  0.00    -0.026 A 
ATOM     22  H   LIG d   1       3.552   2.087  -3.279  0.00  0.00     0.062 H 
ATOM     23  C   LIG d   1       4.269  -0.877  -1.834  0.00  0.00     0.123 A 
ATOM     24  H   LIG d   1       4.731   1.151  -1.331  0.00  0.00     0.065 H 
ATOM     25  C   LIG d   1       3.637  -1.720  -2.733  0.00  0.00    -0.026 A 
ATOM     26  F   LIG d   1       4.915  -1.392  -0.765  0.00  0.00    -0.205 F 
ATOM     27  C   LIG d   1       2.971  -1.192  -3.823  0.00  0.00    -0.051 A 
ATOM     28  H   LIG d   1       3.660  -2.788  -2.580  0.00  0.00     0.065 H 
ATOM     29  H   LIG d   1       2.474  -1.848  -4.521  0.00  0.00     0.062 H 
ENDBRANCH  16  19
ENDBRANCH  13  16
ENDBRANCH  10  13
ENDBRANCH   3  10
BRANCH   1  30
ATOM     30  N   LIG d   1       6.316  -0.172  -7.207  0.00  0.00    -0.284 N 
ATOM     31  C   LIG d   1       6.144  -0.631  -5.821  0.00  0.00     0.040 C 
ATOM     32  C   LIG d   1       6.820   0.360  -4.871  0.00  0.00    -0.019 C 
ATOM     33  H   LIG d   1       6.602  -1.624  -5.703  0.00  0.00     0.048 H 
ATOM     34  H   LIG d   1       5.071  -0.691  -5.585  0.00  0.00     0.048 H 
ATOM     35  N   LIG d   1       8.246   0.468  -5.213  0.00  0.00     0.235 N 
ATOM     36  H   LIG d   1       6.718   0.004  -3.835  0.00  0.00     0.083 H 
ATOM     37  H   LIG d   1       6.344   1.347  -4.968  0.00  0.00     0.083 H 
ATOM     38  C   LIG d   1       8.418   0.926  -6.599  0.00  0.00    -0.019 C 
ATOM     39  H   LIG d   1       8.693  -0.534  -5.129  0.00  0.00     0.203 HD
ATOM     40  C   LIG d   1       7.741  -0.065  -7.549  0.00  0.00     0.040 C 
ATOM     41  H   LIG d   1       7.960   1.919  -6.716  0.00  0.00     0.083 H 
ATOM     42  H   LIG d   1       9.491   0.987  -6.834  0.00  0.00     0.083 H 
ATOM     43  H   LIG d   1       8.218  -1.051  -7.451  0.00  0.00     0.048 H 
ATOM     44  H   LIG d   1       7.844   0.291  -8.585  0.00  0.00     0.048 H 
BRANCH  35  45
ATOM     45  C   LIG d   1       8.947   1.353  -4.274  0.00  0.00    -0.043 C 
ATOM     46  H   LIG d   1       8.708   1.058  -3.242  0.00  0.00     0.078 H 
ATOM     47  H   LIG d   1       8.627   2.392  -4.441  0.00  0.00     0.078 H 
ATOM     48  H   LIG d   1      10.032   1.273  -4.436  0.00  0.00     0.078 H 
ENDBRANCH  35  45
ENDBRANCH   1  30
BRANCH   8  49
ATOM     49  O   LIG d   1       6.481   0.636  -9.695  0.00  0.00    -0.388 OA
ATOM     50  H   LIG d   1       6.620   1.233  -8.782  0.00  0.00     0.210 HD
ENDBRANCH   8  49
BRANCH   6  51
ATOM     51  C   LIG d   1       4.597   0.021 -11.597  0.00  0.00     0.073 C 
ATOM     52  H   LIG d   1       5.623   0.151 -11.970  0.00  0.00     0.058 H 
ATOM     53  H   LIG d   1       3.987  -0.479 -12.365  0.00  0.00     0.058 H 
BRANCH  51  54
ATOM     54  O   LIG d   1       4.032   1.299 -11.298  0.00  0.00    -0.392 OA
ATOM     55  H   LIG d   1       4.447   1.906 -10.479  0.00  0.00     0.209 HD
ENDBRANCH  51  54
ENDBRANCH   6  51
TORSDOF 9
ENDMDL
