MODEL 1
REMARK VINA RESULT:      -7.5      0.000      0.000
REMARK  9 active torsions:
REMARK  status: ('A' for Active; 'I' for Inactive)
REMARK    1  A    between atoms: C_1  and  C_2 
REMARK    2  A    between atoms: C_2  and  C_29 
REMARK    3  A    between atoms: C_8  and  O_19 
REMARK    4  A    between atoms: O_19  and  C_20 
REMARK    5  A    between atoms: C_20  and  C_21 
REMARK       I    between atoms: C_21  and  N_23 
REMARK    6  A    between atoms: N_23  and  C_24 
REMARK    7  A    between atoms: C_24  and  C_25 
REMARK    8  A    between atoms: C_25  and  C_26 
REMARK    9  A    between atoms: C_26  and  O_27 
ROOT
ATOM      1  C   LIG d   1       2.849  -0.484 -10.420  0.00  0.00     0.105 C 
ATOM      2  C   LIG d   1       3.165   0.930  -9.917  0.00  0.00    -0.009 C 
ATOM      3  C   LIG d   1       2.836   0.992  -8.423  0.00  0.00    -0.017 C 
ATOM      4  C   LIG d   1       3.440  -0.197  -7.720  0.00  0.00     0.038 A 
ATOM      5  C   LIG d   1       3.844  -1.322  -8.419  0.00  0.00     0.131 A 
ATOM      6  C   LIG d   1       4.390  -2.413  -7.741  0.00  0.00     0.023 A 
ATOM      7  C   LIG d   1       4.534  -2.387  -6.369  0.00  0.00     0.136 A 
ATOM      8  C   LIG d   1       4.129  -1.248  -5.652  0.00  0.00     0.063 A 
ATOM      9  C   LIG d   1       3.582  -0.150  -6.339  0.00  0.00     0.149 A 
ATOM     10  O   LIG d   1       3.195   0.947  -5.652  0.00  0.00    -0.421 OA
ATOM     11  C   LIG d   1       3.322   1.005  -4.316  0.00  0.00     0.341 A 
ATOM     12  O   LIG d   1       2.965   2.007  -3.725  0.00  0.00    -0.245 OA
ATOM     13  C   LIG d   1       3.861  -0.077  -3.585  0.00  0.00     0.041 A 
ATOM     14  C   LIG d   1       4.263  -1.196  -4.240  0.00  0.00    -0.023 A 
ATOM     15  C   LIG d   1       4.801  -2.212  -3.259  0.00  0.00    -0.026 C 
ATOM     16  C   LIG d   1       4.283  -1.752  -1.879  0.00  0.00    -0.045 C 
ATOM     17  C   LIG d   1       4.093  -0.235  -2.097  0.00  0.00    -0.020 C 
ATOM     18  O   LIG d   1       3.730  -1.401  -9.770  0.00  0.00    -0.486 OA
ATOM     19  H   LIG d   1       4.222   1.147 -10.070  0.00  0.00     0.031 H 
ATOM     20  H   LIG d   1       2.558   1.656 -10.457  0.00  0.00     0.031 H 
ATOM     21  H   LIG d   1       3.243   1.910  -8.000  0.00  0.00     0.032 H 
ATOM     22  H   LIG d   1       1.754   0.979  -8.290  0.00  0.00     0.032 H 
ATOM     23  H   LIG d   1       4.703  -3.285  -8.295  0.00  0.00     0.069 H 
ATOM     24  H   LIG d   1       4.419  -3.205  -3.494  0.00  0.00     0.031 H 
ATOM     25  H   LIG d   1       5.891  -2.212  -3.273  0.00  0.00     0.031 H 
ATOM     26  H   LIG d   1       5.022  -1.943  -1.102  0.00  0.00     0.027 H 
ATOM     27  H   LIG d   1       3.334  -2.233  -1.639  0.00  0.00     0.027 H 
ATOM     28  H   LIG d   1       4.989   0.306  -1.794  0.00  0.00     0.032 H 
ATOM     29  H   LIG d   1       3.227   0.122  -1.540  0.00  0.00     0.032 H 
ENDROOT
BRANCH   7  30
ATOM     30  O   LIG d   1       5.064  -3.453  -5.717  0.00  0.00    -0.482 OA
BRANCH  30  31
ATOM     31  C   LIG d   1       5.588  -4.511  -6.522  0.00  0.00     0.165 C 
ATOM     32  H   LIG d   1       5.485  -4.251  -7.576  0.00  0.00     0.080 H 
ATOM     33  H   LIG d   1       6.642  -4.659  -6.287  0.00  0.00     0.080 H 
BRANCH  31  34
ATOM     34  C   LIG d   1       4.827  -5.780  -6.241  0.00  0.00     0.251 C 
ATOM     35  O   LIG d   1       3.650  -5.731  -5.956  0.00  0.00    -0.272 OA
ATOM     36  N   LIG d   1       5.455  -6.971  -6.307  0.00  0.00    -0.312 N 
ATOM     37  H   LIG d   1       6.397  -7.011  -6.535  0.00  0.00     0.149 HD
BRANCH  36  38
ATOM     38  C   LIG d   1       4.715  -8.206  -6.033  0.00  0.00     0.014 C 
ATOM     39  H   LIG d   1       3.650  -7.983  -5.958  0.00  0.00     0.046 H 
ATOM     40  H   LIG d   1       4.881  -8.916  -6.843  0.00  0.00     0.046 H 
BRANCH  38  41
ATOM     41  C   LIG d   1       5.203  -8.812  -4.717  0.00  0.00    -0.014 C 
ATOM     42  H   LIG d   1       6.229  -9.161  -4.835  0.00  0.00     0.030 H 
ATOM     43  H   LIG d   1       5.165  -8.055  -3.933  0.00  0.00     0.030 H 
BRANCH  41  44
ATOM     44  C   LIG d   1       4.305  -9.990  -4.332  0.00  0.00     0.046 C 
ATOM     45  H   LIG d   1       3.874 -10.426  -5.234  0.00  0.00     0.056 H 
ATOM     46  H   LIG d   1       4.895 -10.742  -3.810  0.00  0.00     0.056 H 
BRANCH  44  47
ATOM     47  O   LIG d   1       3.255  -9.530  -3.479  0.00  0.00    -0.395 OA
ATOM     48  H   LIG d   1       3.204  -8.567  -3.401  0.00  0.00     0.209 HD
ENDBRANCH  44  47
ENDBRANCH  41  44
ENDBRANCH  38  41
ENDBRANCH  36  38
ENDBRANCH  31  34
ENDBRANCH  30  31
ENDBRANCH   7  30
BRANCH   1  49
ATOM     49  C   LIG d   1       3.062  -0.551 -11.934  0.00  0.00    -0.025 C 
ATOM     50  H   LIG d   1       2.876  -1.567 -12.282  0.00  0.00     0.027 H 
ATOM     51  H   LIG d   1       2.374   0.134 -12.429  0.00  0.00     0.027 H 
ATOM     52  H   LIG d   1       4.088  -0.270 -12.169  0.00  0.00     0.027 H 
ENDBRANCH   1  49
BRANCH   1  53
ATOM     53  C   LIG d   1       1.398  -0.838 -10.087  0.00  0.00    -0.025 C 
ATOM     54  H   LIG d   1       0.755  -0.554 -10.920  0.00  0.00     0.027 H 
ATOM     55  H   LIG d   1       1.317  -1.911  -9.914  0.00  0.00     0.027 H 
ATOM     56  H   LIG d   1       1.091  -0.301  -9.189  0.00  0.00     0.027 H 
ENDBRANCH   1  53
TORSDOF 9
ENDMDL
MODEL 2
REMARK VINA RESULT:      -7.2      2.796      7.415
REMARK  9 active torsions:
REMARK  status: ('A' for Active; 'I' for Inactive)
REMARK    1  A    between atoms: C_1  and  C_2 
REMARK    2  A    between atoms: C_2  and  C_29 
REMARK    3  A    between atoms: C_8  and  O_19 
REMARK    4  A    between atoms: O_19  and  C_20 
REMARK    5  A    between atoms: C_20  and  C_21 
REMARK       I    between atoms: C_21  and  N_23 
REMARK    6  A    between atoms: N_23  and  C_24 
REMARK    7  A    between atoms: C_24  and  C_25 
REMARK    8  A    between atoms: C_25  and  C_26 
REMARK    9  A    between atoms: C_26  and  O_27 
ROOT
ATOM      1  C   LIG d   1       4.328  -0.053  -2.603  0.00  0.00     0.105 C 
ATOM      2  C   LIG d   1       4.451  -1.459  -2.002  0.00  0.00    -0.009 C 
ATOM      3  C   LIG d   1       4.089  -2.478  -3.085  0.00  0.00    -0.017 C 
ATOM      4  C   LIG d   1       4.826  -2.150  -4.359  0.00  0.00     0.038 A 
ATOM      5  C   LIG d   1       5.383  -0.900  -4.570  0.00  0.00     0.131 A 
ATOM      6  C   LIG d   1       6.051  -0.620  -5.763  0.00  0.00     0.023 A 
ATOM      7  C   LIG d   1       6.165  -1.581  -6.746  0.00  0.00     0.136 A 
ATOM      8  C   LIG d   1       5.603  -2.853  -6.540  0.00  0.00     0.063 A 
ATOM      9  C   LIG d   1       4.935  -3.131  -5.335  0.00  0.00     0.149 A 
ATOM     10  O   LIG d   1       4.398  -4.355  -5.132  0.00  0.00    -0.421 OA
ATOM     11  C   LIG d   1       4.490  -5.313  -6.069  0.00  0.00     0.341 A 
ATOM     12  O   LIG d   1       3.997  -6.406  -5.857  0.00  0.00    -0.245 OA
ATOM     13  C   LIG d   1       5.149  -5.076  -7.296  0.00  0.00     0.041 A 
ATOM     14  C   LIG d   1       5.703  -3.859  -7.535  0.00  0.00    -0.023 A 
ATOM     15  C   LIG d   1       6.347  -3.838  -8.903  0.00  0.00    -0.026 C 
ATOM     16  C   LIG d   1       5.749  -5.050  -9.648  0.00  0.00    -0.045 C 
ATOM     17  C   LIG d   1       5.371  -5.989  -8.483  0.00  0.00    -0.020 C 
ATOM     18  O   LIG d   1       5.306   0.082  -3.635  0.00  0.00    -0.486 OA
ATOM     19  H   LIG d   1       5.475  -1.627  -1.667  0.00  0.00     0.031 H 
ATOM     20  H   LIG d   1       3.767  -1.559  -1.159  0.00  0.00     0.031 H 
ATOM     21  H   LIG d   1       4.367  -3.476  -2.751  0.00  0.00     0.032 H 
ATOM     22  H   LIG d   1       3.015  -2.443  -3.270  0.00  0.00     0.032 H 
ATOM     23  H   LIG d   1       6.483   0.357  -5.918  0.00  0.00     0.069 H 
ATOM     24  H   LIG d   1       6.099  -2.913  -9.424  0.00  0.00     0.031 H 
ATOM     25  H   LIG d   1       7.429  -3.945  -8.813  0.00  0.00     0.031 H 
ATOM     26  H   LIG d   1       6.491  -5.514 -10.296  0.00  0.00     0.027 H 
ATOM     27  H   LIG d   1       4.865  -4.760 -10.216  0.00  0.00     0.027 H 
ATOM     28  H   LIG d   1       6.185  -6.685  -8.277  0.00  0.00     0.032 H 
ATOM     29  H   LIG d   1       4.456  -6.534  -8.716  0.00  0.00     0.032 H 
ENDROOT
BRANCH   7  30
ATOM     30  O   LIG d   1       6.813  -1.300  -7.905  0.00  0.00    -0.482 OA
BRANCH  30  31
ATOM     31  C   LIG d   1       7.224   0.054  -8.107  0.00  0.00     0.165 C 
ATOM     32  H   LIG d   1       7.265   0.568  -7.147  0.00  0.00     0.080 H 
ATOM     33  H   LIG d   1       8.210   0.070  -8.570  0.00  0.00     0.080 H 
BRANCH  31  34
ATOM     34  C   LIG d   1       6.235   0.749  -9.007  0.00  0.00     0.251 C 
ATOM     35  O   LIG d   1       6.224   0.509 -10.195  0.00  0.00    -0.272 OA
ATOM     36  N   LIG d   1       5.363   1.638  -8.490  0.00  0.00    -0.312 N 
ATOM     37  H   LIG d   1       5.372   1.831  -7.540  0.00  0.00     0.149 HD
BRANCH  36  38
ATOM     38  C   LIG d   1       4.402   2.315  -9.365  0.00  0.00     0.014 C 
ATOM     39  H   LIG d   1       4.641   3.377  -9.414  0.00  0.00     0.046 H 
ATOM     40  H   LIG d   1       4.456   1.884 -10.365  0.00  0.00     0.046 H 
BRANCH  38  41
ATOM     41  C   LIG d   1       2.990   2.134  -8.808  0.00  0.00    -0.014 C 
ATOM     42  H   LIG d   1       2.759   2.955  -8.129  0.00  0.00     0.030 H 
ATOM     43  H   LIG d   1       2.273   2.130  -9.629  0.00  0.00     0.030 H 
BRANCH  41  44
ATOM     44  C   LIG d   1       2.905   0.807  -8.050  0.00  0.00     0.046 C 
ATOM     45  H   LIG d   1       1.933   0.349  -8.229  0.00  0.00     0.056 H 
ATOM     46  H   LIG d   1       3.692   0.138  -8.400  0.00  0.00     0.056 H 
BRANCH  44  47
ATOM     47  O   LIG d   1       3.069   1.046  -6.652  0.00  0.00    -0.395 OA
ATOM     48  H   LIG d   1       3.758   0.508  -6.238  0.00  0.00     0.209 HD
ENDBRANCH  44  47
ENDBRANCH  41  44
ENDBRANCH  38  41
ENDBRANCH  36  38
ENDBRANCH  31  34
ENDBRANCH  30  31
ENDBRANCH   7  30
BRANCH   1  49
ATOM     49  C   LIG d   1       4.577   0.995  -1.517  0.00  0.00    -0.025 C 
ATOM     50  H   LIG d   1       5.323   1.709  -1.866  0.00  0.00     0.027 H 
ATOM     51  H   LIG d   1       3.647   1.520  -1.298  0.00  0.00     0.027 H 
ATOM     52  H   LIG d   1       4.939   0.504  -0.614  0.00  0.00     0.027 H 
ENDBRANCH   1  49
BRANCH   1  53
ATOM     53  C   LIG d   1       2.928   0.135  -3.192  0.00  0.00    -0.025 C 
ATOM     54  H   LIG d   1       2.752  -0.619  -3.959  0.00  0.00     0.027 H 
ATOM     55  H   LIG d   1       2.185   0.030  -2.401  0.00  0.00     0.027 H 
ATOM     56  H   LIG d   1       2.851   1.129  -3.633  0.00  0.00     0.027 H 
ENDBRANCH   1  53
TORSDOF 9
ENDMDL
MODEL 3
REMARK VINA RESULT:      -7.1      2.652      5.427
REMARK  9 active torsions:
REMARK  status: ('A' for Active; 'I' for Inactive)
REMARK    1  A    between atoms: C_1  and  C_2 
REMARK    2  A    between atoms: C_2  and  C_29 
REMARK    3  A    between atoms: C_8  and  O_19 
REMARK    4  A    between atoms: O_19  and  C_20 
REMARK    5  A    between atoms: C_20  and  C_21 
REMARK       I    between atoms: C_21  and  N_23 
REMARK    6  A    between atoms: N_23  and  C_24 
REMARK    7  A    between atoms: C_24  and  C_25 
REMARK    8  A    between atoms: C_25  and  C_26 
REMARK    9  A    between atoms: C_26  and  O_27 
ROOT
ATOM      1  C   LIG d   1       3.741   1.291  -9.163  0.00  0.00     0.105 C 
ATOM      2  C   LIG d   1       2.500   0.427  -8.904  0.00  0.00    -0.009 C 
ATOM      3  C   LIG d   1       2.941  -1.036  -8.831  0.00  0.00    -0.017 C 
ATOM      4  C   LIG d   1       4.135  -1.163  -7.919  0.00  0.00     0.038 A 
ATOM      5  C   LIG d   1       4.902  -0.063  -7.577  0.00  0.00     0.131 A 
ATOM      6  C   LIG d   1       6.009  -0.211  -6.739  0.00  0.00     0.023 A 
ATOM      7  C   LIG d   1       6.353  -1.451  -6.242  0.00  0.00     0.136 A 
ATOM      8  C   LIG d   1       5.577  -2.573  -6.583  0.00  0.00     0.063 A 
ATOM      9  C   LIG d   1       4.462  -2.419  -7.424  0.00  0.00     0.149 A 
ATOM     10  O   LIG d   1       3.712  -3.495  -7.749  0.00  0.00    -0.421 OA
ATOM     11  C   LIG d   1       4.019  -4.717  -7.282  0.00  0.00     0.341 A 
ATOM     12  O   LIG d   1       3.325  -5.667  -7.593  0.00  0.00    -0.245 OA
ATOM     13  C   LIG d   1       5.134  -4.918  -6.438  0.00  0.00     0.041 A 
ATOM     14  C   LIG d   1       5.910  -3.861  -6.087  0.00  0.00    -0.023 A 
ATOM     15  C   LIG d   1       7.036  -4.314  -5.186  0.00  0.00    -0.026 C 
ATOM     16  C   LIG d   1       7.109  -5.845  -5.374  0.00  0.00    -0.045 C 
ATOM     17  C   LIG d   1       5.666  -6.186  -5.803  0.00  0.00    -0.020 C 
ATOM     18  O   LIG d   1       4.608   1.181  -8.034  0.00  0.00    -0.486 OA
ATOM     19  H   LIG d   1       2.038   0.720  -7.961  0.00  0.00     0.031 H 
ATOM     20  H   LIG d   1       1.786   0.557  -9.718  0.00  0.00     0.031 H 
ATOM     21  H   LIG d   1       2.122  -1.643  -8.445  0.00  0.00     0.032 H 
ATOM     22  H   LIG d   1       3.210  -1.384  -9.829  0.00  0.00     0.032 H 
ATOM     23  H   LIG d   1       6.601   0.652  -6.478  0.00  0.00     0.069 H 
ATOM     24  H   LIG d   1       7.974  -3.850  -5.490  0.00  0.00     0.031 H 
ATOM     25  H   LIG d   1       6.811  -4.071  -4.148  0.00  0.00     0.031 H 
ATOM     26  H   LIG d   1       7.364  -6.340  -4.438  0.00  0.00     0.027 H 
ATOM     27  H   LIG d   1       7.820  -6.107  -6.158  0.00  0.00     0.027 H 
ATOM     28  H   LIG d   1       5.066  -6.454  -4.934  0.00  0.00     0.032 H 
ATOM     29  H   LIG d   1       5.668  -6.999  -6.529  0.00  0.00     0.032 H 
ENDROOT
BRANCH   7  30
ATOM     30  O   LIG d   1       7.431  -1.587  -5.430  0.00  0.00    -0.482 OA
BRANCH  30  31
ATOM     31  C   LIG d   1       7.563  -0.645  -4.363  0.00  0.00     0.165 C 
ATOM     32  H   LIG d   1       8.535  -0.770  -3.885  0.00  0.00     0.080 H 
ATOM     33  H   LIG d   1       7.481   0.367  -4.759  0.00  0.00     0.080 H 
BRANCH  31  34
ATOM     34  C   LIG d   1       6.473  -0.878  -3.350  0.00  0.00     0.251 C 
ATOM     35  O   LIG d   1       6.339  -1.972  -2.843  0.00  0.00    -0.272 OA
ATOM     36  N   LIG d   1       5.646   0.129  -3.006  0.00  0.00    -0.312 N 
ATOM     37  H   LIG d   1       5.752   1.004  -3.411  0.00  0.00     0.149 HD
BRANCH  36  38
ATOM     38  C   LIG d   1       4.585  -0.097  -2.021  0.00  0.00     0.014 C 
ATOM     39  H   LIG d   1       4.599  -1.141  -1.705  0.00  0.00     0.046 H 
ATOM     40  H   LIG d   1       4.748   0.546  -1.157  0.00  0.00     0.046 H 
BRANCH  38  41
ATOM     41  C   LIG d   1       3.228   0.227  -2.649  0.00  0.00    -0.014 C 
ATOM     42  H   LIG d   1       2.431  -0.160  -2.013  0.00  0.00     0.030 H 
ATOM     43  H   LIG d   1       3.122   1.307  -2.746  0.00  0.00     0.030 H 
BRANCH  41  44
ATOM     44  C   LIG d   1       3.137  -0.422  -4.032  0.00  0.00     0.046 C 
ATOM     45  H   LIG d   1       2.154  -0.227  -4.459  0.00  0.00     0.056 H 
ATOM     46  H   LIG d   1       3.905  -0.002  -4.681  0.00  0.00     0.056 H 
BRANCH  44  47
ATOM     47  O   LIG d   1       3.334  -1.831  -3.911  0.00  0.00    -0.395 OA
ATOM     48  H   LIG d   1       3.225  -2.317  -4.740  0.00  0.00     0.209 HD
ENDBRANCH  44  47
ENDBRANCH  41  44
ENDBRANCH  38  41
ENDBRANCH  36  38
ENDBRANCH  31  34
ENDBRANCH  30  31
ENDBRANCH   7  30
BRANCH   1  49
ATOM     49  C   LIG d   1       3.322   2.751  -9.351  0.00  0.00    -0.025 C 
ATOM     50  H   LIG d   1       2.886   2.878 -10.341  0.00  0.00     0.027 H 
ATOM     51  H   LIG d   1       2.587   3.018  -8.593  0.00  0.00     0.027 H 
ATOM     52  H   LIG d   1       4.196   3.395  -9.254  0.00  0.00     0.027 H 
ENDBRANCH   1  49
BRANCH   1  53
ATOM     53  C   LIG d   1       4.462   0.795 -10.418  0.00  0.00    -0.025 C 
ATOM     54  H   LIG d   1       5.534   0.961 -10.310  0.00  0.00     0.027 H 
ATOM     55  H   LIG d   1       4.270  -0.270 -10.550  0.00  0.00     0.027 H 
ATOM     56  H   LIG d   1       4.094   1.341 -11.287  0.00  0.00     0.027 H 
ENDBRANCH   1  53
TORSDOF 9
ENDMDL
MODEL 4
REMARK VINA RESULT:      -7.0      2.394      3.944
REMARK  9 active torsions:
REMARK  status: ('A' for Active; 'I' for Inactive)
REMARK    1  A    between atoms: C_1  and  C_2 
REMARK    2  A    between atoms: C_2  and  C_29 
REMARK    3  A    between atoms: C_8  and  O_19 
REMARK    4  A    between atoms: O_19  and  C_20 
REMARK    5  A    between atoms: C_20  and  C_21 
REMARK       I    between atoms: C_21  and  N_23 
REMARK    6  A    between atoms: N_23  and  C_24 
REMARK    7  A    between atoms: C_24  and  C_25 
REMARK    8  A    between atoms: C_25  and  C_26 
REMARK    9  A    between atoms: C_26  and  O_27 
ROOT
ATOM      1  C   LIG d   1       2.830  -0.572 -10.437  0.00  0.00     0.105 C 
ATOM      2  C   LIG d   1       3.202   0.834  -9.950  0.00  0.00    -0.009 C 
ATOM      3  C   LIG d   1       2.881   0.925  -8.456  0.00  0.00    -0.017 C 
ATOM      4  C   LIG d   1       3.441  -0.280  -7.741  0.00  0.00     0.038 A 
ATOM      5  C   LIG d   1       3.798  -1.426  -8.430  0.00  0.00     0.131 A 
ATOM      6  C   LIG d   1       4.303  -2.531  -7.742  0.00  0.00     0.023 A 
ATOM      7  C   LIG d   1       4.453  -2.496  -6.371  0.00  0.00     0.136 A 
ATOM      8  C   LIG d   1       4.094  -1.335  -5.665  0.00  0.00     0.063 A 
ATOM      9  C   LIG d   1       3.589  -0.224  -6.362  0.00  0.00     0.149 A 
ATOM     10  O   LIG d   1       3.247   0.895  -5.686  0.00  0.00    -0.421 OA
ATOM     11  C   LIG d   1       3.380   0.962  -4.351  0.00  0.00     0.341 A 
ATOM     12  O   LIG d   1       3.065   1.984  -3.769  0.00  0.00    -0.245 OA
ATOM     13  C   LIG d   1       3.879  -0.132  -3.609  0.00  0.00     0.041 A 
ATOM     14  C   LIG d   1       4.235  -1.273  -4.254  0.00  0.00    -0.023 A 
ATOM     15  C   LIG d   1       4.736  -2.299  -3.263  0.00  0.00    -0.026 C 
ATOM     16  C   LIG d   1       4.241  -1.805  -1.887  0.00  0.00    -0.045 C 
ATOM     17  C   LIG d   1       4.110  -0.284  -2.120  0.00  0.00    -0.020 C 
ATOM     18  O   LIG d   1       3.676  -1.515  -9.779  0.00  0.00    -0.486 OA
ATOM     19  H   LIG d   1       4.267   1.008 -10.108  0.00  0.00     0.031 H 
ATOM     20  H   LIG d   1       2.623   1.578 -10.496  0.00  0.00     0.031 H 
ATOM     21  H   LIG d   1       3.325   1.830  -8.044  0.00  0.00     0.032 H 
ATOM     22  H   LIG d   1       1.800   0.956  -8.319  0.00  0.00     0.032 H 
ATOM     23  H   LIG d   1       4.580  -3.420  -8.287  0.00  0.00     0.069 H 
ATOM     24  H   LIG d   1       4.314  -3.279  -3.487  0.00  0.00     0.031 H 
ATOM     25  H   LIG d   1       5.825  -2.342  -3.281  0.00  0.00     0.031 H 
ATOM     26  H   LIG d   1       4.975  -2.017  -1.110  0.00  0.00     0.027 H 
ATOM     27  H   LIG d   1       3.275  -2.245  -1.640  0.00  0.00     0.027 H 
ATOM     28  H   LIG d   1       5.027   0.225  -1.826  0.00  0.00     0.032 H 
ATOM     29  H   LIG d   1       3.260   0.113  -1.565  0.00  0.00     0.032 H 
ENDROOT
BRANCH   7  30
ATOM     30  O   LIG d   1       4.942  -3.575  -5.709  0.00  0.00    -0.482 OA
BRANCH  30  31
ATOM     31  C   LIG d   1       6.152  -4.149  -6.209  0.00  0.00     0.165 C 
ATOM     32  H   LIG d   1       6.171  -5.214  -5.980  0.00  0.00     0.080 H 
ATOM     33  H   LIG d   1       6.202  -4.009  -7.289  0.00  0.00     0.080 H 
BRANCH  31  34
ATOM     34  C   LIG d   1       7.333  -3.475  -5.560  0.00  0.00     0.251 C 
ATOM     35  O   LIG d   1       7.760  -3.885  -4.502  0.00  0.00    -0.272 OA
ATOM     36  N   LIG d   1       7.916  -2.416  -6.157  0.00  0.00    -0.312 N 
ATOM     37  H   LIG d   1       7.576  -2.087  -7.003  0.00  0.00     0.149 HD
BRANCH  36  38
ATOM     38  C   LIG d   1       9.065  -1.760  -5.526  0.00  0.00     0.014 C 
ATOM     39  H   LIG d   1       9.433  -2.379  -4.707  0.00  0.00     0.046 H 
ATOM     40  H   LIG d   1       9.856  -1.625  -6.263  0.00  0.00     0.046 H 
BRANCH  38  41
ATOM     41  C   LIG d   1       8.637  -0.396  -4.981  0.00  0.00    -0.014 C 
ATOM     42  H   LIG d   1       8.314  -0.503  -3.945  0.00  0.00     0.030 H 
ATOM     43  H   LIG d   1       9.479   0.294  -5.029  0.00  0.00     0.030 H 
BRANCH  41  44
ATOM     44  C   LIG d   1       7.481   0.150  -5.822  0.00  0.00     0.046 C 
ATOM     45  H   LIG d   1       7.870   0.538  -6.763  0.00  0.00     0.056 H 
ATOM     46  H   LIG d   1       6.770  -0.650  -6.025  0.00  0.00     0.056 H 
BRANCH  44  47
ATOM     47  O   LIG d   1       6.828   1.201  -5.108  0.00  0.00    -0.395 OA
ATOM     48  H   LIG d   1       7.397   1.660  -4.475  0.00  0.00     0.209 HD
ENDBRANCH  44  47
ENDBRANCH  41  44
ENDBRANCH  38  41
ENDBRANCH  36  38
ENDBRANCH  31  34
ENDBRANCH  30  31
ENDBRANCH   7  30
BRANCH   1  49
ATOM     49  C   LIG d   1       3.035  -0.663 -11.951  0.00  0.00    -0.025 C 
ATOM     50  H   LIG d   1       3.267   0.326 -12.346  0.00  0.00     0.027 H 
ATOM     51  H   LIG d   1       3.860  -1.342 -12.165  0.00  0.00     0.027 H 
ATOM     52  H   LIG d   1       2.125  -1.037 -12.419  0.00  0.00     0.027 H 
ENDBRANCH   1  49
BRANCH   1  53
ATOM     53  C   LIG d   1       1.367  -0.865 -10.096  0.00  0.00    -0.025 C 
ATOM     54  H   LIG d   1       0.818  -1.084 -11.012  0.00  0.00     0.027 H 
ATOM     55  H   LIG d   1       1.316  -1.723  -9.427  0.00  0.00     0.027 H 
ATOM     56  H   LIG d   1       0.928   0.004  -9.607  0.00  0.00     0.027 H 
ENDBRANCH   1  53
TORSDOF 9
ENDMDL
MODEL 5
REMARK VINA RESULT:      -6.7      8.196     11.041
REMARK  9 active torsions:
REMARK  status: ('A' for Active; 'I' for Inactive)
REMARK    1  A    between atoms: C_1  and  C_2 
REMARK    2  A    between atoms: C_2  and  C_29 
REMARK    3  A    between atoms: C_8  and  O_19 
REMARK    4  A    between atoms: O_19  and  C_20 
REMARK    5  A    between atoms: C_20  and  C_21 
REMARK       I    between atoms: C_21  and  N_23 
REMARK    6  A    between atoms: N_23  and  C_24 
REMARK    7  A    between atoms: C_24  and  C_25 
REMARK    8  A    between atoms: C_25  and  C_26 
REMARK    9  A    between atoms: C_26  and  O_27 
ROOT
ATOM      1  C   LIG d   1      11.164   6.700   0.278  0.00  0.00     0.105 C 
ATOM      2  C   LIG d   1      10.310   7.907  -0.130  0.00  0.00    -0.009 C 
ATOM      3  C   LIG d   1      10.518   8.159  -1.625  0.00  0.00    -0.017 C 
ATOM      4  C   LIG d   1      10.379   6.863  -2.383  0.00  0.00     0.038 A 
ATOM      5  C   LIG d   1      10.467   5.639  -1.743  0.00  0.00     0.131 A 
ATOM      6  C   LIG d   1      10.344   4.454  -2.472  0.00  0.00     0.023 A 
ATOM      7  C   LIG d   1      10.135   4.486  -3.834  0.00  0.00     0.136 A 
ATOM      8  C   LIG d   1      10.043   5.726  -4.492  0.00  0.00     0.063 A 
ATOM      9  C   LIG d   1      10.163   6.916  -3.754  0.00  0.00     0.149 A 
ATOM     10  O   LIG d   1      10.070   8.108  -4.383  0.00  0.00    -0.421 OA
ATOM     11  C   LIG d   1       9.867   8.175  -5.709  0.00  0.00     0.341 A 
ATOM     12  O   LIG d   1       9.787   9.264  -6.248  0.00  0.00    -0.245 OA
ATOM     13  C   LIG d   1       9.745   7.004  -6.490  0.00  0.00     0.041 A 
ATOM     14  C   LIG d   1       9.831   5.787  -5.894  0.00  0.00    -0.023 A 
ATOM     15  C   LIG d   1       9.673   4.689  -6.920  0.00  0.00    -0.026 C 
ATOM     16  C   LIG d   1       9.910   5.375  -8.283  0.00  0.00    -0.045 C 
ATOM     17  C   LIG d   1       9.520   6.837  -7.978  0.00  0.00    -0.020 C 
ATOM     18  O   LIG d   1      10.667   5.547  -0.403  0.00  0.00    -0.486 OA
ATOM     19  H   LIG d   1       9.258   7.697   0.065  0.00  0.00     0.031 H 
ATOM     20  H   LIG d   1      10.620   8.785   0.438  0.00  0.00     0.031 H 
ATOM     21  H   LIG d   1       9.773   8.870  -1.980  0.00  0.00     0.032 H 
ATOM     22  H   LIG d   1      11.516   8.567  -1.788  0.00  0.00     0.032 H 
ATOM     23  H   LIG d   1      10.414   3.504  -1.963  0.00  0.00     0.069 H 
ATOM     24  H   LIG d   1      10.415   3.908  -6.756  0.00  0.00     0.031 H 
ATOM     25  H   LIG d   1       8.667   4.272  -6.877  0.00  0.00     0.031 H 
ATOM     26  H   LIG d   1       9.263   4.952  -9.050  0.00  0.00     0.027 H 
ATOM     27  H   LIG d   1      10.958   5.305  -8.577  0.00  0.00     0.027 H 
ATOM     28  H   LIG d   1       8.471   7.009  -8.223  0.00  0.00     0.032 H 
ATOM     29  H   LIG d   1      10.157   7.524  -8.536  0.00  0.00     0.032 H 
ENDROOT
BRANCH   7  30
ATOM     30  O   LIG d   1      10.020   3.330  -4.536  0.00  0.00    -0.482 OA
BRANCH  30  31
ATOM     31  C   LIG d   1       9.778   2.138  -3.786  0.00  0.00     0.165 C 
ATOM     32  H   LIG d   1      10.541   1.396  -4.026  0.00  0.00     0.080 H 
ATOM     33  H   LIG d   1       9.815   2.364  -2.721  0.00  0.00     0.080 H 
BRANCH  31  34
ATOM     34  C   LIG d   1       8.419   1.591  -4.136  0.00  0.00     0.251 C 
ATOM     35  O   LIG d   1       7.576   2.321  -4.614  0.00  0.00    -0.272 OA
ATOM     36  N   LIG d   1       8.139   0.291  -3.919  0.00  0.00    -0.312 N 
ATOM     37  H   LIG d   1       8.812  -0.293  -3.536  0.00  0.00     0.149 HD
BRANCH  36  38
ATOM     38  C   LIG d   1       6.817  -0.241  -4.259  0.00  0.00     0.014 C 
ATOM     39  H   LIG d   1       6.192   0.562  -4.651  0.00  0.00     0.046 H 
ATOM     40  H   LIG d   1       6.922  -1.021  -5.013  0.00  0.00     0.046 H 
BRANCH  38  41
ATOM     41  C   LIG d   1       6.165  -0.829  -3.006  0.00  0.00    -0.014 C 
ATOM     42  H   LIG d   1       5.728  -1.799  -3.244  0.00  0.00     0.030 H 
ATOM     43  H   LIG d   1       6.919  -0.952  -2.229  0.00  0.00     0.030 H 
BRANCH  41  44
ATOM     44  C   LIG d   1       5.069   0.116  -2.509  0.00  0.00     0.046 C 
ATOM     45  H   LIG d   1       4.232   0.099  -3.207  0.00  0.00     0.056 H 
ATOM     46  H   LIG d   1       4.729  -0.208  -1.526  0.00  0.00     0.056 H 
BRANCH  44  47
ATOM     47  O   LIG d   1       5.589   1.444  -2.421  0.00  0.00    -0.395 OA
ATOM     48  H   LIG d   1       5.154   1.993  -1.755  0.00  0.00     0.209 HD
ENDBRANCH  44  47
ENDBRANCH  41  44
ENDBRANCH  38  41
ENDBRANCH  36  38
ENDBRANCH  31  34
ENDBRANCH  30  31
ENDBRANCH   7  30
BRANCH   1  49
ATOM     49  C   LIG d   1      11.065   6.487   1.790  0.00  0.00    -0.025 C 
ATOM     50  H   LIG d   1      12.005   6.079   2.161  0.00  0.00     0.027 H 
ATOM     51  H   LIG d   1      10.865   7.440   2.279  0.00  0.00     0.027 H 
ATOM     52  H   LIG d   1      10.256   5.790   2.007  0.00  0.00     0.027 H 
ENDBRANCH   1  49
BRANCH   1  53
ATOM     53  C   LIG d   1      12.622   6.943  -0.115  0.00  0.00    -0.025 C 
ATOM     54  H   LIG d   1      13.093   5.993  -0.368  0.00  0.00     0.027 H 
ATOM     55  H   LIG d   1      12.660   7.609  -0.977  0.00  0.00     0.027 H 
ATOM     56  H   LIG d   1      13.152   7.401   0.721  0.00  0.00     0.027 H 
ENDBRANCH   1  53
TORSDOF 9
ENDMDL
MODEL 6
REMARK VINA RESULT:      -6.6      2.378      3.123
REMARK  9 active torsions:
REMARK  status: ('A' for Active; 'I' for Inactive)
REMARK    1  A    between atoms: C_1  and  C_2 
REMARK    2  A    between atoms: C_2  and  C_29 
REMARK    3  A    between atoms: C_8  and  O_19 
REMARK    4  A    between atoms: O_19  and  C_20 
REMARK    5  A    between atoms: C_20  and  C_21 
REMARK       I    between atoms: C_21  and  N_23 
REMARK    6  A    between atoms: N_23  and  C_24 
REMARK    7  A    between atoms: C_24  and  C_25 
REMARK    8  A    between atoms: C_25  and  C_26 
REMARK    9  A    between atoms: C_26  and  O_27 
ROOT
ATOM      1  C   LIG d   1       2.912  -0.549 -10.424  0.00  0.00     0.105 C 
ATOM      2  C   LIG d   1       3.191   0.876  -9.931  0.00  0.00    -0.009 C 
ATOM      3  C   LIG d   1       2.856   0.942  -8.439  0.00  0.00    -0.017 C 
ATOM      4  C   LIG d   1       3.487  -0.227  -7.724  0.00  0.00     0.038 A 
ATOM      5  C   LIG d   1       3.921  -1.346  -8.413  0.00  0.00     0.131 A 
ATOM      6  C   LIG d   1       4.492  -2.418  -7.724  0.00  0.00     0.023 A 
ATOM      7  C   LIG d   1       4.631  -2.378  -6.353  0.00  0.00     0.136 A 
ATOM      8  C   LIG d   1       4.194  -1.244  -5.646  0.00  0.00     0.063 A 
ATOM      9  C   LIG d   1       3.623  -0.166  -6.344  0.00  0.00     0.149 A 
ATOM     10  O   LIG d   1       3.207   0.928  -5.667  0.00  0.00    -0.421 OA
ATOM     11  C   LIG d   1       3.327   0.999  -4.331  0.00  0.00     0.341 A 
ATOM     12  O   LIG d   1       2.944   1.997  -3.748  0.00  0.00    -0.245 OA
ATOM     13  C   LIG d   1       3.891  -0.063  -3.589  0.00  0.00     0.041 A 
ATOM     14  C   LIG d   1       4.323  -1.177  -4.234  0.00  0.00    -0.023 A 
ATOM     15  C   LIG d   1       4.882  -2.172  -3.243  0.00  0.00    -0.026 C 
ATOM     16  C   LIG d   1       4.348  -1.714  -1.868  0.00  0.00    -0.045 C 
ATOM     17  C   LIG d   1       4.122  -0.204  -2.099  0.00  0.00    -0.020 C 
ATOM     18  O   LIG d   1       3.814  -1.439  -9.763  0.00  0.00    -0.486 OA
ATOM     19  H   LIG d   1       4.243   1.118 -10.082  0.00  0.00     0.031 H 
ATOM     20  H   LIG d   1       2.569   1.583 -10.479  0.00  0.00     0.031 H 
ATOM     21  H   LIG d   1       3.239   1.872  -8.022  0.00  0.00     0.032 H 
ATOM     22  H   LIG d   1       1.774   0.903  -8.309  0.00  0.00     0.032 H 
ATOM     23  H   LIG d   1       4.828  -3.287  -8.271  0.00  0.00     0.069 H 
ATOM     24  H   LIG d   1       4.525  -3.176  -3.472  0.00  0.00     0.031 H 
ATOM     25  H   LIG d   1       5.972  -2.145  -3.254  0.00  0.00     0.031 H 
ATOM     26  H   LIG d   1       5.090  -1.881  -1.087  0.00  0.00     0.027 H 
ATOM     27  H   LIG d   1       3.411  -2.216  -1.628  0.00  0.00     0.027 H 
ATOM     28  H   LIG d   1       5.003   0.362  -1.798  0.00  0.00     0.032 H 
ATOM     29  H   LIG d   1       3.245   0.136  -1.547  0.00  0.00     0.032 H 
ENDROOT
BRANCH   7  30
ATOM     30  O   LIG d   1       5.184  -3.425  -5.690  0.00  0.00    -0.482 OA
BRANCH  30  31
ATOM     31  C   LIG d   1       6.339  -4.028  -6.279  0.00  0.00     0.165 C 
ATOM     32  H   LIG d   1       6.043  -4.928  -6.819  0.00  0.00     0.080 H 
ATOM     33  H   LIG d   1       6.803  -3.325  -6.972  0.00  0.00     0.080 H 
BRANCH  31  34
ATOM     34  C   LIG d   1       7.323  -4.391  -5.198  0.00  0.00     0.251 C 
ATOM     35  O   LIG d   1       7.547  -5.556  -4.949  0.00  0.00    -0.272 OA
ATOM     36  N   LIG d   1       7.954  -3.421  -4.508  0.00  0.00    -0.312 N 
ATOM     37  H   LIG d   1       7.775  -2.489  -4.706  0.00  0.00     0.149 HD
BRANCH  36  38
ATOM     38  C   LIG d   1       8.910  -3.774  -3.455  0.00  0.00     0.014 C 
ATOM     39  H   LIG d   1       8.767  -3.116  -2.598  0.00  0.00     0.046 H 
ATOM     40  H   LIG d   1       8.749  -4.808  -3.150  0.00  0.00     0.046 H 
BRANCH  38  41
ATOM     41  C   LIG d   1      10.336  -3.617  -3.987  0.00  0.00    -0.014 C 
ATOM     42  H   LIG d   1      10.304  -3.426  -5.060  0.00  0.00     0.030 H 
ATOM     43  H   LIG d   1      10.821  -2.781  -3.484  0.00  0.00     0.030 H 
BRANCH  41  44
ATOM     44  C   LIG d   1      11.125  -4.901  -3.720  0.00  0.00     0.046 C 
ATOM     45  H   LIG d   1      12.086  -4.848  -4.231  0.00  0.00     0.056 H 
ATOM     46  H   LIG d   1      11.288  -5.011  -2.648  0.00  0.00     0.056 H 
BRANCH  44  47
ATOM     47  O   LIG d   1      10.387  -6.023  -4.208  0.00  0.00    -0.395 OA
ATOM     48  H   LIG d   1       9.711  -5.796  -4.861  0.00  0.00     0.209 HD
ENDBRANCH  44  47
ENDBRANCH  41  44
ENDBRANCH  38  41
ENDBRANCH  36  38
ENDBRANCH  31  34
ENDBRANCH  30  31
ENDBRANCH   7  30
BRANCH   1  49
ATOM     49  C   LIG d   1       3.132  -0.623 -11.937  0.00  0.00    -0.025 C 
ATOM     50  H   LIG d   1       4.048  -0.092 -12.196  0.00  0.00     0.027 H 
ATOM     51  H   LIG d   1       3.219  -1.666 -12.241  0.00  0.00     0.027 H 
ATOM     52  H   LIG d   1       2.288  -0.163 -12.450  0.00  0.00     0.027 H 
ENDBRANCH   1  49
BRANCH   1  53
ATOM     53  C   LIG d   1       1.470  -0.937 -10.093  0.00  0.00    -0.025 C 
ATOM     54  H   LIG d   1       1.432  -1.378  -9.097  0.00  0.00     0.027 H 
ATOM     55  H   LIG d   1       0.839  -0.048 -10.121  0.00  0.00     0.027 H 
ATOM     56  H   LIG d   1       1.111  -1.660 -10.825  0.00  0.00     0.027 H 
ENDBRANCH   1  53
TORSDOF 9
ENDMDL
MODEL 7
REMARK VINA RESULT:      -6.6     10.917     14.490
REMARK  9 active torsions:
REMARK  status: ('A' for Active; 'I' for Inactive)
REMARK    1  A    between atoms: C_1  and  C_2 
REMARK    2  A    between atoms: C_2  and  C_29 
REMARK    3  A    between atoms: C_8  and  O_19 
REMARK    4  A    between atoms: O_19  and  C_20 
REMARK    5  A    between atoms: C_20  and  C_21 
REMARK       I    between atoms: C_21  and  N_23 
REMARK    6  A    between atoms: N_23  and  C_24 
REMARK    7  A    between atoms: C_24  and  C_25 
REMARK    8  A    between atoms: C_25  and  C_26 
REMARK    9  A    between atoms: C_26  and  O_27 
ROOT
ATOM      1  C   LIG d   1       9.845   3.665  -5.104  0.00  0.00     0.105 C 
ATOM      2  C   LIG d   1       9.397   3.064  -3.766  0.00  0.00    -0.009 C 
ATOM      3  C   LIG d   1      10.171   3.760  -2.644  0.00  0.00    -0.017 C 
ATOM      4  C   LIG d   1      10.117   5.255  -2.840  0.00  0.00     0.038 A 
ATOM      5  C   LIG d   1       9.775   5.811  -4.060  0.00  0.00     0.131 A 
ATOM      6  C   LIG d   1       9.744   7.198  -4.217  0.00  0.00     0.023 A 
ATOM      7  C   LIG d   1      10.053   8.031  -3.162  0.00  0.00     0.136 A 
ATOM      8  C   LIG d   1      10.399   7.474  -1.918  0.00  0.00     0.063 A 
ATOM      9  C   LIG d   1      10.426   6.077  -1.764  0.00  0.00     0.149 A 
ATOM     10  O   LIG d   1      10.754   5.539  -0.569  0.00  0.00    -0.421 OA
ATOM     11  C   LIG d   1      11.060   6.322   0.479  0.00  0.00     0.341 A 
ATOM     12  O   LIG d   1      11.352   5.808   1.544  0.00  0.00    -0.245 OA
ATOM     13  C   LIG d   1      11.051   7.730   0.368  0.00  0.00     0.041 A 
ATOM     14  C   LIG d   1      10.724   8.307  -0.816  0.00  0.00    -0.023 A 
ATOM     15  C   LIG d   1      10.782   9.813  -0.698  0.00  0.00    -0.026 C 
ATOM     16  C   LIG d   1      11.602  10.085   0.582  0.00  0.00    -0.045 C 
ATOM     17  C   LIG d   1      11.359   8.797   1.398  0.00  0.00    -0.020 C 
ATOM     18  O   LIG d   1       9.458   5.040  -5.132  0.00  0.00    -0.486 OA
ATOM     19  H   LIG d   1       8.327   3.226  -3.630  0.00  0.00     0.031 H 
ATOM     20  H   LIG d   1       9.611   1.996  -3.753  0.00  0.00     0.031 H 
ATOM     21  H   LIG d   1       9.726   3.504  -1.683  0.00  0.00     0.032 H 
ATOM     22  H   LIG d   1      11.210   3.431  -2.662  0.00  0.00     0.032 H 
ATOM     23  H   LIG d   1       9.476   7.622  -5.172  0.00  0.00     0.069 H 
ATOM     24  H   LIG d   1      11.283  10.243  -1.566  0.00  0.00     0.031 H 
ATOM     25  H   LIG d   1       9.777  10.224  -0.598  0.00  0.00     0.031 H 
ATOM     26  H   LIG d   1      11.221  10.958   1.111  0.00  0.00     0.027 H 
ATOM     27  H   LIG d   1      12.660  10.204   0.348  0.00  0.00     0.027 H 
ATOM     28  H   LIG d   1      10.512   8.929   2.071  0.00  0.00     0.032 H 
ATOM     29  H   LIG d   1      12.254   8.530   1.961  0.00  0.00     0.032 H 
ENDROOT
BRANCH   7  30
ATOM     30  O   LIG d   1      10.023   9.378  -3.322  0.00  0.00    -0.482 OA
BRANCH  30  31
ATOM     31  C   LIG d   1       9.644   9.869  -4.610  0.00  0.00     0.165 C 
ATOM     32  H   LIG d   1      10.480   9.760  -5.301  0.00  0.00     0.080 H 
ATOM     33  H   LIG d   1       8.791   9.301  -4.979  0.00  0.00     0.080 H 
BRANCH  31  34
ATOM     34  C   LIG d   1       9.270  11.325  -4.502  0.00  0.00     0.251 C 
ATOM     35  O   LIG d   1       8.300  11.655  -3.854  0.00  0.00    -0.272 OA
ATOM     36  N   LIG d   1      10.014  12.260  -5.126  0.00  0.00    -0.312 N 
ATOM     37  H   LIG d   1      10.789  11.996  -5.644  0.00  0.00     0.149 HD
BRANCH  36  38
ATOM     38  C   LIG d   1       9.649  13.675  -5.021  0.00  0.00     0.014 C 
ATOM     39  H   LIG d   1       8.663  13.764  -4.566  0.00  0.00     0.046 H 
ATOM     40  H   LIG d   1      10.382  14.194  -4.404  0.00  0.00     0.046 H 
BRANCH  38  41
ATOM     41  C   LIG d   1       9.625  14.300  -6.417  0.00  0.00    -0.014 C 
ATOM     42  H   LIG d   1       8.626  14.686  -6.626  0.00  0.00     0.030 H 
ATOM     43  H   LIG d   1      10.346  15.116  -6.463  0.00  0.00     0.030 H 
BRANCH  41  44
ATOM     44  C   LIG d   1       9.989  13.239  -7.458  0.00  0.00     0.046 C 
ATOM     45  H   LIG d   1      10.564  13.700  -8.260  0.00  0.00     0.056 H 
ATOM     46  H   LIG d   1      10.584  12.457  -6.987  0.00  0.00     0.056 H 
BRANCH  44  47
ATOM     47  O   LIG d   1       8.794  12.670  -7.996  0.00  0.00    -0.395 OA
ATOM     48  H   LIG d   1       8.948  11.992  -8.669  0.00  0.00     0.209 HD
ENDBRANCH  44  47
ENDBRANCH  41  44
ENDBRANCH  38  41
ENDBRANCH  36  38
ENDBRANCH  31  34
ENDBRANCH  30  31
ENDBRANCH   7  30
BRANCH   1  49
ATOM     49  C   LIG d   1       9.171   2.917  -6.256  0.00  0.00    -0.025 C 
ATOM     50  H   LIG d   1       8.709   3.635  -6.934  0.00  0.00     0.027 H 
ATOM     51  H   LIG d   1       9.917   2.335  -6.797  0.00  0.00     0.027 H 
ATOM     52  H   LIG d   1       8.407   2.250  -5.858  0.00  0.00     0.027 H 
ENDBRANCH   1  49
BRANCH   1  53
ATOM     53  C   LIG d   1      11.365   3.555  -5.235  0.00  0.00    -0.025 C 
ATOM     54  H   LIG d   1      11.792   4.550  -5.357  0.00  0.00     0.027 H 
ATOM     55  H   LIG d   1      11.774   3.090  -4.338  0.00  0.00     0.027 H 
ATOM     56  H   LIG d   1      11.611   2.945  -6.105  0.00  0.00     0.027 H 
ENDBRANCH   1  53
TORSDOF 9
ENDMDL
MODEL 8
REMARK VINA RESULT:      -6.6      5.537      9.026
REMARK  9 active torsions:
REMARK  status: ('A' for Active; 'I' for Inactive)
REMARK    1  A    between atoms: C_1  and  C_2 
REMARK    2  A    between atoms: C_2  and  C_29 
REMARK    3  A    between atoms: C_8  and  O_19 
REMARK    4  A    between atoms: O_19  and  C_20 
REMARK    5  A    between atoms: C_20  and  C_21 
REMARK       I    between atoms: C_21  and  N_23 
REMARK    6  A    between atoms: N_23  and  C_24 
REMARK    7  A    between atoms: C_24  and  C_25 
REMARK    8  A    between atoms: C_25  and  C_26 
REMARK    9  A    between atoms: C_26  and  O_27 
ROOT
ATOM      1  C   LIG d   1      10.656  -3.232  -5.702  0.00  0.00     0.105 C 
ATOM      2  C   LIG d   1       9.416  -3.993  -6.188  0.00  0.00    -0.009 C 
ATOM      3  C   LIG d   1       8.292  -3.778  -5.172  0.00  0.00    -0.017 C 
ATOM      4  C   LIG d   1       8.179  -2.310  -4.842  0.00  0.00     0.038 A 
ATOM      5  C   LIG d   1       9.208  -1.427  -5.118  0.00  0.00     0.131 A 
ATOM      6  C   LIG d   1       9.080  -0.075  -4.792  0.00  0.00     0.023 A 
ATOM      7  C   LIG d   1       7.932   0.397  -4.193  0.00  0.00     0.136 A 
ATOM      8  C   LIG d   1       6.881  -0.493  -3.911  0.00  0.00     0.063 A 
ATOM      9  C   LIG d   1       7.013  -1.852  -4.244  0.00  0.00     0.149 A 
ATOM     10  O   LIG d   1       6.002  -2.710  -3.978  0.00  0.00    -0.421 OA
ATOM     11  C   LIG d   1       4.870  -2.282  -3.395  0.00  0.00     0.341 A 
ATOM     12  O   LIG d   1       3.977  -3.078  -3.168  0.00  0.00    -0.245 OA
ATOM     13  C   LIG d   1       4.697  -0.926  -3.039  0.00  0.00     0.041 A 
ATOM     14  C   LIG d   1       5.689  -0.034  -3.292  0.00  0.00    -0.023 A 
ATOM     15  C   LIG d   1       5.284   1.346  -2.828  0.00  0.00    -0.026 C 
ATOM     16  C   LIG d   1       4.096   1.114  -1.868  0.00  0.00    -0.045 C 
ATOM     17  C   LIG d   1       3.527  -0.227  -2.380  0.00  0.00    -0.020 C 
ATOM     18  O   LIG d   1      10.359  -1.835  -5.711  0.00  0.00    -0.486 OA
ATOM     19  H   LIG d   1       9.110  -3.612  -7.162  0.00  0.00     0.031 H 
ATOM     20  H   LIG d   1       9.644  -5.056  -6.264  0.00  0.00     0.031 H 
ATOM     21  H   LIG d   1       7.351  -4.129  -5.593  0.00  0.00     0.032 H 
ATOM     22  H   LIG d   1       8.514  -4.336  -4.262  0.00  0.00     0.032 H 
ATOM     23  H   LIG d   1       9.888   0.606  -5.012  0.00  0.00     0.069 H 
ATOM     24  H   LIG d   1       6.108   1.826  -2.300  0.00  0.00     0.031 H 
ATOM     25  H   LIG d   1       4.971   1.954  -3.676  0.00  0.00     0.031 H 
ATOM     26  H   LIG d   1       3.358   1.910  -1.962  0.00  0.00     0.027 H 
ATOM     27  H   LIG d   1       4.440   1.023  -0.838  0.00  0.00     0.027 H 
ATOM     28  H   LIG d   1       2.734  -0.050  -3.106  0.00  0.00     0.032 H 
ATOM     29  H   LIG d   1       3.152  -0.822  -1.547  0.00  0.00     0.032 H 
ENDROOT
BRANCH   7  30
ATOM     30  O   LIG d   1       7.817   1.712  -3.877  0.00  0.00    -0.482 OA
BRANCH  30  31
ATOM     31  C   LIG d   1       8.482   2.645  -4.731  0.00  0.00     0.165 C 
ATOM     32  H   LIG d   1       9.024   2.105  -5.508  0.00  0.00     0.080 H 
ATOM     33  H   LIG d   1       7.746   3.303  -5.193  0.00  0.00     0.080 H 
BRANCH  31  34
ATOM     34  C   LIG d   1       9.451   3.466  -3.921  0.00  0.00     0.251 C 
ATOM     35  O   LIG d   1      10.060   2.955  -3.005  0.00  0.00    -0.272 OA
ATOM     36  N   LIG d   1       9.642   4.767  -4.215  0.00  0.00    -0.312 N 
ATOM     37  H   LIG d   1       9.156   5.176  -4.947  0.00  0.00     0.149 HD
BRANCH  36  38
ATOM     38  C   LIG d   1      10.584   5.566  -3.426  0.00  0.00     0.014 C 
ATOM     39  H   LIG d   1      11.243   4.902  -2.865  0.00  0.00     0.046 H 
ATOM     40  H   LIG d   1      11.180   6.188  -4.094  0.00  0.00     0.046 H 
BRANCH  38  41
ATOM     41  C   LIG d   1       9.810   6.457  -2.455  0.00  0.00    -0.014 C 
ATOM     42  H   LIG d   1      10.002   7.504  -2.689  0.00  0.00     0.030 H 
ATOM     43  H   LIG d   1       8.743   6.255  -2.548  0.00  0.00     0.030 H 
BRANCH  41  44
ATOM     44  C   LIG d   1      10.261   6.165  -1.022  0.00  0.00     0.046 C 
ATOM     45  H   LIG d   1      11.039   6.872  -0.736  0.00  0.00     0.056 H 
ATOM     46  H   LIG d   1       9.412   6.264  -0.346  0.00  0.00     0.056 H 
BRANCH  44  47
ATOM     47  O   LIG d   1      10.776   4.834  -0.947  0.00  0.00    -0.395 OA
ATOM     48  H   LIG d   1      10.852   4.392  -1.805  0.00  0.00     0.209 HD
ENDBRANCH  44  47
ENDBRANCH  41  44
ENDBRANCH  38  41
ENDBRANCH  36  38
ENDBRANCH  31  34
ENDBRANCH  30  31
ENDBRANCH   7  30
BRANCH   1  49
ATOM     49  C   LIG d   1      11.834  -3.515  -6.637  0.00  0.00    -0.025 C 
ATOM     50  H   LIG d   1      12.102  -2.602  -7.168  0.00  0.00     0.027 H 
ATOM     51  H   LIG d   1      12.687  -3.860  -6.053  0.00  0.00     0.027 H 
ATOM     52  H   LIG d   1      11.550  -4.283  -7.356  0.00  0.00     0.027 H 
ENDBRANCH   1  49
BRANCH   1  53
ATOM     53  C   LIG d   1      11.008  -3.675  -4.280  0.00  0.00    -0.025 C 
ATOM     54  H   LIG d   1      10.423  -3.097  -3.564  0.00  0.00     0.027 H 
ATOM     55  H   LIG d   1      10.783  -4.735  -4.163  0.00  0.00     0.027 H 
ATOM     56  H   LIG d   1      12.071  -3.508  -4.101  0.00  0.00     0.027 H 
ENDBRANCH   1  53
TORSDOF 9
ENDMDL
MODEL 9
REMARK VINA RESULT:      -6.5      4.094      5.315
REMARK  9 active torsions:
REMARK  status: ('A' for Active; 'I' for Inactive)
REMARK    1  A    between atoms: C_1  and  C_2 
REMARK    2  A    between atoms: C_2  and  C_29 
REMARK    3  A    between atoms: C_8  and  O_19 
REMARK    4  A    between atoms: O_19  and  C_20 
REMARK    5  A    between atoms: C_20  and  C_21 
REMARK       I    between atoms: C_21  and  N_23 
REMARK    6  A    between atoms: N_23  and  C_24 
REMARK    7  A    between atoms: C_24  and  C_25 
REMARK    8  A    between atoms: C_25  and  C_26 
REMARK    9  A    between atoms: C_26  and  O_27 
ROOT
ATOM      1  C   LIG d   1      10.375   2.502  -5.860  0.00  0.00     0.105 C 
ATOM      2  C   LIG d   1      10.146   2.994  -4.426  0.00  0.00    -0.009 C 
ATOM      3  C   LIG d   1       8.697   2.691  -4.040  0.00  0.00    -0.017 C 
ATOM      4  C   LIG d   1       8.364   1.263  -4.395  0.00  0.00     0.038 A 
ATOM      5  C   LIG d   1       9.137   0.543  -5.289  0.00  0.00     0.131 A 
ATOM      6  C   LIG d   1       8.799  -0.774  -5.608  0.00  0.00     0.023 A 
ATOM      7  C   LIG d   1       7.695  -1.373  -5.040  0.00  0.00     0.136 A 
ATOM      8  C   LIG d   1       6.905  -0.649  -4.129  0.00  0.00     0.063 A 
ATOM      9  C   LIG d   1       7.251   0.675  -3.808  0.00  0.00     0.149 A 
ATOM     10  O   LIG d   1       6.496   1.372  -2.930  0.00  0.00    -0.421 OA
ATOM     11  C   LIG d   1       5.414   0.818  -2.359  0.00  0.00     0.341 A 
ATOM     12  O   LIG d   1       4.754   1.471  -1.571  0.00  0.00    -0.245 OA
ATOM     13  C   LIG d   1       5.027  -0.507  -2.656  0.00  0.00     0.041 A 
ATOM     14  C   LIG d   1       5.762  -1.240  -3.532  0.00  0.00    -0.023 A 
ATOM     15  C   LIG d   1       5.162  -2.618  -3.693  0.00  0.00    -0.026 C 
ATOM     16  C   LIG d   1       3.726  -2.499  -3.140  0.00  0.00    -0.045 C 
ATOM     17  C   LIG d   1       3.862  -1.327  -2.144  0.00  0.00    -0.020 C 
ATOM     18  O   LIG d   1      10.237   1.080  -5.875  0.00  0.00    -0.486 OA
ATOM     19  H   LIG d   1      10.823   2.477  -3.746  0.00  0.00     0.031 H 
ATOM     20  H   LIG d   1      10.323   4.068  -4.373  0.00  0.00     0.031 H 
ATOM     21  H   LIG d   1       8.568   2.838  -2.968  0.00  0.00     0.032 H 
ATOM     22  H   LIG d   1       8.029   3.363  -4.580  0.00  0.00     0.032 H 
ATOM     23  H   LIG d   1       9.408  -1.328  -6.306  0.00  0.00     0.069 H 
ATOM     24  H   LIG d   1       5.139  -2.901  -4.746  0.00  0.00     0.031 H 
ATOM     25  H   LIG d   1       5.730  -3.348  -3.117  0.00  0.00     0.031 H 
ATOM     26  H   LIG d   1       3.429  -3.413  -2.626  0.00  0.00     0.027 H 
ATOM     27  H   LIG d   1       3.021  -2.254  -3.935  0.00  0.00     0.027 H 
ATOM     28  H   LIG d   1       4.075  -1.703  -1.143  0.00  0.00     0.032 H 
ATOM     29  H   LIG d   1       2.952  -0.727  -2.138  0.00  0.00     0.032 H 
ENDROOT
BRANCH   7  30
ATOM     30  O   LIG d   1       7.372  -2.653  -5.357  0.00  0.00    -0.482 OA
BRANCH  30  31
ATOM     31  C   LIG d   1       8.346  -3.658  -5.069  0.00  0.00     0.165 C 
ATOM     32  H   LIG d   1       9.166  -3.585  -5.785  0.00  0.00     0.080 H 
ATOM     33  H   LIG d   1       8.732  -3.512  -4.060  0.00  0.00     0.080 H 
BRANCH  31  34
ATOM     34  C   LIG d   1       7.709  -5.019  -5.171  0.00  0.00     0.251 C 
ATOM     35  O   LIG d   1       8.350  -6.011  -4.898  0.00  0.00    -0.272 OA
ATOM     36  N   LIG d   1       6.426  -5.134  -5.566  0.00  0.00    -0.312 N 
ATOM     37  H   LIG d   1       5.912  -4.341  -5.786  0.00  0.00     0.149 HD
BRANCH  36  38
ATOM     38  C   LIG d   1       5.806  -6.458  -5.667  0.00  0.00     0.014 C 
ATOM     39  H   LIG d   1       6.583  -7.221  -5.716  0.00  0.00     0.046 H 
ATOM     40  H   LIG d   1       5.181  -6.633  -4.791  0.00  0.00     0.046 H 
BRANCH  38  41
ATOM     41  C   LIG d   1       4.945  -6.524  -6.929  0.00  0.00    -0.014 C 
ATOM     42  H   LIG d   1       5.580  -6.722  -7.793  0.00  0.00     0.030 H 
ATOM     43  H   LIG d   1       4.211  -7.323  -6.827  0.00  0.00     0.030 H 
BRANCH  41  44
ATOM     44  C   LIG d   1       4.221  -5.190  -7.124  0.00  0.00     0.046 C 
ATOM     45  H   LIG d   1       4.936  -4.372  -7.028  0.00  0.00     0.056 H 
ATOM     46  H   LIG d   1       3.769  -5.163  -8.115  0.00  0.00     0.056 H 
BRANCH  44  47
ATOM     47  O   LIG d   1       3.203  -5.050  -6.131  0.00  0.00    -0.395 OA
ATOM     48  H   LIG d   1       2.487  -4.451  -6.383  0.00  0.00     0.209 HD
ENDBRANCH  44  47
ENDBRANCH  41  44
ENDBRANCH  38  41
ENDBRANCH  36  38
ENDBRANCH  31  34
ENDBRANCH  30  31
ENDBRANCH   7  30
BRANCH   1  49
ATOM     49  C   LIG d   1      11.783   2.888  -6.319  0.00  0.00    -0.025 C 
ATOM     50  H   LIG d   1      11.832   3.966  -6.471  0.00  0.00     0.027 H 
ATOM     51  H   LIG d   1      12.506   2.595  -5.558  0.00  0.00     0.027 H 
ATOM     52  H   LIG d   1      12.013   2.378  -7.254  0.00  0.00     0.027 H 
ENDBRANCH   1  49
BRANCH   1  53
ATOM     53  C   LIG d   1       9.338   3.130  -6.793  0.00  0.00    -0.025 C 
ATOM     54  H   LIG d   1       9.219   2.505  -7.678  0.00  0.00     0.027 H 
ATOM     55  H   LIG d   1       8.383   3.211  -6.273  0.00  0.00     0.027 H 
ATOM     56  H   LIG d   1       9.674   4.124  -7.092  0.00  0.00     0.027 H 
ENDBRANCH   1  53
TORSDOF 9
ENDMDL
