MODEL 1
REMARK VINA RESULT:      -6.8      0.000      0.000
REMARK  9 active torsions:
REMARK  status: ('A' for Active; 'I' for Inactive)
REMARK    1  A    between atoms: C_1  and  C_2 
REMARK    2  A    between atoms: C_5  and  N_21 
REMARK    3  A    between atoms: C_10  and  C_11 
REMARK    4  A    between atoms: C_11  and  C_13 
REMARK    5  A    between atoms: C_16  and  O_19 
REMARK    6  A    between atoms: O_19  and  C_20 
REMARK       I    between atoms: N_21  and  C_22 
REMARK    7  A    between atoms: C_22  and  C_24 
REMARK    8  A    between atoms: C_28  and  O_30 
REMARK    9  A    between atoms: O_30  and  C_31 
ROOT
ATOM      1  C   LIG d   1       4.990  -8.701  -5.909  0.00  0.00     0.006 A 
ATOM      2  C   LIG d   1       4.718  -7.280  -6.122  0.00  0.00     0.025 A 
ATOM      3  C   LIG d   1       4.597  -6.175  -5.275  0.00  0.00    -0.029 A 
ATOM      4  C   LIG d   1       4.326  -4.931  -5.813  0.00  0.00     0.035 A 
ATOM      5  C   LIG d   1       4.183  -4.780  -7.191  0.00  0.00    -0.037 A 
ATOM      6  C   LIG d   1       4.305  -5.863  -8.034  0.00  0.00    -0.017 A 
ATOM      7  C   LIG d   1       4.574  -7.124  -7.514  0.00  0.00     0.136 A 
ATOM      8  O   LIG d   1       4.742  -8.336  -8.080  0.00  0.00    -0.451 OA
ATOM      9  C   LIG d   1       4.988  -9.274  -7.142  0.00  0.00     0.179 A 
ATOM     10  H   LIG d   1       4.712  -6.293  -4.208  0.00  0.00     0.064 H 
ATOM     11  H   LIG d   1       3.975  -3.804  -7.603  0.00  0.00     0.064 H 
ATOM     12  H   LIG d   1       4.192  -5.732  -9.100  0.00  0.00     0.066 H 
ENDROOT
BRANCH   4  13
ATOM     13  N   LIG d   1       4.200  -3.819  -4.971  0.00  0.00    -0.281 N 
ATOM     14  C   LIG d   1       5.301  -3.185  -4.522  0.00  0.00     0.248 C 
ATOM     15  O   LIG d   1       6.404  -3.633  -4.770  0.00  0.00    -0.270 OA
ATOM     16  H   LIG d   1       3.320  -3.506  -4.711  0.00  0.00     0.155 HD
BRANCH  14  17
ATOM     17  C   LIG d   1       5.169  -1.945  -3.729  0.00  0.00     0.041 A 
ATOM     18  C   LIG d   1       5.833  -0.785  -4.126  0.00  0.00    -0.008 A 
ATOM     19  C   LIG d   1       5.707   0.371  -3.374  0.00  0.00     0.121 A 
ATOM     20  H   LIG d   1       6.446  -0.789  -5.015  0.00  0.00     0.066 H 
ATOM     21  C   LIG d   1       4.915   0.378  -2.235  0.00  0.00    -0.020 A 
ATOM     22  C   LIG d   1       4.252  -0.771  -1.842  0.00  0.00    -0.058 A 
ATOM     23  H   LIG d   1       4.815   1.282  -1.653  0.00  0.00     0.065 H 
ATOM     24  C   LIG d   1       4.374  -1.929  -2.581  0.00  0.00    -0.049 A 
ATOM     25  H   LIG d   1       3.637  -0.760  -0.954  0.00  0.00     0.062 H 
ATOM     26  H   LIG d   1       3.856  -2.825  -2.270  0.00  0.00     0.062 H 
BRANCH  19  27
ATOM     27  O   LIG d   1       6.356   1.503  -3.757  0.00  0.00    -0.495 OA
BRANCH  27  28
ATOM     28  C   LIG d   1       7.782   1.440  -3.828  0.00  0.00     0.079 C 
ATOM     29  H   LIG d   1       8.196   1.429  -2.819  0.00  0.00     0.066 H 
ATOM     30  H   LIG d   1       8.159   2.312  -4.364  0.00  0.00     0.066 H 
ATOM     31  H   LIG d   1       8.080   0.534  -4.353  0.00  0.00     0.066 H 
ENDBRANCH  27  28
ENDBRANCH  19  27
ENDBRANCH  14  17
ENDBRANCH   4  13
BRANCH   1  32
ATOM     32  C   LIG d   1       5.223  -9.390  -4.589  0.00  0.00    -0.035 C 
ATOM     33  H   LIG d   1       4.869  -8.754  -3.778  0.00  0.00     0.028 H 
ATOM     34  H   LIG d   1       4.680 -10.336  -4.572  0.00  0.00     0.028 H 
ATOM     35  H   LIG d   1       6.289  -9.581  -4.462  0.00  0.00     0.028 H 
ENDBRANCH   1  32
BRANCH   9  36
ATOM     36  C   LIG d   1       5.220 -10.699  -7.413  0.00  0.00     0.228 C 
ATOM     37  O   LIG d   1       6.356 -11.115  -7.549  0.00  0.00    -0.283 OA
BRANCH  36  38
ATOM     38  C   LIG d   1       4.077 -11.625  -7.520  0.00  0.00     0.026 A 
ATOM     39  C   LIG d   1       3.557 -12.233  -6.374  0.00  0.00    -0.047 A 
ATOM     40  C   LIG d   1       2.489 -13.097  -6.478  0.00  0.00    -0.019 A 
ATOM     41  H   LIG d   1       3.992 -12.027  -5.408  0.00  0.00     0.063 H 
ATOM     42  C   LIG d   1       1.928 -13.363  -7.722  0.00  0.00     0.120 A 
ATOM     43  H   LIG d   1       2.087 -13.566  -5.593  0.00  0.00     0.065 H 
ATOM     44  C   LIG d   1       2.441 -12.760  -8.865  0.00  0.00    -0.019 A 
ATOM     45  C   LIG d   1       3.506 -11.891  -8.768  0.00  0.00    -0.047 A 
ATOM     46  H   LIG d   1       2.002 -12.969  -9.829  0.00  0.00     0.065 H 
ATOM     47  H   LIG d   1       3.901 -11.420  -9.656  0.00  0.00     0.063 H 
BRANCH  42  48
ATOM     48  O   LIG d   1       0.876 -14.214  -7.821  0.00  0.00    -0.495 OA
BRANCH  48  49
ATOM     49  C   LIG d   1      -0.086 -13.941  -8.843  0.00  0.00     0.079 C 
ATOM     50  H   LIG d   1       0.118 -12.965  -9.283  0.00  0.00     0.066 H 
ATOM     51  H   LIG d   1      -0.024 -14.708  -9.615  0.00  0.00     0.066 H 
ATOM     52  H   LIG d   1      -1.086 -13.942  -8.409  0.00  0.00     0.066 H 
ENDBRANCH  48  49
ENDBRANCH  42  48
ENDBRANCH  36  38
ENDBRANCH   9  36
TORSDOF 9
ENDMDL
MODEL 2
REMARK VINA RESULT:      -6.7      6.057     15.267
REMARK  9 active torsions:
REMARK  status: ('A' for Active; 'I' for Inactive)
REMARK    1  A    between atoms: C_1  and  C_2 
REMARK    2  A    between atoms: C_5  and  N_21 
REMARK    3  A    between atoms: C_10  and  C_11 
REMARK    4  A    between atoms: C_11  and  C_13 
REMARK    5  A    between atoms: C_16  and  O_19 
REMARK    6  A    between atoms: O_19  and  C_20 
REMARK       I    between atoms: N_21  and  C_22 
REMARK    7  A    between atoms: C_22  and  C_24 
REMARK    8  A    between atoms: C_28  and  O_30 
REMARK    9  A    between atoms: O_30  and  C_31 
ROOT
ATOM      1  C   LIG d   1      10.119   4.786  -3.604  0.00  0.00     0.006 A 
ATOM      2  C   LIG d   1       9.476   3.659  -4.278  0.00  0.00     0.025 A 
ATOM      3  C   LIG d   1       8.751   2.548  -3.838  0.00  0.00    -0.029 A 
ATOM      4  C   LIG d   1       8.267   1.642  -4.762  0.00  0.00     0.035 A 
ATOM      5  C   LIG d   1       8.494   1.840  -6.123  0.00  0.00    -0.037 A 
ATOM      6  C   LIG d   1       9.203   2.934  -6.566  0.00  0.00    -0.017 A 
ATOM      7  C   LIG d   1       9.702   3.857  -5.653  0.00  0.00     0.136 A 
ATOM      8  O   LIG d   1      10.414   4.993  -5.790  0.00  0.00    -0.451 OA
ATOM      9  C   LIG d   1      10.666   5.550  -4.587  0.00  0.00     0.179 A 
ATOM     10  H   LIG d   1       8.573   2.397  -2.784  0.00  0.00     0.064 H 
ATOM     11  H   LIG d   1       8.108   1.129  -6.838  0.00  0.00     0.064 H 
ATOM     12  H   LIG d   1       9.371   3.077  -7.623  0.00  0.00     0.066 H 
ENDROOT
BRANCH   4  13
ATOM     13  N   LIG d   1       7.542   0.523  -4.330  0.00  0.00    -0.281 N 
ATOM     14  C   LIG d   1       6.358   0.687  -3.707  0.00  0.00     0.248 C 
ATOM     15  O   LIG d   1       5.963   1.804  -3.437  0.00  0.00    -0.270 OA
ATOM     16  H   LIG d   1       7.894  -0.368  -4.478  0.00  0.00     0.155 HD
BRANCH  14  17
ATOM     17  C   LIG d   1       5.540  -0.492  -3.354  0.00  0.00     0.041 A 
ATOM     18  C   LIG d   1       5.504  -1.600  -4.201  0.00  0.00    -0.008 A 
ATOM     19  C   LIG d   1       4.731  -2.698  -3.866  0.00  0.00     0.121 A 
ATOM     20  H   LIG d   1       6.075  -1.598  -5.119  0.00  0.00     0.066 H 
ATOM     21  C   LIG d   1       4.002  -2.701  -2.685  0.00  0.00    -0.020 A 
ATOM     22  C   LIG d   1       4.041  -1.606  -1.840  0.00  0.00    -0.058 A 
ATOM     23  H   LIG d   1       3.404  -3.561  -2.423  0.00  0.00     0.065 H 
ATOM     24  C   LIG d   1       4.803  -0.504  -2.168  0.00  0.00    -0.049 A 
ATOM     25  H   LIG d   1       3.471  -1.613  -0.924  0.00  0.00     0.062 H 
ATOM     26  H   LIG d   1       4.830   0.350  -1.507  0.00  0.00     0.062 H 
BRANCH  19  27
ATOM     27  O   LIG d   1       4.691  -3.778  -4.691  0.00  0.00    -0.495 OA
BRANCH  27  28
ATOM     28  C   LIG d   1       4.648  -3.518  -6.096  0.00  0.00     0.079 C 
ATOM     29  H   LIG d   1       5.311  -4.211  -6.614  0.00  0.00     0.066 H 
ATOM     30  H   LIG d   1       4.971  -2.495  -6.287  0.00  0.00     0.066 H 
ATOM     31  H   LIG d   1       3.629  -3.651  -6.458  0.00  0.00     0.066 H 
ENDBRANCH  27  28
ENDBRANCH  19  27
ENDBRANCH  14  17
ENDBRANCH   4  13
BRANCH   1  32
ATOM     32  C   LIG d   1      10.167   5.046  -2.120  0.00  0.00    -0.035 C 
ATOM     33  H   LIG d   1      10.615   4.191  -1.615  0.00  0.00     0.028 H 
ATOM     34  H   LIG d   1      10.767   5.937  -1.927  0.00  0.00     0.028 H 
ATOM     35  H   LIG d   1       9.155   5.201  -1.746  0.00  0.00     0.028 H 
ENDBRANCH   1  32
BRANCH   9  36
ATOM     36  C   LIG d   1      11.416   6.794  -4.372  0.00  0.00     0.228 C 
ATOM     37  O   LIG d   1      12.616   6.754  -4.167  0.00  0.00    -0.283 OA
BRANCH  36  38
ATOM     38  C   LIG d   1      10.716   8.093  -4.404  0.00  0.00     0.026 A 
ATOM     39  C   LIG d   1      10.637   8.875  -3.247  0.00  0.00    -0.047 A 
ATOM     40  C   LIG d   1       9.984  10.086  -3.281  0.00  0.00    -0.019 A 
ATOM     41  H   LIG d   1      11.088   8.529  -2.329  0.00  0.00     0.063 H 
ATOM     42  C   LIG d   1       9.403  10.532  -4.463  0.00  0.00     0.120 A 
ATOM     43  H   LIG d   1       9.923  10.691  -2.388  0.00  0.00     0.065 H 
ATOM     44  C   LIG d   1       9.480   9.758  -5.615  0.00  0.00    -0.019 A 
ATOM     45  C   LIG d   1      10.136   8.548  -5.591  0.00  0.00    -0.047 A 
ATOM     46  H   LIG d   1       9.028  10.108  -6.531  0.00  0.00     0.065 H 
ATOM     47  H   LIG d   1      10.199   7.949  -6.488  0.00  0.00     0.063 H 
BRANCH  42  48
ATOM     48  O   LIG d   1       8.761  11.727  -4.491  0.00  0.00    -0.495 OA
BRANCH  48  49
ATOM     49  C   LIG d   1       8.715  12.469  -3.270  0.00  0.00     0.079 C 
ATOM     50  H   LIG d   1       8.888  11.796  -2.430  0.00  0.00     0.066 H 
ATOM     51  H   LIG d   1       9.487  13.239  -3.284  0.00  0.00     0.066 H 
ATOM     52  H   LIG d   1       7.736  12.936  -3.166  0.00  0.00     0.066 H 
ENDBRANCH  48  49
ENDBRANCH  42  48
ENDBRANCH  36  38
ENDBRANCH   9  36
TORSDOF 9
ENDMDL
MODEL 3
REMARK VINA RESULT:      -6.6      6.200     14.777
REMARK  9 active torsions:
REMARK  status: ('A' for Active; 'I' for Inactive)
REMARK    1  A    between atoms: C_1  and  C_2 
REMARK    2  A    between atoms: C_5  and  N_21 
REMARK    3  A    between atoms: C_10  and  C_11 
REMARK    4  A    between atoms: C_11  and  C_13 
REMARK    5  A    between atoms: C_16  and  O_19 
REMARK    6  A    between atoms: O_19  and  C_20 
REMARK       I    between atoms: N_21  and  C_22 
REMARK    7  A    between atoms: C_22  and  C_24 
REMARK    8  A    between atoms: C_28  and  O_30 
REMARK    9  A    between atoms: O_30  and  C_31 
ROOT
ATOM      1  C   LIG d   1       9.772   3.832  -7.305  0.00  0.00     0.006 A 
ATOM      2  C   LIG d   1       9.547   3.107  -6.055  0.00  0.00     0.025 A 
ATOM      3  C   LIG d   1       8.699   2.062  -5.676  0.00  0.00    -0.029 A 
ATOM      4  C   LIG d   1       8.734   1.595  -4.376  0.00  0.00     0.035 A 
ATOM      5  C   LIG d   1       9.615   2.157  -3.453  0.00  0.00    -0.037 A 
ATOM      6  C   LIG d   1      10.456   3.183  -3.819  0.00  0.00    -0.017 A 
ATOM      7  C   LIG d   1      10.436   3.671  -5.121  0.00  0.00     0.136 A 
ATOM      8  O   LIG d   1      11.127   4.642  -5.751  0.00  0.00    -0.451 OA
ATOM      9  C   LIG d   1      10.744   4.746  -7.041  0.00  0.00     0.179 A 
ATOM     10  H   LIG d   1       8.020   1.626  -6.393  0.00  0.00     0.064 H 
ATOM     11  H   LIG d   1       9.638   1.783  -2.440  0.00  0.00     0.064 H 
ATOM     12  H   LIG d   1      11.135   3.610  -3.095  0.00  0.00     0.066 H 
ENDROOT
BRANCH   4  13
ATOM     13  N   LIG d   1       7.885   0.552  -3.986  0.00  0.00    -0.281 N 
ATOM     14  C   LIG d   1       6.650   0.826  -3.521  0.00  0.00     0.248 C 
ATOM     15  O   LIG d   1       6.306   1.979  -3.351  0.00  0.00    -0.270 OA
ATOM     16  H   LIG d   1       8.187  -0.367  -4.050  0.00  0.00     0.155 HD
BRANCH  14  17
ATOM     17  C   LIG d   1       5.713  -0.277  -3.218  0.00  0.00     0.041 A 
ATOM     18  C   LIG d   1       5.698  -1.422  -4.013  0.00  0.00    -0.008 A 
ATOM     19  C   LIG d   1       4.814  -2.448  -3.726  0.00  0.00     0.121 A 
ATOM     20  H   LIG d   1       6.372  -1.507  -4.854  0.00  0.00     0.066 H 
ATOM     21  C   LIG d   1       3.952  -2.341  -2.643  0.00  0.00    -0.020 A 
ATOM     22  C   LIG d   1       3.969  -1.208  -1.850  0.00  0.00    -0.058 A 
ATOM     23  H   LIG d   1       3.267  -3.145  -2.419  0.00  0.00     0.065 H 
ATOM     24  C   LIG d   1       4.842  -0.177  -2.131  0.00  0.00    -0.049 A 
ATOM     25  H   LIG d   1       3.296  -1.130  -1.010  0.00  0.00     0.062 H 
ATOM     26  H   LIG d   1       4.852   0.707  -1.510  0.00  0.00     0.062 H 
BRANCH  19  27
ATOM     27  O   LIG d   1       4.794  -3.565  -4.502  0.00  0.00    -0.495 OA
BRANCH  27  28
ATOM     28  C   LIG d   1       4.700  -3.371  -5.915  0.00  0.00     0.079 C 
ATOM     29  H   LIG d   1       3.989  -4.084  -6.332  0.00  0.00     0.066 H 
ATOM     30  H   LIG d   1       5.679  -3.526  -6.369  0.00  0.00     0.066 H 
ATOM     31  H   LIG d   1       4.360  -2.356  -6.120  0.00  0.00     0.066 H 
ENDBRANCH  27  28
ENDBRANCH  19  27
ENDBRANCH  14  17
ENDBRANCH   4  13
BRANCH   1  32
ATOM     32  C   LIG d   1       9.068   3.610  -8.619  0.00  0.00    -0.035 C 
ATOM     33  H   LIG d   1       8.053   4.000  -8.560  0.00  0.00     0.028 H 
ATOM     34  H   LIG d   1       9.610   4.128  -9.413  0.00  0.00     0.028 H 
ATOM     35  H   LIG d   1       9.036   2.543  -8.839  0.00  0.00     0.028 H 
ENDBRANCH   1  32
BRANCH   9  36
ATOM     36  C   LIG d   1      11.293   5.701  -8.012  0.00  0.00     0.228 C 
ATOM     37  O   LIG d   1      12.070   5.319  -8.867  0.00  0.00    -0.283 OA
BRANCH  36  38
ATOM     38  C   LIG d   1      10.903   7.123  -7.949  0.00  0.00     0.026 A 
ATOM     39  C   LIG d   1      11.872   8.122  -8.076  0.00  0.00    -0.047 A 
ATOM     40  C   LIG d   1      11.505   9.447  -8.018  0.00  0.00    -0.019 A 
ATOM     41  H   LIG d   1      12.909   7.854  -8.219  0.00  0.00     0.063 H 
ATOM     42  C   LIG d   1      10.171   9.793  -7.834  0.00  0.00     0.120 A 
ATOM     43  H   LIG d   1      12.254  10.219  -8.117  0.00  0.00     0.065 H 
ATOM     44  C   LIG d   1       9.203   8.803  -7.708  0.00  0.00    -0.019 A 
ATOM     45  C   LIG d   1       9.562   7.474  -7.770  0.00  0.00    -0.047 A 
ATOM     46  H   LIG d   1       8.168   9.075  -7.566  0.00  0.00     0.065 H 
ATOM     47  H   LIG d   1       8.809   6.706  -7.676  0.00  0.00     0.063 H 
BRANCH  42  48
ATOM     48  O   LIG d   1       9.812  11.100  -7.778  0.00  0.00    -0.495 OA
BRANCH  48  49
ATOM     49  C   LIG d   1       9.873  11.735  -6.499  0.00  0.00     0.079 C 
ATOM     50  H   LIG d   1      10.749  12.381  -6.455  0.00  0.00     0.066 H 
ATOM     51  H   LIG d   1       8.973  12.333  -6.347  0.00  0.00     0.066 H 
ATOM     52  H   LIG d   1       9.940  10.976  -5.720  0.00  0.00     0.066 H 
ENDBRANCH  48  49
ENDBRANCH  42  48
ENDBRANCH  36  38
ENDBRANCH   9  36
TORSDOF 9
ENDMDL
MODEL 4
REMARK VINA RESULT:      -6.4      5.943     13.429
REMARK  9 active torsions:
REMARK  status: ('A' for Active; 'I' for Inactive)
REMARK    1  A    between atoms: C_1  and  C_2 
REMARK    2  A    between atoms: C_5  and  N_21 
REMARK    3  A    between atoms: C_10  and  C_11 
REMARK    4  A    between atoms: C_11  and  C_13 
REMARK    5  A    between atoms: C_16  and  O_19 
REMARK    6  A    between atoms: O_19  and  C_20 
REMARK       I    between atoms: N_21  and  C_22 
REMARK    7  A    between atoms: C_22  and  C_24 
REMARK    8  A    between atoms: C_28  and  O_30 
REMARK    9  A    between atoms: O_30  and  C_31 
ROOT
ATOM      1  C   LIG d   1       8.726   1.530  -5.173  0.00  0.00     0.006 A 
ATOM      2  C   LIG d   1       7.443   0.829  -5.130  0.00  0.00     0.025 A 
ATOM      3  C   LIG d   1       6.660   0.174  -6.085  0.00  0.00    -0.029 A 
ATOM      4  C   LIG d   1       5.461  -0.399  -5.706  0.00  0.00     0.035 A 
ATOM      5  C   LIG d   1       5.041  -0.331  -4.378  0.00  0.00    -0.037 A 
ATOM      6  C   LIG d   1       5.808   0.308  -3.430  0.00  0.00    -0.017 A 
ATOM      7  C   LIG d   1       7.016   0.895  -3.791  0.00  0.00     0.136 A 
ATOM      8  O   LIG d   1       7.954   1.571  -3.097  0.00  0.00    -0.451 OA
ATOM      9  C   LIG d   1       8.968   1.950  -3.902  0.00  0.00     0.179 A 
ATOM     10  H   LIG d   1       6.988   0.119  -7.112  0.00  0.00     0.064 H 
ATOM     11  H   LIG d   1       4.105  -0.785  -4.090  0.00  0.00     0.064 H 
ATOM     12  H   LIG d   1       5.472   0.353  -2.404  0.00  0.00     0.066 H 
ENDROOT
BRANCH   4  13
ATOM     13  N   LIG d   1       4.669  -1.054  -6.657  0.00  0.00    -0.281 N 
ATOM     14  C   LIG d   1       3.766  -0.358  -7.377  0.00  0.00     0.248 C 
ATOM     15  O   LIG d   1       3.574   0.818  -7.136  0.00  0.00    -0.270 OA
ATOM     16  H   LIG d   1       4.769  -2.008  -6.796  0.00  0.00     0.155 HD
BRANCH  14  17
ATOM     17  C   LIG d   1       3.012  -1.024  -8.459  0.00  0.00     0.041 A 
ATOM     18  C   LIG d   1       3.244  -2.368  -8.750  0.00  0.00    -0.008 A 
ATOM     19  C   LIG d   1       2.536  -2.983  -9.769  0.00  0.00     0.121 A 
ATOM     20  H   LIG d   1       3.977  -2.926  -8.185  0.00  0.00     0.066 H 
ATOM     21  C   LIG d   1       1.591  -2.268 -10.490  0.00  0.00    -0.020 A 
ATOM     22  C   LIG d   1       1.356  -0.936 -10.199  0.00  0.00    -0.058 A 
ATOM     23  H   LIG d   1       1.038  -2.751 -11.281  0.00  0.00     0.065 H 
ATOM     24  C   LIG d   1       2.059  -0.311  -9.190  0.00  0.00    -0.049 A 
ATOM     25  H   LIG d   1       0.620  -0.384 -10.765  0.00  0.00     0.062 H 
ATOM     26  H   LIG d   1       1.874   0.729  -8.966  0.00  0.00     0.062 H 
BRANCH  19  27
ATOM     27  O   LIG d   1       2.763  -4.293 -10.058  0.00  0.00    -0.495 OA
BRANCH  27  28
ATOM     28  C   LIG d   1       1.659  -5.045 -10.564  0.00  0.00     0.079 C 
ATOM     29  H   LIG d   1       2.005  -5.709 -11.358  0.00  0.00     0.066 H 
ATOM     30  H   LIG d   1       0.907  -4.364 -10.963  0.00  0.00     0.066 H 
ATOM     31  H   LIG d   1       1.224  -5.637  -9.760  0.00  0.00     0.066 H 
ENDBRANCH  27  28
ENDBRANCH  19  27
ENDBRANCH  14  17
ENDBRANCH   4  13
BRANCH   1  32
ATOM     32  C   LIG d   1       9.602   1.742  -6.381  0.00  0.00    -0.035 C 
ATOM     33  H   LIG d   1      10.629   1.911  -6.061  0.00  0.00     0.028 H 
ATOM     34  H   LIG d   1       9.561   0.857  -7.019  0.00  0.00     0.028 H 
ATOM     35  H   LIG d   1       9.247   2.608  -6.940  0.00  0.00     0.028 H 
ENDBRANCH   1  32
BRANCH   9  36
ATOM     36  C   LIG d   1      10.153   2.703  -3.473  0.00  0.00     0.228 C 
ATOM     37  O   LIG d   1      11.218   2.131  -3.328  0.00  0.00    -0.283 OA
BRANCH  36  38
ATOM     38  C   LIG d   1      10.053   4.152  -3.216  0.00  0.00     0.026 A 
ATOM     39  C   LIG d   1       9.512   5.001  -4.186  0.00  0.00    -0.047 A 
ATOM     40  C   LIG d   1       9.420   6.353  -3.943  0.00  0.00    -0.019 A 
ATOM     41  H   LIG d   1       9.167   4.596  -5.126  0.00  0.00     0.063 H 
ATOM     42  C   LIG d   1       9.864   6.874  -2.733  0.00  0.00     0.120 A 
ATOM     43  H   LIG d   1       9.002   7.009  -4.692  0.00  0.00     0.065 H 
ATOM     44  C   LIG d   1      10.403   6.035  -1.765  0.00  0.00    -0.019 A 
ATOM     45  C   LIG d   1      10.493   4.680  -1.999  0.00  0.00    -0.047 A 
ATOM     46  H   LIG d   1      10.746   6.443  -0.826  0.00  0.00     0.065 H 
ATOM     47  H   LIG d   1      10.908   4.028  -1.244  0.00  0.00     0.063 H 
BRANCH  42  48
ATOM     48  O   LIG d   1       9.771   8.207  -2.496  0.00  0.00    -0.495 OA
BRANCH  48  49
ATOM     49  C   LIG d   1       9.503   8.611  -1.151  0.00  0.00     0.079 C 
ATOM     50  H   LIG d   1       8.439   8.494  -0.942  0.00  0.00     0.066 H 
ATOM     51  H   LIG d   1      10.078   7.991  -0.464  0.00  0.00     0.066 H 
ATOM     52  H   LIG d   1       9.786   9.656  -1.023  0.00  0.00     0.066 H 
ENDBRANCH  48  49
ENDBRANCH  42  48
ENDBRANCH  36  38
ENDBRANCH   9  36
TORSDOF 9
ENDMDL
MODEL 5
REMARK VINA RESULT:      -6.3      7.862     16.383
REMARK  9 active torsions:
REMARK  status: ('A' for Active; 'I' for Inactive)
REMARK    1  A    between atoms: C_1  and  C_2 
REMARK    2  A    between atoms: C_5  and  N_21 
REMARK    3  A    between atoms: C_10  and  C_11 
REMARK    4  A    between atoms: C_11  and  C_13 
REMARK    5  A    between atoms: C_16  and  O_19 
REMARK    6  A    between atoms: O_19  and  C_20 
REMARK       I    between atoms: N_21  and  C_22 
REMARK    7  A    between atoms: C_22  and  C_24 
REMARK    8  A    between atoms: C_28  and  O_30 
REMARK    9  A    between atoms: O_30  and  C_31 
ROOT
ATOM      1  C   LIG d   1      10.559   6.204  -2.739  0.00  0.00     0.006 A 
ATOM      2  C   LIG d   1      10.443   4.884  -3.358  0.00  0.00     0.025 A 
ATOM      3  C   LIG d   1       9.709   3.732  -3.062  0.00  0.00    -0.029 A 
ATOM      4  C   LIG d   1       9.833   2.619  -3.872  0.00  0.00     0.035 A 
ATOM      5  C   LIG d   1      10.678   2.650  -4.980  0.00  0.00    -0.037 A 
ATOM      6  C   LIG d   1      11.401   3.782  -5.282  0.00  0.00    -0.017 A 
ATOM      7  C   LIG d   1      11.295   4.912  -4.478  0.00  0.00     0.136 A 
ATOM      8  O   LIG d   1      11.867   6.132  -4.526  0.00  0.00    -0.451 OA
ATOM      9  C   LIG d   1      11.440   6.903  -3.504  0.00  0.00     0.179 A 
ATOM     10  H   LIG d   1       9.053   3.711  -2.205  0.00  0.00     0.064 H 
ATOM     11  H   LIG d   1      10.765   1.777  -5.609  0.00  0.00     0.064 H 
ATOM     12  H   LIG d   1      12.052   3.793  -6.144  0.00  0.00     0.066 H 
ENDROOT
BRANCH   4  13
ATOM     13  N   LIG d   1       9.104   1.459  -3.580  0.00  0.00    -0.281 N 
ATOM     14  C   LIG d   1       7.823   1.349  -3.986  0.00  0.00     0.248 C 
ATOM     15  O   LIG d   1       7.271   2.291  -4.521  0.00  0.00    -0.270 OA
ATOM     16  H   LIG d   1       9.521   0.737  -3.087  0.00  0.00     0.155 HD
BRANCH  14  17
ATOM     17  C   LIG d   1       7.089   0.082  -3.780  0.00  0.00     0.041 A 
ATOM     18  C   LIG d   1       5.886   0.076  -3.076  0.00  0.00    -0.008 A 
ATOM     19  C   LIG d   1       5.207  -1.115  -2.883  0.00  0.00     0.121 A 
ATOM     20  H   LIG d   1       5.486   0.998  -2.679  0.00  0.00     0.066 H 
ATOM     21  C   LIG d   1       5.719  -2.298  -3.398  0.00  0.00    -0.020 A 
ATOM     22  C   LIG d   1       6.910  -2.293  -4.101  0.00  0.00    -0.058 A 
ATOM     23  H   LIG d   1       5.185  -3.225  -3.250  0.00  0.00     0.065 H 
ATOM     24  C   LIG d   1       7.597  -1.113  -4.295  0.00  0.00    -0.049 A 
ATOM     25  H   LIG d   1       7.303  -3.217  -4.499  0.00  0.00     0.062 H 
ATOM     26  H   LIG d   1       8.527  -1.112  -4.843  0.00  0.00     0.062 H 
BRANCH  19  27
ATOM     27  O   LIG d   1       4.035  -1.125  -2.194  0.00  0.00    -0.495 OA
BRANCH  27  28
ATOM     28  C   LIG d   1       2.851  -0.796  -2.923  0.00  0.00     0.079 C 
ATOM     29  H   LIG d   1       1.987  -0.867  -2.263  0.00  0.00     0.066 H 
ATOM     30  H   LIG d   1       2.731  -1.492  -3.754  0.00  0.00     0.066 H 
ATOM     31  H   LIG d   1       2.933   0.220  -3.308  0.00  0.00     0.066 H 
ENDBRANCH  27  28
ENDBRANCH  19  27
ENDBRANCH  14  17
ENDBRANCH   4  13
BRANCH   1  32
ATOM     32  C   LIG d   1       9.847   6.690  -1.503  0.00  0.00    -0.035 C 
ATOM     33  H   LIG d   1       8.924   7.195  -1.788  0.00  0.00     0.028 H 
ATOM     34  H   LIG d   1       9.612   5.839  -0.861  0.00  0.00     0.028 H 
ATOM     35  H   LIG d   1      10.489   7.385  -0.962  0.00  0.00     0.028 H 
ENDBRANCH   1  32
BRANCH   9  36
ATOM     36  C   LIG d   1      11.861   8.288  -3.257  0.00  0.00     0.228 C 
ATOM     37  O   LIG d   1      13.022   8.530  -2.981  0.00  0.00    -0.283 OA
BRANCH  36  38
ATOM     38  C   LIG d   1      10.878   9.384  -3.342  0.00  0.00     0.026 A 
ATOM     39  C   LIG d   1      10.127   9.565  -4.507  0.00  0.00    -0.047 A 
ATOM     40  C   LIG d   1       9.210  10.589  -4.583  0.00  0.00    -0.019 A 
ATOM     41  H   LIG d   1      10.267   8.901  -5.348  0.00  0.00     0.063 H 
ATOM     42  C   LIG d   1       9.030  11.443  -3.500  0.00  0.00     0.120 A 
ATOM     43  H   LIG d   1       8.630  10.728  -5.483  0.00  0.00     0.065 H 
ATOM     44  C   LIG d   1       9.773  11.268  -2.339  0.00  0.00    -0.019 A 
ATOM     45  C   LIG d   1      10.689  10.242  -2.254  0.00  0.00    -0.047 A 
ATOM     46  H   LIG d   1       9.630  11.933  -1.501  0.00  0.00     0.065 H 
ATOM     47  H   LIG d   1      11.263  10.103  -1.350  0.00  0.00     0.063 H 
BRANCH  42  48
ATOM     48  O   LIG d   1       8.124  12.451  -3.579  0.00  0.00    -0.495 OA
BRANCH  48  49
ATOM     49  C   LIG d   1       8.516  13.717  -3.043  0.00  0.00     0.079 C 
ATOM     50  H   LIG d   1       8.666  13.626  -1.967  0.00  0.00     0.066 H 
ATOM     51  H   LIG d   1       9.444  14.040  -3.514  0.00  0.00     0.066 H 
ATOM     52  H   LIG d   1       7.734  14.451  -3.240  0.00  0.00     0.066 H 
ENDBRANCH  48  49
ENDBRANCH  42  48
ENDBRANCH  36  38
ENDBRANCH   9  36
TORSDOF 9
ENDMDL
MODEL 6
REMARK VINA RESULT:      -5.9      7.690     12.597
REMARK  9 active torsions:
REMARK  status: ('A' for Active; 'I' for Inactive)
REMARK    1  A    between atoms: C_1  and  C_2 
REMARK    2  A    between atoms: C_5  and  N_21 
REMARK    3  A    between atoms: C_10  and  C_11 
REMARK    4  A    between atoms: C_11  and  C_13 
REMARK    5  A    between atoms: C_16  and  O_19 
REMARK    6  A    between atoms: O_19  and  C_20 
REMARK       I    between atoms: N_21  and  C_22 
REMARK    7  A    between atoms: C_22  and  C_24 
REMARK    8  A    between atoms: C_28  and  O_30 
REMARK    9  A    between atoms: O_30  and  C_31 
ROOT
ATOM      1  C   LIG d   1       9.019   2.683  -5.382  0.00  0.00     0.006 A 
ATOM      2  C   LIG d   1       9.251   3.935  -4.665  0.00  0.00     0.025 A 
ATOM      3  C   LIG d   1       9.106   5.286  -4.994  0.00  0.00    -0.029 A 
ATOM      4  C   LIG d   1       9.424   6.253  -4.059  0.00  0.00     0.035 A 
ATOM      5  C   LIG d   1       9.878   5.881  -2.794  0.00  0.00    -0.037 A 
ATOM      6  C   LIG d   1      10.020   4.553  -2.460  0.00  0.00    -0.017 A 
ATOM      7  C   LIG d   1       9.710   3.564  -3.386  0.00  0.00     0.136 A 
ATOM      8  O   LIG d   1       9.749   2.217  -3.342  0.00  0.00    -0.451 OA
ATOM      9  C   LIG d   1       9.344   1.686  -4.515  0.00  0.00     0.179 A 
ATOM     10  H   LIG d   1       8.750   5.572  -5.972  0.00  0.00     0.064 H 
ATOM     11  H   LIG d   1      10.120   6.644  -2.069  0.00  0.00     0.064 H 
ATOM     12  H   LIG d   1      10.373   4.279  -1.476  0.00  0.00     0.066 H 
ENDROOT
BRANCH   4  13
ATOM     13  N   LIG d   1       9.284   7.608  -4.382  0.00  0.00    -0.281 N 
ATOM     14  C   LIG d   1      10.263   8.245  -5.056  0.00  0.00     0.248 C 
ATOM     15  O   LIG d   1      11.305   7.669  -5.302  0.00  0.00    -0.270 OA
ATOM     16  H   LIG d   1       8.485   8.089  -4.119  0.00  0.00     0.155 HD
BRANCH  14  17
ATOM     17  C   LIG d   1      10.069   9.642  -5.497  0.00  0.00     0.041 A 
ATOM     18  C   LIG d   1      10.372  10.012  -6.807  0.00  0.00    -0.008 A 
ATOM     19  C   LIG d   1      10.192  11.324  -7.211  0.00  0.00     0.121 A 
ATOM     20  H   LIG d   1      10.750   9.277  -7.504  0.00  0.00     0.066 H 
ATOM     21  C   LIG d   1       9.702  12.266  -6.317  0.00  0.00    -0.020 A 
ATOM     22  C   LIG d   1       9.395  11.899  -5.018  0.00  0.00    -0.058 A 
ATOM     23  H   LIG d   1       9.558  13.287  -6.636  0.00  0.00     0.065 H 
ATOM     24  C   LIG d   1       9.576  10.596  -4.604  0.00  0.00    -0.049 A 
ATOM     25  H   LIG d   1       9.015  12.636  -4.327  0.00  0.00     0.062 H 
ATOM     26  H   LIG d   1       9.337  10.314  -3.590  0.00  0.00     0.062 H 
BRANCH  19  27
ATOM     27  O   LIG d   1      10.490  11.689  -8.486  0.00  0.00    -0.495 OA
BRANCH  27  28
ATOM     28  C   LIG d   1      11.857  11.579  -8.889  0.00  0.00     0.079 C 
ATOM     29  H   LIG d   1      12.482  12.168  -8.216  0.00  0.00     0.066 H 
ATOM     30  H   LIG d   1      11.968  11.954  -9.907  0.00  0.00     0.066 H 
ATOM     31  H   LIG d   1      12.164  10.535  -8.851  0.00  0.00     0.066 H 
ENDBRANCH  27  28
ENDBRANCH  19  27
ENDBRANCH  14  17
ENDBRANCH   4  13
BRANCH   1  32
ATOM     32  C   LIG d   1       8.522   2.528  -6.796  0.00  0.00    -0.035 C 
ATOM     33  H   LIG d   1       7.492   2.878  -6.861  0.00  0.00     0.028 H 
ATOM     34  H   LIG d   1       9.149   3.117  -7.468  0.00  0.00     0.028 H 
ATOM     35  H   LIG d   1       8.568   1.478  -7.085  0.00  0.00     0.028 H 
ENDBRANCH   1  32
BRANCH   9  36
ATOM     36  C   LIG d   1       9.264   0.250  -4.810  0.00  0.00     0.228 C 
ATOM     37  O   LIG d   1      10.205  -0.317  -5.335  0.00  0.00    -0.283 OA
BRANCH  36  38
ATOM     38  C   LIG d   1       8.044  -0.506  -4.470  0.00  0.00     0.026 A 
ATOM     39  C   LIG d   1       8.034  -1.901  -4.564  0.00  0.00    -0.047 A 
ATOM     40  C   LIG d   1       6.894  -2.604  -4.246  0.00  0.00    -0.019 A 
ATOM     41  H   LIG d   1       8.921  -2.427  -4.886  0.00  0.00     0.063 H 
ATOM     42  C   LIG d   1       5.752  -1.927  -3.830  0.00  0.00     0.120 A 
ATOM     43  H   LIG d   1       6.886  -3.681  -4.318  0.00  0.00     0.065 H 
ATOM     44  C   LIG d   1       5.757  -0.540  -3.735  0.00  0.00    -0.019 A 
ATOM     45  C   LIG d   1       6.896   0.169  -4.047  0.00  0.00    -0.047 A 
ATOM     46  H   LIG d   1       4.869  -0.018  -3.412  0.00  0.00     0.065 H 
ATOM     47  H   LIG d   1       6.900   1.246  -3.968  0.00  0.00     0.063 H 
BRANCH  42  48
ATOM     48  O   LIG d   1       4.630  -2.623  -3.517  0.00  0.00    -0.495 OA
BRANCH  48  49
ATOM     49  C   LIG d   1       3.858  -2.146  -2.413  0.00  0.00     0.079 C 
ATOM     50  H   LIG d   1       3.189  -1.355  -2.752  0.00  0.00     0.066 H 
ATOM     51  H   LIG d   1       3.270  -2.966  -1.999  0.00  0.00     0.066 H 
ATOM     52  H   LIG d   1       4.526  -1.754  -1.646  0.00  0.00     0.066 H 
ENDBRANCH  48  49
ENDBRANCH  42  48
ENDBRANCH  36  38
ENDBRANCH   9  36
TORSDOF 9
ENDMDL
MODEL 7
REMARK VINA RESULT:      -5.9      2.118      3.330
REMARK  9 active torsions:
REMARK  status: ('A' for Active; 'I' for Inactive)
REMARK    1  A    between atoms: C_1  and  C_2 
REMARK    2  A    between atoms: C_5  and  N_21 
REMARK    3  A    between atoms: C_10  and  C_11 
REMARK    4  A    between atoms: C_11  and  C_13 
REMARK    5  A    between atoms: C_16  and  O_19 
REMARK    6  A    between atoms: O_19  and  C_20 
REMARK       I    between atoms: N_21  and  C_22 
REMARK    7  A    between atoms: C_22  and  C_24 
REMARK    8  A    between atoms: C_28  and  O_30 
REMARK    9  A    between atoms: O_30  and  C_31 
ROOT
ATOM      1  C   LIG d   1       4.766  -8.333  -6.003  0.00  0.00     0.006 A 
ATOM      2  C   LIG d   1       4.698  -6.885  -6.191  0.00  0.00     0.025 A 
ATOM      3  C   LIG d   1       4.537  -5.799  -5.325  0.00  0.00    -0.029 A 
ATOM      4  C   LIG d   1       4.512  -4.516  -5.840  0.00  0.00     0.035 A 
ATOM      5  C   LIG d   1       4.655  -4.309  -7.211  0.00  0.00    -0.037 A 
ATOM      6  C   LIG d   1       4.818  -5.372  -8.070  0.00  0.00    -0.017 A 
ATOM      7  C   LIG d   1       4.842  -6.671  -7.575  0.00  0.00     0.136 A 
ATOM      8  O   LIG d   1       4.983  -7.877  -8.161  0.00  0.00    -0.451 OA
ATOM      9  C   LIG d   1       4.940  -8.865  -7.243  0.00  0.00     0.179 A 
ATOM     10  H   LIG d   1       4.431  -5.961  -4.264  0.00  0.00     0.064 H 
ATOM     11  H   LIG d   1       4.638  -3.303  -7.603  0.00  0.00     0.064 H 
ATOM     12  H   LIG d   1       4.928  -5.198  -9.131  0.00  0.00     0.066 H 
ENDROOT
BRANCH   4  13
ATOM     13  N   LIG d   1       4.348  -3.423  -4.981  0.00  0.00    -0.281 N 
ATOM     14  C   LIG d   1       5.422  -2.866  -4.385  0.00  0.00     0.248 C 
ATOM     15  O   LIG d   1       6.520  -3.371  -4.518  0.00  0.00    -0.270 OA
ATOM     16  H   LIG d   1       3.462  -3.066  -4.814  0.00  0.00     0.155 HD
BRANCH  14  17
ATOM     17  C   LIG d   1       5.264  -1.643  -3.570  0.00  0.00     0.041 A 
ATOM     18  C   LIG d   1       6.016  -0.505  -3.862  0.00  0.00    -0.008 A 
ATOM     19  C   LIG d   1       5.866   0.635  -3.091  0.00  0.00     0.121 A 
ATOM     20  H   LIG d   1       6.715  -0.515  -4.685  0.00  0.00     0.066 H 
ATOM     21  C   LIG d   1       4.963   0.648  -2.037  0.00  0.00    -0.020 A 
ATOM     22  C   LIG d   1       4.213  -0.478  -1.749  0.00  0.00    -0.058 A 
ATOM     23  H   LIG d   1       4.845   1.540  -1.440  0.00  0.00     0.065 H 
ATOM     24  C   LIG d   1       4.358  -1.621  -2.508  0.00  0.00    -0.049 A 
ATOM     25  H   LIG d   1       3.512  -0.462  -0.928  0.00  0.00     0.062 H 
ATOM     26  H   LIG d   1       3.772  -2.499  -2.280  0.00  0.00     0.062 H 
BRANCH  19  27
ATOM     27  O   LIG d   1       6.600   1.745  -3.370  0.00  0.00    -0.495 OA
BRANCH  27  28
ATOM     28  C   LIG d   1       7.900   1.539  -3.928  0.00  0.00     0.079 C 
ATOM     29  H   LIG d   1       8.271   2.477  -4.340  0.00  0.00     0.066 H 
ATOM     30  H   LIG d   1       7.841   0.792  -4.720  0.00  0.00     0.066 H 
ATOM     31  H   LIG d   1       8.577   1.191  -3.149  0.00  0.00     0.066 H 
ENDBRANCH  27  28
ENDBRANCH  19  27
ENDBRANCH  14  17
ENDBRANCH   4  13
BRANCH   1  32
ATOM     32  C   LIG d   1       4.664  -9.083  -4.700  0.00  0.00    -0.035 C 
ATOM     33  H   LIG d   1       5.378  -9.907  -4.697  0.00  0.00     0.028 H 
ATOM     34  H   LIG d   1       4.887  -8.407  -3.874  0.00  0.00     0.028 H 
ATOM     35  H   LIG d   1       3.654  -9.477  -4.585  0.00  0.00     0.028 H 
ENDBRANCH   1  32
BRANCH   9  36
ATOM     36  C   LIG d   1       5.063 -10.299  -7.538  0.00  0.00     0.228 C 
ATOM     37  O   LIG d   1       4.134 -10.896  -8.050  0.00  0.00    -0.283 OA
BRANCH  36  38
ATOM     38  C   LIG d   1       6.312 -11.014  -7.213  0.00  0.00     0.026 A 
ATOM     39  C   LIG d   1       6.303 -12.047  -6.270  0.00  0.00    -0.047 A 
ATOM     40  C   LIG d   1       7.470 -12.712  -5.969  0.00  0.00    -0.019 A 
ATOM     41  H   LIG d   1       5.382 -12.321  -5.777  0.00  0.00     0.063 H 
ATOM     42  C   LIG d   1       8.656 -12.359  -6.603  0.00  0.00     0.120 A 
ATOM     43  H   LIG d   1       7.463 -13.510  -5.241  0.00  0.00     0.065 H 
ATOM     44  C   LIG d   1       8.670 -11.334  -7.541  0.00  0.00    -0.019 A 
ATOM     45  C   LIG d   1       7.505 -10.667  -7.851  0.00  0.00    -0.047 A 
ATOM     46  H   LIG d   1       9.593 -11.063  -8.031  0.00  0.00     0.065 H 
ATOM     47  H   LIG d   1       7.516  -9.873  -8.584  0.00  0.00     0.063 H 
BRANCH  42  48
ATOM     48  O   LIG d   1       9.804 -13.019  -6.304  0.00  0.00    -0.495 OA
BRANCH  48  49
ATOM     49  C   LIG d   1       9.833 -14.423  -6.568  0.00  0.00     0.079 C 
ATOM     50  H   LIG d   1      10.522 -14.625  -7.388  0.00  0.00     0.066 H 
ATOM     51  H   LIG d   1      10.165 -14.954  -5.675  0.00  0.00     0.066 H 
ATOM     52  H   LIG d   1       8.834 -14.762  -6.841  0.00  0.00     0.066 H 
ENDBRANCH  48  49
ENDBRANCH  42  48
ENDBRANCH  36  38
ENDBRANCH   9  36
TORSDOF 9
ENDMDL
MODEL 8
REMARK VINA RESULT:      -5.9      7.183     15.918
REMARK  9 active torsions:
REMARK  status: ('A' for Active; 'I' for Inactive)
REMARK    1  A    between atoms: C_1  and  C_2 
REMARK    2  A    between atoms: C_5  and  N_21 
REMARK    3  A    between atoms: C_10  and  C_11 
REMARK    4  A    between atoms: C_11  and  C_13 
REMARK    5  A    between atoms: C_16  and  O_19 
REMARK    6  A    between atoms: O_19  and  C_20 
REMARK       I    between atoms: N_21  and  C_22 
REMARK    7  A    between atoms: C_22  and  C_24 
REMARK    8  A    between atoms: C_28  and  O_30 
REMARK    9  A    between atoms: O_30  and  C_31 
ROOT
ATOM      1  C   LIG d   1      10.061   5.283  -6.398  0.00  0.00     0.006 A 
ATOM      2  C   LIG d   1       9.872   4.268  -5.363  0.00  0.00     0.025 A 
ATOM      3  C   LIG d   1       9.273   3.005  -5.337  0.00  0.00    -0.029 A 
ATOM      4  C   LIG d   1       9.262   2.281  -4.160  0.00  0.00     0.035 A 
ATOM      5  C   LIG d   1       9.850   2.805  -3.010  0.00  0.00    -0.037 A 
ATOM      6  C   LIG d   1      10.446   4.046  -3.027  0.00  0.00    -0.017 A 
ATOM      7  C   LIG d   1      10.466   4.793  -4.200  0.00  0.00     0.136 A 
ATOM      8  O   LIG d   1      10.963   6.008  -4.508  0.00  0.00    -0.451 OA
ATOM      9  C   LIG d   1      10.731   6.307  -5.804  0.00  0.00     0.179 A 
ATOM     10  H   LIG d   1       8.821   2.599  -6.229  0.00  0.00     0.064 H 
ATOM     11  H   LIG d   1       9.840   2.230  -2.096  0.00  0.00     0.064 H 
ATOM     12  H   LIG d   1      10.899   4.440  -2.129  0.00  0.00     0.066 H 
ENDROOT
BRANCH   4  13
ATOM     13  N   LIG d   1       8.661   1.017  -4.124  0.00  0.00    -0.281 N 
ATOM     14  C   LIG d   1       7.358   0.898  -3.801  0.00  0.00     0.248 C 
ATOM     15  O   LIG d   1       6.727   1.877  -3.450  0.00  0.00    -0.270 OA
ATOM     16  H   LIG d   1       9.183   0.226  -4.330  0.00  0.00     0.155 HD
BRANCH  14  17
ATOM     17  C   LIG d   1       6.695  -0.421  -3.874  0.00  0.00     0.041 A 
ATOM     18  C   LIG d   1       5.332  -0.536  -3.600  0.00  0.00    -0.008 A 
ATOM     19  C   LIG d   1       4.720  -1.776  -3.665  0.00  0.00     0.121 A 
ATOM     20  H   LIG d   1       4.757   0.339  -3.333  0.00  0.00     0.066 H 
ATOM     21  C   LIG d   1       5.458  -2.899  -4.013  0.00  0.00    -0.020 A 
ATOM     22  C   LIG d   1       6.808  -2.785  -4.291  0.00  0.00    -0.058 A 
ATOM     23  H   LIG d   1       4.977  -3.864  -4.068  0.00  0.00     0.065 H 
ATOM     24  C   LIG d   1       7.429  -1.556  -4.223  0.00  0.00    -0.049 A 
ATOM     25  H   LIG d   1       7.377  -3.662  -4.560  0.00  0.00     0.062 H 
ATOM     26  H   LIG d   1       8.484  -1.471  -4.439  0.00  0.00     0.062 H 
BRANCH  19  27
ATOM     27  O   LIG d   1       3.392  -1.893  -3.394  0.00  0.00    -0.495 OA
BRANCH  27  28
ATOM     28  C   LIG d   1       2.661  -0.680  -3.202  0.00  0.00     0.079 C 
ATOM     29  H   LIG d   1       3.346   0.167  -3.244  0.00  0.00     0.066 H 
ATOM     30  H   LIG d   1       2.171  -0.702  -2.228  0.00  0.00     0.066 H 
ATOM     31  H   LIG d   1       1.910  -0.580  -3.984  0.00  0.00     0.066 H 
ENDBRANCH  27  28
ENDBRANCH  19  27
ENDBRANCH  14  17
ENDBRANCH   4  13
BRANCH   1  32
ATOM     32  C   LIG d   1       9.606   5.209  -7.833  0.00  0.00    -0.035 C 
ATOM     33  H   LIG d   1       9.877   4.239  -8.251  0.00  0.00     0.028 H 
ATOM     34  H   LIG d   1       8.523   5.333  -7.877  0.00  0.00     0.028 H 
ATOM     35  H   LIG d   1      10.087   6.000  -8.408  0.00  0.00     0.028 H 
ENDBRANCH   1  32
BRANCH   9  36
ATOM     36  C   LIG d   1      11.139   7.550  -6.470  0.00  0.00     0.228 C 
ATOM     37  O   LIG d   1      11.714   7.505  -7.542  0.00  0.00    -0.283 OA
BRANCH  36  38
ATOM     38  C   LIG d   1      10.852   8.853  -5.841  0.00  0.00     0.026 A 
ATOM     39  C   LIG d   1       9.532   9.222  -5.562  0.00  0.00    -0.047 A 
ATOM     40  C   LIG d   1       9.269  10.439  -4.974  0.00  0.00    -0.019 A 
ATOM     41  H   LIG d   1       8.721   8.553  -5.808  0.00  0.00     0.063 H 
ATOM     42  C   LIG d   1      10.313  11.300  -4.657  0.00  0.00     0.120 A 
ATOM     43  H   LIG d   1       8.250  10.723  -4.758  0.00  0.00     0.065 H 
ATOM     44  C   LIG d   1      11.626  10.938  -4.932  0.00  0.00    -0.019 A 
ATOM     45  C   LIG d   1      11.899   9.720  -5.515  0.00  0.00    -0.047 A 
ATOM     46  H   LIG d   1      12.435  11.609  -4.684  0.00  0.00     0.065 H 
ATOM     47  H   LIG d   1      12.920   9.437  -5.725  0.00  0.00     0.063 H 
BRANCH  42  48
ATOM     48  O   LIG d   1      10.049  12.498  -4.077  0.00  0.00    -0.495 OA
BRANCH  48  49
ATOM     49  C   LIG d   1       9.660  12.481  -2.701  0.00  0.00     0.079 C 
ATOM     50  H   LIG d   1       9.654  13.499  -2.313  0.00  0.00     0.066 H 
ATOM     51  H   LIG d   1       8.661  12.052  -2.611  0.00  0.00     0.066 H 
ATOM     52  H   LIG d   1      10.367  11.879  -2.132  0.00  0.00     0.066 H 
ENDBRANCH  48  49
ENDBRANCH  42  48
ENDBRANCH  36  38
ENDBRANCH   9  36
TORSDOF 9
ENDMDL
MODEL 9
REMARK VINA RESULT:      -5.8      7.033     10.055
REMARK  9 active torsions:
REMARK  status: ('A' for Active; 'I' for Inactive)
REMARK    1  A    between atoms: C_1  and  C_2 
REMARK    2  A    between atoms: C_5  and  N_21 
REMARK    3  A    between atoms: C_10  and  C_11 
REMARK    4  A    between atoms: C_11  and  C_13 
REMARK    5  A    between atoms: C_16  and  O_19 
REMARK    6  A    between atoms: O_19  and  C_20 
REMARK       I    between atoms: N_21  and  C_22 
REMARK    7  A    between atoms: C_22  and  C_24 
REMARK    8  A    between atoms: C_28  and  O_30 
REMARK    9  A    between atoms: O_30  and  C_31 
ROOT
ATOM      1  C   LIG d   1       6.541   0.104  -4.488  0.00  0.00     0.006 A 
ATOM      2  C   LIG d   1       7.658   1.044  -4.569  0.00  0.00     0.025 A 
ATOM      3  C   LIG d   1       8.171   2.021  -3.711  0.00  0.00    -0.029 A 
ATOM      4  C   LIG d   1       9.271   2.761  -4.102  0.00  0.00     0.035 A 
ATOM      5  C   LIG d   1       9.869   2.526  -5.340  0.00  0.00    -0.037 A 
ATOM      6  C   LIG d   1       9.373   1.563  -6.189  0.00  0.00    -0.017 A 
ATOM      7  C   LIG d   1       8.265   0.810  -5.818  0.00  0.00     0.136 A 
ATOM      8  O   LIG d   1       7.576  -0.177  -6.427  0.00  0.00    -0.451 OA
ATOM      9  C   LIG d   1       6.557  -0.601  -5.651  0.00  0.00     0.179 A 
ATOM     10  H   LIG d   1       7.710   2.199  -2.752  0.00  0.00     0.064 H 
ATOM     11  H   LIG d   1      10.731   3.106  -5.635  0.00  0.00     0.064 H 
ATOM     12  H   LIG d   1       9.846   1.390  -7.145  0.00  0.00     0.066 H 
ENDROOT
BRANCH   4  13
ATOM     13  N   LIG d   1       9.790   3.744  -3.251  0.00  0.00    -0.281 N 
ATOM     14  C   LIG d   1       9.569   5.048  -3.514  0.00  0.00     0.248 C 
ATOM     15  O   LIG d   1       9.001   5.374  -4.539  0.00  0.00    -0.270 OA
ATOM     16  H   LIG d   1      10.308   3.488  -2.473  0.00  0.00     0.155 HD
BRANCH  14  17
ATOM     17  C   LIG d   1      10.016   6.082  -2.557  0.00  0.00     0.041 A 
ATOM     18  C   LIG d   1      10.062   7.421  -2.943  0.00  0.00    -0.008 A 
ATOM     19  C   LIG d   1      10.488   8.382  -2.042  0.00  0.00     0.121 A 
ATOM     20  H   LIG d   1       9.771   7.707  -3.943  0.00  0.00     0.066 H 
ATOM     21  C   LIG d   1      10.857   8.015  -0.755  0.00  0.00    -0.020 A 
ATOM     22  C   LIG d   1      10.806   6.687  -0.369  0.00  0.00    -0.058 A 
ATOM     23  H   LIG d   1      11.183   8.767  -0.053  0.00  0.00     0.065 H 
ATOM     24  C   LIG d   1      10.389   5.721  -1.260  0.00  0.00    -0.049 A 
ATOM     25  H   LIG d   1      11.095   6.408   0.633  0.00  0.00     0.062 H 
ATOM     26  H   LIG d   1      10.352   4.685  -0.956  0.00  0.00     0.062 H 
BRANCH  19  27
ATOM     27  O   LIG d   1      10.538   9.689  -2.416  0.00  0.00    -0.495 OA
BRANCH  27  28
ATOM     28  C   LIG d   1      10.010  10.015  -3.703  0.00  0.00     0.079 C 
ATOM     29  H   LIG d   1       9.449   9.164  -4.092  0.00  0.00     0.066 H 
ATOM     30  H   LIG d   1      10.829  10.250  -4.384  0.00  0.00     0.066 H 
ATOM     31  H   LIG d   1       9.350  10.877  -3.618  0.00  0.00     0.066 H 
ENDBRANCH  27  28
ENDBRANCH  19  27
ENDBRANCH  14  17
ENDBRANCH   4  13
BRANCH   1  32
ATOM     32  C   LIG d   1       5.569  -0.051  -3.346  0.00  0.00    -0.035 C 
ATOM     33  H   LIG d   1       4.567  -0.216  -3.741  0.00  0.00     0.028 H 
ATOM     34  H   LIG d   1       5.863  -0.904  -2.733  0.00  0.00     0.028 H 
ATOM     35  H   LIG d   1       5.577   0.853  -2.737  0.00  0.00     0.028 H 
ENDBRANCH   1  32
BRANCH   9  36
ATOM     36  C   LIG d   1       5.608  -1.663  -6.008  0.00  0.00     0.228 C 
ATOM     37  O   LIG d   1       5.723  -2.772  -5.519  0.00  0.00    -0.283 OA
BRANCH  36  38
ATOM     38  C   LIG d   1       4.516  -1.387  -6.961  0.00  0.00     0.026 A 
ATOM     39  C   LIG d   1       3.762  -0.215  -6.843  0.00  0.00    -0.047 A 
ATOM     40  C   LIG d   1       2.744   0.040  -7.734  0.00  0.00    -0.019 A 
ATOM     41  H   LIG d   1       3.978   0.489  -6.053  0.00  0.00     0.063 H 
ATOM     42  C   LIG d   1       2.465  -0.867  -8.751  0.00  0.00     0.120 A 
ATOM     43  H   LIG d   1       2.162   0.945  -7.644  0.00  0.00     0.065 H 
ATOM     44  C   LIG d   1       3.212  -2.033  -8.872  0.00  0.00    -0.019 A 
ATOM     45  C   LIG d   1       4.236  -2.292  -7.988  0.00  0.00    -0.047 A 
ATOM     46  H   LIG d   1       2.993  -2.734  -9.664  0.00  0.00     0.065 H 
ATOM     47  H   LIG d   1       4.819  -3.196  -8.086  0.00  0.00     0.063 H 
BRANCH  42  48
ATOM     48  O   LIG d   1       1.462  -0.612  -9.628  0.00  0.00    -0.495 OA
BRANCH  48  49
ATOM     49  C   LIG d   1       1.710  -0.909 -11.004  0.00  0.00     0.079 C 
ATOM     50  H   LIG d   1       1.751  -1.990 -11.140  0.00  0.00     0.066 H 
ATOM     51  H   LIG d   1       0.908  -0.496 -11.616  0.00  0.00     0.066 H 
ATOM     52  H   LIG d   1       2.661  -0.469 -11.304  0.00  0.00     0.066 H 
ENDBRANCH  48  49
ENDBRANCH  42  48
ENDBRANCH  36  38
ENDBRANCH   9  36
TORSDOF 9
ENDMDL
