MODEL 1
REMARK VINA RESULT:      -4.2      0.000      0.000
REMARK  15 active torsions:
REMARK  status: ('A' for Active; 'I' for Inactive)
REMARK    1  A    between atoms: C_1  and  C_2 
REMARK    2  A    between atoms: C_2  and  O_3 
REMARK    3  A    between atoms: O_3  and  C_4 
REMARK    4  A    between atoms: C_4  and  C_6 
REMARK    5  A    between atoms: C_6  and  C_7 
REMARK    6  A    between atoms: C_7  and  C_9 
REMARK    7  A    between atoms: C_7  and  S_14 
REMARK    8  A    between atoms: C_9  and  O_11 
REMARK    9  A    between atoms: O_11  and  C_12 
REMARK   10  A    between atoms: C_12  and  C_13 
REMARK   11  A    between atoms: S_14  and  P_15 
REMARK   12  A    between atoms: P_15  and  O_17 
REMARK   13  A    between atoms: P_15  and  O_19 
REMARK   14  A    between atoms: O_17  and  C_18 
REMARK   15  A    between atoms: O_19  and  C_20 
ROOT
ATOM      1  C   LIG d   1       3.609   0.356  -6.167  0.00  0.00     0.121 C 
ATOM      2  H   LIG d   1       4.248   1.201  -5.910  0.00  0.00     0.054 H 
ENDROOT
BRANCH   1   3
ATOM      3  C   LIG d   1       2.515   0.204  -5.109  0.00  0.00     0.067 C 
ATOM      4  H   LIG d   1       2.253  -0.849  -5.007  0.00  0.00     0.039 H 
ATOM      5  H   LIG d   1       1.633   0.769  -5.414  0.00  0.00     0.039 H 
BRANCH   3   6
ATOM      6  C   LIG d   1       3.015   0.729  -3.788  0.00  0.00     0.309 C 
ATOM      7  O   LIG d   1       3.566   1.803  -3.735  0.00  0.00    -0.251 OA
BRANCH   6   8
ATOM      8  O   LIG d   1       2.849   0.004  -2.671  0.00  0.00    -0.465 OA
BRANCH   8   9
ATOM      9  C   LIG d   1       3.180  -1.385  -2.744  0.00  0.00     0.090 C 
ATOM     10  H   LIG d   1       3.277  -1.681  -3.788  0.00  0.00     0.069 H 
ATOM     11  H   LIG d   1       2.391  -1.971  -2.272  0.00  0.00     0.069 H 
BRANCH   9  12
ATOM     12  C   LIG d   1       4.504  -1.633  -2.018  0.00  0.00    -0.031 C 
ATOM     13  H   LIG d   1       5.319  -1.186  -2.587  0.00  0.00     0.026 H 
ATOM     14  H   LIG d   1       4.464  -1.184  -1.026  0.00  0.00     0.026 H 
ATOM     15  H   LIG d   1       4.671  -2.706  -1.925  0.00  0.00     0.026 H 
ENDBRANCH   9  12
ENDBRANCH   8   9
ENDBRANCH   6   8
ENDBRANCH   3   6
ENDBRANCH   1   3
BRANCH   1  16
ATOM     16  C   LIG d   1       2.977   0.597  -7.514  0.00  0.00     0.321 C 
ATOM     17  O   LIG d   1       2.266  -0.248  -8.006  0.00  0.00    -0.250 OA
BRANCH  16  18
ATOM     18  O   LIG d   1       3.203   1.747  -8.166  0.00  0.00    -0.464 OA
BRANCH  18  19
ATOM     19  C   LIG d   1       4.328   1.785  -9.045  0.00  0.00     0.090 C 
ATOM     20  H   LIG d   1       4.858   2.729  -8.919  0.00  0.00     0.069 H 
ATOM     21  H   LIG d   1       4.999   0.957  -8.813  0.00  0.00     0.069 H 
BRANCH  19  22
ATOM     22  C   LIG d   1       3.848   1.659 -10.493  0.00  0.00    -0.031 C 
ATOM     23  H   LIG d   1       3.728   2.654 -10.923  0.00  0.00     0.026 H 
ATOM     24  H   LIG d   1       4.582   1.099 -11.072  0.00  0.00     0.026 H 
ATOM     25  H   LIG d   1       2.891   1.136 -10.515  0.00  0.00     0.026 H 
ENDBRANCH  19  22
ENDBRANCH  18  19
ENDBRANCH  16  18
ENDBRANCH   1  16
BRANCH   1  26
ATOM     26  S   LIG d   1       4.605  -1.159  -6.229  0.00  0.00    -0.059 SA
BRANCH  26  27
ATOM     27  P   LIG d   1       6.590  -0.481  -5.926  0.00  0.00     0.229 P 
ATOM     28  S   LIG d   1       7.782  -1.668  -6.730  0.00  0.00     0.003 SA
BRANCH  27  29
ATOM     29  O   LIG d   1       6.764   0.979  -6.581  0.00  0.00    -0.327 OA
BRANCH  29  30
ATOM     30  C   LIG d   1       7.966   1.405  -7.227  0.00  0.00     0.044 C 
ATOM     31  H   LIG d   1       7.720   1.877  -8.178  0.00  0.00     0.053 H 
ATOM     32  H   LIG d   1       8.488   2.119  -6.590  0.00  0.00     0.053 H 
ATOM     33  H   LIG d   1       8.607   0.541  -7.405  0.00  0.00     0.053 H 
ENDBRANCH  29  30
ENDBRANCH  27  29
BRANCH  27  34
ATOM     34  O   LIG d   1       6.896  -0.401  -4.348  0.00  0.00    -0.327 OA
BRANCH  34  35
ATOM     35  C   LIG d   1       6.935   0.830  -3.623  0.00  0.00     0.044 C 
ATOM     36  H   LIG d   1       7.449   0.677  -2.675  0.00  0.00     0.053 H 
ATOM     37  H   LIG d   1       7.468   1.579  -4.209  0.00  0.00     0.053 H 
ATOM     38  H   LIG d   1       5.917   1.173  -3.435  0.00  0.00     0.053 H 
ENDBRANCH  34  35
ENDBRANCH  27  34
ENDBRANCH  26  27
ENDBRANCH   1  26
TORSDOF 15
ENDMDL
MODEL 2
REMARK VINA RESULT:      -4.0      1.820      2.271
REMARK  15 active torsions:
REMARK  status: ('A' for Active; 'I' for Inactive)
REMARK    1  A    between atoms: C_1  and  C_2 
REMARK    2  A    between atoms: C_2  and  O_3 
REMARK    3  A    between atoms: O_3  and  C_4 
REMARK    4  A    between atoms: C_4  and  C_6 
REMARK    5  A    between atoms: C_6  and  C_7 
REMARK    6  A    between atoms: C_7  and  C_9 
REMARK    7  A    between atoms: C_7  and  S_14 
REMARK    8  A    between atoms: C_9  and  O_11 
REMARK    9  A    between atoms: O_11  and  C_12 
REMARK   10  A    between atoms: C_12  and  C_13 
REMARK   11  A    between atoms: S_14  and  P_15 
REMARK   12  A    between atoms: P_15  and  O_17 
REMARK   13  A    between atoms: P_15  and  O_19 
REMARK   14  A    between atoms: O_17  and  C_18 
REMARK   15  A    between atoms: O_19  and  C_20 
ROOT
ATOM      1  C   LIG d   1       4.940  -0.444  -5.952  0.00  0.00     0.121 C 
ATOM      2  H   LIG d   1       5.293   0.514  -5.572  0.00  0.00     0.054 H 
ENDROOT
BRANCH   1   3
ATOM      3  C   LIG d   1       4.198  -1.191  -4.843  0.00  0.00     0.067 C 
ATOM      4  H   LIG d   1       4.921  -1.629  -4.154  0.00  0.00     0.039 H 
ATOM      5  H   LIG d   1       3.591  -1.983  -5.283  0.00  0.00     0.039 H 
BRANCH   3   6
ATOM      6  C   LIG d   1       3.308  -0.231  -4.097  0.00  0.00     0.309 C 
ATOM      7  O   LIG d   1       2.214  -0.586  -3.727  0.00  0.00    -0.251 OA
BRANCH   6   8
ATOM      8  O   LIG d   1       3.730   1.017  -3.844  0.00  0.00    -0.465 OA
BRANCH   8   9
ATOM      9  C   LIG d   1       3.620   1.479  -2.496  0.00  0.00     0.090 C 
ATOM     10  H   LIG d   1       2.627   1.244  -2.112  0.00  0.00     0.069 H 
ATOM     11  H   LIG d   1       3.774   2.558  -2.468  0.00  0.00     0.069 H 
BRANCH   9  12
ATOM     12  C   LIG d   1       4.678   0.789  -1.632  0.00  0.00    -0.031 C 
ATOM     13  H   LIG d   1       5.306   0.159  -2.262  0.00  0.00     0.026 H 
ATOM     14  H   LIG d   1       5.293   1.541  -1.141  0.00  0.00     0.026 H 
ATOM     15  H   LIG d   1       4.185   0.174  -0.879  0.00  0.00     0.026 H 
ENDBRANCH   9  12
ENDBRANCH   8   9
ENDBRANCH   6   8
ENDBRANCH   3   6
ENDBRANCH   1   3
BRANCH   1  16
ATOM     16  C   LIG d   1       4.007  -0.209  -7.112  0.00  0.00     0.321 C 
ATOM     17  O   LIG d   1       3.694  -1.129  -7.831  0.00  0.00    -0.250 OA
BRANCH  16  18
ATOM     18  O   LIG d   1       3.523   1.020  -7.348  0.00  0.00    -0.464 OA
BRANCH  18  19
ATOM     19  C   LIG d   1       3.066   1.295  -8.673  0.00  0.00     0.090 C 
ATOM     20  H   LIG d   1       3.255   0.431  -9.310  0.00  0.00     0.069 H 
ATOM     21  H   LIG d   1       1.996   1.505  -8.652  0.00  0.00     0.069 H 
BRANCH  19  22
ATOM     22  C   LIG d   1       3.812   2.510  -9.227  0.00  0.00    -0.031 C 
ATOM     23  H   LIG d   1       4.638   2.173  -9.854  0.00  0.00     0.026 H 
ATOM     24  H   LIG d   1       3.128   3.117  -9.822  0.00  0.00     0.026 H 
ATOM     25  H   LIG d   1       4.202   3.106  -8.401  0.00  0.00     0.026 H 
ENDBRANCH  19  22
ENDBRANCH  18  19
ENDBRANCH  16  18
ENDBRANCH   1  16
BRANCH   1  26
ATOM     26  S   LIG d   1       6.355  -1.434  -6.507  0.00  0.00    -0.059 SA
BRANCH  26  27
ATOM     27  P   LIG d   1       7.940  -0.816  -5.243  0.00  0.00     0.229 P 
ATOM     28  S   LIG d   1       9.153   0.208  -6.222  0.00  0.00     0.003 SA
BRANCH  27  29
ATOM     29  O   LIG d   1       7.349   0.066  -4.033  0.00  0.00    -0.327 OA
BRANCH  29  30
ATOM     30  C   LIG d   1       7.593   1.467  -3.899  0.00  0.00     0.044 C 
ATOM     31  H   LIG d   1       8.598   1.626  -3.505  0.00  0.00     0.053 H 
ATOM     32  H   LIG d   1       7.506   1.947  -4.873  0.00  0.00     0.053 H 
ATOM     33  H   LIG d   1       6.863   1.899  -3.215  0.00  0.00     0.053 H 
ENDBRANCH  29  30
ENDBRANCH  27  29
BRANCH  27  34
ATOM     34  O   LIG d   1       8.689  -2.111  -4.648  0.00  0.00    -0.327 OA
BRANCH  34  35
ATOM     35  C   LIG d   1       7.993  -3.212  -4.061  0.00  0.00     0.044 C 
ATOM     36  H   LIG d   1       6.919  -3.057  -4.161  0.00  0.00     0.053 H 
ATOM     37  H   LIG d   1       8.275  -4.133  -4.572  0.00  0.00     0.053 H 
ATOM     38  H   LIG d   1       8.254  -3.286  -3.006  0.00  0.00     0.053 H 
ENDBRANCH  34  35
ENDBRANCH  27  34
ENDBRANCH  26  27
ENDBRANCH   1  26
TORSDOF 15
ENDMDL
MODEL 3
REMARK VINA RESULT:      -4.0      2.148      5.327
REMARK  15 active torsions:
REMARK  status: ('A' for Active; 'I' for Inactive)
REMARK    1  A    between atoms: C_1  and  C_2 
REMARK    2  A    between atoms: C_2  and  O_3 
REMARK    3  A    between atoms: O_3  and  C_4 
REMARK    4  A    between atoms: C_4  and  C_6 
REMARK    5  A    between atoms: C_6  and  C_7 
REMARK    6  A    between atoms: C_7  and  C_9 
REMARK    7  A    between atoms: C_7  and  S_14 
REMARK    8  A    between atoms: C_9  and  O_11 
REMARK    9  A    between atoms: O_11  and  C_12 
REMARK   10  A    between atoms: C_12  and  C_13 
REMARK   11  A    between atoms: S_14  and  P_15 
REMARK   12  A    between atoms: P_15  and  O_17 
REMARK   13  A    between atoms: P_15  and  O_19 
REMARK   14  A    between atoms: O_17  and  C_18 
REMARK   15  A    between atoms: O_19  and  C_20 
ROOT
ATOM      1  C   LIG d   1       3.504  -0.561  -5.655  0.00  0.00     0.121 C 
ATOM      2  H   LIG d   1       3.075  -1.562  -5.671  0.00  0.00     0.054 H 
ENDROOT
BRANCH   1   3
ATOM      3  C   LIG d   1       3.024   0.220  -6.879  0.00  0.00     0.067 C 
ATOM      4  H   LIG d   1       3.468   1.216  -6.872  0.00  0.00     0.039 H 
ATOM      5  H   LIG d   1       1.937   0.308  -6.850  0.00  0.00     0.039 H 
BRANCH   3   6
ATOM      6  C   LIG d   1       3.435  -0.506  -8.133  0.00  0.00     0.309 C 
ATOM      7  O   LIG d   1       3.141  -1.669  -8.281  0.00  0.00    -0.251 OA
BRANCH   6   8
ATOM      8  O   LIG d   1       4.128   0.137  -9.085  0.00  0.00    -0.465 OA
BRANCH   8   9
ATOM      9  C   LIG d   1       4.430   1.514  -8.849  0.00  0.00     0.090 C 
ATOM     10  H   LIG d   1       5.499   1.680  -8.987  0.00  0.00     0.069 H 
ATOM     11  H   LIG d   1       4.150   1.779  -7.830  0.00  0.00     0.069 H 
BRANCH   9  12
ATOM     12  C   LIG d   1       3.649   2.384  -9.836  0.00  0.00    -0.031 C 
ATOM     13  H   LIG d   1       3.988   3.417  -9.757  0.00  0.00     0.026 H 
ATOM     14  H   LIG d   1       3.816   2.023 -10.850  0.00  0.00     0.026 H 
ATOM     15  H   LIG d   1       2.585   2.331  -9.602  0.00  0.00     0.026 H 
ENDBRANCH   9  12
ENDBRANCH   8   9
ENDBRANCH   6   8
ENDBRANCH   3   6
ENDBRANCH   1   3
BRANCH   1  16
ATOM     16  C   LIG d   1       3.069   0.152  -4.400  0.00  0.00     0.321 C 
ATOM     17  O   LIG d   1       3.226   1.346  -4.299  0.00  0.00    -0.250 OA
BRANCH  16  18
ATOM     18  O   LIG d   1       2.508  -0.538  -3.396  0.00  0.00    -0.464 OA
BRANCH  18  19
ATOM     19  C   LIG d   1       3.300  -1.559  -2.787  0.00  0.00     0.090 C 
ATOM     20  H   LIG d   1       2.663  -2.202  -2.181  0.00  0.00     0.069 H 
ATOM     21  H   LIG d   1       3.786  -2.153  -3.562  0.00  0.00     0.069 H 
BRANCH  19  22
ATOM     22  C   LIG d   1       4.365  -0.914  -1.897  0.00  0.00    -0.031 C 
ATOM     23  H   LIG d   1       4.708  -1.638  -1.157  0.00  0.00     0.026 H 
ATOM     24  H   LIG d   1       5.209  -0.596  -2.512  0.00  0.00     0.026 H 
ATOM     25  H   LIG d   1       3.940  -0.048  -1.389  0.00  0.00     0.026 H 
ENDBRANCH  19  22
ENDBRANCH  18  19
ENDBRANCH  16  18
ENDBRANCH   1  16
BRANCH   1  26
ATOM     26  S   LIG d   1       5.315  -0.678  -5.686  0.00  0.00    -0.059 SA
BRANCH  26  27
ATOM     27  P   LIG d   1       5.694  -2.763  -5.626  0.00  0.00     0.229 P 
ATOM     28  S   LIG d   1       6.758  -3.242  -7.080  0.00  0.00     0.003 SA
BRANCH  27  29
ATOM     29  O   LIG d   1       6.459  -3.130  -4.259  0.00  0.00    -0.327 OA
BRANCH  29  30
ATOM     30  C   LIG d   1       7.446  -2.284  -3.667  0.00  0.00     0.044 C 
ATOM     31  H   LIG d   1       7.562  -2.541  -2.613  0.00  0.00     0.053 H 
ATOM     32  H   LIG d   1       8.398  -2.421  -4.180  0.00  0.00     0.053 H 
ATOM     33  H   LIG d   1       7.133  -1.244  -3.755  0.00  0.00     0.053 H 
ENDBRANCH  29  30
ENDBRANCH  27  29
BRANCH  27  34
ATOM     34  O   LIG d   1       4.300  -3.564  -5.695  0.00  0.00    -0.327 OA
BRANCH  34  35
ATOM     35  C   LIG d   1       4.103  -4.716  -6.518  0.00  0.00     0.044 C 
ATOM     36  H   LIG d   1       3.101  -5.112  -6.354  0.00  0.00     0.053 H 
ATOM     37  H   LIG d   1       4.215  -4.435  -7.566  0.00  0.00     0.053 H 
ATOM     38  H   LIG d   1       4.842  -5.475  -6.263  0.00  0.00     0.053 H 
ENDBRANCH  34  35
ENDBRANCH  27  34
ENDBRANCH  26  27
ENDBRANCH   1  26
TORSDOF 15
ENDMDL
MODEL 4
REMARK VINA RESULT:      -3.9      2.430      3.262
REMARK  15 active torsions:
REMARK  status: ('A' for Active; 'I' for Inactive)
REMARK    1  A    between atoms: C_1  and  C_2 
REMARK    2  A    between atoms: C_2  and  O_3 
REMARK    3  A    between atoms: O_3  and  C_4 
REMARK    4  A    between atoms: C_4  and  C_6 
REMARK    5  A    between atoms: C_6  and  C_7 
REMARK    6  A    between atoms: C_7  and  C_9 
REMARK    7  A    between atoms: C_7  and  S_14 
REMARK    8  A    between atoms: C_9  and  O_11 
REMARK    9  A    between atoms: O_11  and  C_12 
REMARK   10  A    between atoms: C_12  and  C_13 
REMARK   11  A    between atoms: S_14  and  P_15 
REMARK   12  A    between atoms: P_15  and  O_17 
REMARK   13  A    between atoms: P_15  and  O_19 
REMARK   14  A    between atoms: O_17  and  C_18 
REMARK   15  A    between atoms: O_19  and  C_20 
ROOT
ATOM      1  C   LIG d   1       4.700  -0.457  -6.637  0.00  0.00     0.121 C 
ATOM      2  H   LIG d   1       5.187  -0.340  -5.669  0.00  0.00     0.054 H 
ENDROOT
BRANCH   1   3
ATOM      3  C   LIG d   1       3.273   0.090  -6.560  0.00  0.00     0.067 C 
ATOM      4  H   LIG d   1       2.587  -0.617  -7.027  0.00  0.00     0.039 H 
ATOM      5  H   LIG d   1       3.222   1.045  -7.085  0.00  0.00     0.039 H 
BRANCH   3   6
ATOM      6  C   LIG d   1       2.888   0.288  -5.117  0.00  0.00     0.309 C 
ATOM      7  O   LIG d   1       1.755   0.066  -4.759  0.00  0.00    -0.251 OA
BRANCH   6   8
ATOM      8  O   LIG d   1       3.801   0.712  -4.230  0.00  0.00    -0.465 OA
BRANCH   8   9
ATOM      9  C   LIG d   1       3.436   0.664  -2.849  0.00  0.00     0.090 C 
ATOM     10  H   LIG d   1       3.076  -0.335  -2.603  0.00  0.00     0.069 H 
ATOM     11  H   LIG d   1       2.647   1.392  -2.656  0.00  0.00     0.069 H 
BRANCH   9  12
ATOM     12  C   LIG d   1       4.656   0.993  -1.987  0.00  0.00    -0.031 C 
ATOM     13  H   LIG d   1       4.619   2.040  -1.689  0.00  0.00     0.026 H 
ATOM     14  H   LIG d   1       4.654   0.362  -1.099  0.00  0.00     0.026 H 
ATOM     15  H   LIG d   1       5.565   0.809  -2.560  0.00  0.00     0.026 H 
ENDBRANCH   9  12
ENDBRANCH   8   9
ENDBRANCH   6   8
ENDBRANCH   3   6
ENDBRANCH   1   3
BRANCH   1  16
ATOM     16  C   LIG d   1       5.474   0.301  -7.684  0.00  0.00     0.321 C 
ATOM     17  O   LIG d   1       6.509   0.852  -7.388  0.00  0.00    -0.250 OA
BRANCH  16  18
ATOM     18  O   LIG d   1       5.017   0.365  -8.944  0.00  0.00    -0.464 OA
BRANCH  18  19
ATOM     19  C   LIG d   1       5.127   1.623  -9.611  0.00  0.00     0.090 C 
ATOM     20  H   LIG d   1       5.949   2.194  -9.179  0.00  0.00     0.069 H 
ATOM     21  H   LIG d   1       5.317   1.456 -10.672  0.00  0.00     0.069 H 
BRANCH  19  22
ATOM     22  C   LIG d   1       3.821   2.404  -9.445  0.00  0.00    -0.031 C 
ATOM     23  H   LIG d   1       3.450   2.278  -8.427  0.00  0.00     0.026 H 
ATOM     24  H   LIG d   1       4.003   3.462  -9.638  0.00  0.00     0.026 H 
ATOM     25  H   LIG d   1       3.080   2.027 -10.151  0.00  0.00     0.026 H 
ENDBRANCH  19  22
ENDBRANCH  18  19
ENDBRANCH  16  18
ENDBRANCH   1  16
BRANCH   1  26
ATOM     26  S   LIG d   1       4.649  -2.216  -7.080  0.00  0.00    -0.059 SA
BRANCH  26  27
ATOM     27  P   LIG d   1       5.394  -3.200  -5.357  0.00  0.00     0.229 P 
ATOM     28  S   LIG d   1       7.174  -3.678  -5.635  0.00  0.00     0.003 SA
BRANCH  27  29
ATOM     29  O   LIG d   1       5.295  -2.213  -4.090  0.00  0.00    -0.327 OA
BRANCH  29  30
ATOM     30  C   LIG d   1       6.440  -1.767  -3.360  0.00  0.00     0.044 C 
ATOM     31  H   LIG d   1       6.319  -2.016  -2.305  0.00  0.00     0.053 H 
ATOM     32  H   LIG d   1       7.333  -2.256  -3.748  0.00  0.00     0.053 H 
ATOM     33  H   LIG d   1       6.541  -0.687  -3.468  0.00  0.00     0.053 H 
ENDBRANCH  29  30
ENDBRANCH  27  29
BRANCH  27  34
ATOM     34  O   LIG d   1       4.522  -4.524  -5.075  0.00  0.00    -0.327 OA
BRANCH  34  35
ATOM     35  C   LIG d   1       4.648  -5.719  -5.849  0.00  0.00     0.044 C 
ATOM     36  H   LIG d   1       5.224  -5.509  -6.750  0.00  0.00     0.053 H 
ATOM     37  H   LIG d   1       5.161  -6.480  -5.259  0.00  0.00     0.053 H 
ATOM     38  H   LIG d   1       3.657  -6.079  -6.125  0.00  0.00     0.053 H 
ENDBRANCH  34  35
ENDBRANCH  27  34
ENDBRANCH  26  27
ENDBRANCH   1  26
TORSDOF 15
ENDMDL
MODEL 5
REMARK VINA RESULT:      -3.9      2.437      4.651
REMARK  15 active torsions:
REMARK  status: ('A' for Active; 'I' for Inactive)
REMARK    1  A    between atoms: C_1  and  C_2 
REMARK    2  A    between atoms: C_2  and  O_3 
REMARK    3  A    between atoms: O_3  and  C_4 
REMARK    4  A    between atoms: C_4  and  C_6 
REMARK    5  A    between atoms: C_6  and  C_7 
REMARK    6  A    between atoms: C_7  and  C_9 
REMARK    7  A    between atoms: C_7  and  S_14 
REMARK    8  A    between atoms: C_9  and  O_11 
REMARK    9  A    between atoms: O_11  and  C_12 
REMARK   10  A    between atoms: C_12  and  C_13 
REMARK   11  A    between atoms: S_14  and  P_15 
REMARK   12  A    between atoms: P_15  and  O_17 
REMARK   13  A    between atoms: P_15  and  O_19 
REMARK   14  A    between atoms: O_17  and  C_18 
REMARK   15  A    between atoms: O_19  and  C_20 
ROOT
ATOM      1  C   LIG d   1       4.054  -0.149  -5.737  0.00  0.00     0.121 C 
ATOM      2  H   LIG d   1       4.978   0.423  -5.829  0.00  0.00     0.054 H 
ENDROOT
BRANCH   1   3
ATOM      3  C   LIG d   1       4.388  -1.631  -5.559  0.00  0.00     0.067 C 
ATOM      4  H   LIG d   1       4.717  -2.046  -6.512  0.00  0.00     0.039 H 
ATOM      5  H   LIG d   1       3.500  -2.165  -5.219  0.00  0.00     0.039 H 
BRANCH   3   6
ATOM      6  C   LIG d   1       5.485  -1.781  -4.538  0.00  0.00     0.309 C 
ATOM      7  O   LIG d   1       5.265  -2.348  -3.493  0.00  0.00    -0.251 OA
BRANCH   6   8
ATOM      8  O   LIG d   1       6.707  -1.285  -4.788  0.00  0.00    -0.465 OA
BRANCH   8   9
ATOM      9  C   LIG d   1       7.317  -0.509  -3.753  0.00  0.00     0.090 C 
ATOM     10  H   LIG d   1       8.346  -0.839  -3.612  0.00  0.00     0.069 H 
ATOM     11  H   LIG d   1       6.762  -0.642  -2.825  0.00  0.00     0.069 H 
BRANCH   9  12
ATOM     12  C   LIG d   1       7.305   0.969  -4.150  0.00  0.00    -0.031 C 
ATOM     13  H   LIG d   1       8.182   1.189  -4.758  0.00  0.00     0.026 H 
ATOM     14  H   LIG d   1       6.403   1.184  -4.721  0.00  0.00     0.026 H 
ATOM     15  H   LIG d   1       7.322   1.585  -3.250  0.00  0.00     0.026 H 
ENDBRANCH   9  12
ENDBRANCH   8   9
ENDBRANCH   6   8
ENDBRANCH   3   6
ENDBRANCH   1   3
BRANCH   1  16
ATOM     16  C   LIG d   1       3.278   0.339  -4.541  0.00  0.00     0.321 C 
ATOM     17  O   LIG d   1       2.231  -0.187  -4.245  0.00  0.00    -0.250 OA
BRANCH  16  18
ATOM     18  O   LIG d   1       3.749   1.358  -3.805  0.00  0.00    -0.464 OA
BRANCH  18  19
ATOM     19  C   LIG d   1       3.448   1.342  -2.409  0.00  0.00     0.090 C 
ATOM     20  H   LIG d   1       3.292   2.363  -2.059  0.00  0.00     0.069 H 
ATOM     21  H   LIG d   1       2.544   0.757  -2.238  0.00  0.00     0.069 H 
BRANCH  19  22
ATOM     22  C   LIG d   1       4.614   0.713  -1.644  0.00  0.00    -0.031 C 
ATOM     23  H   LIG d   1       4.352  -0.305  -1.356  0.00  0.00     0.026 H 
ATOM     24  H   LIG d   1       5.499   0.695  -2.281  0.00  0.00     0.026 H 
ATOM     25  H   LIG d   1       4.822   1.302  -0.749  0.00  0.00     0.026 H 
ENDBRANCH  19  22
ENDBRANCH  18  19
ENDBRANCH  16  18
ENDBRANCH   1  16
BRANCH   1  26
ATOM     26  S   LIG d   1       3.056   0.070  -7.236  0.00  0.00    -0.059 SA
BRANCH  26  27
ATOM     27  P   LIG d   1       4.453   0.715  -8.694  0.00  0.00     0.229 P 
ATOM     28  S   LIG d   1       3.695   2.073  -9.722  0.00  0.00     0.003 SA
BRANCH  27  29
ATOM     29  O   LIG d   1       5.774   1.271  -7.961  0.00  0.00    -0.327 OA
BRANCH  29  30
ATOM     30  C   LIG d   1       6.997   0.535  -7.899  0.00  0.00     0.044 C 
ATOM     31  H   LIG d   1       7.160   0.186  -6.879  0.00  0.00     0.053 H 
ATOM     32  H   LIG d   1       6.942  -0.321  -8.571  0.00  0.00     0.053 H 
ATOM     33  H   LIG d   1       7.824   1.179  -8.199  0.00  0.00     0.053 H 
ENDBRANCH  29  30
ENDBRANCH  27  29
BRANCH  27  34
ATOM     34  O   LIG d   1       4.846  -0.523  -9.645  0.00  0.00    -0.327 OA
BRANCH  34  35
ATOM     35  C   LIG d   1       4.332  -1.843  -9.458  0.00  0.00     0.044 C 
ATOM     36  H   LIG d   1       3.288  -1.873  -9.768  0.00  0.00     0.053 H 
ATOM     37  H   LIG d   1       4.910  -2.546 -10.058  0.00  0.00     0.053 H 
ATOM     38  H   LIG d   1       4.408  -2.116  -8.405  0.00  0.00     0.053 H 
ENDBRANCH  34  35
ENDBRANCH  27  34
ENDBRANCH  26  27
ENDBRANCH   1  26
TORSDOF 15
ENDMDL
MODEL 6
REMARK VINA RESULT:      -3.9      2.794      3.616
REMARK  15 active torsions:
REMARK  status: ('A' for Active; 'I' for Inactive)
REMARK    1  A    between atoms: C_1  and  C_2 
REMARK    2  A    between atoms: C_2  and  O_3 
REMARK    3  A    between atoms: O_3  and  C_4 
REMARK    4  A    between atoms: C_4  and  C_6 
REMARK    5  A    between atoms: C_6  and  C_7 
REMARK    6  A    between atoms: C_7  and  C_9 
REMARK    7  A    between atoms: C_7  and  S_14 
REMARK    8  A    between atoms: C_9  and  O_11 
REMARK    9  A    between atoms: O_11  and  C_12 
REMARK   10  A    between atoms: C_12  and  C_13 
REMARK   11  A    between atoms: S_14  and  P_15 
REMARK   12  A    between atoms: P_15  and  O_17 
REMARK   13  A    between atoms: P_15  and  O_19 
REMARK   14  A    between atoms: O_17  and  C_18 
REMARK   15  A    between atoms: O_19  and  C_20 
ROOT
ATOM      1  C   LIG d   1       4.670  -0.537  -6.407  0.00  0.00     0.121 C 
ATOM      2  H   LIG d   1       5.103  -0.522  -5.407  0.00  0.00     0.054 H 
ENDROOT
BRANCH   1   3
ATOM      3  C   LIG d   1       3.258   0.050  -6.361  0.00  0.00     0.067 C 
ATOM      4  H   LIG d   1       2.554  -0.666  -6.784  0.00  0.00     0.039 H 
ATOM      5  H   LIG d   1       3.229   0.973  -6.942  0.00  0.00     0.039 H 
BRANCH   3   6
ATOM      6  C   LIG d   1       2.882   0.343  -4.932  0.00  0.00     0.309 C 
ATOM      7  O   LIG d   1       1.795   0.018  -4.515  0.00  0.00    -0.251 OA
BRANCH   6   8
ATOM      8  O   LIG d   1       3.752   0.966  -4.123  0.00  0.00    -0.465 OA
BRANCH   8   9
ATOM      9  C   LIG d   1       3.397   1.067  -2.742  0.00  0.00     0.090 C 
ATOM     10  H   LIG d   1       2.665   0.297  -2.498  0.00  0.00     0.069 H 
ATOM     11  H   LIG d   1       2.968   2.050  -2.548  0.00  0.00     0.069 H 
BRANCH   9  12
ATOM     12  C   LIG d   1       4.646   0.876  -1.878  0.00  0.00    -0.031 C 
ATOM     13  H   LIG d   1       4.387   1.016  -0.829  0.00  0.00     0.026 H 
ATOM     14  H   LIG d   1       5.038  -0.130  -2.024  0.00  0.00     0.026 H 
ATOM     15  H   LIG d   1       5.401   1.606  -2.168  0.00  0.00     0.026 H 
ENDBRANCH   9  12
ENDBRANCH   8   9
ENDBRANCH   6   8
ENDBRANCH   3   6
ENDBRANCH   1   3
BRANCH   1  16
ATOM     16  C   LIG d   1       5.526   0.284  -7.336  0.00  0.00     0.321 C 
ATOM     17  O   LIG d   1       6.517   0.835  -6.916  0.00  0.00    -0.250 OA
BRANCH  16  18
ATOM     18  O   LIG d   1       5.190   0.403  -8.630  0.00  0.00    -0.464 OA
BRANCH  18  19
ATOM     19  C   LIG d   1       5.351   1.692  -9.227  0.00  0.00     0.090 C 
ATOM     20  H   LIG d   1       6.105   2.256  -8.677  0.00  0.00     0.069 H 
ATOM     21  H   LIG d   1       5.668   1.575 -10.263  0.00  0.00     0.069 H 
BRANCH  19  22
ATOM     22  C   LIG d   1       4.020   2.443  -9.183  0.00  0.00    -0.031 C 
ATOM     23  H   LIG d   1       4.190   3.497  -9.408  0.00  0.00     0.026 H 
ATOM     24  H   LIG d   1       3.338   2.019  -9.922  0.00  0.00     0.026 H 
ATOM     25  H   LIG d   1       3.581   2.350  -8.189  0.00  0.00     0.026 H 
ENDBRANCH  19  22
ENDBRANCH  18  19
ENDBRANCH  16  18
ENDBRANCH   1  16
BRANCH   1  26
ATOM     26  S   LIG d   1       4.595  -2.247  -7.008  0.00  0.00    -0.059 SA
BRANCH  26  27
ATOM     27  P   LIG d   1       5.173  -3.406  -5.331  0.00  0.00     0.229 P 
ATOM     28  S   LIG d   1       4.714  -2.506  -3.765  0.00  0.00     0.003 SA
BRANCH  27  29
ATOM     29  O   LIG d   1       4.417  -4.826  -5.374  0.00  0.00    -0.327 OA
BRANCH  29  30
ATOM     30  C   LIG d   1       3.922  -5.409  -6.581  0.00  0.00     0.044 C 
ATOM     31  H   LIG d   1       3.939  -4.664  -7.378  0.00  0.00     0.053 H 
ATOM     32  H   LIG d   1       4.550  -6.254  -6.862  0.00  0.00     0.053 H 
ATOM     33  H   LIG d   1       2.899  -5.752  -6.426  0.00  0.00     0.053 H 
ENDBRANCH  29  30
ENDBRANCH  27  29
BRANCH  27  34
ATOM     34  O   LIG d   1       6.765  -3.644  -5.366  0.00  0.00    -0.327 OA
BRANCH  34  35
ATOM     35  C   LIG d   1       7.362  -4.938  -5.250  0.00  0.00     0.044 C 
ATOM     36  H   LIG d   1       7.055  -5.396  -4.310  0.00  0.00     0.053 H 
ATOM     37  H   LIG d   1       7.038  -5.563  -6.082  0.00  0.00     0.053 H 
ATOM     38  H   LIG d   1       8.447  -4.840  -5.270  0.00  0.00     0.053 H 
ENDBRANCH  34  35
ENDBRANCH  27  34
ENDBRANCH  26  27
ENDBRANCH   1  26
TORSDOF 15
ENDMDL
MODEL 7
REMARK VINA RESULT:      -3.9      3.100      5.713
REMARK  15 active torsions:
REMARK  status: ('A' for Active; 'I' for Inactive)
REMARK    1  A    between atoms: C_1  and  C_2 
REMARK    2  A    between atoms: C_2  and  O_3 
REMARK    3  A    between atoms: O_3  and  C_4 
REMARK    4  A    between atoms: C_4  and  C_6 
REMARK    5  A    between atoms: C_6  and  C_7 
REMARK    6  A    between atoms: C_7  and  C_9 
REMARK    7  A    between atoms: C_7  and  S_14 
REMARK    8  A    between atoms: C_9  and  O_11 
REMARK    9  A    between atoms: O_11  and  C_12 
REMARK   10  A    between atoms: C_12  and  C_13 
REMARK   11  A    between atoms: S_14  and  P_15 
REMARK   12  A    between atoms: P_15  and  O_17 
REMARK   13  A    between atoms: P_15  and  O_19 
REMARK   14  A    between atoms: O_17  and  C_18 
REMARK   15  A    between atoms: O_19  and  C_20 
ROOT
ATOM      1  C   LIG d   1       4.138  -1.018  -5.675  0.00  0.00     0.121 C 
ATOM      2  H   LIG d   1       3.443  -1.337  -6.452  0.00  0.00     0.054 H 
ENDROOT
BRANCH   1   3
ATOM      3  C   LIG d   1       5.406  -0.459  -6.323  0.00  0.00     0.067 C 
ATOM      4  H   LIG d   1       6.171  -1.234  -6.353  0.00  0.00     0.039 H 
ATOM      5  H   LIG d   1       5.769   0.387  -5.739  0.00  0.00     0.039 H 
BRANCH   3   6
ATOM      6  C   LIG d   1       5.095  -0.004  -7.726  0.00  0.00     0.309 C 
ATOM      7  O   LIG d   1       5.166  -0.786  -8.644  0.00  0.00    -0.251 OA
BRANCH   6   8
ATOM      8  O   LIG d   1       4.740   1.270  -7.955  0.00  0.00    -0.465 OA
BRANCH   8   9
ATOM      9  C   LIG d   1       3.438   1.492  -8.502  0.00  0.00     0.090 C 
ATOM     10  H   LIG d   1       2.850   2.090  -7.806  0.00  0.00     0.069 H 
ATOM     11  H   LIG d   1       2.944   0.534  -8.666  0.00  0.00     0.069 H 
BRANCH   9  12
ATOM     12  C   LIG d   1       3.564   2.237  -9.833  0.00  0.00    -0.031 C 
ATOM     13  H   LIG d   1       2.659   2.818 -10.010  0.00  0.00     0.026 H 
ATOM     14  H   LIG d   1       4.423   2.904  -9.796  0.00  0.00     0.026 H 
ATOM     15  H   LIG d   1       3.698   1.516 -10.640  0.00  0.00     0.026 H 
ENDBRANCH   9  12
ENDBRANCH   8   9
ENDBRANCH   6   8
ENDBRANCH   3   6
ENDBRANCH   1   3
BRANCH   1  16
ATOM     16  C   LIG d   1       3.491   0.049  -4.831  0.00  0.00     0.321 C 
ATOM     17  O   LIG d   1       2.290   0.183  -4.842  0.00  0.00    -0.250 OA
BRANCH  16  18
ATOM     18  O   LIG d   1       4.248   0.851  -4.066  0.00  0.00    -0.464 OA
BRANCH  18  19
ATOM     19  C   LIG d   1       3.714   1.230  -2.796  0.00  0.00     0.090 C 
ATOM     20  H   LIG d   1       3.753   2.314  -2.694  0.00  0.00     0.069 H 
ATOM     21  H   LIG d   1       2.679   0.895  -2.722  0.00  0.00     0.069 H 
BRANCH  19  22
ATOM     22  C   LIG d   1       4.540   0.582  -1.683  0.00  0.00    -0.031 C 
ATOM     23  H   LIG d   1       4.531  -0.501  -1.808  0.00  0.00     0.026 H 
ATOM     24  H   LIG d   1       5.567   0.946  -1.733  0.00  0.00     0.026 H 
ATOM     25  H   LIG d   1       4.110   0.839  -0.714  0.00  0.00     0.026 H 
ENDBRANCH  19  22
ENDBRANCH  18  19
ENDBRANCH  16  18
ENDBRANCH   1  16
BRANCH   1  26
ATOM     26  S   LIG d   1       4.570  -2.436  -4.629  0.00  0.00    -0.059 SA
BRANCH  26  27
ATOM     27  P   LIG d   1       4.789  -4.037  -6.001  0.00  0.00     0.229 P 
ATOM     28  S   LIG d   1       6.600  -4.333  -6.327  0.00  0.00     0.003 SA
BRANCH  27  29
ATOM     29  O   LIG d   1       4.131  -5.369  -5.381  0.00  0.00    -0.327 OA
BRANCH  29  30
ATOM     30  C   LIG d   1       4.741  -6.658  -5.481  0.00  0.00     0.044 C 
ATOM     31  H   LIG d   1       4.210  -7.362  -4.840  0.00  0.00     0.053 H 
ATOM     32  H   LIG d   1       4.696  -7.003  -6.514  0.00  0.00     0.053 H 
ATOM     33  H   LIG d   1       5.782  -6.592  -5.165  0.00  0.00     0.053 H 
ENDBRANCH  29  30
ENDBRANCH  27  29
BRANCH  27  34
ATOM     34  O   LIG d   1       4.049  -3.666  -7.382  0.00  0.00    -0.327 OA
BRANCH  34  35
ATOM     35  C   LIG d   1       3.773  -4.629  -8.401  0.00  0.00     0.044 C 
ATOM     36  H   LIG d   1       4.521  -5.421  -8.365  0.00  0.00     0.053 H 
ATOM     37  H   LIG d   1       2.784  -5.058  -8.236  0.00  0.00     0.053 H 
ATOM     38  H   LIG d   1       3.802  -4.144  -9.376  0.00  0.00     0.053 H 
ENDBRANCH  34  35
ENDBRANCH  27  34
ENDBRANCH  26  27
ENDBRANCH   1  26
TORSDOF 15
ENDMDL
MODEL 8
REMARK VINA RESULT:      -3.9      2.588      4.647
REMARK  15 active torsions:
REMARK  status: ('A' for Active; 'I' for Inactive)
REMARK    1  A    between atoms: C_1  and  C_2 
REMARK    2  A    between atoms: C_2  and  O_3 
REMARK    3  A    between atoms: O_3  and  C_4 
REMARK    4  A    between atoms: C_4  and  C_6 
REMARK    5  A    between atoms: C_6  and  C_7 
REMARK    6  A    between atoms: C_7  and  C_9 
REMARK    7  A    between atoms: C_7  and  S_14 
REMARK    8  A    between atoms: C_9  and  O_11 
REMARK    9  A    between atoms: O_11  and  C_12 
REMARK   10  A    between atoms: C_12  and  C_13 
REMARK   11  A    between atoms: S_14  and  P_15 
REMARK   12  A    between atoms: P_15  and  O_17 
REMARK   13  A    between atoms: P_15  and  O_19 
REMARK   14  A    between atoms: O_17  and  C_18 
REMARK   15  A    between atoms: O_19  and  C_20 
ROOT
ATOM      1  C   LIG d   1       4.613  -1.596  -5.849  0.00  0.00     0.121 C 
ATOM      2  H   LIG d   1       3.552  -1.677  -6.083  0.00  0.00     0.054 H 
ENDROOT
BRANCH   1   3
ATOM      3  C   LIG d   1       4.847  -0.375  -4.958  0.00  0.00     0.067 C 
ATOM      4  H   LIG d   1       5.320   0.415  -5.542  0.00  0.00     0.039 H 
ATOM      5  H   LIG d   1       5.498  -0.651  -4.128  0.00  0.00     0.039 H 
BRANCH   3   6
ATOM      6  C   LIG d   1       3.528   0.116  -4.421  0.00  0.00     0.309 C 
ATOM      7  O   LIG d   1       2.861   0.888  -5.069  0.00  0.00    -0.251 OA
BRANCH   6   8
ATOM      8  O   LIG d   1       3.094  -0.302  -3.222  0.00  0.00    -0.465 OA
BRANCH   8   9
ATOM      9  C   LIG d   1       4.076  -0.459  -2.194  0.00  0.00     0.090 C 
ATOM     10  H   LIG d   1       4.948  -0.971  -2.601  0.00  0.00     0.069 H 
ATOM     11  H   LIG d   1       3.656  -1.049  -1.378  0.00  0.00     0.069 H 
BRANCH   9  12
ATOM     12  C   LIG d   1       4.490   0.917  -1.670  0.00  0.00    -0.031 C 
ATOM     13  H   LIG d   1       5.417   1.226  -2.153  0.00  0.00     0.026 H 
ATOM     14  H   LIG d   1       3.707   1.641  -1.891  0.00  0.00     0.026 H 
ATOM     15  H   LIG d   1       4.642   0.863  -0.592  0.00  0.00     0.026 H 
ENDBRANCH   9  12
ENDBRANCH   8   9
ENDBRANCH   6   8
ENDBRANCH   3   6
ENDBRANCH   1   3
BRANCH   1  16
ATOM     16  C   LIG d   1       5.063  -2.840  -5.127  0.00  0.00     0.321 C 
ATOM     17  O   LIG d   1       4.340  -3.359  -4.309  0.00  0.00    -0.250 OA
BRANCH  16  18
ATOM     18  O   LIG d   1       6.266  -3.372  -5.391  0.00  0.00    -0.464 OA
BRANCH  18  19
ATOM     19  C   LIG d   1       7.251  -3.297  -4.358  0.00  0.00     0.090 C 
ATOM     20  H   LIG d   1       6.760  -3.133  -3.399  0.00  0.00     0.069 H 
ATOM     21  H   LIG d   1       7.814  -4.230  -4.324  0.00  0.00     0.069 H 
BRANCH  19  22
ATOM     22  C   LIG d   1       8.205  -2.137  -4.648  0.00  0.00    -0.031 C 
ATOM     23  H   LIG d   1       8.849  -1.972  -3.783  0.00  0.00     0.026 H 
ATOM     24  H   LIG d   1       8.818  -2.377  -5.517  0.00  0.00     0.026 H 
ATOM     25  H   LIG d   1       7.629  -1.232  -4.848  0.00  0.00     0.026 H 
ENDBRANCH  19  22
ENDBRANCH  18  19
ENDBRANCH  16  18
ENDBRANCH   1  16
BRANCH   1  26
ATOM     26  S   LIG d   1       5.560  -1.414  -7.386  0.00  0.00    -0.059 SA
BRANCH  26  27
ATOM     27  P   LIG d   1       4.340  -0.174  -8.596  0.00  0.00     0.229 P 
ATOM     28  S   LIG d   1       4.704  -0.508 -10.393  0.00  0.00     0.003 SA
BRANCH  27  29
ATOM     29  O   LIG d   1       2.791  -0.487  -8.295  0.00  0.00    -0.327 OA
BRANCH  29  30
ATOM     30  C   LIG d   1       1.822  -0.689  -9.327  0.00  0.00     0.044 C 
ATOM     31  H   LIG d   1       0.907  -0.152  -9.076  0.00  0.00     0.053 H 
ATOM     32  H   LIG d   1       2.215  -0.316 -10.273  0.00  0.00     0.053 H 
ATOM     33  H   LIG d   1       1.606  -1.753  -9.418  0.00  0.00     0.053 H 
ENDBRANCH  29  30
ENDBRANCH  27  29
BRANCH  27  34
ATOM     34  O   LIG d   1       4.649   1.371  -8.265  0.00  0.00    -0.327 OA
BRANCH  34  35
ATOM     35  C   LIG d   1       4.456   2.424  -9.211  0.00  0.00     0.044 C 
ATOM     36  H   LIG d   1       5.400   2.944  -9.374  0.00  0.00     0.053 H 
ATOM     37  H   LIG d   1       4.106   2.005 -10.154  0.00  0.00     0.053 H 
ATOM     38  H   LIG d   1       3.716   3.126  -8.827  0.00  0.00     0.053 H 
ENDBRANCH  34  35
ENDBRANCH  27  34
ENDBRANCH  26  27
ENDBRANCH   1  26
TORSDOF 15
ENDMDL
MODEL 9
REMARK VINA RESULT:      -3.9      2.050      4.819
REMARK  15 active torsions:
REMARK  status: ('A' for Active; 'I' for Inactive)
REMARK    1  A    between atoms: C_1  and  C_2 
REMARK    2  A    between atoms: C_2  and  O_3 
REMARK    3  A    between atoms: O_3  and  C_4 
REMARK    4  A    between atoms: C_4  and  C_6 
REMARK    5  A    between atoms: C_6  and  C_7 
REMARK    6  A    between atoms: C_7  and  C_9 
REMARK    7  A    between atoms: C_7  and  S_14 
REMARK    8  A    between atoms: C_9  and  O_11 
REMARK    9  A    between atoms: O_11  and  C_12 
REMARK   10  A    between atoms: C_12  and  C_13 
REMARK   11  A    between atoms: S_14  and  P_15 
REMARK   12  A    between atoms: P_15  and  O_17 
REMARK   13  A    between atoms: P_15  and  O_19 
REMARK   14  A    between atoms: O_17  and  C_18 
REMARK   15  A    between atoms: O_19  and  C_20 
ROOT
ATOM      1  C   LIG d   1       4.037  -1.083  -5.242  0.00  0.00     0.121 C 
ATOM      2  H   LIG d   1       3.790  -1.820  -6.006  0.00  0.00     0.054 H 
ENDROOT
BRANCH   1   3
ATOM      3  C   LIG d   1       3.093   0.115  -5.365  0.00  0.00     0.067 C 
ATOM      4  H   LIG d   1       3.524   0.971  -4.847  0.00  0.00     0.039 H 
ATOM      5  H   LIG d   1       2.131  -0.134  -4.915  0.00  0.00     0.039 H 
BRANCH   3   6
ATOM      6  C   LIG d   1       2.895   0.453  -6.820  0.00  0.00     0.309 C 
ATOM      7  O   LIG d   1       3.046   1.590  -7.201  0.00  0.00    -0.251 OA
BRANCH   6   8
ATOM      8  O   LIG d   1       2.552  -0.508  -7.692  0.00  0.00    -0.465 OA
BRANCH   8   9
ATOM      9  C   LIG d   1       2.770  -0.235  -9.078  0.00  0.00     0.090 C 
ATOM     10  H   LIG d   1       3.655  -0.773  -9.419  0.00  0.00     0.069 H 
ATOM     11  H   LIG d   1       2.920   0.836  -9.218  0.00  0.00     0.069 H 
BRANCH   9  12
ATOM     12  C   LIG d   1       1.553  -0.691  -9.885  0.00  0.00    -0.031 C 
ATOM     13  H   LIG d   1       0.712  -0.856  -9.212  0.00  0.00     0.026 H 
ATOM     14  H   LIG d   1       1.292   0.075 -10.613  0.00  0.00     0.026 H 
ATOM     15  H   LIG d   1       1.790  -1.620 -10.405  0.00  0.00     0.026 H 
ENDBRANCH   9  12
ENDBRANCH   8   9
ENDBRANCH   6   8
ENDBRANCH   3   6
ENDBRANCH   1   3
BRANCH   1  16
ATOM     16  C   LIG d   1       3.887  -1.705  -3.878  0.00  0.00     0.321 C 
ATOM     17  O   LIG d   1       4.175  -2.866  -3.708  0.00  0.00    -0.250 OA
BRANCH  16  18
ATOM     18  O   LIG d   1       3.434  -0.969  -2.851  0.00  0.00    -0.464 OA
BRANCH  18  19
ATOM     19  C   LIG d   1       4.373  -0.638  -1.826  0.00  0.00     0.090 C 
ATOM     20  H   LIG d   1       4.014  -1.013  -0.868  0.00  0.00     0.069 H 
ATOM     21  H   LIG d   1       5.338  -1.092  -2.057  0.00  0.00     0.069 H 
BRANCH  19  22
ATOM     22  C   LIG d   1       4.531   0.882  -1.752  0.00  0.00    -0.031 C 
ATOM     23  H   LIG d   1       4.158   1.331  -2.673  0.00  0.00     0.026 H 
ATOM     24  H   LIG d   1       3.962   1.266  -0.904  0.00  0.00     0.026 H 
ATOM     25  H   LIG d   1       5.585   1.133  -1.626  0.00  0.00     0.026 H 
ENDBRANCH  19  22
ENDBRANCH  18  19
ENDBRANCH  16  18
ENDBRANCH   1  16
BRANCH   1  26
ATOM     26  S   LIG d   1       5.750  -0.528  -5.468  0.00  0.00    -0.059 SA
BRANCH  26  27
ATOM     27  P   LIG d   1       6.389  -1.538  -7.219  0.00  0.00     0.229 P 
ATOM     28  S   LIG d   1       5.227  -2.950  -7.581  0.00  0.00     0.003 SA
BRANCH  27  29
ATOM     29  O   LIG d   1       6.390  -0.513  -8.459  0.00  0.00    -0.327 OA
BRANCH  29  30
ATOM     30  C   LIG d   1       6.316   0.905  -8.298  0.00  0.00     0.044 C 
ATOM     31  H   LIG d   1       6.635   1.394  -9.219  0.00  0.00     0.053 H 
ATOM     32  H   LIG d   1       5.290   1.193  -8.071  0.00  0.00     0.053 H 
ATOM     33  H   LIG d   1       6.968   1.212  -7.480  0.00  0.00     0.053 H 
ENDBRANCH  29  30
ENDBRANCH  27  29
BRANCH  27  34
ATOM     34  O   LIG d   1       7.876  -2.112  -6.995  0.00  0.00    -0.327 OA
BRANCH  34  35
ATOM     35  C   LIG d   1       9.054  -1.373  -7.328  0.00  0.00     0.044 C 
ATOM     36  H   LIG d   1       8.925  -0.904  -8.302  0.00  0.00     0.053 H 
ATOM     37  H   LIG d   1       9.225  -0.604  -6.574  0.00  0.00     0.053 H 
ATOM     38  H   LIG d   1       9.909  -2.049  -7.360  0.00  0.00     0.053 H 
ENDBRANCH  34  35
ENDBRANCH  27  34
ENDBRANCH  26  27
ENDBRANCH   1  26
TORSDOF 15
ENDMDL
MODEL 10
REMARK VINA RESULT:      -3.9      2.322      2.997
REMARK  15 active torsions:
REMARK  status: ('A' for Active; 'I' for Inactive)
REMARK    1  A    between atoms: C_1  and  C_2 
REMARK    2  A    between atoms: C_2  and  O_3 
REMARK    3  A    between atoms: O_3  and  C_4 
REMARK    4  A    between atoms: C_4  and  C_6 
REMARK    5  A    between atoms: C_6  and  C_7 
REMARK    6  A    between atoms: C_7  and  C_9 
REMARK    7  A    between atoms: C_7  and  S_14 
REMARK    8  A    between atoms: C_9  and  O_11 
REMARK    9  A    between atoms: O_11  and  C_12 
REMARK   10  A    between atoms: C_12  and  C_13 
REMARK   11  A    between atoms: S_14  and  P_15 
REMARK   12  A    between atoms: P_15  and  O_17 
REMARK   13  A    between atoms: P_15  and  O_19 
REMARK   14  A    between atoms: O_17  and  C_18 
REMARK   15  A    between atoms: O_19  and  C_20 
ROOT
ATOM      1  C   LIG d   1       4.742  -0.589  -5.595  0.00  0.00     0.121 C 
ATOM      2  H   LIG d   1       4.749   0.071  -4.728  0.00  0.00     0.054 H 
ENDROOT
BRANCH   1   3
ATOM      3  C   LIG d   1       4.425  -2.016  -5.147  0.00  0.00     0.067 C 
ATOM      4  H   LIG d   1       5.304  -2.645  -5.288  0.00  0.00     0.039 H 
ATOM      5  H   LIG d   1       3.599  -2.409  -5.742  0.00  0.00     0.039 H 
BRANCH   3   6
ATOM      6  C   LIG d   1       4.037  -2.012  -3.691  0.00  0.00     0.309 C 
ATOM      7  O   LIG d   1       4.008  -3.049  -3.071  0.00  0.00    -0.251 OA
BRANCH   6   8
ATOM      8  O   LIG d   1       3.723  -0.858  -3.083  0.00  0.00    -0.465 OA
BRANCH   8   9
ATOM      9  C   LIG d   1       4.407  -0.559  -1.864  0.00  0.00     0.090 C 
ATOM     10  H   LIG d   1       5.409  -0.986  -1.897  0.00  0.00     0.069 H 
ATOM     11  H   LIG d   1       3.857  -0.986  -1.025  0.00  0.00     0.069 H 
BRANCH   9  12
ATOM     12  C   LIG d   1       4.504   0.958  -1.692  0.00  0.00    -0.031 C 
ATOM     13  H   LIG d   1       5.552   1.256  -1.680  0.00  0.00     0.026 H 
ATOM     14  H   LIG d   1       3.996   1.451  -2.520  0.00  0.00     0.026 H 
ATOM     15  H   LIG d   1       4.032   1.247  -0.753  0.00  0.00     0.026 H 
ENDBRANCH   9  12
ENDBRANCH   8   9
ENDBRANCH   6   8
ENDBRANCH   3   6
ENDBRANCH   1   3
BRANCH   1  16
ATOM     16  C   LIG d   1       3.693  -0.123  -6.572  0.00  0.00     0.321 C 
ATOM     17  O   LIG d   1       3.065   0.885  -6.348  0.00  0.00    -0.250 OA
BRANCH  16  18
ATOM     18  O   LIG d   1       3.457  -0.826  -7.690  0.00  0.00    -0.464 OA
BRANCH  18  19
ATOM     19  C   LIG d   1       3.138  -0.083  -8.868  0.00  0.00     0.090 C 
ATOM     20  H   LIG d   1       3.024   0.970  -8.615  0.00  0.00     0.069 H 
ATOM     21  H   LIG d   1       3.940  -0.198  -9.598  0.00  0.00     0.069 H 
BRANCH  19  22
ATOM     22  C   LIG d   1       1.830  -0.609  -9.463  0.00  0.00    -0.031 C 
ATOM     23  H   LIG d   1       1.620  -0.087 -10.397  0.00  0.00     0.026 H 
ATOM     24  H   LIG d   1       1.921  -1.678  -9.656  0.00  0.00     0.026 H 
ATOM     25  H   LIG d   1       1.014  -0.435  -8.759  0.00  0.00     0.026 H 
ENDBRANCH  19  22
ENDBRANCH  18  19
ENDBRANCH  16  18
ENDBRANCH   1  16
BRANCH   1  26
ATOM     26  S   LIG d   1       6.370  -0.554  -6.396  0.00  0.00    -0.059 SA
BRANCH  26  27
ATOM     27  P   LIG d   1       7.729  -0.337  -4.784  0.00  0.00     0.229 P 
ATOM     28  S   LIG d   1       7.501   1.338  -3.999  0.00  0.00     0.003 SA
BRANCH  27  29
ATOM     29  O   LIG d   1       7.451  -1.484  -3.690  0.00  0.00    -0.327 OA
BRANCH  29  30
ATOM     30  C   LIG d   1       7.808  -2.854  -3.889  0.00  0.00     0.044 C 
ATOM     31  H   LIG d   1       7.132  -3.492  -3.319  0.00  0.00     0.053 H 
ATOM     32  H   LIG d   1       7.732  -3.099  -4.949  0.00  0.00     0.053 H 
ATOM     33  H   LIG d   1       8.832  -3.015  -3.552  0.00  0.00     0.053 H 
ENDBRANCH  29  30
ENDBRANCH  27  29
BRANCH  27  34
ATOM     34  O   LIG d   1       9.237  -0.472  -5.332  0.00  0.00    -0.327 OA
BRANCH  34  35
ATOM     35  C   LIG d   1      10.201   0.578  -5.225  0.00  0.00     0.044 C 
ATOM     36  H   LIG d   1       9.955   1.211  -4.373  0.00  0.00     0.053 H 
ATOM     37  H   LIG d   1      11.192   0.146  -5.082  0.00  0.00     0.053 H 
ATOM     38  H   LIG d   1      10.192   1.174  -6.137  0.00  0.00     0.053 H 
ENDBRANCH  34  35
ENDBRANCH  27  34
ENDBRANCH  26  27
ENDBRANCH   1  26
TORSDOF 15
ENDMDL
