MODEL 1
REMARK VINA RESULT:      -7.1      0.000      0.000
REMARK  7 active torsions:
REMARK  status: ('A' for Active; 'I' for Inactive)
REMARK    1  A    between atoms: C_1  and  O_2 
REMARK    2  A    between atoms: O_2  and  C_3 
REMARK    3  A    between atoms: C_3  and  C_5 
REMARK    4  A    between atoms: C_8  and  C_11 
REMARK    5  A    between atoms: C_18  and  O_22 
REMARK    6  A    between atoms: O_22  and  C_23 
REMARK    7  A    between atoms: C_23  and  C_25 
ROOT
ATOM      1  C   LIG d   1      10.514   3.348  -4.612  0.00  0.00    -0.008 C 
ATOM      2  C   LIG d   1       9.744   2.235  -4.533  0.00  0.00     0.176 A 
ATOM      3  C   LIG d   1       9.981   0.959  -5.234  0.00  0.00     0.232 A 
ATOM      4  O   LIG d   1      10.893   0.683  -5.994  0.00  0.00    -0.283 OA
ATOM      5  C   LIG d   1       8.868   0.091  -4.807  0.00  0.00     0.068 A 
ATOM      6  C   LIG d   1       8.515  -1.225  -5.106  0.00  0.00    -0.044 A 
ATOM      7  C   LIG d   1       7.401  -1.777  -4.540  0.00  0.00    -0.018 A 
ATOM      8  C   LIG d   1       6.611  -1.025  -3.675  0.00  0.00     0.136 A 
ATOM      9  C   LIG d   1       6.950   0.284  -3.369  0.00  0.00     0.024 A 
ATOM     10  C   LIG d   1       8.083   0.858  -3.930  0.00  0.00     0.143 A 
ATOM     11  O   LIG d   1       8.619   2.091  -3.796  0.00  0.00    -0.451 OA
ATOM     12  H   LIG d   1      11.346   3.380  -5.299  0.00  0.00     0.066 H 
ATOM     13  H   LIG d   1       9.125  -1.808  -5.781  0.00  0.00     0.063 H 
ATOM     14  H   LIG d   1       7.131  -2.797  -4.767  0.00  0.00     0.065 H 
ATOM     15  H   LIG d   1       6.332   0.857  -2.693  0.00  0.00     0.069 H 
ENDROOT
BRANCH   1  16
ATOM     16  C   LIG d   1      10.213   4.511  -3.766  0.00  0.00    -0.021 A 
ATOM     17  C   LIG d   1       9.578   5.632  -4.314  0.00  0.00    -0.054 A 
ATOM     18  C   LIG d   1       9.298   6.716  -3.523  0.00  0.00    -0.047 A 
ATOM     19  H   LIG d   1       9.308   5.642  -5.360  0.00  0.00     0.062 H 
ATOM     20  C   LIG d   1       9.646   6.703  -2.169  0.00  0.00     0.059 A 
ATOM     21  H   LIG d   1       8.807   7.580  -3.946  0.00  0.00     0.063 H 
ATOM     22  C   LIG d   1      10.281   5.584  -1.621  0.00  0.00    -0.047 A 
ATOM     23  C   LIG d   1      10.557   4.498  -2.409  0.00  0.00    -0.054 A 
ATOM     24  H   LIG d   1      10.550   5.576  -0.574  0.00  0.00     0.063 H 
ATOM     25  H   LIG d   1      11.044   3.632  -1.983  0.00  0.00     0.062 H 
BRANCH  20  26
ATOM     26  C   LIG d   1       9.344   7.871  -1.318  0.00  0.00     0.339 C 
ATOM     27  O   LIG d   1       8.244   7.989  -0.816  0.00  0.00    -0.245 OA
BRANCH  26  28
ATOM     28  O   LIG d   1      10.288   8.807  -1.098  0.00  0.00    -0.465 OA
BRANCH  28  29
ATOM     29  C   LIG d   1      10.840   8.884   0.243  0.00  0.00     0.082 C 
ATOM     30  H   LIG d   1      10.036   8.785   0.972  0.00  0.00     0.066 H 
ATOM     31  H   LIG d   1      11.561   8.080   0.386  0.00  0.00     0.066 H 
ATOM     32  H   LIG d   1      11.335   9.846   0.376  0.00  0.00     0.066 H 
ENDBRANCH  28  29
ENDBRANCH  26  28
ENDBRANCH  20  26
ENDBRANCH   1  16
BRANCH   8  33
ATOM     33  O   LIG d   1       5.503  -1.580  -3.121  0.00  0.00    -0.422 OA
BRANCH  33  34
ATOM     34  C   LIG d   1       4.581  -2.080  -3.967  0.00  0.00     0.344 C 
ATOM     35  O   LIG d   1       4.155  -3.206  -3.805  0.00  0.00    -0.244 OA
BRANCH  34  36
ATOM     36  C   LIG d   1       4.086  -1.257  -5.088  0.00  0.00     0.059 A 
ATOM     37  C   LIG d   1       3.248  -0.166  -4.842  0.00  0.00    -0.046 A 
ATOM     38  C   LIG d   1       2.791   0.599  -5.894  0.00  0.00    -0.043 A 
ATOM     39  H   LIG d   1       2.961   0.078  -3.830  0.00  0.00     0.063 H 
ATOM     40  C   LIG d   1       3.159   0.287  -7.192  0.00  0.00     0.041 A 
ATOM     41  H   LIG d   1       2.143   1.442  -5.704  0.00  0.00     0.063 H 
ATOM     42  C   LIG d   1       3.988  -0.793  -7.443  0.00  0.00    -0.043 A 
ATOM     43 CL   LIG d   1       2.577   1.255  -8.511  0.00  0.00    -0.084 Cl
ATOM     44  C   LIG d   1       4.458  -1.562  -6.400  0.00  0.00    -0.046 A 
ATOM     45  H   LIG d   1       4.271  -1.031  -8.457  0.00  0.00     0.063 H 
ATOM     46  H   LIG d   1       5.109  -2.402  -6.597  0.00  0.00     0.063 H 
ENDBRANCH  34  36
ENDBRANCH  33  34
ENDBRANCH   8  33
TORSDOF 7
ENDMDL
MODEL 2
REMARK VINA RESULT:      -6.7      2.036      2.664
REMARK  7 active torsions:
REMARK  status: ('A' for Active; 'I' for Inactive)
REMARK    1  A    between atoms: C_1  and  O_2 
REMARK    2  A    between atoms: O_2  and  C_3 
REMARK    3  A    between atoms: C_3  and  C_5 
REMARK    4  A    between atoms: C_8  and  C_11 
REMARK    5  A    between atoms: C_18  and  O_22 
REMARK    6  A    between atoms: O_22  and  C_23 
REMARK    7  A    between atoms: C_23  and  C_25 
ROOT
ATOM      1  C   LIG d   1      10.484   5.333  -4.114  0.00  0.00    -0.008 C 
ATOM      2  C   LIG d   1       9.766   4.240  -4.473  0.00  0.00     0.176 A 
ATOM      3  C   LIG d   1       9.602   3.716  -5.841  0.00  0.00     0.232 A 
ATOM      4  O   LIG d   1      10.072   4.161  -6.873  0.00  0.00    -0.283 OA
ATOM      5  C   LIG d   1       8.741   2.529  -5.681  0.00  0.00     0.068 A 
ATOM      6  C   LIG d   1       8.220   1.600  -6.581  0.00  0.00    -0.044 A 
ATOM      7  C   LIG d   1       7.436   0.577  -6.126  0.00  0.00    -0.018 A 
ATOM      8  C   LIG d   1       7.148   0.467  -4.769  0.00  0.00     0.136 A 
ATOM      9  C   LIG d   1       7.659   1.384  -3.864  0.00  0.00     0.024 A 
ATOM     10  C   LIG d   1       8.462   2.426  -4.308  0.00  0.00     0.143 A 
ATOM     11  O   LIG d   1       9.070   3.431  -3.641  0.00  0.00    -0.451 OA
ATOM     12  H   LIG d   1      10.933   5.956  -4.873  0.00  0.00     0.066 H 
ATOM     13  H   LIG d   1       8.439   1.686  -7.635  0.00  0.00     0.063 H 
ATOM     14  H   LIG d   1       7.038  -0.147  -6.822  0.00  0.00     0.065 H 
ATOM     15  H   LIG d   1       7.431   1.287  -2.812  0.00  0.00     0.069 H 
ENDROOT
BRANCH   1  16
ATOM     16  C   LIG d   1      10.649   5.669  -2.693  0.00  0.00    -0.021 A 
ATOM     17  C   LIG d   1       9.852   6.662  -2.110  0.00  0.00    -0.054 A 
ATOM     18  C   LIG d   1      10.006   6.974  -0.785  0.00  0.00    -0.047 A 
ATOM     19  H   LIG d   1       9.115   7.181  -2.706  0.00  0.00     0.062 H 
ATOM     20  C   LIG d   1      10.960   6.302  -0.014  0.00  0.00     0.059 A 
ATOM     21  H   LIG d   1       9.391   7.740  -0.335  0.00  0.00     0.063 H 
ATOM     22  C   LIG d   1      11.757   5.311  -0.595  0.00  0.00    -0.047 A 
ATOM     23  C   LIG d   1      11.600   4.994  -1.919  0.00  0.00    -0.054 A 
ATOM     24  H   LIG d   1      12.494   4.793   0.002  0.00  0.00     0.063 H 
ATOM     25  H   LIG d   1      12.214   4.224  -2.366  0.00  0.00     0.062 H 
BRANCH  20  26
ATOM     26  C   LIG d   1      11.126   6.640   1.414  0.00  0.00     0.339 C 
ATOM     27  O   LIG d   1      11.533   7.739   1.735  0.00  0.00    -0.245 OA
BRANCH  26  28
ATOM     28  O   LIG d   1      10.826   5.730   2.361  0.00  0.00    -0.465 OA
BRANCH  28  29
ATOM     29  C   LIG d   1      10.927   6.160   3.744  0.00  0.00     0.082 C 
ATOM     30  H   LIG d   1      11.939   5.984   4.107  0.00  0.00     0.066 H 
ATOM     31  H   LIG d   1      10.698   7.224   3.811  0.00  0.00     0.066 H 
ATOM     32  H   LIG d   1      10.220   5.596   4.352  0.00  0.00     0.066 H 
ENDBRANCH  28  29
ENDBRANCH  26  28
ENDBRANCH  20  26
ENDBRANCH   1  16
BRANCH   8  33
ATOM     33  O   LIG d   1       6.365  -0.550  -4.327  0.00  0.00    -0.422 OA
BRANCH  33  34
ATOM     34  C   LIG d   1       5.032  -0.395  -4.456  0.00  0.00     0.344 C 
ATOM     35  O   LIG d   1       4.368  -0.031  -3.506  0.00  0.00    -0.244 OA
BRANCH  34  36
ATOM     36  C   LIG d   1       4.379  -0.666  -5.752  0.00  0.00     0.059 A 
ATOM     37  C   LIG d   1       4.738  -1.792  -6.497  0.00  0.00    -0.046 A 
ATOM     38  C   LIG d   1       4.124  -2.039  -7.706  0.00  0.00    -0.043 A 
ATOM     39  H   LIG d   1       5.495  -2.467  -6.126  0.00  0.00     0.063 H 
ATOM     40  C   LIG d   1       3.153  -1.174  -8.183  0.00  0.00     0.041 A 
ATOM     41  H   LIG d   1       4.401  -2.909  -8.283  0.00  0.00     0.063 H 
ATOM     42  C   LIG d   1       2.793  -0.056  -7.449  0.00  0.00    -0.043 A 
ATOM     43 CL   LIG d   1       2.384  -1.493  -9.706  0.00  0.00    -0.084 Cl
ATOM     44  C   LIG d   1       3.394   0.199  -6.235  0.00  0.00    -0.046 A 
ATOM     45  H   LIG d   1       2.035   0.614  -7.826  0.00  0.00     0.063 H 
ATOM     46  H   LIG d   1       3.109   1.069  -5.662  0.00  0.00     0.063 H 
ENDBRANCH  34  36
ENDBRANCH  33  34
ENDBRANCH   8  33
TORSDOF 7
ENDMDL
MODEL 3
REMARK VINA RESULT:      -6.7      5.977      9.530
REMARK  7 active torsions:
REMARK  status: ('A' for Active; 'I' for Inactive)
REMARK    1  A    between atoms: C_1  and  O_2 
REMARK    2  A    between atoms: O_2  and  C_3 
REMARK    3  A    between atoms: C_3  and  C_5 
REMARK    4  A    between atoms: C_8  and  C_11 
REMARK    5  A    between atoms: C_18  and  O_22 
REMARK    6  A    between atoms: O_22  and  C_23 
REMARK    7  A    between atoms: C_23  and  C_25 
ROOT
ATOM      1  C   LIG d   1       3.477   0.482  -8.380  0.00  0.00    -0.008 C 
ATOM      2  C   LIG d   1       3.002  -0.411  -9.282  0.00  0.00     0.176 A 
ATOM      3  C   LIG d   1       3.041  -0.273 -10.750  0.00  0.00     0.232 A 
ATOM      4  O   LIG d   1       3.497   0.650 -11.401  0.00  0.00    -0.283 OA
ATOM      5  C   LIG d   1       2.405  -1.505 -11.253  0.00  0.00     0.068 A 
ATOM      6  C   LIG d   1       2.134  -1.983 -12.536  0.00  0.00    -0.044 A 
ATOM      7  C   LIG d   1       1.522  -3.194 -12.695  0.00  0.00    -0.018 A 
ATOM      8  C   LIG d   1       1.157  -3.945 -11.581  0.00  0.00     0.136 A 
ATOM      9  C   LIG d   1       1.420  -3.482 -10.302  0.00  0.00     0.024 A 
ATOM     10  C   LIG d   1       2.047  -2.256 -10.122  0.00  0.00     0.143 A 
ATOM     11  O   LIG d   1       2.408  -1.594  -9.000  0.00  0.00    -0.451 OA
ATOM     12  H   LIG d   1       3.858   1.436  -8.715  0.00  0.00     0.066 H 
ATOM     13  H   LIG d   1       2.412  -1.400 -13.400  0.00  0.00     0.063 H 
ATOM     14  H   LIG d   1       1.317  -3.568 -13.687  0.00  0.00     0.065 H 
ATOM     15  H   LIG d   1       1.136  -4.075  -9.445  0.00  0.00     0.069 H 
ENDROOT
BRANCH   1  16
ATOM     16  C   LIG d   1       3.470   0.155  -6.948  0.00  0.00    -0.021 A 
ATOM     17  C   LIG d   1       4.497  -0.624  -6.401  0.00  0.00    -0.054 A 
ATOM     18  C   LIG d   1       4.490  -0.929  -5.065  0.00  0.00    -0.047 A 
ATOM     19  H   LIG d   1       5.296  -0.984  -7.034  0.00  0.00     0.062 H 
ATOM     20  C   LIG d   1       3.456  -0.462  -4.247  0.00  0.00     0.059 A 
ATOM     21  H   LIG d   1       5.283  -1.529  -4.644  0.00  0.00     0.063 H 
ATOM     22  C   LIG d   1       2.430   0.315  -4.791  0.00  0.00    -0.047 A 
ATOM     23  C   LIG d   1       2.438   0.625  -6.126  0.00  0.00    -0.054 A 
ATOM     24  H   LIG d   1       1.632   0.675  -4.158  0.00  0.00     0.063 H 
ATOM     25  H   LIG d   1       1.647   1.230  -6.545  0.00  0.00     0.062 H 
BRANCH  20  26
ATOM     26  C   LIG d   1       3.449  -0.791  -2.807  0.00  0.00     0.339 C 
ATOM     27  O   LIG d   1       3.420  -1.952  -2.450  0.00  0.00    -0.245 OA
BRANCH  26  28
ATOM     28  O   LIG d   1       3.476   0.195  -1.890  0.00  0.00    -0.465 OA
BRANCH  28  29
ATOM     29  C   LIG d   1       4.680   1.004  -1.827  0.00  0.00     0.082 C 
ATOM     30  H   LIG d   1       4.809   1.384  -0.814  0.00  0.00     0.066 H 
ATOM     31  H   LIG d   1       5.542   0.394  -2.097  0.00  0.00     0.066 H 
ATOM     32  H   LIG d   1       4.594   1.840  -2.520  0.00  0.00     0.066 H 
ENDBRANCH  28  29
ENDBRANCH  26  28
ENDBRANCH  20  26
ENDBRANCH   1  16
BRANCH   8  33
ATOM     33  O   LIG d   1       0.545  -5.145 -11.749  0.00  0.00    -0.422 OA
BRANCH  33  34
ATOM     34  C   LIG d   1      -0.291  -5.547 -10.772  0.00  0.00     0.344 C 
ATOM     35  O   LIG d   1       0.115  -6.272  -9.885  0.00  0.00    -0.244 OA
BRANCH  34  36
ATOM     36  C   LIG d   1      -1.699  -5.104 -10.776  0.00  0.00     0.059 A 
ATOM     37  C   LIG d   1      -2.226  -4.449 -11.892  0.00  0.00    -0.046 A 
ATOM     38  C   LIG d   1      -3.542  -4.039 -11.890  0.00  0.00    -0.043 A 
ATOM     39  H   LIG d   1      -1.603  -4.265 -12.755  0.00  0.00     0.063 H 
ATOM     40  C   LIG d   1      -4.342  -4.275 -10.785  0.00  0.00     0.041 A 
ATOM     41  H   LIG d   1      -3.949  -3.533 -12.752  0.00  0.00     0.063 H 
ATOM     42  C   LIG d   1      -3.826  -4.924  -9.675  0.00  0.00    -0.043 A 
ATOM     43 CL   LIG d   1      -5.998  -3.755 -10.790  0.00  0.00    -0.084 Cl
ATOM     44  C   LIG d   1      -2.514  -5.345  -9.666  0.00  0.00    -0.046 A 
ATOM     45  H   LIG d   1      -4.455  -5.104  -8.816  0.00  0.00     0.063 H 
ATOM     46  H   LIG d   1      -2.114  -5.854  -8.802  0.00  0.00     0.063 H 
ENDBRANCH  34  36
ENDBRANCH  33  34
ENDBRANCH   8  33
TORSDOF 7
ENDMDL
MODEL 4
REMARK VINA RESULT:      -6.6      4.225      5.172
REMARK  7 active torsions:
REMARK  status: ('A' for Active; 'I' for Inactive)
REMARK    1  A    between atoms: C_1  and  O_2 
REMARK    2  A    between atoms: O_2  and  C_3 
REMARK    3  A    between atoms: C_3  and  C_5 
REMARK    4  A    between atoms: C_8  and  C_11 
REMARK    5  A    between atoms: C_18  and  O_22 
REMARK    6  A    between atoms: O_22  and  C_23 
REMARK    7  A    between atoms: C_23  and  C_25 
ROOT
ATOM      1  C   LIG d   1       9.941   3.413  -9.626  0.00  0.00    -0.008 C 
ATOM      2  C   LIG d   1       8.915   2.531  -9.556  0.00  0.00     0.176 A 
ATOM      3  C   LIG d   1       8.949   1.118  -9.976  0.00  0.00     0.232 A 
ATOM      4  O   LIG d   1       9.887   0.503 -10.452  0.00  0.00    -0.283 OA
ATOM      5  C   LIG d   1       7.593   0.615  -9.690  0.00  0.00     0.068 A 
ATOM      6  C   LIG d   1       6.981  -0.628  -9.856  0.00  0.00    -0.044 A 
ATOM      7  C   LIG d   1       5.678  -0.801  -9.485  0.00  0.00    -0.018 A 
ATOM      8  C   LIG d   1       4.955   0.264  -8.953  0.00  0.00     0.136 A 
ATOM      9  C   LIG d   1       5.550   1.504  -8.783  0.00  0.00     0.024 A 
ATOM     10  C   LIG d   1       6.876   1.695  -9.149  0.00  0.00     0.143 A 
ATOM     11  O   LIG d   1       7.672   2.786  -9.086  0.00  0.00    -0.451 OA
ATOM     12  H   LIG d   1      10.869   3.125 -10.098  0.00  0.00     0.066 H 
ATOM     13  H   LIG d   1       7.539  -1.454 -10.272  0.00  0.00     0.063 H 
ATOM     14  H   LIG d   1       5.206  -1.764  -9.607  0.00  0.00     0.065 H 
ATOM     15  H   LIG d   1       4.982   2.323  -8.366  0.00  0.00     0.069 H 
ENDROOT
BRANCH   1  16
ATOM     16  C   LIG d   1       9.791   4.762  -9.063  0.00  0.00    -0.021 A 
ATOM     17  C   LIG d   1       9.339   5.813  -9.871  0.00  0.00    -0.054 A 
ATOM     18  C   LIG d   1       9.199   7.071  -9.345  0.00  0.00    -0.047 A 
ATOM     19  H   LIG d   1       9.101   5.632 -10.909  0.00  0.00     0.062 H 
ATOM     20  C   LIG d   1       9.507   7.305  -8.001  0.00  0.00     0.059 A 
ATOM     21  H   LIG d   1       8.850   7.881  -9.967  0.00  0.00     0.063 H 
ATOM     22  C   LIG d   1       9.958   6.257  -7.194  0.00  0.00    -0.047 A 
ATOM     23  C   LIG d   1      10.094   4.998  -7.717  0.00  0.00    -0.054 A 
ATOM     24  H   LIG d   1      10.196   6.439  -6.155  0.00  0.00     0.063 H 
ATOM     25  H   LIG d   1      10.439   4.187  -7.091  0.00  0.00     0.062 H 
BRANCH  20  26
ATOM     26  C   LIG d   1       9.355   8.661  -7.435  0.00  0.00     0.339 C 
ATOM     27  O   LIG d   1       9.418   9.632  -8.161  0.00  0.00    -0.245 OA
BRANCH  26  28
ATOM     28  O   LIG d   1       9.147   8.819  -6.113  0.00  0.00    -0.465 OA
BRANCH  28  29
ATOM     29  C   LIG d   1       9.542  10.090  -5.531  0.00  0.00     0.082 C 
ATOM     30  H   LIG d   1      10.112  10.662  -6.263  0.00  0.00     0.066 H 
ATOM     31  H   LIG d   1       8.653  10.650  -5.244  0.00  0.00     0.066 H 
ATOM     32  H   LIG d   1      10.159   9.909  -4.651  0.00  0.00     0.066 H 
ENDBRANCH  28  29
ENDBRANCH  26  28
ENDBRANCH  20  26
ENDBRANCH   1  16
BRANCH   8  33
ATOM     33  O   LIG d   1       3.659   0.085  -8.592  0.00  0.00    -0.422 OA
BRANCH  33  34
ATOM     34  C   LIG d   1       3.250   0.690  -7.459  0.00  0.00     0.344 C 
ATOM     35  O   LIG d   1       2.775   1.807  -7.505  0.00  0.00    -0.244 OA
BRANCH  34  36
ATOM     36  C   LIG d   1       3.377  -0.005  -6.163  0.00  0.00     0.059 A 
ATOM     37  C   LIG d   1       2.567   0.363  -5.087  0.00  0.00    -0.046 A 
ATOM     38  C   LIG d   1       2.689  -0.291  -3.880  0.00  0.00    -0.043 A 
ATOM     39  H   LIG d   1       1.845   1.159  -5.200  0.00  0.00     0.063 H 
ATOM     40  C   LIG d   1       3.614  -1.312  -3.733  0.00  0.00     0.041 A 
ATOM     41  H   LIG d   1       2.063  -0.007  -3.047  0.00  0.00     0.063 H 
ATOM     42  C   LIG d   1       4.420  -1.682  -4.796  0.00  0.00    -0.043 A 
ATOM     43 CL   LIG d   1       3.762  -2.131  -2.209  0.00  0.00    -0.084 Cl
ATOM     44  C   LIG d   1       4.303  -1.040  -6.010  0.00  0.00    -0.046 A 
ATOM     45  H   LIG d   1       5.140  -2.478  -4.675  0.00  0.00     0.063 H 
ATOM     46  H   LIG d   1       4.931  -1.332  -6.840  0.00  0.00     0.063 H 
ENDBRANCH  34  36
ENDBRANCH  33  34
ENDBRANCH   8  33
TORSDOF 7
ENDMDL
MODEL 5
REMARK VINA RESULT:      -6.5      2.682      3.523
REMARK  7 active torsions:
REMARK  status: ('A' for Active; 'I' for Inactive)
REMARK    1  A    between atoms: C_1  and  O_2 
REMARK    2  A    between atoms: O_2  and  C_3 
REMARK    3  A    between atoms: C_3  and  C_5 
REMARK    4  A    between atoms: C_8  and  C_11 
REMARK    5  A    between atoms: C_18  and  O_22 
REMARK    6  A    between atoms: O_22  and  C_23 
REMARK    7  A    between atoms: C_23  and  C_25 
ROOT
ATOM      1  C   LIG d   1      10.241   4.980  -4.287  0.00  0.00    -0.008 C 
ATOM      2  C   LIG d   1       9.504   3.873  -4.549  0.00  0.00     0.176 A 
ATOM      3  C   LIG d   1       9.298   3.254  -5.871  0.00  0.00     0.232 A 
ATOM      4  O   LIG d   1       9.745   3.620  -6.944  0.00  0.00    -0.283 OA
ATOM      5  C   LIG d   1       8.431   2.092  -5.604  0.00  0.00     0.068 A 
ATOM      6  C   LIG d   1       7.878   1.106  -6.422  0.00  0.00    -0.044 A 
ATOM      7  C   LIG d   1       7.098   0.126  -5.875  0.00  0.00    -0.018 A 
ATOM      8  C   LIG d   1       6.844   0.117  -4.506  0.00  0.00     0.136 A 
ATOM      9  C   LIG d   1       7.387   1.090  -3.682  0.00  0.00     0.024 A 
ATOM     10  C   LIG d   1       8.188   2.090  -4.221  0.00  0.00     0.143 A 
ATOM     11  O   LIG d   1       8.823   3.133  -3.643  0.00  0.00    -0.451 OA
ATOM     12  H   LIG d   1      10.675   5.543  -5.100  0.00  0.00     0.066 H 
ATOM     13  H   LIG d   1       8.070   1.114  -7.484  0.00  0.00     0.063 H 
ATOM     14  H   LIG d   1       6.674  -0.640  -6.507  0.00  0.00     0.065 H 
ATOM     15  H   LIG d   1       7.188   1.071  -2.621  0.00  0.00     0.069 H 
ENDROOT
BRANCH   1  16
ATOM     16  C   LIG d   1      10.447   5.415  -2.898  0.00  0.00    -0.021 A 
ATOM     17  C   LIG d   1      11.380   4.755  -2.088  0.00  0.00    -0.054 A 
ATOM     18  C   LIG d   1      11.571   5.162  -0.794  0.00  0.00    -0.047 A 
ATOM     19  H   LIG d   1      11.948   3.926  -2.485  0.00  0.00     0.062 H 
ATOM     20  C   LIG d   1      10.836   6.235  -0.281  0.00  0.00     0.059 A 
ATOM     21  H   LIG d   1      12.291   4.653  -0.169  0.00  0.00     0.063 H 
ATOM     22  C   LIG d   1       9.904   6.894  -1.089  0.00  0.00    -0.047 A 
ATOM     23  C   LIG d   1       9.715   6.492  -2.385  0.00  0.00    -0.054 A 
ATOM     24  H   LIG d   1       9.336   7.722  -0.691  0.00  0.00     0.063 H 
ATOM     25  H   LIG d   1       8.997   7.005  -3.010  0.00  0.00     0.062 H 
BRANCH  20  26
ATOM     26  C   LIG d   1      11.043   6.672   1.114  0.00  0.00     0.339 C 
ATOM     27  O   LIG d   1      11.266   7.841   1.357  0.00  0.00    -0.245 OA
BRANCH  26  28
ATOM     28  O   LIG d   1      10.984   5.774   2.117  0.00  0.00    -0.465 OA
BRANCH  28  29
ATOM     29  C   LIG d   1      11.041   6.294   3.472  0.00  0.00     0.082 C 
ATOM     30  H   LIG d   1      11.431   5.526   4.139  0.00  0.00     0.066 H 
ATOM     31  H   LIG d   1      11.696   7.165   3.499  0.00  0.00     0.066 H 
ATOM     32  H   LIG d   1      10.040   6.581   3.793  0.00  0.00     0.066 H 
ENDBRANCH  28  29
ENDBRANCH  26  28
ENDBRANCH  20  26
ENDBRANCH   1  16
BRANCH   8  33
ATOM     33  O   LIG d   1       6.064  -0.857  -3.973  0.00  0.00    -0.422 OA
BRANCH  33  34
ATOM     34  C   LIG d   1       6.632  -2.067  -3.795  0.00  0.00     0.344 C 
ATOM     35  O   LIG d   1       7.539  -2.200  -2.998  0.00  0.00    -0.244 OA
BRANCH  34  36
ATOM     36  C   LIG d   1       6.147  -3.230  -4.564  0.00  0.00     0.059 A 
ATOM     37  C   LIG d   1       7.041  -4.223  -4.971  0.00  0.00    -0.046 A 
ATOM     38  C   LIG d   1       6.582  -5.308  -5.688  0.00  0.00    -0.043 A 
ATOM     39  H   LIG d   1       8.089  -4.143  -4.723  0.00  0.00     0.063 H 
ATOM     40  C   LIG d   1       5.238  -5.413  -6.005  0.00  0.00     0.041 A 
ATOM     41  H   LIG d   1       7.272  -6.076  -6.003  0.00  0.00     0.063 H 
ATOM     42  C   LIG d   1       4.347  -4.431  -5.605  0.00  0.00    -0.043 A 
ATOM     43 CL   LIG d   1       4.668  -6.781  -6.909  0.00  0.00    -0.084 Cl
ATOM     44  C   LIG d   1       4.792  -3.345  -4.882  0.00  0.00    -0.046 A 
ATOM     45  H   LIG d   1       3.301  -4.519  -5.856  0.00  0.00     0.063 H 
ATOM     46  H   LIG d   1       4.095  -2.582  -4.567  0.00  0.00     0.063 H 
ENDBRANCH  34  36
ENDBRANCH  33  34
ENDBRANCH   8  33
TORSDOF 7
ENDMDL
MODEL 6
REMARK VINA RESULT:      -6.4      6.332      9.909
REMARK  7 active torsions:
REMARK  status: ('A' for Active; 'I' for Inactive)
REMARK    1  A    between atoms: C_1  and  O_2 
REMARK    2  A    between atoms: O_2  and  C_3 
REMARK    3  A    between atoms: C_3  and  C_5 
REMARK    4  A    between atoms: C_8  and  C_11 
REMARK    5  A    between atoms: C_18  and  O_22 
REMARK    6  A    between atoms: O_22  and  C_23 
REMARK    7  A    between atoms: C_23  and  C_25 
ROOT
ATOM      1  C   LIG d   1       3.769   0.412  -8.385  0.00  0.00    -0.008 C 
ATOM      2  C   LIG d   1       3.133  -0.327  -9.327  0.00  0.00     0.176 A 
ATOM      3  C   LIG d   1       3.171  -0.103 -10.784  0.00  0.00     0.232 A 
ATOM      4  O   LIG d   1       3.769   0.770 -11.389  0.00  0.00    -0.283 OA
ATOM      5  C   LIG d   1       2.325  -1.172 -11.345  0.00  0.00     0.068 A 
ATOM      6  C   LIG d   1       1.955  -1.513 -12.646  0.00  0.00    -0.044 A 
ATOM      7  C   LIG d   1       1.141  -2.589 -12.863  0.00  0.00    -0.018 A 
ATOM      8  C   LIG d   1       0.671  -3.338 -11.788  0.00  0.00     0.136 A 
ATOM      9  C   LIG d   1       1.030  -3.010 -10.490  0.00  0.00     0.024 A 
ATOM     10  C   LIG d   1       1.862  -1.923 -10.252  0.00  0.00     0.143 A 
ATOM     11  O   LIG d   1       2.349  -1.407  -9.102  0.00  0.00    -0.451 OA
ATOM     12  H   LIG d   1       4.303   1.306  -8.671  0.00  0.00     0.066 H 
ATOM     13  H   LIG d   1       2.316  -0.931 -13.481  0.00  0.00     0.063 H 
ATOM     14  H   LIG d   1       0.860  -2.857 -13.870  0.00  0.00     0.065 H 
ATOM     15  H   LIG d   1       0.663  -3.600  -9.663  0.00  0.00     0.069 H 
ENDROOT
BRANCH   1  16
ATOM     16  C   LIG d   1       3.728  -0.002  -6.976  0.00  0.00    -0.021 A 
ATOM     17  C   LIG d   1       4.695  -0.883  -6.476  0.00  0.00    -0.054 A 
ATOM     18  C   LIG d   1       4.657  -1.268  -5.161  0.00  0.00    -0.047 A 
ATOM     19  H   LIG d   1       5.472  -1.258  -7.127  0.00  0.00     0.062 H 
ATOM     20  C   LIG d   1       3.653  -0.782  -4.319  0.00  0.00     0.059 A 
ATOM     21  H   LIG d   1       5.404  -1.947  -4.776  0.00  0.00     0.063 H 
ATOM     22  C   LIG d   1       2.687   0.097  -4.816  0.00  0.00    -0.047 A 
ATOM     23  C   LIG d   1       2.726   0.487  -6.130  0.00  0.00    -0.054 A 
ATOM     24  H   LIG d   1       1.911   0.471  -4.164  0.00  0.00     0.063 H 
ATOM     25  H   LIG d   1       1.981   1.170  -6.512  0.00  0.00     0.062 H 
BRANCH  20  26
ATOM     26  C   LIG d   1       3.613  -1.198  -2.902  0.00  0.00     0.339 C 
ATOM     27  O   LIG d   1       3.576  -2.379  -2.617  0.00  0.00    -0.245 OA
BRANCH  26  28
ATOM     28  O   LIG d   1       3.617  -0.269  -1.927  0.00  0.00    -0.465 OA
BRANCH  28  29
ATOM     29  C   LIG d   1       4.757   0.628  -1.876  0.00  0.00     0.082 C 
ATOM     30  H   LIG d   1       4.914   0.957  -0.849  0.00  0.00     0.066 H 
ATOM     31  H   LIG d   1       5.645   0.107  -2.231  0.00  0.00     0.066 H 
ATOM     32  H   LIG d   1       4.565   1.495  -2.509  0.00  0.00     0.066 H 
ENDBRANCH  28  29
ENDBRANCH  26  28
ENDBRANCH  20  26
ENDBRANCH   1  16
BRANCH   8  33
ATOM     33  O   LIG d   1      -0.141  -4.402 -12.013  0.00  0.00    -0.422 OA
BRANCH  33  34
ATOM     34  C   LIG d   1       0.386  -5.627 -11.815  0.00  0.00     0.344 C 
ATOM     35  O   LIG d   1       1.570  -5.817 -12.013  0.00  0.00    -0.244 OA
BRANCH  34  36
ATOM     36  C   LIG d   1      -0.473  -6.735 -11.356  0.00  0.00     0.059 A 
ATOM     37  C   LIG d   1      -1.060  -6.689 -10.089  0.00  0.00    -0.046 A 
ATOM     38  C   LIG d   1      -1.863  -7.727  -9.666  0.00  0.00    -0.043 A 
ATOM     39  H   LIG d   1      -0.887  -5.841  -9.443  0.00  0.00     0.063 H 
ATOM     40  C   LIG d   1      -2.088  -8.814 -10.494  0.00  0.00     0.041 A 
ATOM     41  H   LIG d   1      -2.318  -7.692  -8.687  0.00  0.00     0.063 H 
ATOM     42  C   LIG d   1      -1.508  -8.866 -11.751  0.00  0.00    -0.043 A 
ATOM     43 CL   LIG d   1      -3.099 -10.117  -9.954  0.00  0.00    -0.084 Cl
ATOM     44  C   LIG d   1      -0.709  -7.832 -12.188  0.00  0.00    -0.046 A 
ATOM     45  H   LIG d   1      -1.686  -9.717 -12.391  0.00  0.00     0.063 H 
ATOM     46  H   LIG d   1      -0.260  -7.872 -13.171  0.00  0.00     0.063 H 
ENDBRANCH  34  36
ENDBRANCH  33  34
ENDBRANCH   8  33
TORSDOF 7
ENDMDL
MODEL 7
REMARK VINA RESULT:      -6.3      7.232     11.160
REMARK  7 active torsions:
REMARK  status: ('A' for Active; 'I' for Inactive)
REMARK    1  A    between atoms: C_1  and  O_2 
REMARK    2  A    between atoms: O_2  and  C_3 
REMARK    3  A    between atoms: C_3  and  C_5 
REMARK    4  A    between atoms: C_8  and  C_11 
REMARK    5  A    between atoms: C_18  and  O_22 
REMARK    6  A    between atoms: O_22  and  C_23 
REMARK    7  A    between atoms: C_23  and  C_25 
ROOT
ATOM      1  C   LIG d   1       2.669  -1.143 -10.620  0.00  0.00    -0.008 C 
ATOM      2  C   LIG d   1       1.780  -2.108 -10.959  0.00  0.00     0.176 A 
ATOM      3  C   LIG d   1       1.349  -2.456 -12.326  0.00  0.00     0.232 A 
ATOM      4  O   LIG d   1       1.709  -1.948 -13.373  0.00  0.00    -0.283 OA
ATOM      5  C   LIG d   1       0.387  -3.558 -12.141  0.00  0.00     0.068 A 
ATOM      6  C   LIG d   1      -0.371  -4.322 -13.028  0.00  0.00    -0.044 A 
ATOM      7  C   LIG d   1      -1.194  -5.303 -12.551  0.00  0.00    -0.018 A 
ATOM      8  C   LIG d   1      -1.285  -5.534 -11.182  0.00  0.00     0.136 A 
ATOM      9  C   LIG d   1      -0.538  -4.782 -10.289  0.00  0.00     0.024 A 
ATOM     10  C   LIG d   1       0.308  -3.785 -10.757  0.00  0.00     0.143 A 
ATOM     11  O   LIG d   1       1.126  -2.930 -10.105  0.00  0.00    -0.451 OA
ATOM     12  H   LIG d   1       3.069  -0.488 -11.379  0.00  0.00     0.066 H 
ATOM     13  H   LIG d   1      -0.304  -4.141 -14.091  0.00  0.00     0.063 H 
ATOM     14  H   LIG d   1      -1.776  -5.899 -13.239  0.00  0.00     0.065 H 
ATOM     15  H   LIG d   1      -0.614  -4.972  -9.228  0.00  0.00     0.069 H 
ENDROOT
BRANCH   1  16
ATOM     16  C   LIG d   1       3.085  -0.987  -9.219  0.00  0.00    -0.021 A 
ATOM     17  C   LIG d   1       2.451  -0.045  -8.399  0.00  0.00    -0.054 A 
ATOM     18  C   LIG d   1       2.840   0.099  -7.093  0.00  0.00    -0.047 A 
ATOM     19  H   LIG d   1       1.655   0.568  -8.797  0.00  0.00     0.062 H 
ATOM     20  C   LIG d   1       3.870  -0.694  -6.578  0.00  0.00     0.059 A 
ATOM     21  H   LIG d   1       2.351   0.825  -6.461  0.00  0.00     0.063 H 
ATOM     22  C   LIG d   1       4.504  -1.635  -7.395  0.00  0.00    -0.047 A 
ATOM     23  C   LIG d   1       4.113  -1.784  -8.700  0.00  0.00    -0.054 A 
ATOM     24  H   LIG d   1       5.300  -2.247  -6.996  0.00  0.00     0.063 H 
ATOM     25  H   LIG d   1       4.601  -2.514  -9.330  0.00  0.00     0.062 H 
BRANCH  20  26
ATOM     26  C   LIG d   1       4.289  -0.538  -5.171  0.00  0.00     0.339 C 
ATOM     27  O   LIG d   1       5.128   0.289  -4.875  0.00  0.00    -0.245 OA
BRANCH  26  28
ATOM     28  O   LIG d   1       3.739  -1.311  -4.214  0.00  0.00    -0.465 OA
BRANCH  28  29
ATOM     29  C   LIG d   1       2.739  -0.695  -3.361  0.00  0.00     0.082 C 
ATOM     30  H   LIG d   1       1.762  -1.126  -3.578  0.00  0.00     0.066 H 
ATOM     31  H   LIG d   1       2.992  -0.875  -2.316  0.00  0.00     0.066 H 
ATOM     32  H   LIG d   1       2.713   0.378  -3.550  0.00  0.00     0.066 H 
ENDBRANCH  28  29
ENDBRANCH  26  28
ENDBRANCH  20  26
ENDBRANCH   1  16
BRANCH   8  33
ATOM     33  O   LIG d   1      -2.109  -6.508 -10.717  0.00  0.00    -0.422 OA
BRANCH  33  34
ATOM     34  C   LIG d   1      -3.062  -6.135  -9.840  0.00  0.00     0.344 C 
ATOM     35  O   LIG d   1      -2.965  -6.444  -8.670  0.00  0.00    -0.244 OA
BRANCH  34  36
ATOM     36  C   LIG d   1      -4.223  -5.349 -10.302  0.00  0.00     0.059 A 
ATOM     37  C   LIG d   1      -4.950  -5.762 -11.421  0.00  0.00    -0.046 A 
ATOM     38  C   LIG d   1      -6.034  -5.024 -11.847  0.00  0.00    -0.043 A 
ATOM     39  H   LIG d   1      -4.664  -6.658 -11.952  0.00  0.00     0.063 H 
ATOM     40  C   LIG d   1      -6.402  -3.874 -11.168  0.00  0.00     0.041 A 
ATOM     41  H   LIG d   1      -6.596  -5.342 -12.712  0.00  0.00     0.063 H 
ATOM     42  C   LIG d   1      -5.685  -3.459 -10.058  0.00  0.00    -0.043 A 
ATOM     43 CL   LIG d   1      -7.767  -2.949 -11.710  0.00  0.00    -0.084 Cl
ATOM     44  C   LIG d   1      -4.604  -4.192  -9.618  0.00  0.00    -0.046 A 
ATOM     45  H   LIG d   1      -5.977  -2.562  -9.533  0.00  0.00     0.063 H 
ATOM     46  H   LIG d   1      -4.048  -3.869  -8.749  0.00  0.00     0.063 H 
ENDBRANCH  34  36
ENDBRANCH  33  34
ENDBRANCH   8  33
TORSDOF 7
ENDMDL
MODEL 8
REMARK VINA RESULT:      -6.3      6.491      9.374
REMARK  7 active torsions:
REMARK  status: ('A' for Active; 'I' for Inactive)
REMARK    1  A    between atoms: C_1  and  O_2 
REMARK    2  A    between atoms: O_2  and  C_3 
REMARK    3  A    between atoms: C_3  and  C_5 
REMARK    4  A    between atoms: C_8  and  C_11 
REMARK    5  A    between atoms: C_18  and  O_22 
REMARK    6  A    between atoms: O_22  and  C_23 
REMARK    7  A    between atoms: C_23  and  C_25 
ROOT
ATOM      1  C   LIG d   1       7.600  -3.287  -6.096  0.00  0.00    -0.008 C 
ATOM      2  C   LIG d   1       7.204  -4.582  -6.131  0.00  0.00     0.176 A 
ATOM      3  C   LIG d   1       7.889  -5.686  -6.830  0.00  0.00     0.232 A 
ATOM      4  O   LIG d   1       8.913  -5.631  -7.488  0.00  0.00    -0.283 OA
ATOM      5  C   LIG d   1       7.056  -6.871  -6.553  0.00  0.00     0.068 A 
ATOM      6  C   LIG d   1       7.155  -8.213  -6.922  0.00  0.00    -0.044 A 
ATOM      7  C   LIG d   1       6.211  -9.106  -6.499  0.00  0.00    -0.018 A 
ATOM      8  C   LIG d   1       5.146  -8.677  -5.711  0.00  0.00     0.136 A 
ATOM      9  C   LIG d   1       5.036  -7.347  -5.338  0.00  0.00     0.024 A 
ATOM     10  C   LIG d   1       5.990  -6.427  -5.754  0.00  0.00     0.143 A 
ATOM     11  O   LIG d   1       6.107  -5.100  -5.530  0.00  0.00    -0.451 OA
ATOM     12  H   LIG d   1       8.448  -2.966  -6.683  0.00  0.00     0.066 H 
ATOM     13  H   LIG d   1       7.978  -8.546  -7.536  0.00  0.00     0.063 H 
ATOM     14  H   LIG d   1       6.290 -10.146  -6.779  0.00  0.00     0.065 H 
ATOM     15  H   LIG d   1       4.208  -7.026  -4.724  0.00  0.00     0.069 H 
ENDROOT
BRANCH   1  16
ATOM     16  C   LIG d   1       6.875  -2.318  -5.262  0.00  0.00    -0.021 A 
ATOM     17  C   LIG d   1       7.037  -2.331  -3.871  0.00  0.00    -0.054 A 
ATOM     18  C   LIG d   1       6.361  -1.428  -3.094  0.00  0.00    -0.047 A 
ATOM     19  H   LIG d   1       7.696  -3.054  -3.411  0.00  0.00     0.062 H 
ATOM     20  C   LIG d   1       5.508  -0.492  -3.690  0.00  0.00     0.059 A 
ATOM     21  H   LIG d   1       6.486  -1.437  -2.021  0.00  0.00     0.063 H 
ATOM     22  C   LIG d   1       5.345  -0.479  -5.078  0.00  0.00    -0.047 A 
ATOM     23  C   LIG d   1       6.025  -1.379  -5.857  0.00  0.00    -0.054 A 
ATOM     24  H   LIG d   1       4.686   0.244  -5.537  0.00  0.00     0.063 H 
ATOM     25  H   LIG d   1       5.902  -1.364  -6.931  0.00  0.00     0.062 H 
BRANCH  20  26
ATOM     26  C   LIG d   1       4.779   0.481  -2.851  0.00  0.00     0.339 C 
ATOM     27  O   LIG d   1       5.394   1.291  -2.188  0.00  0.00    -0.245 OA
BRANCH  26  28
ATOM     28  O   LIG d   1       3.432   0.470  -2.822  0.00  0.00    -0.465 OA
BRANCH  28  29
ATOM     29  C   LIG d   1       2.782  -0.827  -2.879  0.00  0.00     0.082 C 
ATOM     30  H   LIG d   1       1.707  -0.700  -2.761  0.00  0.00     0.066 H 
ATOM     31  H   LIG d   1       2.989  -1.295  -3.842  0.00  0.00     0.066 H 
ATOM     32  H   LIG d   1       3.164  -1.460  -2.078  0.00  0.00     0.066 H 
ENDBRANCH  28  29
ENDBRANCH  26  28
ENDBRANCH  20  26
ENDBRANCH   1  16
BRANCH   8  33
ATOM     33  O   LIG d   1       4.210  -9.571  -5.300  0.00  0.00    -0.422 OA
BRANCH  33  34
ATOM     34  C   LIG d   1       4.156  -9.836  -3.980  0.00  0.00     0.344 C 
ATOM     35  O   LIG d   1       3.153  -9.569  -3.348  0.00  0.00    -0.244 OA
BRANCH  34  36
ATOM     36  C   LIG d   1       5.313 -10.453  -3.303  0.00  0.00     0.059 A 
ATOM     37  C   LIG d   1       5.760  -9.951  -2.078  0.00  0.00    -0.046 A 
ATOM     38  C   LIG d   1       6.841 -10.533  -1.451  0.00  0.00    -0.043 A 
ATOM     39  H   LIG d   1       5.260  -9.108  -1.624  0.00  0.00     0.063 H 
ATOM     40  C   LIG d   1       7.483 -11.614  -2.032  0.00  0.00     0.041 A 
ATOM     41  H   LIG d   1       7.187 -10.145  -0.504  0.00  0.00     0.063 H 
ATOM     42  C   LIG d   1       7.045 -12.117  -3.245  0.00  0.00    -0.043 A 
ATOM     43 CL   LIG d   1       8.843 -12.342  -1.235  0.00  0.00    -0.084 Cl
ATOM     44  C   LIG d   1       5.961 -11.548  -3.880  0.00  0.00    -0.046 A 
ATOM     45  H   LIG d   1       7.550 -12.960  -3.693  0.00  0.00     0.063 H 
ATOM     46  H   LIG d   1       5.618 -11.944  -4.825  0.00  0.00     0.063 H 
ENDBRANCH  34  36
ENDBRANCH  33  34
ENDBRANCH   8  33
TORSDOF 7
ENDMDL
MODEL 9
REMARK VINA RESULT:      -6.2      5.421     10.080
REMARK  7 active torsions:
REMARK  status: ('A' for Active; 'I' for Inactive)
REMARK    1  A    between atoms: C_1  and  O_2 
REMARK    2  A    between atoms: O_2  and  C_3 
REMARK    3  A    between atoms: C_3  and  C_5 
REMARK    4  A    between atoms: C_8  and  C_11 
REMARK    5  A    between atoms: C_18  and  O_22 
REMARK    6  A    between atoms: O_22  and  C_23 
REMARK    7  A    between atoms: C_23  and  C_25 
ROOT
ATOM      1  C   LIG d   1       4.232   0.930 -10.829  0.00  0.00    -0.008 C 
ATOM      2  C   LIG d   1       5.102   0.575  -9.852  0.00  0.00     0.176 A 
ATOM      3  C   LIG d   1       6.033   1.473  -9.145  0.00  0.00     0.232 A 
ATOM      4  O   LIG d   1       6.184   2.671  -9.309  0.00  0.00    -0.283 OA
ATOM      5  C   LIG d   1       6.740   0.597  -8.193  0.00  0.00     0.068 A 
ATOM      6  C   LIG d   1       7.735   0.827  -7.243  0.00  0.00    -0.044 A 
ATOM      7  C   LIG d   1       8.203  -0.208  -6.483  0.00  0.00    -0.018 A 
ATOM      8  C   LIG d   1       7.698  -1.492  -6.664  0.00  0.00     0.136 A 
ATOM      9  C   LIG d   1       6.709  -1.735  -7.604  0.00  0.00     0.024 A 
ATOM     10  C   LIG d   1       6.217  -0.693  -8.380  0.00  0.00     0.143 A 
ATOM     11  O   LIG d   1       5.273  -0.668  -9.346  0.00  0.00    -0.451 OA
ATOM     12  H   LIG d   1       4.237   1.938 -11.216  0.00  0.00     0.066 H 
ATOM     13  H   LIG d   1       8.131   1.822  -7.104  0.00  0.00     0.063 H 
ATOM     14  H   LIG d   1       8.970  -0.030  -5.743  0.00  0.00     0.065 H 
ATOM     15  H   LIG d   1       6.321  -2.735  -7.734  0.00  0.00     0.069 H 
ENDROOT
BRANCH   1  16
ATOM     16  C   LIG d   1       3.284  -0.058 -11.364  0.00  0.00    -0.021 A 
ATOM     17  C   LIG d   1       3.563  -0.719 -12.566  0.00  0.00    -0.054 A 
ATOM     18  C   LIG d   1       2.679  -1.640 -13.063  0.00  0.00    -0.047 A 
ATOM     19  H   LIG d   1       4.477  -0.503 -13.101  0.00  0.00     0.062 H 
ATOM     20  C   LIG d   1       1.497  -1.920 -12.370  0.00  0.00     0.059 A 
ATOM     21  H   LIG d   1       2.895  -2.150 -13.990  0.00  0.00     0.063 H 
ATOM     22  C   LIG d   1       1.217  -1.261 -11.170  0.00  0.00    -0.047 A 
ATOM     23  C   LIG d   1       2.103  -0.343 -10.669  0.00  0.00    -0.054 A 
ATOM     24  H   LIG d   1       0.303  -1.478 -10.636  0.00  0.00     0.063 H 
ATOM     25  H   LIG d   1       1.887   0.163  -9.738  0.00  0.00     0.062 H 
BRANCH  20  26
ATOM     26  C   LIG d   1       0.545  -2.913 -12.907  0.00  0.00     0.339 C 
ATOM     27  O   LIG d   1       0.954  -3.960 -13.367  0.00  0.00    -0.245 OA
BRANCH  26  28
ATOM     28  O   LIG d   1      -0.778  -2.658 -12.886  0.00  0.00    -0.465 OA
BRANCH  28  29
ATOM     29  C   LIG d   1      -1.301  -1.801 -13.936  0.00  0.00     0.082 C 
ATOM     30  H   LIG d   1      -0.613  -0.973 -14.104  0.00  0.00     0.066 H 
ATOM     31  H   LIG d   1      -1.407  -2.377 -14.855  0.00  0.00     0.066 H 
ATOM     32  H   LIG d   1      -2.273  -1.411 -13.636  0.00  0.00     0.066 H 
ENDBRANCH  28  29
ENDBRANCH  26  28
ENDBRANCH  20  26
ENDBRANCH   1  16
BRANCH   8  33
ATOM     33  O   LIG d   1       8.173  -2.515  -5.908  0.00  0.00    -0.422 OA
BRANCH  33  34
ATOM     34  C   LIG d   1       7.336  -3.037  -4.989  0.00  0.00     0.344 C 
ATOM     35  O   LIG d   1       7.385  -4.222  -4.727  0.00  0.00    -0.244 OA
BRANCH  34  36
ATOM     36  C   LIG d   1       6.364  -2.167  -4.298  0.00  0.00     0.059 A 
ATOM     37  C   LIG d   1       4.993  -2.377  -4.465  0.00  0.00    -0.046 A 
ATOM     38  C   LIG d   1       4.090  -1.562  -3.815  0.00  0.00    -0.043 A 
ATOM     39  H   LIG d   1       4.641  -3.177  -5.100  0.00  0.00     0.063 H 
ATOM     40  C   LIG d   1       4.539  -0.537  -3.000  0.00  0.00     0.041 A 
ATOM     41  H   LIG d   1       3.030  -1.724  -3.944  0.00  0.00     0.063 H 
ATOM     42  C   LIG d   1       5.897  -0.323  -2.832  0.00  0.00    -0.043 A 
ATOM     43 CL   LIG d   1       3.396   0.485  -2.187  0.00  0.00    -0.084 Cl
ATOM     44  C   LIG d   1       6.811  -1.135  -3.470  0.00  0.00    -0.046 A 
ATOM     45  H   LIG d   1       6.242   0.478  -2.195  0.00  0.00     0.063 H 
ATOM     46  H   LIG d   1       7.870  -0.970  -3.334  0.00  0.00     0.063 H 
ENDBRANCH  34  36
ENDBRANCH  33  34
ENDBRANCH   8  33
TORSDOF 7
ENDMDL
MODEL 10
REMARK VINA RESULT:      -6.0      2.598      3.886
REMARK  7 active torsions:
REMARK  status: ('A' for Active; 'I' for Inactive)
REMARK    1  A    between atoms: C_1  and  O_2 
REMARK    2  A    between atoms: O_2  and  C_3 
REMARK    3  A    between atoms: C_3  and  C_5 
REMARK    4  A    between atoms: C_8  and  C_11 
REMARK    5  A    between atoms: C_18  and  O_22 
REMARK    6  A    between atoms: O_22  and  C_23 
REMARK    7  A    between atoms: C_23  and  C_25 
ROOT
ATOM      1  C   LIG d   1      10.545   6.719  -4.797  0.00  0.00    -0.008 C 
ATOM      2  C   LIG d   1      10.151   5.612  -5.474  0.00  0.00     0.176 A 
ATOM      3  C   LIG d   1      10.060   5.473  -6.939  0.00  0.00     0.232 A 
ATOM      4  O   LIG d   1      10.317   6.310  -7.786  0.00  0.00    -0.283 OA
ATOM      5  C   LIG d   1       9.590   4.091  -7.149  0.00  0.00     0.068 A 
ATOM      6  C   LIG d   1       9.304   3.344  -8.293  0.00  0.00    -0.044 A 
ATOM      7  C   LIG d   1       8.879   2.051  -8.172  0.00  0.00    -0.018 A 
ATOM      8  C   LIG d   1       8.720   1.482  -6.912  0.00  0.00     0.136 A 
ATOM      9  C   LIG d   1       9.000   2.213  -5.768  0.00  0.00     0.024 A 
ATOM     10  C   LIG d   1       9.439   3.526  -5.872  0.00  0.00     0.143 A 
ATOM     11  O   LIG d   1       9.772   4.434  -4.928  0.00  0.00    -0.451 OA
ATOM     12  H   LIG d   1      10.746   7.635  -5.332  0.00  0.00     0.066 H 
ATOM     13  H   LIG d   1       9.424   3.785  -9.271  0.00  0.00     0.063 H 
ATOM     14  H   LIG d   1       8.664   1.470  -9.057  0.00  0.00     0.065 H 
ATOM     15  H   LIG d   1       8.876   1.760  -4.795  0.00  0.00     0.069 H 
ENDROOT
BRANCH   1  16
ATOM     16  C   LIG d   1      10.694   6.672  -3.336  0.00  0.00    -0.021 A 
ATOM     17  C   LIG d   1       9.639   7.080  -2.510  0.00  0.00    -0.054 A 
ATOM     18  C   LIG d   1       9.779   7.036  -1.147  0.00  0.00    -0.047 A 
ATOM     19  H   LIG d   1       8.715   7.429  -2.947  0.00  0.00     0.062 H 
ATOM     20  C   LIG d   1      10.975   6.584  -0.581  0.00  0.00     0.059 A 
ATOM     21  H   LIG d   1       8.966   7.350  -0.510  0.00  0.00     0.063 H 
ATOM     22  C   LIG d   1      12.029   6.176  -1.405  0.00  0.00    -0.047 A 
ATOM     23  C   LIG d   1      11.889   6.215  -2.768  0.00  0.00    -0.054 A 
ATOM     24  H   LIG d   1      12.953   5.828  -0.966  0.00  0.00     0.063 H 
ATOM     25  H   LIG d   1      12.703   5.896  -3.403  0.00  0.00     0.062 H 
BRANCH  20  26
ATOM     26  C   LIG d   1      11.126   6.537   0.887  0.00  0.00     0.339 C 
ATOM     27  O   LIG d   1      10.586   5.654   1.525  0.00  0.00    -0.245 OA
BRANCH  26  28
ATOM     28  O   LIG d   1      11.861   7.472   1.520  0.00  0.00    -0.465 OA
BRANCH  28  29
ATOM     29  C   LIG d   1      11.478   8.858   1.320  0.00  0.00     0.082 C 
ATOM     30  H   LIG d   1      12.282   9.510   1.661  0.00  0.00     0.066 H 
ATOM     31  H   LIG d   1      11.292   9.034   0.260  0.00  0.00     0.066 H 
ATOM     32  H   LIG d   1      10.572   9.070   1.889  0.00  0.00     0.066 H 
ENDBRANCH  28  29
ENDBRANCH  26  28
ENDBRANCH  20  26
ENDBRANCH   1  16
BRANCH   8  33
ATOM     33  O   LIG d   1       8.292   0.198  -6.802  0.00  0.00    -0.422 OA
BRANCH  33  34
ATOM     34  C   LIG d   1       8.176  -0.303  -5.556  0.00  0.00     0.344 C 
ATOM     35  O   LIG d   1       9.134  -0.821  -5.018  0.00  0.00    -0.244 OA
BRANCH  34  36
ATOM     36  C   LIG d   1       6.885  -0.221  -4.845  0.00  0.00     0.059 A 
ATOM     37  C   LIG d   1       6.854   0.083  -3.481  0.00  0.00    -0.046 A 
ATOM     38  C   LIG d   1       5.645   0.160  -2.823  0.00  0.00    -0.043 A 
ATOM     39  H   LIG d   1       7.774   0.257  -2.944  0.00  0.00     0.063 H 
ATOM     40  C   LIG d   1       4.463  -0.063  -3.511  0.00  0.00     0.041 A 
ATOM     41  H   LIG d   1       5.619   0.394  -1.769  0.00  0.00     0.063 H 
ATOM     42  C   LIG d   1       4.488  -0.365  -4.862  0.00  0.00    -0.043 A 
ATOM     43 CL   LIG d   1       2.945   0.035  -2.674  0.00  0.00    -0.084 Cl
ATOM     44  C   LIG d   1       5.689  -0.438  -5.534  0.00  0.00    -0.046 A 
ATOM     45  H   LIG d   1       3.563  -0.538  -5.392  0.00  0.00     0.063 H 
ATOM     46  H   LIG d   1       5.707  -0.669  -6.589  0.00  0.00     0.063 H 
ENDBRANCH  34  36
ENDBRANCH  33  34
ENDBRANCH   8  33
TORSDOF 7
ENDMDL
