MODEL 1
REMARK VINA RESULT:      -6.5      0.000      0.000
REMARK  6 active torsions:
REMARK  status: ('A' for Active; 'I' for Inactive)
REMARK    1  A    between atoms: C_1  and  C_2 
REMARK    2  A    between atoms: N_24  and  C_27 
REMARK    3  A    between atoms: C_29  and  O_35 
REMARK    4  A    between atoms: C_32  and  O_33 
REMARK    5  A    between atoms: O_33  and  C_34 
REMARK    6  A    between atoms: O_35  and  C_36 
ROOT
ATOM      1  C   LIG d   1       2.987  -2.640  -9.764  0.00  0.00    -0.028 A 
ATOM      2  C   LIG d   1       3.573  -1.478 -10.220  0.00  0.00    -0.039 A 
ATOM      3  C   LIG d   1       4.658  -0.935  -9.555  0.00  0.00     0.042 A 
ATOM      4  C   LIG d   1       5.158  -1.562  -8.425  0.00  0.00    -0.036 A 
ATOM      5  C   LIG d   1       4.575  -2.723  -7.967  0.00  0.00     0.005 A 
ATOM      6  C   LIG d   1       3.480  -3.273  -8.626  0.00  0.00     0.042 A 
ATOM      7  N   LIG d   1       3.061  -4.438  -7.976  0.00  0.00    -0.283 N 
ATOM      8  C   LIG d   1       3.815  -4.715  -6.894  0.00  0.00     0.243 A 
ATOM      9  O   LIG d   1       3.686  -5.658  -6.143  0.00  0.00    -0.273 OA
ATOM     10  C   LIG d   1       4.859  -3.633  -6.807  0.00  0.00     0.138 A 
ATOM     11  C   LIG d   1       4.760  -2.889  -5.471  0.00  0.00     0.080 A 
ATOM     12  H   LIG d   1       3.767  -2.958  -5.027  0.00  0.00     0.043 H 
ATOM     13  C   LIG d   1       5.862  -3.526  -4.582  0.00  0.00     0.066 A 
ATOM     14  H   LIG d   1       5.468  -3.932  -3.650  0.00  0.00     0.042 H 
ATOM     15  C   LIG d   1       6.518  -4.605  -5.464  0.00  0.00     0.024 C 
ATOM     16  H   LIG d   1       6.144  -5.602  -5.232  0.00  0.00     0.047 H 
ATOM     17  N   LIG d   1       6.225  -4.183  -6.873  0.00  0.00    -0.281 N 
ATOM     18  C   LIG d   1       7.191  -3.095  -7.161  0.00  0.00     0.001 C 
ATOM     19  C   LIG d   1       8.496  -3.516  -6.457  0.00  0.00    -0.039 C 
ATOM     20  C   LIG d   1       8.049  -4.516  -5.322  0.00  0.00    -0.035 C 
ATOM     21  C   LIG d   1       6.830  -2.387  -4.356  0.00  0.00     0.232 A 
ATOM     22  O   LIG d   1       7.850  -2.453  -3.703  0.00  0.00    -0.274 OA
ATOM     23  N   LIG d   1       6.386  -1.295  -4.987  0.00  0.00    -0.206 N 
ATOM     24  C   LIG d   1       5.218  -1.458  -5.648  0.00  0.00     0.233 A 
ATOM     25  O   LIG d   1       4.630  -0.609  -6.282  0.00  0.00    -0.274 OA
ATOM     26 CL   LIG d   1       5.392   0.528 -10.134  0.00  0.00    -0.084 Cl
ATOM     27  H   LIG d   1       3.184  -0.989 -11.101  0.00  0.00     0.064 H 
ATOM     28  H   LIG d   1       6.004  -1.141  -7.904  0.00  0.00     0.064 H 
ATOM     29  H   LIG d   1       2.315  -4.983  -8.269  0.00  0.00     0.155 HD
ATOM     30  H   LIG d   1       7.351  -3.007  -8.236  0.00  0.00     0.043 H 
ATOM     31  H   LIG d   1       6.828  -2.151  -6.755  0.00  0.00     0.043 H 
ATOM     32  H   LIG d   1       9.158  -4.023  -7.159  0.00  0.00     0.028 H 
ATOM     33  H   LIG d   1       8.993  -2.644  -6.031  0.00  0.00     0.028 H 
ATOM     34  H   LIG d   1       8.315  -4.114  -4.344  0.00  0.00     0.028 H 
ATOM     35  H   LIG d   1       8.498  -5.500  -5.460  0.00  0.00     0.028 H 
ENDROOT
BRANCH  23  36
ATOM     36  C   LIG d   1       7.073  -0.072  -4.963  0.00  0.00     0.089 A 
ATOM     37  C   LIG d   1       6.937   0.784  -3.873  0.00  0.00     0.142 A 
ATOM     38  C   LIG d   1       7.621   1.989  -3.849  0.00  0.00    -0.015 A 
ATOM     39  C   LIG d   1       8.431   2.347  -4.909  0.00  0.00    -0.016 A 
ATOM     40  H   LIG d   1       7.519   2.650  -3.001  0.00  0.00     0.066 H 
ATOM     41  C   LIG d   1       8.565   1.498  -5.999  0.00  0.00     0.122 A 
ATOM     42  H   LIG d   1       8.960   3.288  -4.890  0.00  0.00     0.066 H 
ATOM     43  C   LIG d   1       7.887   0.290  -6.026  0.00  0.00     0.005 A 
ATOM     44  H   LIG d   1       7.992  -0.370  -6.875  0.00  0.00     0.067 H 
BRANCH  37  45
ATOM     45  O   LIG d   1       6.135   0.436  -2.830  0.00  0.00    -0.493 OA
BRANCH  45  46
ATOM     46  C   LIG d   1       4.937   1.192  -2.652  0.00  0.00     0.079 C 
ATOM     47  H   LIG d   1       4.119   0.709  -3.187  0.00  0.00     0.066 H 
ATOM     48  H   LIG d   1       4.695   1.247  -1.591  0.00  0.00     0.066 H 
ATOM     49  H   LIG d   1       5.081   2.200  -3.044  0.00  0.00     0.066 H 
ENDBRANCH  45  46
ENDBRANCH  37  45
BRANCH  41  50
ATOM     50  O   LIG d   1       9.363   1.853  -7.042  0.00  0.00    -0.495 OA
BRANCH  50  51
ATOM     51  C   LIG d   1       9.574   3.251  -7.251  0.00  0.00     0.079 C 
ATOM     52  H   LIG d   1      10.479   3.564  -6.730  0.00  0.00     0.066 H 
ATOM     53  H   LIG d   1       9.682   3.446  -8.319  0.00  0.00     0.066 H 
ATOM     54  H   LIG d   1       8.721   3.809  -6.865  0.00  0.00     0.066 H 
ENDBRANCH  50  51
ENDBRANCH  41  50
ENDBRANCH  23  36
BRANCH   1  55
ATOM     55  C   LIG d   1       1.805  -3.223 -10.496  0.00  0.00    -0.038 C 
ATOM     56  H   LIG d   1       1.462  -4.117  -9.977  0.00  0.00     0.028 H 
ATOM     57  H   LIG d   1       1.000  -2.489 -10.527  0.00  0.00     0.028 H 
ATOM     58  H   LIG d   1       2.101  -3.482 -11.512  0.00  0.00     0.028 H 
ENDBRANCH   1  55
TORSDOF 6
ENDMDL
MODEL 2
REMARK VINA RESULT:      -6.4      2.851      5.070
REMARK  6 active torsions:
REMARK  status: ('A' for Active; 'I' for Inactive)
REMARK    1  A    between atoms: C_1  and  C_2 
REMARK    2  A    between atoms: N_24  and  C_27 
REMARK    3  A    between atoms: C_29  and  O_35 
REMARK    4  A    between atoms: C_32  and  O_33 
REMARK    5  A    between atoms: O_33  and  C_34 
REMARK    6  A    between atoms: O_35  and  C_36 
ROOT
ATOM      1  C   LIG d   1       7.316  -6.730  -5.315  0.00  0.00    -0.028 A 
ATOM      2  C   LIG d   1       6.062  -6.707  -5.889  0.00  0.00    -0.039 A 
ATOM      3  C   LIG d   1       5.458  -5.502  -6.201  0.00  0.00     0.042 A 
ATOM      4  C   LIG d   1       6.116  -4.313  -5.935  0.00  0.00    -0.036 A 
ATOM      5  C   LIG d   1       7.368  -4.332  -5.362  0.00  0.00     0.005 A 
ATOM      6  C   LIG d   1       7.981  -5.538  -5.039  0.00  0.00     0.042 A 
ATOM      7  N   LIG d   1       9.234  -5.305  -4.466  0.00  0.00    -0.283 N 
ATOM      8  C   LIG d   1       9.514  -3.990  -4.374  0.00  0.00     0.243 A 
ATOM      9  O   LIG d   1      10.524  -3.494  -3.922  0.00  0.00    -0.273 OA
ATOM     10  C   LIG d   1       8.334  -3.256  -4.953  0.00  0.00     0.138 A 
ATOM     11  C   LIG d   1       7.717  -2.313  -3.914  0.00  0.00     0.080 A 
ATOM     12  H   LIG d   1       7.933  -2.620  -2.891  0.00  0.00     0.043 H 
ATOM     13  C   LIG d   1       8.298  -0.914  -4.257  0.00  0.00     0.066 A 
ATOM     14  H   LIG d   1       8.821  -0.458  -3.416  0.00  0.00     0.042 H 
ATOM     15  C   LIG d   1       9.221  -1.147  -5.468  0.00  0.00     0.024 C 
ATOM     16  H   LIG d   1      10.269  -1.204  -5.176  0.00  0.00     0.047 H 
ATOM     17  N   LIG d   1       8.720  -2.413  -6.098  0.00  0.00    -0.281 N 
ATOM     18  C   LIG d   1       7.511  -2.016  -6.859  0.00  0.00     0.001 C 
ATOM     19  C   LIG d   1       7.840  -0.628  -7.445  0.00  0.00    -0.039 C 
ATOM     20  C   LIG d   1       8.974  -0.046  -6.515  0.00  0.00    -0.035 C 
ATOM     21  C   LIG d   1       7.080  -0.125  -4.682  0.00  0.00     0.232 A 
ATOM     22  O   LIG d   1       7.086   1.034  -5.037  0.00  0.00    -0.274 OA
ATOM     23  N   LIG d   1       5.997  -0.904  -4.604  0.00  0.00    -0.206 N 
ATOM     24  C   LIG d   1       6.235  -2.164  -4.175  0.00  0.00     0.233 A 
ATOM     25  O   LIG d   1       5.407  -3.037  -4.024  0.00  0.00    -0.274 OA
ATOM     26 CL   LIG d   1       3.879  -5.480  -6.924  0.00  0.00    -0.084 Cl
ATOM     27  H   LIG d   1       5.549  -7.635  -6.098  0.00  0.00     0.064 H 
ATOM     28  H   LIG d   1       5.647  -3.371  -6.177  0.00  0.00     0.064 H 
ATOM     29  H   LIG d   1       9.834  -6.007  -4.169  0.00  0.00     0.155 HD
ATOM     30  H   LIG d   1       7.318  -2.728  -7.661  0.00  0.00     0.043 H 
ATOM     31  H   LIG d   1       6.650  -1.952  -6.195  0.00  0.00     0.043 H 
ATOM     32  H   LIG d   1       8.211  -0.726  -8.465  0.00  0.00     0.028 H 
ATOM     33  H   LIG d   1       6.956   0.010  -7.424  0.00  0.00     0.028 H 
ATOM     34  H   LIG d   1       8.627   0.866  -6.029  0.00  0.00     0.028 H 
ATOM     35  H   LIG d   1       9.887   0.151  -7.078  0.00  0.00     0.028 H 
ENDROOT
BRANCH  23  36
ATOM     36  C   LIG d   1       4.711  -0.452  -4.936  0.00  0.00     0.089 A 
ATOM     37  C   LIG d   1       3.833  -0.047  -3.934  0.00  0.00     0.142 A 
ATOM     38  C   LIG d   1       2.565   0.405  -4.265  0.00  0.00    -0.015 A 
ATOM     39  C   LIG d   1       2.168   0.445  -5.587  0.00  0.00    -0.016 A 
ATOM     40  H   LIG d   1       1.887   0.723  -3.488  0.00  0.00     0.066 H 
ATOM     41  C   LIG d   1       3.039   0.038  -6.588  0.00  0.00     0.122 A 
ATOM     42  H   LIG d   1       1.179   0.794  -5.842  0.00  0.00     0.066 H 
ATOM     43  C   LIG d   1       4.310  -0.410  -6.263  0.00  0.00     0.005 A 
ATOM     44  H   LIG d   1       4.986  -0.727  -7.043  0.00  0.00     0.067 H 
BRANCH  37  45
ATOM     45  O   LIG d   1       4.220  -0.092  -2.630  0.00  0.00    -0.493 OA
BRANCH  45  46
ATOM     46  C   LIG d   1       4.573   1.148  -2.016  0.00  0.00     0.079 C 
ATOM     47  H   LIG d   1       4.089   1.222  -1.041  0.00  0.00     0.066 H 
ATOM     48  H   LIG d   1       5.654   1.197  -1.889  0.00  0.00     0.066 H 
ATOM     49  H   LIG d   1       4.243   1.973  -2.647  0.00  0.00     0.066 H 
ENDBRANCH  45  46
ENDBRANCH  37  45
BRANCH  41  50
ATOM     50  O   LIG d   1       2.645   0.079  -7.889  0.00  0.00    -0.495 OA
BRANCH  50  51
ATOM     51  C   LIG d   1       2.862   1.304  -8.594  0.00  0.00     0.079 C 
ATOM     52  H   LIG d   1       3.164   1.085  -9.618  0.00  0.00     0.066 H 
ATOM     53  H   LIG d   1       1.939   1.885  -8.604  0.00  0.00     0.066 H 
ATOM     54  H   LIG d   1       3.646   1.875  -8.097  0.00  0.00     0.066 H 
ENDBRANCH  50  51
ENDBRANCH  41  50
ENDBRANCH  23  36
BRANCH   1  55
ATOM     55  C   LIG d   1       7.964  -8.048  -4.979  0.00  0.00    -0.038 C 
ATOM     56  H   LIG d   1       8.593  -7.930  -4.097  0.00  0.00     0.028 H 
ATOM     57  H   LIG d   1       7.193  -8.792  -4.778  0.00  0.00     0.028 H 
ATOM     58  H   LIG d   1       8.575  -8.377  -5.820  0.00  0.00     0.028 H 
ENDBRANCH   1  55
TORSDOF 6
ENDMDL
MODEL 3
REMARK VINA RESULT:      -6.3      2.585      6.162
REMARK  6 active torsions:
REMARK  status: ('A' for Active; 'I' for Inactive)
REMARK    1  A    between atoms: C_1  and  C_2 
REMARK    2  A    between atoms: N_24  and  C_27 
REMARK    3  A    between atoms: C_29  and  O_35 
REMARK    4  A    between atoms: C_32  and  O_33 
REMARK    5  A    between atoms: O_33  and  C_34 
REMARK    6  A    between atoms: O_35  and  C_36 
ROOT
ATOM      1  C   LIG d   1       4.503   0.215  -2.741  0.00  0.00    -0.028 A 
ATOM      2  C   LIG d   1       3.295   0.537  -3.325  0.00  0.00    -0.039 A 
ATOM      3  C   LIG d   1       2.983   0.067  -4.588  0.00  0.00     0.042 A 
ATOM      4  C   LIG d   1       3.889  -0.730  -5.270  0.00  0.00    -0.036 A 
ATOM      5  C   LIG d   1       5.095  -1.052  -4.690  0.00  0.00     0.005 A 
ATOM      6  C   LIG d   1       5.421  -0.580  -3.423  0.00  0.00     0.042 A 
ATOM      7  N   LIG d   1       6.690  -1.030  -3.051  0.00  0.00    -0.283 N 
ATOM      8  C   LIG d   1       7.260  -1.790  -4.007  0.00  0.00     0.243 A 
ATOM      9  O   LIG d   1       8.352  -2.315  -3.960  0.00  0.00    -0.273 OA
ATOM     10  C   LIG d   1       6.271  -1.872  -5.140  0.00  0.00     0.138 A 
ATOM     11  C   LIG d   1       6.879  -1.320  -6.433  0.00  0.00     0.080 A 
ATOM     12  H   LIG d   1       7.692  -0.618  -6.246  0.00  0.00     0.043 H 
ATOM     13  C   LIG d   1       7.340  -2.577  -7.220  0.00  0.00     0.066 A 
ATOM     14  H   LIG d   1       8.401  -2.551  -7.470  0.00  0.00     0.042 H 
ATOM     15  C   LIG d   1       6.974  -3.772  -6.321  0.00  0.00     0.024 C 
ATOM     16  H   LIG d   1       7.836  -4.144  -5.768  0.00  0.00     0.047 H 
ATOM     17  N   LIG d   1       5.881  -3.263  -5.428  0.00  0.00    -0.281 N 
ATOM     18  C   LIG d   1       4.657  -3.279  -6.264  0.00  0.00     0.001 C 
ATOM     19  C   LIG d   1       4.777  -4.547  -7.134  0.00  0.00    -0.039 C 
ATOM     20  C   LIG d   1       6.321  -4.872  -7.178  0.00  0.00    -0.035 C 
ATOM     21  C   LIG d   1       6.455  -2.564  -8.446  0.00  0.00     0.232 A 
ATOM     22  O   LIG d   1       6.484  -3.383  -9.340  0.00  0.00    -0.274 OA
ATOM     23  N   LIG d   1       5.635  -1.509  -8.391  0.00  0.00    -0.206 N 
ATOM     24  C   LIG d   1       5.789  -0.728  -7.299  0.00  0.00     0.233 A 
ATOM     25  O   LIG d   1       5.162   0.277  -7.044  0.00  0.00    -0.274 OA
ATOM     26 CL   LIG d   1       1.461   0.474  -5.318  0.00  0.00    -0.084 Cl
ATOM     27  H   LIG d   1       2.589   1.157  -2.793  0.00  0.00     0.064 H 
ATOM     28  H   LIG d   1       3.648  -1.098  -6.256  0.00  0.00     0.064 H 
ATOM     29  H   LIG d   1       7.113  -0.821  -2.203  0.00  0.00     0.155 HD
ATOM     30  H   LIG d   1       3.769  -3.335  -5.634  0.00  0.00     0.043 H 
ATOM     31  H   LIG d   1       4.618  -2.390  -6.894  0.00  0.00     0.043 H 
ATOM     32  H   LIG d   1       4.237  -5.374  -6.673  0.00  0.00     0.028 H 
ATOM     33  H   LIG d   1       4.393  -4.355  -8.136  0.00  0.00     0.028 H 
ATOM     34  H   LIG d   1       6.685  -4.817  -8.204  0.00  0.00     0.028 H 
ATOM     35  H   LIG d   1       6.532  -5.855  -6.755  0.00  0.00     0.028 H 
ENDROOT
BRANCH  23  36
ATOM     36  C   LIG d   1       4.692  -1.228  -9.392  0.00  0.00     0.089 A 
ATOM     37  C   LIG d   1       5.047  -0.444 -10.486  0.00  0.00     0.142 A 
ATOM     38  C   LIG d   1       4.115  -0.173 -11.475  0.00  0.00    -0.015 A 
ATOM     39  C   LIG d   1       2.831  -0.671 -11.372  0.00  0.00    -0.016 A 
ATOM     40  H   LIG d   1       4.393   0.431 -12.326  0.00  0.00     0.066 H 
ATOM     41  C   LIG d   1       2.472  -1.448 -10.279  0.00  0.00     0.122 A 
ATOM     42  H   LIG d   1       2.105  -0.455 -12.141  0.00  0.00     0.066 H 
ATOM     43  C   LIG d   1       3.402  -1.727  -9.290  0.00  0.00     0.005 A 
ATOM     44  H   LIG d   1       3.121  -2.332  -8.440  0.00  0.00     0.067 H 
BRANCH  37  45
ATOM     45  O   LIG d   1       6.310   0.053 -10.586  0.00  0.00    -0.493 OA
BRANCH  45  46
ATOM     46  C   LIG d   1       7.199  -0.613 -11.484  0.00  0.00     0.079 C 
ATOM     47  H   LIG d   1       7.924   0.101 -11.875  0.00  0.00     0.066 H 
ATOM     48  H   LIG d   1       7.722  -1.409 -10.953  0.00  0.00     0.066 H 
ATOM     49  H   LIG d   1       6.630  -1.041 -12.309  0.00  0.00     0.066 H 
ENDBRANCH  45  46
ENDBRANCH  37  45
BRANCH  41  50
ATOM     50  O   LIG d   1       1.207  -1.938 -10.180  0.00  0.00    -0.495 OA
BRANCH  50  51
ATOM     51  C   LIG d   1       1.013  -3.310 -10.532  0.00  0.00     0.079 C 
ATOM     52  H   LIG d   1       0.595  -3.372 -11.537  0.00  0.00     0.066 H 
ATOM     53  H   LIG d   1       1.971  -3.831 -10.503  0.00  0.00     0.066 H 
ATOM     54  H   LIG d   1       0.326  -3.773  -9.824  0.00  0.00     0.066 H 
ENDBRANCH  50  51
ENDBRANCH  41  50
ENDBRANCH  23  36
BRANCH   1  55
ATOM     55  C   LIG d   1       4.833   0.733  -1.365  0.00  0.00    -0.038 C 
ATOM     56  H   LIG d   1       3.939   0.706  -0.743  0.00  0.00     0.028 H 
ATOM     57  H   LIG d   1       5.606   0.109  -0.918  0.00  0.00     0.028 H 
ATOM     58  H   LIG d   1       5.193   1.760  -1.440  0.00  0.00     0.028 H 
ENDBRANCH   1  55
TORSDOF 6
ENDMDL
MODEL 4
REMARK VINA RESULT:      -6.0      2.494      4.687
REMARK  6 active torsions:
REMARK  status: ('A' for Active; 'I' for Inactive)
REMARK    1  A    between atoms: C_1  and  C_2 
REMARK    2  A    between atoms: N_24  and  C_27 
REMARK    3  A    between atoms: C_29  and  O_35 
REMARK    4  A    between atoms: C_32  and  O_33 
REMARK    5  A    between atoms: O_33  and  C_34 
REMARK    6  A    between atoms: O_35  and  C_36 
ROOT
ATOM      1  C   LIG d   1       2.956  -1.909  -9.327  0.00  0.00    -0.028 A 
ATOM      2  C   LIG d   1       3.614  -3.106  -9.522  0.00  0.00    -0.039 A 
ATOM      3  C   LIG d   1       4.477  -3.593  -8.558  0.00  0.00     0.042 A 
ATOM      4  C   LIG d   1       4.682  -2.875  -7.391  0.00  0.00    -0.036 A 
ATOM      5  C   LIG d   1       4.028  -1.681  -7.193  0.00  0.00     0.005 A 
ATOM      6  C   LIG d   1       3.162  -1.179  -8.159  0.00  0.00     0.042 A 
ATOM      7  N   LIG d   1       2.625   0.042  -7.740  0.00  0.00    -0.283 N 
ATOM      8  C   LIG d   1       3.085   0.409  -6.528  0.00  0.00     0.243 A 
ATOM      9  O   LIG d   1       2.793   1.415  -5.917  0.00  0.00    -0.273 OA
ATOM     10  C   LIG d   1       4.022  -0.678  -6.074  0.00  0.00     0.138 A 
ATOM     11  C   LIG d   1       5.424  -0.115  -5.816  0.00  0.00     0.080 A 
ATOM     12  H   LIG d   1       5.614   0.803  -6.373  0.00  0.00     0.043 H 
ATOM     13  C   LIG d   1       5.491   0.089  -4.278  0.00  0.00     0.066 A 
ATOM     14  H   LIG d   1       5.728   1.116  -4.001  0.00  0.00     0.042 H 
ATOM     15  C   LIG d   1       4.115  -0.362  -3.752  0.00  0.00     0.024 C 
ATOM     16  H   LIG d   1       3.457   0.484  -3.557  0.00  0.00     0.047 H 
ATOM     17  N   LIG d   1       3.583  -1.287  -4.806  0.00  0.00    -0.281 N 
ATOM     18  C   LIG d   1       4.293  -2.570  -4.592  0.00  0.00     0.001 C 
ATOM     19  C   LIG d   1       4.423  -2.710  -3.062  0.00  0.00    -0.039 C 
ATOM     20  C   LIG d   1       4.312  -1.239  -2.502  0.00  0.00    -0.035 C 
ATOM     21  C   LIG d   1       6.556  -0.891  -3.842  0.00  0.00     0.232 A 
ATOM     22  O   LIG d   1       6.928  -1.059  -2.700  0.00  0.00    -0.274 OA
ATOM     23  N   LIG d   1       7.024  -1.544  -4.911  0.00  0.00    -0.206 N 
ATOM     24  C   LIG d   1       6.461  -1.183  -6.087  0.00  0.00     0.233 A 
ATOM     25  O   LIG d   1       6.732  -1.635  -7.178  0.00  0.00    -0.274 OA
ATOM     26 CL   LIG d   1       5.302  -5.101  -8.808  0.00  0.00    -0.084 Cl
ATOM     27  H   LIG d   1       3.453  -3.666 -10.431  0.00  0.00     0.064 H 
ATOM     28  H   LIG d   1       5.357  -3.253  -6.636  0.00  0.00     0.064 H 
ATOM     29  H   LIG d   1       1.995   0.564  -8.261  0.00  0.00     0.155 HD
ATOM     30  H   LIG d   1       3.711  -3.397  -4.999  0.00  0.00     0.043 H 
ATOM     31  H   LIG d   1       5.279  -2.538  -5.055  0.00  0.00     0.043 H 
ATOM     32  H   LIG d   1       3.610  -3.320  -2.667  0.00  0.00     0.028 H 
ATOM     33  H   LIG d   1       5.387  -3.151  -2.804  0.00  0.00     0.028 H 
ATOM     34  H   LIG d   1       5.234  -0.964  -1.989  0.00  0.00     0.028 H 
ATOM     35  H   LIG d   1       3.460  -1.134  -1.830  0.00  0.00     0.028 H 
ENDROOT
BRANCH  23  36
ATOM     36  C   LIG d   1       8.025  -2.523  -4.825  0.00  0.00     0.089 A 
ATOM     37  C   LIG d   1       9.366  -2.162  -4.937  0.00  0.00     0.142 A 
ATOM     38  C   LIG d   1      10.353  -3.130  -4.845  0.00  0.00    -0.015 A 
ATOM     39  C   LIG d   1      10.009  -4.455  -4.654  0.00  0.00    -0.016 A 
ATOM     40  H   LIG d   1      11.392  -2.849  -4.927  0.00  0.00     0.066 H 
ATOM     41  C   LIG d   1       8.673  -4.818  -4.547  0.00  0.00     0.122 A 
ATOM     42  H   LIG d   1      10.779  -5.208  -4.587  0.00  0.00     0.066 H 
ATOM     43  C   LIG d   1       7.682  -3.853  -4.633  0.00  0.00     0.005 A 
ATOM     44  H   LIG d   1       6.643  -4.137  -4.550  0.00  0.00     0.067 H 
BRANCH  37  45
ATOM     45  O   LIG d   1       9.706  -0.859  -5.132  0.00  0.00    -0.493 OA
BRANCH  45  46
ATOM     46  C   LIG d   1      10.195  -0.503  -6.426  0.00  0.00     0.079 C 
ATOM     47  H   LIG d   1       9.567   0.281  -6.849  0.00  0.00     0.066 H 
ATOM     48  H   LIG d   1      11.220  -0.142  -6.340  0.00  0.00     0.066 H 
ATOM     49  H   LIG d   1      10.171  -1.378  -7.077  0.00  0.00     0.066 H 
ENDBRANCH  45  46
ENDBRANCH  37  45
BRANCH  41  50
ATOM     50  O   LIG d   1       8.337  -6.122  -4.358  0.00  0.00    -0.495 OA
BRANCH  50  51
ATOM     51  C   LIG d   1       9.210  -6.905  -3.540  0.00  0.00     0.079 C 
ATOM     52  H   LIG d   1       8.620  -7.481  -2.826  0.00  0.00     0.066 H 
ATOM     53  H   LIG d   1       9.785  -7.585  -4.169  0.00  0.00     0.066 H 
ATOM     54  H   LIG d   1       9.890  -6.246  -3.001  0.00  0.00     0.066 H 
ENDBRANCH  50  51
ENDBRANCH  41  50
ENDBRANCH  23  36
BRANCH   1  55
ATOM     55  C   LIG d   1       2.017  -1.387 -10.385  0.00  0.00    -0.038 C 
ATOM     56  H   LIG d   1       2.131  -0.307 -10.470  0.00  0.00     0.028 H 
ATOM     57  H   LIG d   1       2.252  -1.854 -11.341  0.00  0.00     0.028 H 
ATOM     58  H   LIG d   1       0.990  -1.624 -10.107  0.00  0.00     0.028 H 
ENDBRANCH   1  55
TORSDOF 6
ENDMDL
MODEL 5
REMARK VINA RESULT:      -6.0      2.772      4.736
REMARK  6 active torsions:
REMARK  status: ('A' for Active; 'I' for Inactive)
REMARK    1  A    between atoms: C_1  and  C_2 
REMARK    2  A    between atoms: N_24  and  C_27 
REMARK    3  A    between atoms: C_29  and  O_35 
REMARK    4  A    between atoms: C_32  and  O_33 
REMARK    5  A    between atoms: O_33  and  C_34 
REMARK    6  A    between atoms: O_35  and  C_36 
ROOT
ATOM      1  C   LIG d   1       8.469  -6.158  -5.117  0.00  0.00    -0.028 A 
ATOM      2  C   LIG d   1       9.601  -5.439  -4.789  0.00  0.00    -0.039 A 
ATOM      3  C   LIG d   1       9.520  -4.078  -4.557  0.00  0.00     0.042 A 
ATOM      4  C   LIG d   1       8.298  -3.434  -4.654  0.00  0.00    -0.036 A 
ATOM      5  C   LIG d   1       7.167  -4.147  -4.981  0.00  0.00     0.005 A 
ATOM      6  C   LIG d   1       7.238  -5.516  -5.222  0.00  0.00     0.042 A 
ATOM      7  N   LIG d   1       5.973  -6.017  -5.541  0.00  0.00    -0.283 N 
ATOM      8  C   LIG d   1       5.030  -5.055  -5.535  0.00  0.00     0.243 A 
ATOM      9  O   LIG d   1       3.849  -5.197  -5.771  0.00  0.00    -0.273 OA
ATOM     10  C   LIG d   1       5.724  -3.771  -5.165  0.00  0.00     0.138 A 
ATOM     11  C   LIG d   1       5.553  -2.722  -6.269  0.00  0.00     0.080 A 
ATOM     12  H   LIG d   1       5.355  -3.170  -7.243  0.00  0.00     0.043 H 
ATOM     13  C   LIG d   1       4.393  -1.816  -5.776  0.00  0.00     0.066 A 
ATOM     14  H   LIG d   1       3.569  -1.764  -6.488  0.00  0.00     0.042 H 
ATOM     15  C   LIG d   1       3.964  -2.411  -4.422  0.00  0.00     0.024 C 
ATOM     16  H   LIG d   1       3.072  -3.030  -4.513  0.00  0.00     0.047 H 
ATOM     17  N   LIG d   1       5.161  -3.176  -3.940  0.00  0.00    -0.281 N 
ATOM     18  C   LIG d   1       6.090  -2.150  -3.407  0.00  0.00     0.001 C 
ATOM     19  C   LIG d   1       5.187  -1.103  -2.724  0.00  0.00    -0.039 C 
ATOM     20  C   LIG d   1       3.773  -1.271  -3.404  0.00  0.00    -0.035 C 
ATOM     21  C   LIG d   1       5.062  -0.477  -5.563  0.00  0.00     0.232 A 
ATOM     22  O   LIG d   1       4.507   0.529  -5.175  0.00  0.00    -0.274 OA
ATOM     23  N   LIG d   1       6.359  -0.575  -5.869  0.00  0.00    -0.206 N 
ATOM     24  C   LIG d   1       6.752  -1.800  -6.288  0.00  0.00     0.233 A 
ATOM     25  O   LIG d   1       7.873  -2.116  -6.621  0.00  0.00    -0.274 OA
ATOM     26 CL   LIG d   1      10.947  -3.179  -4.144  0.00  0.00    -0.084 Cl
ATOM     27  H   LIG d   1      10.553  -5.942  -4.712  0.00  0.00     0.064 H 
ATOM     28  H   LIG d   1       8.232  -2.371  -4.474  0.00  0.00     0.064 H 
ATOM     29  H   LIG d   1       5.794  -6.948  -5.742  0.00  0.00     0.155 HD
ATOM     30  H   LIG d   1       6.769  -2.596  -2.681  0.00  0.00     0.043 H 
ATOM     31  H   LIG d   1       6.653  -1.692  -4.220  0.00  0.00     0.043 H 
ATOM     32  H   LIG d   1       5.111  -1.308  -1.656  0.00  0.00     0.028 H 
ATOM     33  H   LIG d   1       5.580  -0.100  -2.891  0.00  0.00     0.028 H 
ATOM     34  H   LIG d   1       3.493  -0.351  -3.916  0.00  0.00     0.028 H 
ATOM     35  H   LIG d   1       3.011  -1.543  -2.673  0.00  0.00     0.028 H 
ENDROOT
BRANCH  23  36
ATOM     36  C   LIG d   1       7.247   0.507  -5.771  0.00  0.00     0.089 A 
ATOM     37  C   LIG d   1       7.639   1.195  -6.917  0.00  0.00     0.142 A 
ATOM     38  C   LIG d   1       8.510   2.267  -6.816  0.00  0.00    -0.015 A 
ATOM     39  C   LIG d   1       8.999   2.649  -5.581  0.00  0.00    -0.016 A 
ATOM     40  H   LIG d   1       8.809   2.804  -7.704  0.00  0.00     0.066 H 
ATOM     41  C   LIG d   1       8.615   1.962  -4.438  0.00  0.00     0.122 A 
ATOM     42  H   LIG d   1       9.682   3.482  -5.506  0.00  0.00     0.066 H 
ATOM     43  C   LIG d   1       7.739   0.892  -4.533  0.00  0.00     0.005 A 
ATOM     44  H   LIG d   1       7.441   0.358  -3.642  0.00  0.00     0.067 H 
BRANCH  37  45
ATOM     45  O   LIG d   1       7.162   0.817  -8.134  0.00  0.00    -0.493 OA
BRANCH  45  46
ATOM     46  C   LIG d   1       6.344   1.757  -8.830  0.00  0.00     0.079 C 
ATOM     47  H   LIG d   1       5.541   2.096  -8.176  0.00  0.00     0.066 H 
ATOM     48  H   LIG d   1       6.949   2.611  -9.135  0.00  0.00     0.066 H 
ATOM     49  H   LIG d   1       5.916   1.283  -9.714  0.00  0.00     0.066 H 
ENDBRANCH  45  46
ENDBRANCH  37  45
BRANCH  41  50
ATOM     50  O   LIG d   1       9.098   2.340  -3.224  0.00  0.00    -0.495 OA
BRANCH  50  51
ATOM     51  C   LIG d   1       9.771   3.598  -3.157  0.00  0.00     0.079 C 
ATOM     52  H   LIG d   1       9.762   4.069  -4.141  0.00  0.00     0.066 H 
ATOM     53  H   LIG d   1       9.263   4.245  -2.441  0.00  0.00     0.066 H 
ATOM     54  H   LIG d   1      10.802   3.443  -2.839  0.00  0.00     0.066 H 
ENDBRANCH  50  51
ENDBRANCH  41  50
ENDBRANCH  23  36
BRANCH   1  55
ATOM     55  C   LIG d   1       8.568  -7.641  -5.368  0.00  0.00    -0.038 C 
ATOM     56  H   LIG d   1       8.955  -8.135  -4.478  0.00  0.00     0.028 H 
ATOM     57  H   LIG d   1       7.580  -8.036  -5.604  0.00  0.00     0.028 H 
ATOM     58  H   LIG d   1       9.242  -7.822  -6.207  0.00  0.00     0.028 H 
ENDBRANCH   1  55
TORSDOF 6
ENDMDL
MODEL 6
REMARK VINA RESULT:      -6.0      2.386      5.794
REMARK  6 active torsions:
REMARK  status: ('A' for Active; 'I' for Inactive)
REMARK    1  A    between atoms: C_1  and  C_2 
REMARK    2  A    between atoms: N_24  and  C_27 
REMARK    3  A    between atoms: C_29  and  O_35 
REMARK    4  A    between atoms: C_32  and  O_33 
REMARK    5  A    between atoms: O_33  and  C_34 
REMARK    6  A    between atoms: O_35  and  C_36 
ROOT
ATOM      1  C   LIG d   1      10.993  -0.915  -6.429  0.00  0.00    -0.028 A 
ATOM      2  C   LIG d   1      10.585  -0.001  -7.379  0.00  0.00    -0.039 A 
ATOM      3  C   LIG d   1       9.249   0.339  -7.493  0.00  0.00     0.042 A 
ATOM      4  C   LIG d   1       8.316  -0.242  -6.649  0.00  0.00    -0.036 A 
ATOM      5  C   LIG d   1       8.720  -1.154  -5.701  0.00  0.00     0.005 A 
ATOM      6  C   LIG d   1      10.060  -1.507  -5.582  0.00  0.00     0.042 A 
ATOM      7  N   LIG d   1      10.224  -2.448  -4.562  0.00  0.00    -0.283 N 
ATOM      8  C   LIG d   1       9.055  -2.766  -3.972  0.00  0.00     0.243 A 
ATOM      9  O   LIG d   1       8.892  -3.550  -3.061  0.00  0.00    -0.273 OA
ATOM     10  C   LIG d   1       7.990  -1.950  -4.655  0.00  0.00     0.138 A 
ATOM     11  C   LIG d   1       6.926  -2.858  -5.281  0.00  0.00     0.080 A 
ATOM     12  H   LIG d   1       7.303  -3.858  -5.494  0.00  0.00     0.043 H 
ATOM     13  C   LIG d   1       5.759  -2.861  -4.256  0.00  0.00     0.066 A 
ATOM     14  H   LIG d   1       5.496  -3.865  -3.922  0.00  0.00     0.042 H 
ATOM     15  C   LIG d   1       6.234  -1.961  -3.101  0.00  0.00     0.024 C 
ATOM     16  H   LIG d   1       6.608  -2.542  -2.259  0.00  0.00     0.047 H 
ATOM     17  N   LIG d   1       7.279  -1.073  -3.708  0.00  0.00    -0.281 N 
ATOM     18  C   LIG d   1       6.524  -0.036  -4.453  0.00  0.00     0.001 C 
ATOM     19  C   LIG d   1       5.287   0.266  -3.583  0.00  0.00    -0.039 C 
ATOM     20  C   LIG d   1       5.089  -1.018  -2.687  0.00  0.00    -0.035 C 
ATOM     21  C   LIG d   1       4.633  -2.186  -5.007  0.00  0.00     0.232 A 
ATOM     22  O   LIG d   1       3.522  -1.981  -4.567  0.00  0.00    -0.274 OA
ATOM     23  N   LIG d   1       5.054  -1.851  -6.231  0.00  0.00    -0.206 N 
ATOM     24  C   LIG d   1       6.336  -2.187  -6.502  0.00  0.00     0.233 A 
ATOM     25  O   LIG d   1       6.923  -1.987  -7.543  0.00  0.00    -0.274 OA
ATOM     26 CL   LIG d   1       8.741   1.490  -8.689  0.00  0.00    -0.084 Cl
ATOM     27  H   LIG d   1      11.312   0.453  -8.036  0.00  0.00     0.064 H 
ATOM     28  H   LIG d   1       7.272   0.021  -6.736  0.00  0.00     0.064 H 
ATOM     29  H   LIG d   1      11.079  -2.829  -4.307  0.00  0.00     0.155 HD
ATOM     30  H   LIG d   1       7.131   0.861  -4.572  0.00  0.00     0.043 H 
ATOM     31  H   LIG d   1       6.218  -0.419  -5.427  0.00  0.00     0.043 H 
ATOM     32  H   LIG d   1       5.472   1.134  -2.951  0.00  0.00     0.028 H 
ATOM     33  H   LIG d   1       4.415   0.436  -4.215  0.00  0.00     0.028 H 
ATOM     34  H   LIG d   1       4.125  -1.478  -2.903  0.00  0.00     0.028 H 
ATOM     35  H   LIG d   1       5.164  -0.777  -1.627  0.00  0.00     0.028 H 
ENDROOT
BRANCH  23  36
ATOM     36  C   LIG d   1       4.231  -1.205  -7.167  0.00  0.00     0.089 A 
ATOM     37  C   LIG d   1       3.543  -1.949  -8.122  0.00  0.00     0.142 A 
ATOM     38  C   LIG d   1       2.726  -1.310  -9.040  0.00  0.00    -0.015 A 
ATOM     39  C   LIG d   1       2.602   0.066  -9.017  0.00  0.00    -0.016 A 
ATOM     40  H   LIG d   1       2.189  -1.888  -9.777  0.00  0.00     0.066 H 
ATOM     41  C   LIG d   1       3.291   0.810  -8.070  0.00  0.00     0.122 A 
ATOM     42  H   LIG d   1       1.969   0.562  -9.737  0.00  0.00     0.066 H 
ATOM     43  C   LIG d   1       4.105   0.175  -7.145  0.00  0.00     0.005 A 
ATOM     44  H   LIG d   1       4.641   0.756  -6.409  0.00  0.00     0.067 H 
BRANCH  37  45
ATOM     45  O   LIG d   1       3.669  -3.304  -8.150  0.00  0.00    -0.493 OA
BRANCH  45  46
ATOM     46  C   LIG d   1       4.330  -3.870  -9.282  0.00  0.00     0.079 C 
ATOM     47  H   LIG d   1       5.400  -3.936  -9.083  0.00  0.00     0.066 H 
ATOM     48  H   LIG d   1       3.934  -4.868  -9.473  0.00  0.00     0.066 H 
ATOM     49  H   LIG d   1       4.161  -3.239 -10.154  0.00  0.00     0.066 H 
ENDBRANCH  45  46
ENDBRANCH  37  45
BRANCH  41  50
ATOM     50  O   LIG d   1       3.167   2.165  -8.049  0.00  0.00    -0.495 OA
BRANCH  50  51
ATOM     51  C   LIG d   1       3.862   2.895  -9.062  0.00  0.00     0.079 C 
ATOM     52  H   LIG d   1       4.912   2.599  -9.068  0.00  0.00     0.066 H 
ATOM     53  H   LIG d   1       3.418   2.681 -10.034  0.00  0.00     0.066 H 
ATOM     54  H   LIG d   1       3.788   3.963  -8.856  0.00  0.00     0.066 H 
ENDBRANCH  50  51
ENDBRANCH  41  50
ENDBRANCH  23  36
BRANCH   1  55
ATOM     55  C   LIG d   1      12.451  -1.278  -6.314  0.00  0.00    -0.038 C 
ATOM     56  H   LIG d   1      12.911  -1.253  -7.302  0.00  0.00     0.028 H 
ATOM     57  H   LIG d   1      12.953  -0.564  -5.661  0.00  0.00     0.028 H 
ATOM     58  H   LIG d   1      12.543  -2.280  -5.895  0.00  0.00     0.028 H 
ENDBRANCH   1  55
TORSDOF 6
ENDMDL
MODEL 7
REMARK VINA RESULT:      -5.8      2.706      5.837
REMARK  6 active torsions:
REMARK  status: ('A' for Active; 'I' for Inactive)
REMARK    1  A    between atoms: C_1  and  C_2 
REMARK    2  A    between atoms: N_24  and  C_27 
REMARK    3  A    between atoms: C_29  and  O_35 
REMARK    4  A    between atoms: C_32  and  O_33 
REMARK    5  A    between atoms: O_33  and  C_34 
REMARK    6  A    between atoms: O_35  and  C_36 
ROOT
ATOM      1  C   LIG d   1      11.062   1.112  -6.516  0.00  0.00    -0.028 A 
ATOM      2  C   LIG d   1      10.505   1.791  -5.452  0.00  0.00    -0.039 A 
ATOM      3  C   LIG d   1       9.296   1.384  -4.919  0.00  0.00     0.042 A 
ATOM      4  C   LIG d   1       8.641   0.288  -5.457  0.00  0.00    -0.036 A 
ATOM      5  C   LIG d   1       9.193  -0.393  -6.518  0.00  0.00     0.005 A 
ATOM      6  C   LIG d   1      10.407   0.013  -7.065  0.00  0.00     0.042 A 
ATOM      7  N   LIG d   1      10.760  -0.821  -8.130  0.00  0.00    -0.283 N 
ATOM      8  C   LIG d   1       9.842  -1.784  -8.347  0.00  0.00     0.243 A 
ATOM      9  O   LIG d   1       9.884  -2.646  -9.198  0.00  0.00    -0.273 OA
ATOM     10  C   LIG d   1       8.760  -1.589  -7.317  0.00  0.00     0.138 A 
ATOM     11  C   LIG d   1       7.404  -1.354  -7.991  0.00  0.00     0.080 A 
ATOM     12  H   LIG d   1       7.504  -0.961  -9.004  0.00  0.00     0.043 H 
ATOM     13  C   LIG d   1       6.698  -2.736  -7.949  0.00  0.00     0.066 A 
ATOM     14  H   LIG d   1       6.404  -3.088  -8.938  0.00  0.00     0.042 H 
ATOM     15  C   LIG d   1       7.700  -3.680  -7.260  0.00  0.00     0.024 C 
ATOM     16  H   LIG d   1       8.244  -4.291  -7.980  0.00  0.00     0.047 H 
ATOM     17  N   LIG d   1       8.595  -2.778  -6.463  0.00  0.00    -0.281 N 
ATOM     18  C   LIG d   1       7.814  -2.424  -5.254  0.00  0.00     0.001 C 
ATOM     19  C   LIG d   1       7.040  -3.705  -4.883  0.00  0.00    -0.039 C 
ATOM     20  C   LIG d   1       6.958  -4.539  -6.220  0.00  0.00    -0.035 C 
ATOM     21  C   LIG d   1       5.512  -2.493  -7.042  0.00  0.00     0.232 A 
ATOM     22  O   LIG d   1       4.683  -3.324  -6.736  0.00  0.00    -0.274 OA
ATOM     23  N   LIG d   1       5.519  -1.221  -6.632  0.00  0.00    -0.206 N 
ATOM     24  C   LIG d   1       6.542  -0.477  -7.111  0.00  0.00     0.233 A 
ATOM     25  O   LIG d   1       6.744   0.695  -6.878  0.00  0.00    -0.274 OA
ATOM     26 CL   LIG d   1       8.600   2.242  -3.580  0.00  0.00    -0.084 Cl
ATOM     27  H   LIG d   1      11.016   2.645  -5.033  0.00  0.00     0.064 H 
ATOM     28  H   LIG d   1       7.696  -0.033  -5.043  0.00  0.00     0.064 H 
ATOM     29  H   LIG d   1      11.571  -0.720  -8.652  0.00  0.00     0.155 HD
ATOM     30  H   LIG d   1       8.482  -2.137  -4.442  0.00  0.00     0.043 H 
ATOM     31  H   LIG d   1       7.120  -1.614  -5.477  0.00  0.00     0.043 H 
ATOM     32  H   LIG d   1       7.584  -4.270  -4.127  0.00  0.00     0.028 H 
ATOM     33  H   LIG d   1       6.043  -3.452  -4.522  0.00  0.00     0.028 H 
ATOM     34  H   LIG d   1       5.917  -4.672  -6.514  0.00  0.00     0.028 H 
ATOM     35  H   LIG d   1       7.446  -5.508  -6.114  0.00  0.00     0.028 H 
ENDROOT
BRANCH  23  36
ATOM     36  C   LIG d   1       4.540  -0.693  -5.777  0.00  0.00     0.089 A 
ATOM     37  C   LIG d   1       3.385  -0.121  -6.305  0.00  0.00     0.142 A 
ATOM     38  C   LIG d   1       2.418   0.394  -5.458  0.00  0.00    -0.015 A 
ATOM     39  C   LIG d   1       2.601   0.349  -4.089  0.00  0.00    -0.016 A 
ATOM     40  H   LIG d   1       1.521   0.832  -5.868  0.00  0.00     0.066 H 
ATOM     41  C   LIG d   1       3.753  -0.216  -3.560  0.00  0.00     0.122 A 
ATOM     42  H   LIG d   1       1.847   0.755  -3.431  0.00  0.00     0.066 H 
ATOM     43  C   LIG d   1       4.721  -0.737  -4.403  0.00  0.00     0.005 A 
ATOM     44  H   LIG d   1       5.618  -1.176  -3.989  0.00  0.00     0.067 H 
BRANCH  37  45
ATOM     45  O   LIG d   1       3.206  -0.071  -7.653  0.00  0.00    -0.493 OA
BRANCH  45  46
ATOM     46  C   LIG d   1       3.113   1.224  -8.247  0.00  0.00     0.079 C 
ATOM     47  H   LIG d   1       3.364   1.983  -7.507  0.00  0.00     0.066 H 
ATOM     48  H   LIG d   1       3.806   1.290  -9.086  0.00  0.00     0.066 H 
ATOM     49  H   LIG d   1       2.096   1.388  -8.604  0.00  0.00     0.066 H 
ENDBRANCH  45  46
ENDBRANCH  37  45
BRANCH  41  50
ATOM     50  O   LIG d   1       3.930  -0.259  -2.212  0.00  0.00    -0.495 OA
BRANCH  50  51
ATOM     51  C   LIG d   1       4.655   0.821  -1.619  0.00  0.00     0.079 C 
ATOM     52  H   LIG d   1       5.247   1.325  -2.383  0.00  0.00     0.066 H 
ATOM     53  H   LIG d   1       3.954   1.530  -1.176  0.00  0.00     0.066 H 
ATOM     54  H   LIG d   1       5.317   0.433  -0.845  0.00  0.00     0.066 H 
ENDBRANCH  50  51
ENDBRANCH  41  50
ENDBRANCH  23  36
BRANCH   1  55
ATOM     55  C   LIG d   1      12.380   1.565  -7.090  0.00  0.00    -0.038 C 
ATOM     56  H   LIG d   1      12.253   1.812  -8.143  0.00  0.00     0.028 H 
ATOM     57  H   LIG d   1      12.728   2.445  -6.549  0.00  0.00     0.028 H 
ATOM     58  H   LIG d   1      13.113   0.764  -6.990  0.00  0.00     0.028 H 
ENDBRANCH   1  55
TORSDOF 6
ENDMDL
MODEL 8
REMARK VINA RESULT:      -5.7      9.564     12.229
REMARK  6 active torsions:
REMARK  status: ('A' for Active; 'I' for Inactive)
REMARK    1  A    between atoms: C_1  and  C_2 
REMARK    2  A    between atoms: N_24  and  C_27 
REMARK    3  A    between atoms: C_29  and  O_35 
REMARK    4  A    between atoms: C_32  and  O_33 
REMARK    5  A    between atoms: O_33  and  C_34 
REMARK    6  A    between atoms: O_35  and  C_36 
ROOT
ATOM      1  C   LIG d   1      11.412  11.910  -7.301  0.00  0.00    -0.028 A 
ATOM      2  C   LIG d   1      12.373  12.212  -6.359  0.00  0.00    -0.039 A 
ATOM      3  C   LIG d   1      12.679  11.309  -5.357  0.00  0.00     0.042 A 
ATOM      4  C   LIG d   1      12.015  10.094  -5.300  0.00  0.00    -0.036 A 
ATOM      5  C   LIG d   1      11.055   9.788  -6.238  0.00  0.00     0.005 A 
ATOM      6  C   LIG d   1      10.737  10.693  -7.246  0.00  0.00     0.042 A 
ATOM      7  N   LIG d   1       9.736  10.168  -8.068  0.00  0.00    -0.283 N 
ATOM      8  C   LIG d   1       9.345   8.941  -7.671  0.00  0.00     0.243 A 
ATOM      9  O   LIG d   1       8.498   8.247  -8.192  0.00  0.00    -0.273 OA
ATOM     10  C   LIG d   1      10.171   8.594  -6.461  0.00  0.00     0.138 A 
ATOM     11  C   LIG d   1       9.274   8.324  -5.248  0.00  0.00     0.080 A 
ATOM     12  H   LIG d   1       8.302   8.811  -5.332  0.00  0.00     0.043 H 
ATOM     13  C   LIG d   1       9.168   6.777  -5.173  0.00  0.00     0.066 A 
ATOM     14  H   LIG d   1       8.136   6.425  -5.205  0.00  0.00     0.042 H 
ATOM     15  C   LIG d   1      10.004   6.257  -6.357  0.00  0.00     0.024 C 
ATOM     16  H   LIG d   1       9.380   5.982  -7.207  0.00  0.00     0.047 H 
ATOM     17  N   LIG d   1      10.962   7.369  -6.670  0.00  0.00    -0.281 N 
ATOM     18  C   LIG d   1      12.021   7.272  -5.637  0.00  0.00     0.001 C 
ATOM     19  C   LIG d   1      12.228   5.761  -5.410  0.00  0.00    -0.039 C 
ATOM     20  C   LIG d   1      10.883   5.085  -5.883  0.00  0.00    -0.035 C 
ATOM     21  C   LIG d   1       9.856   6.443  -3.869  0.00  0.00     0.232 A 
ATOM     22  O   LIG d   1       9.997   5.326  -3.418  0.00  0.00    -0.274 OA
ATOM     23  N   LIG d   1      10.284   7.570  -3.291  0.00  0.00    -0.206 N 
ATOM     24  C   LIG d   1      10.005   8.701  -3.979  0.00  0.00     0.233 A 
ATOM     25  O   LIG d   1      10.291   9.830  -3.644  0.00  0.00    -0.274 OA
ATOM     26 CL   LIG d   1      13.890  11.695  -4.174  0.00  0.00    -0.084 Cl
ATOM     27  H   LIG d   1      12.892  13.159  -6.404  0.00  0.00     0.064 H 
ATOM     28  H   LIG d   1      12.251   9.386  -4.518  0.00  0.00     0.064 H 
ATOM     29  H   LIG d   1       9.366  10.631  -8.835  0.00  0.00     0.155 HD
ATOM     30  H   LIG d   1      12.943   7.730  -5.996  0.00  0.00     0.043 H 
ATOM     31  H   LIG d   1      11.695   7.752  -4.715  0.00  0.00     0.043 H 
ATOM     32  H   LIG d   1      13.058   5.397  -6.015  0.00  0.00     0.028 H 
ATOM     33  H   LIG d   1      12.412   5.560  -4.355  0.00  0.00     0.028 H 
ATOM     34  H   LIG d   1      10.408   4.572  -5.046  0.00  0.00     0.028 H 
ATOM     35  H   LIG d   1      11.055   4.387  -6.703  0.00  0.00     0.028 H 
ENDROOT
BRANCH  23  36
ATOM     36  C   LIG d   1      10.963   7.583  -2.064  0.00  0.00     0.089 A 
ATOM     37  C   LIG d   1      10.261   7.789  -0.879  0.00  0.00     0.142 A 
ATOM     38  C   LIG d   1      10.934   7.796   0.332  0.00  0.00    -0.015 A 
ATOM     39  C   LIG d   1      12.303   7.608   0.365  0.00  0.00    -0.016 A 
ATOM     40  H   LIG d   1      10.389   7.950   1.251  0.00  0.00     0.066 H 
ATOM     41  C   LIG d   1      13.006   7.408  -0.814  0.00  0.00     0.122 A 
ATOM     42  H   LIG d   1      12.826   7.618   1.310  0.00  0.00     0.066 H 
ATOM     43  C   LIG d   1      12.337   7.395  -2.028  0.00  0.00     0.005 A 
ATOM     44  H   LIG d   1      12.885   7.240  -2.945  0.00  0.00     0.067 H 
BRANCH  37  45
ATOM     45  O   LIG d   1       8.914   7.980  -0.910  0.00  0.00    -0.493 OA
BRANCH  45  46
ATOM     46  C   LIG d   1       8.439   9.296  -0.623  0.00  0.00     0.079 C 
ATOM     47  H   LIG d   1       9.276   9.930  -0.332  0.00  0.00     0.066 H 
ATOM     48  H   LIG d   1       7.960   9.710  -1.510  0.00  0.00     0.066 H 
ATOM     49  H   LIG d   1       7.717   9.252   0.193  0.00  0.00     0.066 H 
ENDBRANCH  45  46
ENDBRANCH  37  45
BRANCH  41  50
ATOM     50  O   LIG d   1      14.353   7.223  -0.779  0.00  0.00    -0.495 OA
BRANCH  50  51
ATOM     51  C   LIG d   1      14.821   5.875  -0.708  0.00  0.00     0.079 C 
ATOM     52  H   LIG d   1      15.354   5.626  -1.627  0.00  0.00     0.066 H 
ATOM     53  H   LIG d   1      15.495   5.768   0.143  0.00  0.00     0.066 H 
ATOM     54  H   LIG d   1      13.972   5.201  -0.587  0.00  0.00     0.066 H 
ENDBRANCH  50  51
ENDBRANCH  41  50
ENDBRANCH  23  36
BRANCH   1  55
ATOM     55  C   LIG d   1      11.087  12.902  -8.388  0.00  0.00    -0.038 C 
ATOM     56  H   LIG d   1      10.184  13.450  -8.121  0.00  0.00     0.028 H 
ATOM     57  H   LIG d   1      11.916  13.600  -8.502  0.00  0.00     0.028 H 
ATOM     58  H   LIG d   1      10.926  12.371  -9.326  0.00  0.00     0.028 H 
ENDBRANCH   1  55
TORSDOF 6
ENDMDL
MODEL 9
REMARK VINA RESULT:      -5.7      8.744     12.449
REMARK  6 active torsions:
REMARK  status: ('A' for Active; 'I' for Inactive)
REMARK    1  A    between atoms: C_1  and  C_2 
REMARK    2  A    between atoms: N_24  and  C_27 
REMARK    3  A    between atoms: C_29  and  O_35 
REMARK    4  A    between atoms: C_32  and  O_33 
REMARK    5  A    between atoms: O_33  and  C_34 
REMARK    6  A    between atoms: O_35  and  C_36 
ROOT
ATOM      1  C   LIG d   1      10.933   3.903  -3.451  0.00  0.00    -0.028 A 
ATOM      2  C   LIG d   1      11.240   4.210  -4.761  0.00  0.00    -0.039 A 
ATOM      3  C   LIG d   1      11.537   5.511  -5.122  0.00  0.00     0.042 A 
ATOM      4  C   LIG d   1      11.527   6.511  -4.164  0.00  0.00    -0.036 A 
ATOM      5  C   LIG d   1      11.222   6.209  -2.856  0.00  0.00     0.005 A 
ATOM      6  C   LIG d   1      10.916   4.904  -2.483  0.00  0.00     0.042 A 
ATOM      7  N   LIG d   1      10.635   4.846  -1.115  0.00  0.00    -0.283 N 
ATOM      8  C   LIG d   1      10.729   6.053  -0.525  0.00  0.00     0.243 A 
ATOM      9  O   LIG d   1      10.543   6.304   0.646  0.00  0.00    -0.273 OA
ATOM     10  C   LIG d   1      11.124   7.030  -1.601  0.00  0.00     0.138 A 
ATOM     11  C   LIG d   1      10.078   8.142  -1.737  0.00  0.00     0.080 A 
ATOM     12  H   LIG d   1       9.095   7.836  -1.377  0.00  0.00     0.043 H 
ATOM     13  C   LIG d   1      10.666   9.336  -0.938  0.00  0.00     0.066 A 
ATOM     14  H   LIG d   1       9.997   9.686  -0.151  0.00  0.00     0.042 H 
ATOM     15  C   LIG d   1      12.011   8.829  -0.385  0.00  0.00     0.024 C 
ATOM     16  H   LIG d   1      11.934   8.527   0.659  0.00  0.00     0.047 H 
ATOM     17  N   LIG d   1      12.400   7.700  -1.293  0.00  0.00    -0.281 N 
ATOM     18  C   LIG d   1      12.935   8.349  -2.514  0.00  0.00     0.001 C 
ATOM     19  C   LIG d   1      13.706   9.585  -2.010  0.00  0.00    -0.039 C 
ATOM     20  C   LIG d   1      13.088   9.909  -0.595  0.00  0.00    -0.035 C 
ATOM     21  C   LIG d   1      10.908  10.383  -2.002  0.00  0.00     0.232 A 
ATOM     22  O   LIG d   1      11.368  11.487  -1.807  0.00  0.00    -0.274 OA
ATOM     23  N   LIG d   1      10.537   9.900  -3.193  0.00  0.00    -0.206 N 
ATOM     24  C   LIG d   1      10.045   8.640  -3.165  0.00  0.00     0.233 A 
ATOM     25  O   LIG d   1       9.645   8.007  -4.118  0.00  0.00    -0.274 OA
ATOM     26 CL   LIG d   1      11.922   5.891  -6.772  0.00  0.00    -0.084 Cl
ATOM     27  H   LIG d   1      11.248   3.429  -5.508  0.00  0.00     0.064 H 
ATOM     28  H   LIG d   1      11.759   7.529  -4.443  0.00  0.00     0.064 H 
ATOM     29  H   LIG d   1      10.400   4.031  -0.645  0.00  0.00     0.155 HD
ATOM     30  H   LIG d   1      13.607   7.671  -3.040  0.00  0.00     0.043 H 
ATOM     31  H   LIG d   1      12.118   8.654  -3.168  0.00  0.00     0.043 H 
ATOM     32  H   LIG d   1      14.766   9.353  -1.907  0.00  0.00     0.028 H 
ATOM     33  H   LIG d   1      13.567  10.422  -2.695  0.00  0.00     0.028 H 
ATOM     34  H   LIG d   1      12.631  10.899  -0.605  0.00  0.00     0.028 H 
ATOM     35  H   LIG d   1      13.841   9.849   0.191  0.00  0.00     0.028 H 
ENDROOT
BRANCH  23  36
ATOM     36  C   LIG d   1      10.642  10.641  -4.379  0.00  0.00     0.089 A 
ATOM     37  C   LIG d   1       9.602  11.480  -4.773  0.00  0.00     0.142 A 
ATOM     38  C   LIG d   1       9.711  12.215  -5.942  0.00  0.00    -0.015 A 
ATOM     39  C   LIG d   1      10.846  12.110  -6.724  0.00  0.00    -0.016 A 
ATOM     40  H   LIG d   1       8.907  12.869  -6.244  0.00  0.00     0.066 H 
ATOM     41  C   LIG d   1      11.881  11.270  -6.336  0.00  0.00     0.122 A 
ATOM     42  H   LIG d   1      10.927  12.680  -7.636  0.00  0.00     0.066 H 
ATOM     43  C   LIG d   1      11.780  10.537  -5.165  0.00  0.00     0.005 A 
ATOM     44  H   LIG d   1      12.586   9.884  -4.865  0.00  0.00     0.067 H 
BRANCH  37  45
ATOM     45  O   LIG d   1       8.482  11.580  -4.008  0.00  0.00    -0.493 OA
BRANCH  45  46
ATOM     46  C   LIG d   1       8.314  12.785  -3.258  0.00  0.00     0.079 C 
ATOM     47  H   LIG d   1       9.284  13.123  -2.892  0.00  0.00     0.066 H 
ATOM     48  H   LIG d   1       7.879  13.553  -3.897  0.00  0.00     0.066 H 
ATOM     49  H   LIG d   1       7.652  12.597  -2.413  0.00  0.00     0.066 H 
ENDBRANCH  45  46
ENDBRANCH  37  45
BRANCH  41  50
ATOM     50  O   LIG d   1      12.997  11.169  -7.107  0.00  0.00    -0.495 OA
BRANCH  50  51
ATOM     51  C   LIG d   1      12.845  11.420  -8.506  0.00  0.00     0.079 C 
ATOM     52  H   LIG d   1      13.170  12.437  -8.730  0.00  0.00     0.066 H 
ATOM     53  H   LIG d   1      13.451  10.712  -9.071  0.00  0.00     0.066 H 
ATOM     54  H   LIG d   1      11.797  11.305  -8.784  0.00  0.00     0.066 H 
ENDBRANCH  50  51
ENDBRANCH  41  50
ENDBRANCH  23  36
BRANCH   1  55
ATOM     55  C   LIG d   1      10.610   2.482  -3.068  0.00  0.00    -0.038 C 
ATOM     56  H   LIG d   1      10.467   2.419  -1.990  0.00  0.00     0.028 H 
ATOM     57  H   LIG d   1       9.698   2.167  -3.575  0.00  0.00     0.028 H 
ATOM     58  H   LIG d   1      11.434   1.831  -3.363  0.00  0.00     0.028 H 
ENDBRANCH   1  55
TORSDOF 6
ENDMDL
