MODEL 1
REMARK VINA RESULT:      -6.5      0.000      0.000
REMARK  9 active torsions:
REMARK  status: ('A' for Active; 'I' for Inactive)
REMARK    1  A    between atoms: C_1  and  O_2 
REMARK    2  A    between atoms: O_2  and  C_3 
REMARK    3  A    between atoms: C_6  and  C_11 
REMARK    4  A    between atoms: C_8  and  O_9 
REMARK    5  A    between atoms: O_9  and  C_10 
REMARK    6  A    between atoms: C_11  and  C_12 
REMARK    7  A    between atoms: C_12  and  N_13 
REMARK       I    between atoms: N_13  and  C_14 
REMARK    8  A    between atoms: C_14  and  C_16 
REMARK    9  A    between atoms: C_16  and  C_17 
ROOT
ATOM      1  C   LIG d   1       5.909   2.032  -9.142  0.00  0.00     0.016 C 
ATOM      2  H   LIG d   1       6.574   2.891  -9.223  0.00  0.00     0.046 H 
ATOM      3  H   LIG d   1       6.146   1.312  -9.925  0.00  0.00     0.046 H 
ENDROOT
BRANCH   1   4
ATOM      4  C   LIG d   1       4.458   2.494  -9.298  0.00  0.00    -0.012 C 
ATOM      5  H   LIG d   1       4.079   2.834  -8.334  0.00  0.00     0.033 H 
ATOM      6  H   LIG d   1       4.414   3.314 -10.016  0.00  0.00     0.033 H 
BRANCH   4   7
ATOM      7  C   LIG d   1       3.616   1.347  -9.793  0.00  0.00    -0.042 A 
ATOM      8  C   LIG d   1       2.575   0.870  -9.019  0.00  0.00    -0.055 A 
ATOM      9  C   LIG d   1       1.795  -0.178  -9.472  0.00  0.00    -0.016 A 
ATOM     10  H   LIG d   1       2.368   1.319  -8.059  0.00  0.00     0.062 H 
ATOM     11  C   LIG d   1       2.064  -0.759 -10.701  0.00  0.00     0.162 A 
ATOM     12  H   LIG d   1       0.982  -0.546  -8.867  0.00  0.00     0.066 H 
ATOM     13  C   LIG d   1       3.114  -0.282 -11.479  0.00  0.00     0.162 A 
ATOM     14  C   LIG d   1       3.888   0.772 -11.021  0.00  0.00    -0.013 A 
ATOM     15  H   LIG d   1       4.705   1.145 -11.622  0.00  0.00     0.066 H 
BRANCH  11  16
ATOM     16  O   LIG d   1       1.301  -1.792 -11.147  0.00  0.00    -0.491 OA
BRANCH  16  17
ATOM     17  C   LIG d   1       1.291  -2.981 -10.353  0.00  0.00     0.079 C 
ATOM     18  H   LIG d   1       1.524  -3.840 -10.982  0.00  0.00     0.066 H 
ATOM     19  H   LIG d   1       2.037  -2.896  -9.562  0.00  0.00     0.066 H 
ATOM     20  H   LIG d   1       0.305  -3.113  -9.909  0.00  0.00     0.066 H 
ENDBRANCH  16  17
ENDBRANCH  11  16
BRANCH  13  21
ATOM     21  O   LIG d   1       3.381  -0.848 -12.687  0.00  0.00    -0.491 OA
BRANCH  21  22
ATOM     22  C   LIG d   1       4.642  -0.540 -13.283  0.00  0.00     0.079 C 
ATOM     23  H   LIG d   1       4.978   0.437 -12.936  0.00  0.00     0.066 H 
ATOM     24  H   LIG d   1       5.372  -1.297 -13.000  0.00  0.00     0.066 H 
ATOM     25  H   LIG d   1       4.536  -0.523 -14.368  0.00  0.00     0.066 H 
ENDBRANCH  21  22
ENDBRANCH  13  21
ENDBRANCH   4   7
ENDBRANCH   1   4
BRANCH   1  26
ATOM     26  N   LIG d   1       6.083   1.403  -7.829  0.00  0.00    -0.315 N 
ATOM     27  C   LIG d   1       6.468   0.115  -7.747  0.00  0.00     0.217 C 
ATOM     28  O   LIG d   1       6.673  -0.524  -8.757  0.00  0.00    -0.276 OA
ATOM     29  H   LIG d   1       5.919   1.914  -7.022  0.00  0.00     0.149 HD
BRANCH  27  30
ATOM     30  C   LIG d   1       6.647  -0.533  -6.397  0.00  0.00     0.051 C 
ATOM     31  H   LIG d   1       7.384   0.026  -5.822  0.00  0.00     0.041 H 
ATOM     32  H   LIG d   1       6.990  -1.559  -6.530  0.00  0.00     0.041 H 
BRANCH  30  33
ATOM     33  C   LIG d   1       5.331  -0.535  -5.663  0.00  0.00    -0.014 A 
ATOM     34  C   LIG d   1       5.075   0.020  -4.331  0.00  0.00     0.003 A 
ATOM     35  C   LIG d   1       3.711  -0.209  -4.071  0.00  0.00     0.047 A 
ATOM     36  C   LIG d   1       5.867   0.665  -3.380  0.00  0.00    -0.052 A 
ATOM     37  N   LIG d   1       3.191  -0.854  -5.170  0.00  0.00    -0.360 N 
ATOM     38  C   LIG d   1       3.168   0.214  -2.863  0.00  0.00    -0.038 A 
ATOM     39  C   LIG d   1       4.170  -1.040  -6.108  0.00  0.00     0.006 A 
ATOM     40  H   LIG d   1       2.267  -1.135  -5.265  0.00  0.00     0.165 HD
ATOM     41  H   LIG d   1       4.028  -1.521  -7.064  0.00  0.00     0.081 H 
ATOM     42  C   LIG d   1       3.968   0.849  -1.938  0.00  0.00    -0.060 A 
ATOM     43  H   LIG d   1       2.122   0.045  -2.649  0.00  0.00     0.064 H 
ATOM     44  C   LIG d   1       5.312   1.072  -2.199  0.00  0.00    -0.061 A 
ATOM     45  H   LIG d   1       3.544   1.177  -1.000  0.00  0.00     0.062 H 
ATOM     46  H   LIG d   1       5.926   1.571  -1.464  0.00  0.00     0.062 H 
ATOM     47  H   LIG d   1       6.914   0.842  -3.577  0.00  0.00     0.062 H 
ENDBRANCH  30  33
ENDBRANCH  27  30
ENDBRANCH   1  26
TORSDOF 9
ENDMDL
MODEL 2
REMARK VINA RESULT:      -6.4      3.169      6.880
REMARK  9 active torsions:
REMARK  status: ('A' for Active; 'I' for Inactive)
REMARK    1  A    between atoms: C_1  and  O_2 
REMARK    2  A    between atoms: O_2  and  C_3 
REMARK    3  A    between atoms: C_6  and  C_11 
REMARK    4  A    between atoms: C_8  and  O_9 
REMARK    5  A    between atoms: O_9  and  C_10 
REMARK    6  A    between atoms: C_11  and  C_12 
REMARK    7  A    between atoms: C_12  and  N_13 
REMARK       I    between atoms: N_13  and  C_14 
REMARK    8  A    between atoms: C_14  and  C_16 
REMARK    9  A    between atoms: C_16  and  C_17 
ROOT
ATOM      1  C   LIG d   1       3.240  -0.898  -2.413  0.00  0.00     0.016 C 
ATOM      2  H   LIG d   1       4.015  -0.148  -2.262  0.00  0.00     0.046 H 
ATOM      3  H   LIG d   1       2.507  -0.833  -1.609  0.00  0.00     0.046 H 
ENDROOT
BRANCH   1   4
ATOM      4  C   LIG d   1       3.871  -2.292  -2.414  0.00  0.00    -0.012 C 
ATOM      5  H   LIG d   1       4.277  -2.509  -1.426  0.00  0.00     0.033 H 
ATOM      6  H   LIG d   1       3.113  -3.035  -2.666  0.00  0.00     0.033 H 
BRANCH   4   7
ATOM      7  C   LIG d   1       4.979  -2.342  -3.435  0.00  0.00    -0.042 A 
ATOM      8  C   LIG d   1       5.008  -3.358  -4.372  0.00  0.00    -0.055 A 
ATOM      9  C   LIG d   1       6.019  -3.405  -5.315  0.00  0.00    -0.016 A 
ATOM     10  H   LIG d   1       4.238  -4.115  -4.371  0.00  0.00     0.062 H 
ATOM     11  C   LIG d   1       7.011  -2.437  -5.314  0.00  0.00     0.162 A 
ATOM     12  H   LIG d   1       6.038  -4.197  -6.047  0.00  0.00     0.066 H 
ATOM     13  C   LIG d   1       6.984  -1.417  -4.368  0.00  0.00     0.162 A 
ATOM     14  C   LIG d   1       5.965  -1.374  -3.429  0.00  0.00    -0.013 A 
ATOM     15  H   LIG d   1       5.942  -0.583  -2.693  0.00  0.00     0.066 H 
BRANCH  11  16
ATOM     16  O   LIG d   1       8.008  -2.483  -6.237  0.00  0.00    -0.491 OA
BRANCH  16  17
ATOM     17  C   LIG d   1       7.637  -2.815  -7.577  0.00  0.00     0.079 C 
ATOM     18  H   LIG d   1       8.104  -3.758  -7.860  0.00  0.00     0.066 H 
ATOM     19  H   LIG d   1       6.553  -2.912  -7.640  0.00  0.00     0.066 H 
ATOM     20  H   LIG d   1       7.971  -2.028  -8.252  0.00  0.00     0.066 H 
ENDBRANCH  16  17
ENDBRANCH  11  16
BRANCH  13  21
ATOM     21  O   LIG d   1       7.956  -0.465  -4.364  0.00  0.00    -0.491 OA
BRANCH  21  22
ATOM     22  C   LIG d   1       7.581   0.841  -3.923  0.00  0.00     0.079 C 
ATOM     23  H   LIG d   1       7.994   1.021  -2.930  0.00  0.00     0.066 H 
ATOM     24  H   LIG d   1       7.969   1.585  -4.618  0.00  0.00     0.066 H 
ATOM     25  H   LIG d   1       6.493   0.913  -3.882  0.00  0.00     0.066 H 
ENDBRANCH  21  22
ENDBRANCH  13  21
ENDBRANCH   4   7
ENDBRANCH   1   4
BRANCH   1  26
ATOM     26  N   LIG d   1       2.576  -0.662  -3.699  0.00  0.00    -0.315 N 
ATOM     27  C   LIG d   1       2.872   0.438  -4.417  0.00  0.00     0.217 C 
ATOM     28  O   LIG d   1       3.689   1.232  -4.002  0.00  0.00    -0.276 OA
ATOM     29  H   LIG d   1       1.923  -1.298  -4.031  0.00  0.00     0.149 HD
BRANCH  27  30
ATOM     30  C   LIG d   1       2.190   0.681  -5.739  0.00  0.00     0.051 C 
ATOM     31  H   LIG d   1       2.033   1.750  -5.875  0.00  0.00     0.041 H 
ATOM     32  H   LIG d   1       1.228   0.167  -5.751  0.00  0.00     0.041 H 
BRANCH  30  33
ATOM     33  C   LIG d   1       3.054   0.153  -6.855  0.00  0.00    -0.014 A 
ATOM     34  C   LIG d   1       3.321   0.811  -8.136  0.00  0.00     0.003 A 
ATOM     35  C   LIG d   1       4.179  -0.050  -8.844  0.00  0.00     0.047 A 
ATOM     36  C   LIG d   1       2.912   2.014  -8.713  0.00  0.00    -0.052 A 
ATOM     37  N   LIG d   1       4.409  -1.145  -8.041  0.00  0.00    -0.360 N 
ATOM     38  C   LIG d   1       4.611   0.311 -10.115  0.00  0.00    -0.038 A 
ATOM     39  C   LIG d   1       3.730  -1.006  -6.860  0.00  0.00     0.006 A 
ATOM     40  H   LIG d   1       4.968  -1.902  -8.277  0.00  0.00     0.165 HD
ATOM     41  H   LIG d   1       3.739  -1.723  -6.053  0.00  0.00     0.081 H 
ATOM     42  C   LIG d   1       4.195   1.505 -10.666  0.00  0.00    -0.060 A 
ATOM     43  H   LIG d   1       5.270  -0.340 -10.671  0.00  0.00     0.064 H 
ATOM     44  C   LIG d   1       3.349   2.351  -9.964  0.00  0.00    -0.061 A 
ATOM     45  H   LIG d   1       4.532   1.784 -11.653  0.00  0.00     0.062 H 
ATOM     46  H   LIG d   1       3.032   3.282 -10.409  0.00  0.00     0.062 H 
ATOM     47  H   LIG d   1       2.253   2.678  -8.172  0.00  0.00     0.062 H 
ENDBRANCH  30  33
ENDBRANCH  27  30
ENDBRANCH   1  26
TORSDOF 9
ENDMDL
MODEL 3
REMARK VINA RESULT:      -6.4      2.737      4.417
REMARK  9 active torsions:
REMARK  status: ('A' for Active; 'I' for Inactive)
REMARK    1  A    between atoms: C_1  and  O_2 
REMARK    2  A    between atoms: O_2  and  C_3 
REMARK    3  A    between atoms: C_6  and  C_11 
REMARK    4  A    between atoms: C_8  and  O_9 
REMARK    5  A    between atoms: O_9  and  C_10 
REMARK    6  A    between atoms: C_11  and  C_12 
REMARK    7  A    between atoms: C_12  and  N_13 
REMARK       I    between atoms: N_13  and  C_14 
REMARK    8  A    between atoms: C_14  and  C_16 
REMARK    9  A    between atoms: C_16  and  C_17 
ROOT
ATOM      1  C   LIG d   1       6.414  -3.645  -7.473  0.00  0.00     0.016 C 
ATOM      2  H   LIG d   1       6.723  -2.983  -8.281  0.00  0.00     0.046 H 
ATOM      3  H   LIG d   1       6.711  -4.668  -7.706  0.00  0.00     0.046 H 
ENDROOT
BRANCH   1   4
ATOM      4  C   LIG d   1       4.894  -3.581  -7.314  0.00  0.00    -0.012 C 
ATOM      5  H   LIG d   1       4.423  -4.223  -8.057  0.00  0.00     0.033 H 
ATOM      6  H   LIG d   1       4.619  -3.921  -6.314  0.00  0.00     0.033 H 
BRANCH   4   7
ATOM      7  C   LIG d   1       4.427  -2.162  -7.506  0.00  0.00    -0.042 A 
ATOM      8  C   LIG d   1       4.292  -1.646  -8.782  0.00  0.00    -0.055 A 
ATOM      9  C   LIG d   1       3.858  -0.345  -8.963  0.00  0.00    -0.016 A 
ATOM     10  H   LIG d   1       4.522  -2.262  -9.638  0.00  0.00     0.062 H 
ATOM     11  C   LIG d   1       3.568   0.447  -7.864  0.00  0.00     0.162 A 
ATOM     12  H   LIG d   1       3.750   0.053  -9.960  0.00  0.00     0.066 H 
ATOM     13  C   LIG d   1       3.708  -0.070  -6.580  0.00  0.00     0.162 A 
ATOM     14  C   LIG d   1       4.138  -1.376  -6.405  0.00  0.00    -0.013 A 
ATOM     15  H   LIG d   1       4.249  -1.780  -5.410  0.00  0.00     0.066 H 
BRANCH  11  16
ATOM     16  O   LIG d   1       3.145   1.727  -8.040  0.00  0.00    -0.491 OA
BRANCH  16  17
ATOM     17  C   LIG d   1       3.761   2.475  -9.091  0.00  0.00     0.079 C 
ATOM     18  H   LIG d   1       3.487   2.042 -10.053  0.00  0.00     0.066 H 
ATOM     19  H   LIG d   1       3.421   3.510  -9.048  0.00  0.00     0.066 H 
ATOM     20  H   LIG d   1       4.844   2.444  -8.975  0.00  0.00     0.066 H 
ENDBRANCH  16  17
ENDBRANCH  11  16
BRANCH  13  21
ATOM     21  O   LIG d   1       3.424   0.704  -5.498  0.00  0.00    -0.491 OA
BRANCH  21  22
ATOM     22  C   LIG d   1       2.215   0.414  -4.793  0.00  0.00     0.079 C 
ATOM     23  H   LIG d   1       2.250  -0.610  -4.422  0.00  0.00     0.066 H 
ATOM     24  H   LIG d   1       2.110   1.101  -3.954  0.00  0.00     0.066 H 
ATOM     25  H   LIG d   1       1.365   0.528  -5.466  0.00  0.00     0.066 H 
ENDBRANCH  21  22
ENDBRANCH  13  21
ENDBRANCH   4   7
ENDBRANCH   1   4
BRANCH   1  26
ATOM     26  N   LIG d   1       7.054  -3.223  -6.223  0.00  0.00    -0.315 N 
ATOM     27  C   LIG d   1       7.720  -2.053  -6.170  0.00  0.00     0.217 C 
ATOM     28  O   LIG d   1       7.789  -1.348  -7.155  0.00  0.00    -0.276 OA
ATOM     29  H   LIG d   1       6.999  -3.787  -5.436  0.00  0.00     0.149 HD
BRANCH  27  30
ATOM     30  C   LIG d   1       8.378  -1.619  -4.886  0.00  0.00     0.051 C 
ATOM     31  H   LIG d   1       9.401  -1.307  -5.090  0.00  0.00     0.041 H 
ATOM     32  H   LIG d   1       8.385  -2.452  -4.182  0.00  0.00     0.041 H 
BRANCH  30  33
ATOM     33  C   LIG d   1       7.610  -0.467  -4.292  0.00  0.00    -0.014 A 
ATOM     34  C   LIG d   1       6.418  -0.558  -3.444  0.00  0.00     0.003 A 
ATOM     35  C   LIG d   1       6.062   0.766  -3.131  0.00  0.00     0.047 A 
ATOM     36  C   LIG d   1       5.659  -1.619  -2.949  0.00  0.00    -0.052 A 
ATOM     37  N   LIG d   1       6.976   1.590  -3.748  0.00  0.00    -0.360 N 
ATOM     38  C   LIG d   1       4.952   1.001  -2.327  0.00  0.00    -0.038 A 
ATOM     39  C   LIG d   1       7.890   0.838  -4.436  0.00  0.00     0.006 A 
ATOM     40  H   LIG d   1       6.972   2.559  -3.704  0.00  0.00     0.165 HD
ATOM     41  H   LIG d   1       8.715   1.236  -5.008  0.00  0.00     0.081 H 
ATOM     42  C   LIG d   1       4.216  -0.062  -1.848  0.00  0.00    -0.060 A 
ATOM     43  H   LIG d   1       4.666   2.013  -2.079  0.00  0.00     0.064 H 
ATOM     44  C   LIG d   1       4.572  -1.366  -2.160  0.00  0.00    -0.061 A 
ATOM     45  H   LIG d   1       3.354   0.123  -1.224  0.00  0.00     0.062 H 
ATOM     46  H   LIG d   1       3.985  -2.188  -1.777  0.00  0.00     0.062 H 
ATOM     47  H   LIG d   1       5.931  -2.637  -3.187  0.00  0.00     0.062 H 
ENDBRANCH  30  33
ENDBRANCH  27  30
ENDBRANCH   1  26
TORSDOF 9
ENDMDL
MODEL 4
REMARK VINA RESULT:      -6.4      6.210      9.699
REMARK  9 active torsions:
REMARK  status: ('A' for Active; 'I' for Inactive)
REMARK    1  A    between atoms: C_1  and  O_2 
REMARK    2  A    between atoms: O_2  and  C_3 
REMARK    3  A    between atoms: C_6  and  C_11 
REMARK    4  A    between atoms: C_8  and  O_9 
REMARK    5  A    between atoms: O_9  and  C_10 
REMARK    6  A    between atoms: C_11  and  C_12 
REMARK    7  A    between atoms: C_12  and  N_13 
REMARK       I    between atoms: N_13  and  C_14 
REMARK    8  A    between atoms: C_14  and  C_16 
REMARK    9  A    between atoms: C_16  and  C_17 
ROOT
ATOM      1  C   LIG d   1      11.414   2.638  -3.486  0.00  0.00     0.016 C 
ATOM      2  H   LIG d   1      11.004   2.661  -2.477  0.00  0.00     0.046 H 
ATOM      3  H   LIG d   1      12.300   2.003  -3.505  0.00  0.00     0.046 H 
ENDROOT
BRANCH   1   4
ATOM      4  C   LIG d   1      11.796   4.057  -3.914  0.00  0.00    -0.012 C 
ATOM      5  H   LIG d   1      12.855   4.223  -3.720  0.00  0.00     0.033 H 
ATOM      6  H   LIG d   1      11.599   4.180  -4.980  0.00  0.00     0.033 H 
BRANCH   4   7
ATOM      7  C   LIG d   1      10.979   5.054  -3.135  0.00  0.00    -0.042 A 
ATOM      8  C   LIG d   1      10.162   5.950  -3.801  0.00  0.00    -0.055 A 
ATOM      9  C   LIG d   1       9.406   6.862  -3.090  0.00  0.00    -0.016 A 
ATOM     10  H   LIG d   1      10.113   5.932  -4.880  0.00  0.00     0.062 H 
ATOM     11  C   LIG d   1       9.473   6.888  -1.707  0.00  0.00     0.162 A 
ATOM     12  H   LIG d   1       8.767   7.558  -3.613  0.00  0.00     0.066 H 
ATOM     13  C   LIG d   1      10.298   5.991  -1.036  0.00  0.00     0.162 A 
ATOM     14  C   LIG d   1      11.050   5.075  -1.754  0.00  0.00    -0.013 A 
ATOM     15  H   LIG d   1      11.691   4.377  -1.236  0.00  0.00     0.066 H 
BRANCH  11  16
ATOM     16  O   LIG d   1       8.734   7.788  -1.005  0.00  0.00    -0.491 OA
BRANCH  16  17
ATOM     17  C   LIG d   1       9.198   9.140  -0.992  0.00  0.00     0.079 C 
ATOM     18  H   LIG d   1       8.724   9.679  -0.172  0.00  0.00     0.066 H 
ATOM     19  H   LIG d   1      10.280   9.151  -0.857  0.00  0.00     0.066 H 
ATOM     20  H   LIG d   1       8.946   9.621  -1.936  0.00  0.00     0.066 H 
ENDBRANCH  16  17
ENDBRANCH  11  16
BRANCH  13  21
ATOM     21  O   LIG d   1      10.367   6.012   0.323  0.00  0.00    -0.491 OA
BRANCH  21  22
ATOM     22  C   LIG d   1      11.440   6.753   0.906  0.00  0.00     0.079 C 
ATOM     23  H   LIG d   1      11.327   7.809   0.661  0.00  0.00     0.066 H 
ATOM     24  H   LIG d   1      11.422   6.628   1.989  0.00  0.00     0.066 H 
ATOM     25  H   LIG d   1      12.389   6.389   0.513  0.00  0.00     0.066 H 
ENDBRANCH  21  22
ENDBRANCH  13  21
ENDBRANCH   4   7
ENDBRANCH   1   4
BRANCH   1  26
ATOM     26  N   LIG d   1      10.410   2.103  -4.410  0.00  0.00    -0.315 N 
ATOM     27  C   LIG d   1       9.103   2.153  -4.086  0.00  0.00     0.217 C 
ATOM     28  O   LIG d   1       8.758   2.641  -3.031  0.00  0.00    -0.276 OA
ATOM     29  H   LIG d   1      10.687   1.713  -5.254  0.00  0.00     0.149 HD
BRANCH  27  30
ATOM     30  C   LIG d   1       8.070   1.603  -5.036  0.00  0.00     0.051 C 
ATOM     31  H   LIG d   1       8.545   1.357  -5.985  0.00  0.00     0.041 H 
ATOM     32  H   LIG d   1       7.293   2.350  -5.199  0.00  0.00     0.041 H 
BRANCH  30  33
ATOM     33  C   LIG d   1       7.455   0.361  -4.444  0.00  0.00    -0.014 A 
ATOM     34  C   LIG d   1       6.333   0.306  -3.504  0.00  0.00     0.003 A 
ATOM     35  C   LIG d   1       6.112  -1.058  -3.242  0.00  0.00     0.047 A 
ATOM     36  C   LIG d   1       5.533   1.272  -2.891  0.00  0.00    -0.052 A 
ATOM     37  N   LIG d   1       7.037  -1.768  -3.974  0.00  0.00    -0.360 N 
ATOM     38  C   LIG d   1       5.093  -1.428  -2.370  0.00  0.00    -0.038 A 
ATOM     39  C   LIG d   1       7.829  -0.906  -4.683  0.00  0.00     0.006 A 
ATOM     40  H   LIG d   1       7.116  -2.735  -3.984  0.00  0.00     0.165 HD
ATOM     41  H   LIG d   1       8.634  -1.203  -5.339  0.00  0.00     0.081 H 
ATOM     42  C   LIG d   1       4.315  -0.458  -1.776  0.00  0.00    -0.060 A 
ATOM     43  H   LIG d   1       4.912  -2.472  -2.159  0.00  0.00     0.064 H 
ATOM     44  C   LIG d   1       4.537   0.886  -2.038  0.00  0.00    -0.061 A 
ATOM     45  H   LIG d   1       3.524  -0.747  -1.099  0.00  0.00     0.062 H 
ATOM     46  H   LIG d   1       3.919   1.634  -1.564  0.00  0.00     0.062 H 
ATOM     47  H   LIG d   1       5.700   2.320  -3.091  0.00  0.00     0.062 H 
ENDBRANCH  30  33
ENDBRANCH  27  30
ENDBRANCH   1  26
TORSDOF 9
ENDMDL
MODEL 5
REMARK VINA RESULT:      -6.2      5.945      7.646
REMARK  9 active torsions:
REMARK  status: ('A' for Active; 'I' for Inactive)
REMARK    1  A    between atoms: C_1  and  O_2 
REMARK    2  A    between atoms: O_2  and  C_3 
REMARK    3  A    between atoms: C_6  and  C_11 
REMARK    4  A    between atoms: C_8  and  O_9 
REMARK    5  A    between atoms: O_9  and  C_10 
REMARK    6  A    between atoms: C_11  and  C_12 
REMARK    7  A    between atoms: C_12  and  N_13 
REMARK       I    between atoms: N_13  and  C_14 
REMARK    8  A    between atoms: C_14  and  C_16 
REMARK    9  A    between atoms: C_16  and  C_17 
ROOT
ATOM      1  C   LIG d   1       8.451  -5.813  -5.413  0.00  0.00     0.016 C 
ATOM      2  H   LIG d   1       7.634  -5.887  -6.130  0.00  0.00     0.046 H 
ATOM      3  H   LIG d   1       9.373  -5.562  -5.937  0.00  0.00     0.046 H 
ENDROOT
BRANCH   1   4
ATOM      4  C   LIG d   1       8.623  -7.154  -4.696  0.00  0.00    -0.012 C 
ATOM      5  H   LIG d   1       9.368  -7.754  -5.219  0.00  0.00     0.033 H 
ATOM      6  H   LIG d   1       8.953  -6.978  -3.672  0.00  0.00     0.033 H 
BRANCH   4   7
ATOM      7  C   LIG d   1       7.308  -7.888  -4.680  0.00  0.00    -0.042 A 
ATOM      8  C   LIG d   1       7.123  -8.956  -3.821  0.00  0.00    -0.055 A 
ATOM      9  C   LIG d   1       5.916  -9.629  -3.797  0.00  0.00    -0.016 A 
ATOM     10  H   LIG d   1       7.924  -9.263  -3.164  0.00  0.00     0.062 H 
ATOM     11  C   LIG d   1       4.890  -9.239  -4.644  0.00  0.00     0.162 A 
ATOM     12  H   LIG d   1       5.774 -10.460  -3.124  0.00  0.00     0.066 H 
ATOM     13  C   LIG d   1       5.076  -8.168  -5.511  0.00  0.00     0.162 A 
ATOM     14  C   LIG d   1       6.288  -7.494  -5.526  0.00  0.00    -0.013 A 
ATOM     15  H   LIG d   1       6.435  -6.662  -6.199  0.00  0.00     0.066 H 
BRANCH  11  16
ATOM     16  O   LIG d   1       3.703  -9.902  -4.626  0.00  0.00    -0.491 OA
BRANCH  16  17
ATOM     17  C   LIG d   1       3.345 -10.558  -3.408  0.00  0.00     0.079 C 
ATOM     18  H   LIG d   1       2.366 -10.209  -3.081  0.00  0.00     0.066 H 
ATOM     19  H   LIG d   1       3.310 -11.636  -3.572  0.00  0.00     0.066 H 
ATOM     20  H   LIG d   1       4.085 -10.332  -2.641  0.00  0.00     0.066 H 
ENDBRANCH  16  17
ENDBRANCH  11  16
BRANCH  13  21
ATOM     21  O   LIG d   1       4.072  -7.781  -6.344  0.00  0.00    -0.491 OA
BRANCH  21  22
ATOM     22  C   LIG d   1       4.371  -6.748  -7.284  0.00  0.00     0.079 C 
ATOM     23  H   LIG d   1       4.537  -7.190  -8.267  0.00  0.00     0.066 H 
ATOM     24  H   LIG d   1       3.535  -6.051  -7.336  0.00  0.00     0.066 H 
ATOM     25  H   LIG d   1       5.269  -6.218  -6.968  0.00  0.00     0.066 H 
ENDBRANCH  21  22
ENDBRANCH  13  21
ENDBRANCH   4   7
ENDBRANCH   1   4
BRANCH   1  26
ATOM     26  N   LIG d   1       8.147  -4.769  -4.431  0.00  0.00    -0.315 N 
ATOM     27  C   LIG d   1       7.749  -3.551  -4.845  0.00  0.00     0.217 C 
ATOM     28  O   LIG d   1       7.641  -3.318  -6.030  0.00  0.00    -0.276 OA
ATOM     29  H   LIG d   1       8.233  -4.956  -3.483  0.00  0.00     0.149 HD
BRANCH  27  30
ATOM     30  C   LIG d   1       7.436  -2.477  -3.834  0.00  0.00     0.051 C 
ATOM     31  H   LIG d   1       7.939  -1.554  -4.118  0.00  0.00     0.041 H 
ATOM     32  H   LIG d   1       7.783  -2.793  -2.849  0.00  0.00     0.041 H 
BRANCH  30  33
ATOM     33  C   LIG d   1       5.948  -2.247  -3.790  0.00  0.00    -0.014 A 
ATOM     34  C   LIG d   1       5.263  -1.071  -3.248  0.00  0.00     0.003 A 
ATOM     35  C   LIG d   1       3.888  -1.303  -3.432  0.00  0.00     0.047 A 
ATOM     36  C   LIG d   1       5.695   0.112  -2.646  0.00  0.00    -0.052 A 
ATOM     37  N   LIG d   1       3.760  -2.531  -4.040  0.00  0.00    -0.360 N 
ATOM     38  C   LIG d   1       2.972  -0.345  -3.008  0.00  0.00    -0.038 A 
ATOM     39  C   LIG d   1       4.998  -3.079  -4.246  0.00  0.00     0.006 A 
ATOM     40  H   LIG d   1       2.919  -2.946  -4.287  0.00  0.00     0.165 HD
ATOM     41  H   LIG d   1       5.182  -4.038  -4.707  0.00  0.00     0.081 H 
ATOM     42  C   LIG d   1       3.421   0.816  -2.416  0.00  0.00    -0.060 A 
ATOM     43  H   LIG d   1       1.913  -0.510  -3.142  0.00  0.00     0.064 H 
ATOM     44  C   LIG d   1       4.779   1.040  -2.237  0.00  0.00    -0.061 A 
ATOM     45  H   LIG d   1       2.709   1.559  -2.088  0.00  0.00     0.062 H 
ATOM     46  H   LIG d   1       5.115   1.954  -1.771  0.00  0.00     0.062 H 
ATOM     47  H   LIG d   1       6.751   0.293  -2.504  0.00  0.00     0.062 H 
ENDBRANCH  30  33
ENDBRANCH  27  30
ENDBRANCH   1  26
TORSDOF 9
ENDMDL
MODEL 6
REMARK VINA RESULT:      -6.2      5.236      7.962
REMARK  9 active torsions:
REMARK  status: ('A' for Active; 'I' for Inactive)
REMARK    1  A    between atoms: C_1  and  O_2 
REMARK    2  A    between atoms: O_2  and  C_3 
REMARK    3  A    between atoms: C_6  and  C_11 
REMARK    4  A    between atoms: C_8  and  O_9 
REMARK    5  A    between atoms: O_9  and  C_10 
REMARK    6  A    between atoms: C_11  and  C_12 
REMARK    7  A    between atoms: C_12  and  N_13 
REMARK       I    between atoms: N_13  and  C_14 
REMARK    8  A    between atoms: C_14  and  C_16 
REMARK    9  A    between atoms: C_16  and  C_17 
ROOT
ATOM      1  C   LIG d   1       9.319   0.917  -5.268  0.00  0.00     0.016 C 
ATOM      2  H   LIG d   1      10.320   1.198  -4.942  0.00  0.00     0.046 H 
ATOM      3  H   LIG d   1       9.361   0.545  -6.292  0.00  0.00     0.046 H 
ENDROOT
BRANCH   1   4
ATOM      4  C   LIG d   1       8.402   2.141  -5.209  0.00  0.00    -0.012 C 
ATOM      5  H   LIG d   1       8.171   2.472  -6.221  0.00  0.00     0.033 H 
ATOM      6  H   LIG d   1       7.478   1.876  -4.693  0.00  0.00     0.033 H 
BRANCH   4   7
ATOM      7  C   LIG d   1       9.092   3.251  -4.461  0.00  0.00    -0.042 A 
ATOM      8  C   LIG d   1       9.690   2.995  -3.240  0.00  0.00    -0.055 A 
ATOM      9  C   LIG d   1      10.331   4.009  -2.553  0.00  0.00    -0.016 A 
ATOM     10  H   LIG d   1       9.660   1.998  -2.825  0.00  0.00     0.062 H 
ATOM     11  C   LIG d   1      10.365   5.289  -3.083  0.00  0.00     0.162 A 
ATOM     12  H   LIG d   1      10.799   3.805  -1.603  0.00  0.00     0.066 H 
ATOM     13  C   LIG d   1       9.760   5.549  -4.308  0.00  0.00     0.162 A 
ATOM     14  C   LIG d   1       9.124   4.526  -4.994  0.00  0.00    -0.013 A 
ATOM     15  H   LIG d   1       8.653   4.725  -5.946  0.00  0.00     0.066 H 
BRANCH  11  16
ATOM     16  O   LIG d   1      10.990   6.290  -2.407  0.00  0.00    -0.491 OA
BRANCH  16  17
ATOM     17  C   LIG d   1      10.362   6.755  -1.211  0.00  0.00     0.079 C 
ATOM     18  H   LIG d   1      10.849   7.671  -0.877  0.00  0.00     0.066 H 
ATOM     19  H   LIG d   1       9.308   6.955  -1.407  0.00  0.00     0.066 H 
ATOM     20  H   LIG d   1      10.448   5.996  -0.434  0.00  0.00     0.066 H 
ENDBRANCH  16  17
ENDBRANCH  11  16
BRANCH  13  21
ATOM     21  O   LIG d   1       9.791   6.804  -4.833  0.00  0.00    -0.491 OA
BRANCH  21  22
ATOM     22  C   LIG d   1       9.786   6.912  -6.257  0.00  0.00     0.079 C 
ATOM     23  H   LIG d   1       8.767   6.796  -6.626  0.00  0.00     0.066 H 
ATOM     24  H   LIG d   1      10.170   7.889  -6.550  0.00  0.00     0.066 H 
ATOM     25  H   LIG d   1      10.417   6.131  -6.683  0.00  0.00     0.066 H 
ENDBRANCH  21  22
ENDBRANCH  13  21
ENDBRANCH   4   7
ENDBRANCH   1   4
BRANCH   1  26
ATOM     26  N   LIG d   1       8.794  -0.130  -4.388  0.00  0.00    -0.315 N 
ATOM     27  C   LIG d   1       8.056  -1.133  -4.901  0.00  0.00     0.217 C 
ATOM     28  O   LIG d   1       7.827  -1.171  -6.091  0.00  0.00    -0.276 OA
ATOM     29  H   LIG d   1       8.978  -0.100  -3.436  0.00  0.00     0.149 HD
BRANCH  27  30
ATOM     30  C   LIG d   1       7.516  -2.210  -3.996  0.00  0.00     0.051 C 
ATOM     31  H   LIG d   1       7.953  -2.103  -3.004  0.00  0.00     0.041 H 
ATOM     32  H   LIG d   1       7.773  -3.189  -4.403  0.00  0.00     0.041 H 
BRANCH  30  33
ATOM     33  C   LIG d   1       6.018  -2.083  -3.902  0.00  0.00    -0.014 A 
ATOM     34  C   LIG d   1       5.273  -0.974  -3.302  0.00  0.00     0.003 A 
ATOM     35  C   LIG d   1       3.911  -1.293  -3.454  0.00  0.00     0.047 A 
ATOM     36  C   LIG d   1       5.643   0.217  -2.674  0.00  0.00    -0.052 A 
ATOM     37  N   LIG d   1       3.848  -2.507  -4.098  0.00  0.00    -0.360 N 
ATOM     38  C   LIG d   1       2.947  -0.413  -2.973  0.00  0.00    -0.038 A 
ATOM     39  C   LIG d   1       5.112  -2.963  -4.357  0.00  0.00     0.006 A 
ATOM     40  H   LIG d   1       3.029  -2.972  -4.334  0.00  0.00     0.165 HD
ATOM     41  H   LIG d   1       5.346  -3.893  -4.855  0.00  0.00     0.081 H 
ATOM     42  C   LIG d   1       3.335   0.757  -2.356  0.00  0.00    -0.060 A 
ATOM     43  H   LIG d   1       1.898  -0.645  -3.082  0.00  0.00     0.064 H 
ATOM     44  C   LIG d   1       4.679   1.067  -2.209  0.00  0.00    -0.061 A 
ATOM     45  H   LIG d   1       2.585   1.439  -1.983  0.00  0.00     0.062 H 
ATOM     46  H   LIG d   1       4.967   1.987  -1.723  0.00  0.00     0.062 H 
ATOM     47  H   LIG d   1       6.688   0.465  -2.556  0.00  0.00     0.062 H 
ENDBRANCH  30  33
ENDBRANCH  27  30
ENDBRANCH   1  26
TORSDOF 9
ENDMDL
MODEL 7
REMARK VINA RESULT:      -6.1      2.506      3.677
REMARK  9 active torsions:
REMARK  status: ('A' for Active; 'I' for Inactive)
REMARK    1  A    between atoms: C_1  and  O_2 
REMARK    2  A    between atoms: O_2  and  C_3 
REMARK    3  A    between atoms: C_6  and  C_11 
REMARK    4  A    between atoms: C_8  and  O_9 
REMARK    5  A    between atoms: O_9  and  C_10 
REMARK    6  A    between atoms: C_11  and  C_12 
REMARK    7  A    between atoms: C_12  and  N_13 
REMARK       I    between atoms: N_13  and  C_14 
REMARK    8  A    between atoms: C_14  and  C_16 
REMARK    9  A    between atoms: C_16  and  C_17 
ROOT
ATOM      1  C   LIG d   1       6.190  -3.242  -7.226  0.00  0.00     0.016 C 
ATOM      2  H   LIG d   1       6.506  -2.803  -8.172  0.00  0.00     0.046 H 
ATOM      3  H   LIG d   1       6.544  -4.272  -7.167  0.00  0.00     0.046 H 
ENDROOT
BRANCH   1   4
ATOM      4  C   LIG d   1       4.663  -3.224  -7.140  0.00  0.00    -0.012 C 
ATOM      5  H   LIG d   1       4.253  -4.019  -7.763  0.00  0.00     0.033 H 
ATOM      6  H   LIG d   1       4.356  -3.380  -6.104  0.00  0.00     0.033 H 
BRANCH   4   7
ATOM      7  C   LIG d   1       4.147  -1.893  -7.620  0.00  0.00    -0.042 A 
ATOM      8  C   LIG d   1       3.816  -0.909  -6.705  0.00  0.00    -0.055 A 
ATOM      9  C   LIG d   1       3.349   0.317  -7.141  0.00  0.00    -0.016 A 
ATOM     10  H   LIG d   1       3.927  -1.099  -5.648  0.00  0.00     0.062 H 
ATOM     11  C   LIG d   1       3.201   0.558  -8.498  0.00  0.00     0.162 A 
ATOM     12  H   LIG d   1       3.095   1.083  -6.425  0.00  0.00     0.066 H 
ATOM     13  C   LIG d   1       3.530  -0.432  -9.418  0.00  0.00     0.162 A 
ATOM     14  C   LIG d   1       4.003  -1.657  -8.974  0.00  0.00    -0.013 A 
ATOM     15  H   LIG d   1       4.259  -2.428  -9.687  0.00  0.00     0.066 H 
BRANCH  11  16
ATOM     16  O   LIG d   1       2.738   1.761  -8.929  0.00  0.00    -0.491 OA
BRANCH  16  17
ATOM     17  C   LIG d   1       3.710   2.774  -9.194  0.00  0.00     0.079 C 
ATOM     18  H   LIG d   1       4.599   2.319  -9.632  0.00  0.00     0.066 H 
ATOM     19  H   LIG d   1       3.295   3.504  -9.890  0.00  0.00     0.066 H 
ATOM     20  H   LIG d   1       3.980   3.273  -8.263  0.00  0.00     0.066 H 
ENDBRANCH  16  17
ENDBRANCH  11  16
BRANCH  13  21
ATOM     21  O   LIG d   1       3.388  -0.199 -10.751  0.00  0.00    -0.491 OA
BRANCH  21  22
ATOM     22  C   LIG d   1       4.585  -0.004 -11.506  0.00  0.00     0.079 C 
ATOM     23  H   LIG d   1       4.954  -0.969 -11.855  0.00  0.00     0.066 H 
ATOM     24  H   LIG d   1       4.374   0.635 -12.364  0.00  0.00     0.066 H 
ATOM     25  H   LIG d   1       5.339   0.468 -10.877  0.00  0.00     0.066 H 
ENDBRANCH  21  22
ENDBRANCH  13  21
ENDBRANCH   4   7
ENDBRANCH   1   4
BRANCH   1  26
ATOM     26  N   LIG d   1       6.752  -2.467  -6.116  0.00  0.00    -0.315 N 
ATOM     27  C   LIG d   1       7.122  -3.089  -4.981  0.00  0.00     0.217 C 
ATOM     28  O   LIG d   1       6.993  -4.290  -4.876  0.00  0.00    -0.276 OA
ATOM     29  H   LIG d   1       6.855  -1.506  -6.200  0.00  0.00     0.149 HD
BRANCH  27  30
ATOM     30  C   LIG d   1       7.699  -2.292  -3.839  0.00  0.00     0.051 C 
ATOM     31  H   LIG d   1       8.740  -2.052  -4.054  0.00  0.00     0.041 H 
ATOM     32  H   LIG d   1       7.643  -2.878  -2.921  0.00  0.00     0.041 H 
BRANCH  30  33
ATOM     33  C   LIG d   1       6.914  -1.017  -3.669  0.00  0.00    -0.014 A 
ATOM     34  C   LIG d   1       5.495  -0.908  -3.319  0.00  0.00     0.003 A 
ATOM     35  C   LIG d   1       5.213   0.469  -3.270  0.00  0.00     0.047 A 
ATOM     36  C   LIG d   1       4.486  -1.835  -3.056  0.00  0.00    -0.052 A 
ATOM     37  N   LIG d   1       6.380   1.135  -3.569  0.00  0.00    -0.360 N 
ATOM     38  C   LIG d   1       3.925   0.890  -2.957  0.00  0.00    -0.038 A 
ATOM     39  C   LIG d   1       7.383   0.233  -3.804  0.00  0.00     0.006 A 
ATOM     40  H   LIG d   1       6.478   2.099  -3.607  0.00  0.00     0.165 HD
ATOM     41  H   LIG d   1       8.400   0.490  -4.059  0.00  0.00     0.081 H 
ATOM     42  C   LIG d   1       2.943  -0.043  -2.701  0.00  0.00    -0.060 A 
ATOM     43  H   LIG d   1       3.693   1.945  -2.916  0.00  0.00     0.064 H 
ATOM     44  C   LIG d   1       3.227  -1.400  -2.751  0.00  0.00    -0.061 A 
ATOM     45  H   LIG d   1       1.943   0.286  -2.458  0.00  0.00     0.062 H 
ATOM     46  H   LIG d   1       2.447  -2.119  -2.548  0.00  0.00     0.062 H 
ATOM     47  H   LIG d   1       4.700  -2.894  -3.093  0.00  0.00     0.062 H 
ENDBRANCH  30  33
ENDBRANCH  27  30
ENDBRANCH   1  26
TORSDOF 9
ENDMDL
MODEL 8
REMARK VINA RESULT:      -5.8      2.563      6.577
REMARK  9 active torsions:
REMARK  status: ('A' for Active; 'I' for Inactive)
REMARK    1  A    between atoms: C_1  and  O_2 
REMARK    2  A    between atoms: O_2  and  C_3 
REMARK    3  A    between atoms: C_6  and  C_11 
REMARK    4  A    between atoms: C_8  and  O_9 
REMARK    5  A    between atoms: O_9  and  C_10 
REMARK    6  A    between atoms: C_11  and  C_12 
REMARK    7  A    between atoms: C_12  and  N_13 
REMARK       I    between atoms: N_13  and  C_14 
REMARK    8  A    between atoms: C_14  and  C_16 
REMARK    9  A    between atoms: C_16  and  C_17 
ROOT
ATOM      1  C   LIG d   1       5.139  -4.309  -6.643  0.00  0.00     0.016 C 
ATOM      2  H   LIG d   1       5.415  -5.323  -6.929  0.00  0.00     0.046 H 
ATOM      3  H   LIG d   1       5.955  -3.627  -6.883  0.00  0.00     0.046 H 
ENDROOT
BRANCH   1   4
ATOM      4  C   LIG d   1       4.861  -4.261  -5.139  0.00  0.00    -0.012 C 
ATOM      5  H   LIG d   1       3.901  -4.731  -4.931  0.00  0.00     0.033 H 
ATOM      6  H   LIG d   1       5.650  -4.795  -4.607  0.00  0.00     0.033 H 
BRANCH   4   7
ATOM      7  C   LIG d   1       4.830  -2.827  -4.679  0.00  0.00    -0.042 A 
ATOM      8  C   LIG d   1       4.196  -2.494  -3.496  0.00  0.00    -0.055 A 
ATOM      9  C   LIG d   1       4.171  -1.180  -3.066  0.00  0.00    -0.016 A 
ATOM     10  H   LIG d   1       3.724  -3.264  -2.903  0.00  0.00     0.062 H 
ATOM     11  C   LIG d   1       4.772  -0.192  -3.828  0.00  0.00     0.162 A 
ATOM     12  H   LIG d   1       3.678  -0.925  -2.141  0.00  0.00     0.066 H 
ATOM     13  C   LIG d   1       5.406  -0.524  -5.021  0.00  0.00     0.162 A 
ATOM     14  C   LIG d   1       5.432  -1.844  -5.443  0.00  0.00    -0.013 A 
ATOM     15  H   LIG d   1       5.923  -2.106  -6.369  0.00  0.00     0.066 H 
BRANCH  11  16
ATOM     16  O   LIG d   1       4.744   1.102  -3.410  0.00  0.00    -0.491 OA
BRANCH  16  17
ATOM     17  C   LIG d   1       3.775   1.442  -2.417  0.00  0.00     0.079 C 
ATOM     18  H   LIG d   1       4.119   1.100  -1.441  0.00  0.00     0.066 H 
ATOM     19  H   LIG d   1       3.640   2.524  -2.396  0.00  0.00     0.066 H 
ATOM     20  H   LIG d   1       2.825   0.963  -2.655  0.00  0.00     0.066 H 
ENDBRANCH  16  17
ENDBRANCH  11  16
BRANCH  13  21
ATOM     21  O   LIG d   1       5.998   0.443  -5.772  0.00  0.00    -0.491 OA
BRANCH  21  22
ATOM     22  C   LIG d   1       6.445   0.068  -7.077  0.00  0.00     0.079 C 
ATOM     23  H   LIG d   1       6.820   0.949  -7.598  0.00  0.00     0.066 H 
ATOM     24  H   LIG d   1       7.242  -0.669  -6.990  0.00  0.00     0.066 H 
ATOM     25  H   LIG d   1       5.613  -0.359  -7.637  0.00  0.00     0.066 H 
ENDBRANCH  21  22
ENDBRANCH  13  21
ENDBRANCH   4   7
ENDBRANCH   1   4
BRANCH   1  26
ATOM     26  N   LIG d   1       3.934  -3.907  -7.375  0.00  0.00    -0.315 N 
ATOM     27  C   LIG d   1       4.013  -3.599  -8.684  0.00  0.00     0.217 C 
ATOM     28  O   LIG d   1       5.080  -3.657  -9.258  0.00  0.00    -0.276 OA
ATOM     29  H   LIG d   1       3.081  -3.861  -6.916  0.00  0.00     0.149 HD
BRANCH  27  30
ATOM     30  C   LIG d   1       2.775  -3.185  -9.437  0.00  0.00     0.051 C 
ATOM     31  H   LIG d   1       1.926  -3.161  -8.754  0.00  0.00     0.041 H 
ATOM     32  H   LIG d   1       2.579  -3.902 -10.236  0.00  0.00     0.041 H 
BRANCH  30  33
ATOM     33  C   LIG d   1       2.982  -1.816 -10.031  0.00  0.00    -0.014 A 
ATOM     34  C   LIG d   1       2.993  -0.544  -9.305  0.00  0.00     0.003 A 
ATOM     35  C   LIG d   1       3.226   0.452 -10.270  0.00  0.00     0.047 A 
ATOM     36  C   LIG d   1       2.830  -0.189  -7.965  0.00  0.00    -0.052 A 
ATOM     37  N   LIG d   1       3.345  -0.181 -11.487  0.00  0.00    -0.360 N 
ATOM     38  C   LIG d   1       3.290   1.784  -9.875  0.00  0.00    -0.038 A 
ATOM     39  C   LIG d   1       3.197  -1.532 -11.325  0.00  0.00     0.006 A 
ATOM     40  H   LIG d   1       3.510   0.264 -12.333  0.00  0.00     0.165 HD
ATOM     41  H   LIG d   1       3.247  -2.260 -12.120  0.00  0.00     0.081 H 
ATOM     42  C   LIG d   1       3.126   2.111  -8.546  0.00  0.00    -0.060 A 
ATOM     43  H   LIG d   1       3.468   2.560 -10.605  0.00  0.00     0.064 H 
ATOM     44  C   LIG d   1       2.896   1.125  -7.597  0.00  0.00    -0.061 A 
ATOM     45  H   LIG d   1       3.176   3.146  -8.240  0.00  0.00     0.062 H 
ATOM     46  H   LIG d   1       2.769   1.398  -6.560  0.00  0.00     0.062 H 
ATOM     47  H   LIG d   1       2.651  -0.952  -7.221  0.00  0.00     0.062 H 
ENDBRANCH  30  33
ENDBRANCH  27  30
ENDBRANCH   1  26
TORSDOF 9
ENDMDL
MODEL 9
REMARK VINA RESULT:      -5.8      3.330      5.726
REMARK  9 active torsions:
REMARK  status: ('A' for Active; 'I' for Inactive)
REMARK    1  A    between atoms: C_1  and  O_2 
REMARK    2  A    between atoms: O_2  and  C_3 
REMARK    3  A    between atoms: C_6  and  C_11 
REMARK    4  A    between atoms: C_8  and  O_9 
REMARK    5  A    between atoms: O_9  and  C_10 
REMARK    6  A    between atoms: C_11  and  C_12 
REMARK    7  A    between atoms: C_12  and  N_13 
REMARK       I    between atoms: N_13  and  C_14 
REMARK    8  A    between atoms: C_14  and  C_16 
REMARK    9  A    between atoms: C_16  and  C_17 
ROOT
ATOM      1  C   LIG d   1       8.550  -4.026  -5.380  0.00  0.00     0.016 C 
ATOM      2  H   LIG d   1       8.965  -4.851  -4.802  0.00  0.00     0.046 H 
ATOM      3  H   LIG d   1       8.526  -4.297  -6.436  0.00  0.00     0.046 H 
ENDROOT
BRANCH   1   4
ATOM      4  C   LIG d   1       9.423  -2.783  -5.194  0.00  0.00    -0.012 C 
ATOM      5  H   LIG d   1       9.539  -2.575  -4.131  0.00  0.00     0.033 H 
ATOM      6  H   LIG d   1      10.403  -2.957  -5.640  0.00  0.00     0.033 H 
BRANCH   4   7
ATOM      7  C   LIG d   1       8.769  -1.604  -5.868  0.00  0.00    -0.042 A 
ATOM      8  C   LIG d   1       8.642  -1.579  -7.245  0.00  0.00    -0.055 A 
ATOM      9  C   LIG d   1       8.037  -0.503  -7.868  0.00  0.00    -0.016 A 
ATOM     10  H   LIG d   1       9.013  -2.405  -7.835  0.00  0.00     0.062 H 
ATOM     11  C   LIG d   1       7.566   0.559  -7.112  0.00  0.00     0.162 A 
ATOM     12  H   LIG d   1       7.937  -0.488  -8.942  0.00  0.00     0.066 H 
ATOM     13  C   LIG d   1       7.698   0.536  -5.727  0.00  0.00     0.162 A 
ATOM     14  C   LIG d   1       8.300  -0.548  -5.109  0.00  0.00    -0.013 A 
ATOM     15  H   LIG d   1       8.404  -0.569  -4.034  0.00  0.00     0.066 H 
BRANCH  11  16
ATOM     16  O   LIG d   1       6.975   1.620  -7.722  0.00  0.00    -0.491 OA
BRANCH  16  17
ATOM     17  C   LIG d   1       5.991   1.331  -8.717  0.00  0.00     0.079 C 
ATOM     18  H   LIG d   1       6.484   0.995  -9.629  0.00  0.00     0.066 H 
ATOM     19  H   LIG d   1       5.326   0.547  -8.354  0.00  0.00     0.066 H 
ATOM     20  H   LIG d   1       5.411   2.229  -8.928  0.00  0.00     0.066 H 
ENDBRANCH  16  17
ENDBRANCH  11  16
BRANCH  13  21
ATOM     21  O   LIG d   1       7.236   1.576  -4.981  0.00  0.00    -0.491 OA
BRANCH  21  22
ATOM     22  C   LIG d   1       7.989   1.923  -3.818  0.00  0.00     0.079 C 
ATOM     23  H   LIG d   1       7.793   1.197  -3.028  0.00  0.00     0.066 H 
ATOM     24  H   LIG d   1       9.052   1.919  -4.058  0.00  0.00     0.066 H 
ATOM     25  H   LIG d   1       7.696   2.917  -3.478  0.00  0.00     0.066 H 
ENDBRANCH  21  22
ENDBRANCH  13  21
ENDBRANCH   4   7
ENDBRANCH   1   4
BRANCH   1  26
ATOM     26  N   LIG d   1       7.189  -3.741  -4.917  0.00  0.00    -0.315 N 
ATOM     27  C   LIG d   1       6.145  -3.911  -5.752  0.00  0.00     0.217 C 
ATOM     28  O   LIG d   1       6.331  -4.301  -6.885  0.00  0.00    -0.276 OA
ATOM     29  H   LIG d   1       7.041  -3.430  -4.011  0.00  0.00     0.149 HD
BRANCH  27  30
ATOM     30  C   LIG d   1       4.745  -3.619  -5.276  0.00  0.00     0.051 C 
ATOM     31  H   LIG d   1       4.575  -4.115  -4.322  0.00  0.00     0.041 H 
ATOM     32  H   LIG d   1       4.028  -3.986  -6.011  0.00  0.00     0.041 H 
BRANCH  30  33
ATOM     33  C   LIG d   1       4.573  -2.131  -5.107  0.00  0.00    -0.014 A 
ATOM     34  C   LIG d   1       4.523  -1.398  -3.839  0.00  0.00     0.003 A 
ATOM     35  C   LIG d   1       4.358  -0.043  -4.181  0.00  0.00     0.047 A 
ATOM     36  C   LIG d   1       4.602  -1.773  -2.497  0.00  0.00    -0.052 A 
ATOM     37  N   LIG d   1       4.313   0.027  -5.555  0.00  0.00    -0.360 N 
ATOM     38  C   LIG d   1       4.276   0.909  -3.170  0.00  0.00    -0.038 A 
ATOM     39  C   LIG d   1       4.443  -1.226  -6.089  0.00  0.00     0.006 A 
ATOM     40  H   LIG d   1       4.205   0.843  -6.068  0.00  0.00     0.165 HD
ATOM     41  H   LIG d   1       4.441  -1.452  -7.145  0.00  0.00     0.081 H 
ATOM     42  C   LIG d   1       4.356   0.516  -1.851  0.00  0.00    -0.060 A 
ATOM     43  H   LIG d   1       4.148   1.953  -3.417  0.00  0.00     0.064 H 
ATOM     44  C   LIG d   1       4.518  -0.821  -1.520  0.00  0.00    -0.061 A 
ATOM     45  H   LIG d   1       4.292   1.257  -1.068  0.00  0.00     0.062 H 
ATOM     46  H   LIG d   1       4.579  -1.113  -0.482  0.00  0.00     0.062 H 
ATOM     47  H   LIG d   1       4.729  -2.813  -2.232  0.00  0.00     0.062 H 
ENDBRANCH  30  33
ENDBRANCH  27  30
ENDBRANCH   1  26
TORSDOF 9
ENDMDL
MODEL 10
REMARK VINA RESULT:      -5.8      5.439      8.775
REMARK  9 active torsions:
REMARK  status: ('A' for Active; 'I' for Inactive)
REMARK    1  A    between atoms: C_1  and  O_2 
REMARK    2  A    between atoms: O_2  and  C_3 
REMARK    3  A    between atoms: C_6  and  C_11 
REMARK    4  A    between atoms: C_8  and  O_9 
REMARK    5  A    between atoms: O_9  and  C_10 
REMARK    6  A    between atoms: C_11  and  C_12 
REMARK    7  A    between atoms: C_12  and  N_13 
REMARK       I    between atoms: N_13  and  C_14 
REMARK    8  A    between atoms: C_14  and  C_16 
REMARK    9  A    between atoms: C_16  and  C_17 
ROOT
ATOM      1  C   LIG d   1       9.834   1.912  -4.371  0.00  0.00     0.016 C 
ATOM      2  H   LIG d   1      10.232   2.249  -3.414  0.00  0.00     0.046 H 
ATOM      3  H   LIG d   1      10.653   1.591  -5.014  0.00  0.00     0.046 H 
ENDROOT
BRANCH   1   4
ATOM      4  C   LIG d   1       9.080   3.062  -5.043  0.00  0.00    -0.012 C 
ATOM      5  H   LIG d   1       9.392   3.142  -6.084  0.00  0.00     0.033 H 
ATOM      6  H   LIG d   1       8.007   2.867  -4.999  0.00  0.00     0.033 H 
BRANCH   4   7
ATOM      7  C   LIG d   1       9.385   4.351  -4.325  0.00  0.00    -0.042 A 
ATOM      8  C   LIG d   1       9.253   5.558  -4.987  0.00  0.00    -0.055 A 
ATOM      9  C   LIG d   1       9.525   6.744  -4.330  0.00  0.00    -0.016 A 
ATOM     10  H   LIG d   1       8.932   5.574  -6.018  0.00  0.00     0.062 H 
ATOM     11  C   LIG d   1       9.942   6.723  -3.009  0.00  0.00     0.162 A 
ATOM     12  H   LIG d   1       9.418   7.684  -4.849  0.00  0.00     0.066 H 
ATOM     13  C   LIG d   1      10.079   5.509  -2.344  0.00  0.00     0.162 A 
ATOM     14  C   LIG d   1       9.799   4.324  -3.006  0.00  0.00    -0.013 A 
ATOM     15  H   LIG d   1       9.905   3.380  -2.493  0.00  0.00     0.066 H 
BRANCH  11  16
ATOM     16  O   LIG d   1      10.215   7.888  -2.363  0.00  0.00    -0.491 OA
BRANCH  16  17
ATOM     17  C   LIG d   1      11.426   8.558  -2.717  0.00  0.00     0.079 C 
ATOM     18  H   LIG d   1      12.247   8.168  -2.115  0.00  0.00     0.066 H 
ATOM     19  H   LIG d   1      11.639   8.390  -3.773  0.00  0.00     0.066 H 
ATOM     20  H   LIG d   1      11.319   9.627  -2.534  0.00  0.00     0.066 H 
ENDBRANCH  16  17
ENDBRANCH  11  16
BRANCH  13  21
ATOM     21  O   LIG d   1      10.487   5.484  -1.046  0.00  0.00    -0.491 OA
BRANCH  21  22
ATOM     22  C   LIG d   1      11.872   5.228  -0.807  0.00  0.00     0.079 C 
ATOM     23  H   LIG d   1      12.074   5.297   0.262  0.00  0.00     0.066 H 
ATOM     24  H   LIG d   1      12.123   4.228  -1.160  0.00  0.00     0.066 H 
ATOM     25  H   LIG d   1      12.475   5.964  -1.339  0.00  0.00     0.066 H 
ENDBRANCH  21  22
ENDBRANCH  13  21
ENDBRANCH   4   7
ENDBRANCH   1   4
BRANCH   1  26
ATOM     26  N   LIG d   1       8.917   0.790  -4.150  0.00  0.00    -0.315 N 
ATOM     27  C   LIG d   1       8.892  -0.239  -5.019  0.00  0.00     0.217 C 
ATOM     28  O   LIG d   1       9.629  -0.239  -5.981  0.00  0.00    -0.276 OA
ATOM     29  H   LIG d   1       8.328   0.790  -3.380  0.00  0.00     0.149 HD
BRANCH  27  30
ATOM     30  C   LIG d   1       7.949  -1.393  -4.792  0.00  0.00     0.051 C 
ATOM     31  H   LIG d   1       8.070  -1.766  -3.775  0.00  0.00     0.041 H 
ATOM     32  H   LIG d   1       8.174  -2.191  -5.501  0.00  0.00     0.041 H 
BRANCH  30  33
ATOM     33  C   LIG d   1       6.530  -0.929  -4.992  0.00  0.00    -0.014 A 
ATOM     34  C   LIG d   1       5.416  -1.102  -4.057  0.00  0.00     0.003 A 
ATOM     35  C   LIG d   1       4.298  -0.506  -4.669  0.00  0.00     0.047 A 
ATOM     36  C   LIG d   1       5.288  -1.693  -2.799  0.00  0.00    -0.052 A 
ATOM     37  N   LIG d   1       4.716  -0.012  -5.884  0.00  0.00    -0.360 N 
ATOM     38  C   LIG d   1       3.074  -0.513  -4.009  0.00  0.00    -0.038 A 
ATOM     39  C   LIG d   1       6.048  -0.274  -6.060  0.00  0.00     0.006 A 
ATOM     40  H   LIG d   1       4.151   0.452  -6.522  0.00  0.00     0.165 HD
ATOM     41  H   LIG d   1       6.625   0.007  -6.928  0.00  0.00     0.081 H 
ATOM     42  C   LIG d   1       2.970  -1.103  -2.767  0.00  0.00    -0.060 A 
ATOM     43  H   LIG d   1       2.207  -0.060  -4.467  0.00  0.00     0.064 H 
ATOM     44  C   LIG d   1       4.075  -1.689  -2.168  0.00  0.00    -0.061 A 
ATOM     45  H   LIG d   1       2.019  -1.108  -2.256  0.00  0.00     0.062 H 
ATOM     46  H   LIG d   1       3.978  -2.147  -1.195  0.00  0.00     0.062 H 
ATOM     47  H   LIG d   1       6.144  -2.151  -2.326  0.00  0.00     0.062 H 
ENDBRANCH  30  33
ENDBRANCH  27  30
ENDBRANCH   1  26
TORSDOF 9
ENDMDL
