MODEL 1
REMARK VINA RESULT:      -6.7      0.000      0.000
REMARK  6 active torsions:
REMARK  status: ('A' for Active; 'I' for Inactive)
REMARK    1  A    between atoms: C_1  and  C_2 
REMARK    2  A    between atoms: C_5  and  O_26 
REMARK    3  A    between atoms: C_7  and  C_24 
REMARK    4  A    between atoms: C_7  and  C_25 
REMARK    5  A    between atoms: C_20  and  C_22 
REMARK    6  A    between atoms: C_22  and  O_23 
ROOT
ATOM      1  C   LIG d   1       5.545  -1.553  -3.960  0.00  0.00    -0.025 C 
ATOM      2  C   LIG d   1       4.448  -2.533  -3.554  0.00  0.00    -0.045 C 
ATOM      3  C   LIG d   1       3.735  -2.030  -2.300  0.00  0.00    -0.026 C 
ATOM      4  C   LIG d   1       3.097  -0.674  -2.561  0.00  0.00     0.061 C 
ATOM      5  H   LIG d   1       2.688  -0.296  -1.610  0.00  0.00     0.060 H 
ATOM      6  C   LIG d   1       4.087   0.354  -3.094  0.00  0.00    -0.006 C 
ATOM      7  C   LIG d   1       4.952  -0.175  -4.229  0.00  0.00    -0.028 C 
ATOM      8  H   LIG d   1       5.791   0.529  -4.374  0.00  0.00     0.031 H 
ATOM      9  C   LIG d   1       4.139  -0.196  -5.528  0.00  0.00    -0.048 C 
ATOM     10  C   LIG d   1       5.047  -0.588  -6.700  0.00  0.00    -0.043 C 
ATOM     11  C   LIG d   1       5.589  -1.977  -6.477  0.00  0.00    -0.007 C 
ATOM     12  C   LIG d   1       6.331  -2.106  -5.151  0.00  0.00    -0.026 C 
ATOM     13  H   LIG d   1       7.287  -1.562  -5.221  0.00  0.00     0.031 H 
ATOM     14  C   LIG d   1       6.632  -3.595  -4.922  0.00  0.00    -0.048 C 
ATOM     15  C   LIG d   1       7.348  -4.189  -6.137  0.00  0.00    -0.046 C 
ATOM     16  C   LIG d   1       6.547  -3.888  -7.416  0.00  0.00    -0.017 C 
ATOM     17  H   LIG d   1       6.907  -4.438  -8.285  0.00  0.00     0.035 H 
ATOM     18  C   LIG d   1       6.602  -2.342  -7.601  0.00  0.00    -0.037 C 
ATOM     19  C   LIG d   1       5.077  -4.134  -7.119  0.00  0.00    -0.045 C 
ATOM     20  C   LIG d   1       4.542  -3.055  -6.590  0.00  0.00    -0.076 C 
ATOM     21  H   LIG d   1       3.727  -2.638  -4.364  0.00  0.00     0.027 H 
ATOM     22  H   LIG d   1       4.888  -3.509  -3.336  0.00  0.00     0.027 H 
ATOM     23  H   LIG d   1       2.943  -2.748  -2.043  0.00  0.00     0.029 H 
ATOM     24  H   LIG d   1       4.417  -1.980  -1.456  0.00  0.00     0.029 H 
ATOM     25  H   LIG d   1       3.326  -0.916  -5.447  0.00  0.00     0.027 H 
ATOM     26  H   LIG d   1       3.739   0.786  -5.777  0.00  0.00     0.027 H 
ATOM     27  H   LIG d   1       4.470  -0.565  -7.623  0.00  0.00     0.027 H 
ATOM     28  H   LIG d   1       5.872   0.120  -6.766  0.00  0.00     0.027 H 
ATOM     29  H   LIG d   1       7.277  -3.718  -4.052  0.00  0.00     0.027 H 
ATOM     30  H   LIG d   1       5.706  -4.142  -4.764  0.00  0.00     0.027 H 
ATOM     31  H   LIG d   1       8.343  -3.749  -6.219  0.00  0.00     0.027 H 
ATOM     32  H   LIG d   1       7.441  -5.268  -6.010  0.00  0.00     0.027 H 
ATOM     33  H   LIG d   1       6.239  -2.038  -8.582  0.00  0.00     0.028 H 
ATOM     34  H   LIG d   1       7.593  -1.942  -7.394  0.00  0.00     0.028 H 
ATOM     35  H   LIG d   1       3.508  -2.962  -6.291  0.00  0.00     0.058 H 
ENDROOT
BRANCH   6  36
ATOM     36  C   LIG d   1       4.935   0.903  -1.936  0.00  0.00    -0.057 C 
ATOM     37  H   LIG d   1       4.853   1.990  -1.909  0.00  0.00     0.024 H 
ATOM     38  H   LIG d   1       4.577   0.488  -0.995  0.00  0.00     0.024 H 
ATOM     39  H   LIG d   1       5.977   0.621  -2.084  0.00  0.00     0.024 H 
ENDBRANCH   6  36
BRANCH   6  40
ATOM     40  C   LIG d   1       3.256   1.563  -3.587  0.00  0.00    -0.057 C 
ATOM     41  H   LIG d   1       3.920   2.404  -3.785  0.00  0.00     0.024 H 
ATOM     42  H   LIG d   1       2.729   1.293  -4.503  0.00  0.00     0.024 H 
ATOM     43  H   LIG d   1       2.533   1.843  -2.821  0.00  0.00     0.024 H 
ENDBRANCH   6  40
BRANCH   4  44
ATOM     44  O   LIG d   1       2.006  -0.817  -3.475  0.00  0.00    -0.391 OA
ATOM     45  H   LIG d   1       1.216  -0.314  -3.229  0.00  0.00     0.210 HD
ENDBRANCH   4  44
BRANCH   1  46
ATOM     46  C   LIG d   1       6.574  -1.473  -2.814  0.00  0.00    -0.059 C 
ATOM     47  H   LIG d   1       6.082  -1.124  -1.907  0.00  0.00     0.024 H 
ATOM     48  H   LIG d   1       7.000  -2.461  -2.637  0.00  0.00     0.024 H 
ATOM     49  H   LIG d   1       7.369  -0.779  -3.086  0.00  0.00     0.024 H 
ENDBRANCH   1  46
BRANCH  19  50
ATOM     50  C   LIG d   1       4.341  -5.419  -7.394  0.00  0.00     0.066 C 
ATOM     51  H   LIG d   1       4.191  -5.529  -8.469  0.00  0.00     0.060 H 
ATOM     52  H   LIG d   1       4.924  -6.260  -7.022  0.00  0.00     0.060 H 
BRANCH  50  53
ATOM     53  O   LIG d   1       3.072  -5.391  -6.738  0.00  0.00    -0.391 OA
ATOM     54  H   LIG d   1       3.111  -5.088  -5.819  0.00  0.00     0.210 HD
ENDBRANCH  50  53
ENDBRANCH  19  50
TORSDOF 6
ENDMDL
MODEL 2
REMARK VINA RESULT:      -6.3      1.517      5.420
REMARK  6 active torsions:
REMARK  status: ('A' for Active; 'I' for Inactive)
REMARK    1  A    between atoms: C_1  and  C_2 
REMARK    2  A    between atoms: C_5  and  O_26 
REMARK    3  A    between atoms: C_7  and  C_24 
REMARK    4  A    between atoms: C_7  and  C_25 
REMARK    5  A    between atoms: C_20  and  C_22 
REMARK    6  A    between atoms: C_22  and  O_23 
ROOT
ATOM      1  C   LIG d   1       6.646  -1.810  -4.618  0.00  0.00    -0.025 C 
ATOM      2  C   LIG d   1       6.202  -1.233  -5.960  0.00  0.00    -0.045 C 
ATOM      3  C   LIG d   1       6.918  -1.953  -7.101  0.00  0.00    -0.026 C 
ATOM      4  C   LIG d   1       6.587  -3.438  -7.082  0.00  0.00     0.061 C 
ATOM      5  H   LIG d   1       7.202  -3.939  -7.848  0.00  0.00     0.060 H 
ATOM      6  C   LIG d   1       6.876  -4.092  -5.737  0.00  0.00    -0.006 C 
ATOM      7  C   LIG d   1       6.337  -3.301  -4.554  0.00  0.00    -0.028 C 
ATOM      8  H   LIG d   1       6.803  -3.701  -3.636  0.00  0.00     0.031 H 
ATOM      9  C   LIG d   1       4.825  -3.521  -4.435  0.00  0.00    -0.048 C 
ATOM     10  C   LIG d   1       4.303  -2.846  -3.162  0.00  0.00    -0.043 C 
ATOM     11  C   LIG d   1       4.544  -1.359  -3.241  0.00  0.00    -0.007 C 
ATOM     12  C   LIG d   1       6.013  -1.020  -3.470  0.00  0.00    -0.026 C 
ATOM     13  H   LIG d   1       6.578  -1.233  -2.548  0.00  0.00     0.031 H 
ATOM     14  C   LIG d   1       6.109   0.484  -3.766  0.00  0.00    -0.048 C 
ATOM     15  C   LIG d   1       5.411   1.291  -2.669  0.00  0.00    -0.046 C 
ATOM     16  C   LIG d   1       3.978   0.769  -2.467  0.00  0.00    -0.017 C 
ATOM     17  H   LIG d   1       3.372   1.417  -1.833  0.00  0.00     0.035 H 
ATOM     18  C   LIG d   1       4.124  -0.677  -1.907  0.00  0.00    -0.037 C 
ATOM     19  C   LIG d   1       3.365   0.533  -3.838  0.00  0.00    -0.045 C 
ATOM     20  C   LIG d   1       3.688  -0.667  -4.270  0.00  0.00    -0.076 C 
ATOM     21  H   LIG d   1       5.125  -1.351  -6.075  0.00  0.00     0.027 H 
ATOM     22  H   LIG d   1       6.454  -0.171  -6.006  0.00  0.00     0.027 H 
ATOM     23  H   LIG d   1       6.566  -1.527  -8.052  0.00  0.00     0.029 H 
ATOM     24  H   LIG d   1       7.992  -1.796  -7.051  0.00  0.00     0.029 H 
ATOM     25  H   LIG d   1       4.318  -3.096  -5.300  0.00  0.00     0.027 H 
ATOM     26  H   LIG d   1       4.570  -4.576  -4.339  0.00  0.00     0.027 H 
ATOM     27  H   LIG d   1       3.236  -3.038  -3.067  0.00  0.00     0.027 H 
ATOM     28  H   LIG d   1       4.827  -3.255  -2.299  0.00  0.00     0.027 H 
ATOM     29  H   LIG d   1       7.153   0.793  -3.805  0.00  0.00     0.027 H 
ATOM     30  H   LIG d   1       5.632   0.708  -4.718  0.00  0.00     0.027 H 
ATOM     31  H   LIG d   1       5.969   1.190  -1.738  0.00  0.00     0.027 H 
ATOM     32  H   LIG d   1       5.380   2.341  -2.958  0.00  0.00     0.027 H 
ATOM     33  H   LIG d   1       3.176  -1.068  -1.539  0.00  0.00     0.028 H 
ATOM     34  H   LIG d   1       4.909  -0.746  -1.156  0.00  0.00     0.028 H 
ATOM     35  H   LIG d   1       3.377  -1.087  -5.216  0.00  0.00     0.058 H 
ENDROOT
BRANCH   6  36
ATOM     36  C   LIG d   1       8.384  -4.360  -5.607  0.00  0.00    -0.057 C 
ATOM     37  H   LIG d   1       8.884  -4.078  -6.534  0.00  0.00     0.024 H 
ATOM     38  H   LIG d   1       8.788  -3.773  -4.783  0.00  0.00     0.024 H 
ATOM     39  H   LIG d   1       8.549  -5.419  -5.414  0.00  0.00     0.024 H 
ENDBRANCH   6  36
BRANCH   6  40
ATOM     40  C   LIG d   1       6.224  -5.495  -5.772  0.00  0.00    -0.057 C 
ATOM     41  H   LIG d   1       5.170  -5.412  -5.510  0.00  0.00     0.024 H 
ATOM     42  H   LIG d   1       6.318  -5.915  -6.773  0.00  0.00     0.024 H 
ATOM     43  H   LIG d   1       6.726  -6.146  -5.056  0.00  0.00     0.024 H 
ENDBRANCH   6  40
BRANCH   4  44
ATOM     44  O   LIG d   1       5.214  -3.635  -7.433  0.00  0.00    -0.391 OA
ATOM     45  H   LIG d   1       4.729  -4.206  -6.820  0.00  0.00     0.210 HD
ENDBRANCH   4  44
BRANCH   1  46
ATOM     46  C   LIG d   1       8.163  -1.575  -4.467  0.00  0.00    -0.059 C 
ATOM     47  H   LIG d   1       8.677  -2.535  -4.422  0.00  0.00     0.024 H 
ATOM     48  H   LIG d   1       8.530  -1.007  -5.322  0.00  0.00     0.024 H 
ATOM     49  H   LIG d   1       8.355  -1.017  -3.551  0.00  0.00     0.024 H 
ENDBRANCH   1  46
BRANCH  19  50
ATOM     50  C   LIG d   1       2.512   1.522  -4.588  0.00  0.00     0.066 C 
ATOM     51  H   LIG d   1       1.459   1.316  -4.391  0.00  0.00     0.060 H 
ATOM     52  H   LIG d   1       2.752   2.532  -4.259  0.00  0.00     0.060 H 
BRANCH  50  53
ATOM     53  O   LIG d   1       2.766   1.404  -5.989  0.00  0.00    -0.391 OA
ATOM     54  H   LIG d   1       2.736   0.495  -6.319  0.00  0.00     0.210 HD
ENDBRANCH  50  53
ENDBRANCH  19  50
TORSDOF 6
ENDMDL
MODEL 3
REMARK VINA RESULT:      -6.2      2.728      4.423
REMARK  6 active torsions:
REMARK  status: ('A' for Active; 'I' for Inactive)
REMARK    1  A    between atoms: C_1  and  C_2 
REMARK    2  A    between atoms: C_5  and  O_26 
REMARK    3  A    between atoms: C_7  and  C_24 
REMARK    4  A    between atoms: C_7  and  C_25 
REMARK    5  A    between atoms: C_20  and  C_22 
REMARK    6  A    between atoms: C_22  and  O_23 
ROOT
ATOM      1  C   LIG d   1       5.386  -0.503  -6.511  0.00  0.00    -0.025 C 
ATOM      2  C   LIG d   1       5.245  -1.887  -7.140  0.00  0.00    -0.045 C 
ATOM      3  C   LIG d   1       5.941  -2.931  -6.267  0.00  0.00    -0.026 C 
ATOM      4  C   LIG d   1       5.315  -2.966  -4.881  0.00  0.00     0.061 C 
ATOM      5  H   LIG d   1       5.909  -3.648  -4.251  0.00  0.00     0.060 H 
ATOM      6  C   LIG d   1       5.289  -1.599  -4.208  0.00  0.00    -0.006 C 
ATOM      7  C   LIG d   1       4.775  -0.491  -5.115  0.00  0.00    -0.028 C 
ATOM      8  H   LIG d   1       5.028   0.478  -4.647  0.00  0.00     0.031 H 
ATOM      9  C   LIG d   1       3.247  -0.571  -5.209  0.00  0.00    -0.048 C 
ATOM     10  C   LIG d   1       2.714   0.629  -6.000  0.00  0.00    -0.043 C 
ATOM     11  C   LIG d   1       3.260   0.592  -7.405  0.00  0.00    -0.007 C 
ATOM     12  C   LIG d   1       4.784   0.558  -7.435  0.00  0.00    -0.026 C 
ATOM     13  H   LIG d   1       5.171   1.544  -7.131  0.00  0.00     0.031 H 
ATOM     14  C   LIG d   1       5.221   0.287  -8.883  0.00  0.00    -0.048 C 
ATOM     15  C   LIG d   1       4.566   1.291  -9.835  0.00  0.00    -0.046 C 
ATOM     16  C   LIG d   1       3.044   1.301  -9.619  0.00  0.00    -0.017 C 
ATOM     17  H   LIG d   1       2.506   1.855 -10.388  0.00  0.00     0.035 H 
ATOM     18  C   LIG d   1       2.820   1.864  -8.184  0.00  0.00    -0.037 C 
ATOM     19  C   LIG d   1       2.577  -0.140  -9.484  0.00  0.00    -0.045 C 
ATOM     20  C   LIG d   1       2.702  -0.535  -8.236  0.00  0.00    -0.076 C 
ATOM     21  H   LIG d   1       4.190  -2.143  -7.240  0.00  0.00     0.027 H 
ATOM     22  H   LIG d   1       5.711  -1.893  -8.128  0.00  0.00     0.027 H 
ATOM     23  H   LIG d   1       5.808  -3.916  -6.738  0.00  0.00     0.029 H 
ATOM     24  H   LIG d   1       7.008  -2.740  -6.205  0.00  0.00     0.029 H 
ATOM     25  H   LIG d   1       2.952  -1.492  -5.710  0.00  0.00     0.027 H 
ATOM     26  H   LIG d   1       2.773  -0.516  -4.229  0.00  0.00     0.027 H 
ATOM     27  H   LIG d   1       1.627   0.583  -6.030  0.00  0.00     0.027 H 
ATOM     28  H   LIG d   1       3.028   1.549  -5.510  0.00  0.00     0.027 H 
ATOM     29  H   LIG d   1       6.303   0.387  -8.973  0.00  0.00     0.027 H 
ATOM     30  H   LIG d   1       4.926  -0.717  -9.179  0.00  0.00     0.027 H 
ATOM     31  H   LIG d   1       4.968   2.285  -9.642  0.00  0.00     0.027 H 
ATOM     32  H   LIG d   1       4.787   1.007 -10.865  0.00  0.00     0.027 H 
ATOM     33  H   LIG d   1       1.772   2.104  -8.001  0.00  0.00     0.028 H 
ATOM     34  H   LIG d   1       3.471   2.711  -7.972  0.00  0.00     0.028 H 
ATOM     35  H   LIG d   1       2.437  -1.516  -7.869  0.00  0.00     0.058 H 
ENDROOT
BRANCH   6  36
ATOM     36  C   LIG d   1       6.682  -1.276  -3.643  0.00  0.00    -0.057 C 
ATOM     37  H   LIG d   1       6.973  -2.048  -2.931  0.00  0.00     0.024 H 
ATOM     38  H   LIG d   1       7.405  -1.242  -4.457  0.00  0.00     0.024 H 
ATOM     39  H   LIG d   1       6.654  -0.310  -3.141  0.00  0.00     0.024 H 
ENDBRANCH   6  36
BRANCH   6  40
ATOM     40  C   LIG d   1       4.375  -1.728  -2.966  0.00  0.00    -0.057 C 
ATOM     41  H   LIG d   1       3.348  -1.891  -3.287  0.00  0.00     0.024 H 
ATOM     42  H   LIG d   1       4.705  -2.571  -2.358  0.00  0.00     0.024 H 
ATOM     43  H   LIG d   1       4.431  -0.812  -2.378  0.00  0.00     0.024 H 
ENDBRANCH   6  40
BRANCH   4  44
ATOM     44  O   LIG d   1       3.987  -3.493  -4.959  0.00  0.00    -0.391 OA
ATOM     45  H   LIG d   1       3.400  -2.996  -5.546  0.00  0.00     0.210 HD
ENDBRANCH   4  44
BRANCH   1  46
ATOM     46  C   LIG d   1       6.887  -0.155  -6.437  0.00  0.00    -0.059 C 
ATOM     47  H   LIG d   1       7.199  -0.111  -5.394  0.00  0.00     0.024 H 
ATOM     48  H   LIG d   1       7.464  -0.920  -6.957  0.00  0.00     0.024 H 
ATOM     49  H   LIG d   1       7.059   0.813  -6.908  0.00  0.00     0.024 H 
ENDBRANCH   1  46
BRANCH  19  50
ATOM     50  C   LIG d   1       2.047  -0.987 -10.611  0.00  0.00     0.066 C 
ATOM     51  H   LIG d   1       2.423  -0.606 -11.560  0.00  0.00     0.060 H 
ATOM     52  H   LIG d   1       2.376  -2.017 -10.477  0.00  0.00     0.060 H 
BRANCH  50  53
ATOM     53  O   LIG d   1       0.619  -0.940 -10.612  0.00  0.00    -0.391 OA
ATOM     54  H   LIG d   1       0.254  -0.063 -10.423  0.00  0.00     0.210 HD
ENDBRANCH  50  53
ENDBRANCH  19  50
TORSDOF 6
ENDMDL
MODEL 4
REMARK VINA RESULT:      -6.2      2.574      5.564
REMARK  6 active torsions:
REMARK  status: ('A' for Active; 'I' for Inactive)
REMARK    1  A    between atoms: C_1  and  C_2 
REMARK    2  A    between atoms: C_5  and  O_26 
REMARK    3  A    between atoms: C_7  and  C_24 
REMARK    4  A    between atoms: C_7  and  C_25 
REMARK    5  A    between atoms: C_20  and  C_22 
REMARK    6  A    between atoms: C_22  and  O_23 
ROOT
ATOM      1  C   LIG d   1       7.543   0.027  -4.377  0.00  0.00    -0.025 C 
ATOM      2  C   LIG d   1       6.915   0.674  -5.609  0.00  0.00    -0.045 C 
ATOM      3  C   LIG d   1       7.982   0.912  -6.677  0.00  0.00    -0.026 C 
ATOM      4  C   LIG d   1       8.616  -0.407  -7.095  0.00  0.00     0.061 C 
ATOM      5  H   LIG d   1       9.450  -0.186  -7.782  0.00  0.00     0.060 H 
ATOM      6  C   LIG d   1       9.168  -1.199  -5.917  0.00  0.00    -0.006 C 
ATOM      7  C   LIG d   1       8.196  -1.298  -4.750  0.00  0.00    -0.028 C 
ATOM      8  H   LIG d   1       8.758  -1.655  -3.868  0.00  0.00     0.031 H 
ATOM      9  C   LIG d   1       7.121  -2.345  -5.064  0.00  0.00    -0.048 C 
ATOM     10  C   LIG d   1       6.228  -2.554  -3.835  0.00  0.00    -0.043 C 
ATOM     11  C   LIG d   1       5.525  -1.264  -3.495  0.00  0.00    -0.007 C 
ATOM     12  C   LIG d   1       6.499  -0.113  -3.267  0.00  0.00    -0.026 C 
ATOM     13  H   LIG d   1       7.026  -0.274  -2.312  0.00  0.00     0.031 H 
ATOM     14  C   LIG d   1       5.682   1.183  -3.162  0.00  0.00    -0.048 C 
ATOM     15  C   LIG d   1       4.580   1.036  -2.110  0.00  0.00    -0.046 C 
ATOM     16  C   LIG d   1       3.746  -0.224  -2.399  0.00  0.00    -0.017 C 
ATOM     17  H   LIG d   1       2.838  -0.283  -1.798  0.00  0.00     0.035 H 
ATOM     18  C   LIG d   1       4.706  -1.431  -2.183  0.00  0.00    -0.037 C 
ATOM     19  C   LIG d   1       3.477  -0.278  -3.894  0.00  0.00    -0.045 C 
ATOM     20  C   LIG d   1       4.483  -0.864  -4.508  0.00  0.00    -0.076 C 
ATOM     21  H   LIG d   1       6.137   0.026  -6.012  0.00  0.00     0.027 H 
ATOM     22  H   LIG d   1       6.476   1.636  -5.336  0.00  0.00     0.027 H 
ATOM     23  H   LIG d   1       7.497   1.363  -7.554  0.00  0.00     0.029 H 
ATOM     24  H   LIG d   1       8.737   1.610  -6.326  0.00  0.00     0.029 H 
ATOM     25  H   LIG d   1       6.509  -2.010  -5.900  0.00  0.00     0.027 H 
ATOM     26  H   LIG d   1       7.552  -3.320  -5.289  0.00  0.00     0.027 H 
ATOM     27  H   LIG d   1       5.491  -3.324  -4.056  0.00  0.00     0.027 H 
ATOM     28  H   LIG d   1       6.844  -2.866  -2.994  0.00  0.00     0.027 H 
ATOM     29  H   LIG d   1       6.327   2.010  -2.867  0.00  0.00     0.027 H 
ATOM     30  H   LIG d   1       5.220   1.411  -4.120  0.00  0.00     0.027 H 
ATOM     31  H   LIG d   1       5.033   0.953  -1.123  0.00  0.00     0.027 H 
ATOM     32  H   LIG d   1       3.935   1.915  -2.138  0.00  0.00     0.027 H 
ATOM     33  H   LIG d   1       4.168  -2.379  -2.164  0.00  0.00     0.028 H 
ATOM     34  H   LIG d   1       5.330  -1.303  -1.300  0.00  0.00     0.028 H 
ATOM     35  H   LIG d   1       4.542  -1.035  -5.573  0.00  0.00     0.058 H 
ENDROOT
BRANCH   6  36
ATOM     36  C   LIG d   1      10.520  -0.610  -5.487  0.00  0.00    -0.057 C 
ATOM     37  H   LIG d   1      10.367   0.086  -4.662  0.00  0.00     0.024 H 
ATOM     38  H   LIG d   1      11.182  -1.414  -5.166  0.00  0.00     0.024 H 
ATOM     39  H   LIG d   1      10.971  -0.083  -6.328  0.00  0.00     0.024 H 
ENDBRANCH   6  36
BRANCH   6  40
ATOM     40  C   LIG d   1       9.500  -2.615  -6.446  0.00  0.00    -0.057 C 
ATOM     41  H   LIG d   1      10.448  -2.590  -6.981  0.00  0.00     0.024 H 
ATOM     42  H   LIG d   1       9.573  -3.308  -5.607  0.00  0.00     0.024 H 
ATOM     43  H   LIG d   1       8.710  -2.944  -7.122  0.00  0.00     0.024 H 
ENDBRANCH   6  40
BRANCH   4  44
ATOM     44  O   LIG d   1       7.664  -1.199  -7.811  0.00  0.00    -0.391 OA
ATOM     45  H   LIG d   1       7.528  -2.082  -7.439  0.00  0.00     0.210 HD
ENDBRANCH   4  44
BRANCH   1  46
ATOM     46  C   LIG d   1       8.598   0.996  -3.805  0.00  0.00    -0.059 C 
ATOM     47  H   LIG d   1       9.512   0.929  -4.395  0.00  0.00     0.024 H 
ATOM     48  H   LIG d   1       8.215   2.016  -3.844  0.00  0.00     0.024 H 
ATOM     49  H   LIG d   1       8.814   0.729  -2.770  0.00  0.00     0.024 H 
ENDBRANCH   1  46
BRANCH  19  50
ATOM     50  C   LIG d   1       2.242   0.254  -4.573  0.00  0.00     0.066 C 
ATOM     51  H   LIG d   1       1.986  -0.388  -5.416  0.00  0.00     0.060 H 
ATOM     52  H   LIG d   1       1.415   0.270  -3.864  0.00  0.00     0.060 H 
BRANCH  50  53
ATOM     53  O   LIG d   1       2.492   1.580  -5.044  0.00  0.00    -0.391 OA
ATOM     54  H   LIG d   1       3.300   1.666  -5.569  0.00  0.00     0.210 HD
ENDBRANCH  50  53
ENDBRANCH  19  50
TORSDOF 6
ENDMDL
MODEL 5
REMARK VINA RESULT:      -6.1      2.987      4.129
REMARK  6 active torsions:
REMARK  status: ('A' for Active; 'I' for Inactive)
REMARK    1  A    between atoms: C_1  and  C_2 
REMARK    2  A    between atoms: C_5  and  O_26 
REMARK    3  A    between atoms: C_7  and  C_24 
REMARK    4  A    between atoms: C_7  and  C_25 
REMARK    5  A    between atoms: C_20  and  C_22 
REMARK    6  A    between atoms: C_22  and  O_23 
ROOT
ATOM      1  C   LIG d   1       6.343  -0.991  -4.467  0.00  0.00    -0.025 C 
ATOM      2  C   LIG d   1       5.314  -0.593  -5.522  0.00  0.00    -0.045 C 
ATOM      3  C   LIG d   1       3.901  -0.836  -4.992  0.00  0.00    -0.026 C 
ATOM      4  C   LIG d   1       3.654  -0.006  -3.741  0.00  0.00     0.061 C 
ATOM      5  H   LIG d   1       2.672  -0.287  -3.329  0.00  0.00     0.060 H 
ATOM      6  C   LIG d   1       4.705  -0.233  -2.662  0.00  0.00    -0.006 C 
ATOM      7  C   LIG d   1       6.131  -0.186  -3.191  0.00  0.00    -0.028 C 
ATOM      8  H   LIG d   1       6.797  -0.605  -2.415  0.00  0.00     0.031 H 
ATOM      9  C   LIG d   1       6.549   1.273  -3.413  0.00  0.00    -0.048 C 
ATOM     10  C   LIG d   1       8.029   1.333  -3.804  0.00  0.00    -0.043 C 
ATOM     11  C   LIG d   1       8.241   0.594  -5.102  0.00  0.00    -0.007 C 
ATOM     12  C   LIG d   1       7.758  -0.850  -5.034  0.00  0.00    -0.026 C 
ATOM     13  H   LIG d   1       8.447  -1.429  -4.396  0.00  0.00     0.031 H 
ATOM     14  C   LIG d   1       7.803  -1.430  -6.455  0.00  0.00    -0.048 C 
ATOM     15  C   LIG d   1       9.190  -1.229  -7.071  0.00  0.00    -0.046 C 
ATOM     16  C   LIG d   1       9.596   0.251  -6.972  0.00  0.00    -0.017 C 
ATOM     17  H   LIG d   1      10.487   0.490  -7.553  0.00  0.00     0.035 H 
ATOM     18  C   LIG d   1       9.756   0.550  -5.451  0.00  0.00    -0.037 C 
ATOM     19  C   LIG d   1       8.391   1.098  -7.349  0.00  0.00    -0.045 C 
ATOM     20  C   LIG d   1       7.630   1.287  -6.293  0.00  0.00    -0.076 C 
ATOM     21  H   LIG d   1       5.430   0.460  -5.775  0.00  0.00     0.027 H 
ATOM     22  H   LIG d   1       5.456  -1.197  -6.422  0.00  0.00     0.027 H 
ATOM     23  H   LIG d   1       3.185  -0.526  -5.767  0.00  0.00     0.029 H 
ATOM     24  H   LIG d   1       3.734  -1.891  -4.795  0.00  0.00     0.029 H 
ATOM     25  H   LIG d   1       5.949   1.714  -4.207  0.00  0.00     0.027 H 
ATOM     26  H   LIG d   1       6.455   1.869  -2.505  0.00  0.00     0.027 H 
ATOM     27  H   LIG d   1       8.325   2.374  -3.925  0.00  0.00     0.027 H 
ATOM     28  H   LIG d   1       8.627   0.871  -3.020  0.00  0.00     0.027 H 
ATOM     29  H   LIG d   1       7.593  -2.499  -6.431  0.00  0.00     0.027 H 
ATOM     30  H   LIG d   1       7.068  -0.933  -7.084  0.00  0.00     0.027 H 
ATOM     31  H   LIG d   1       9.914  -1.842  -6.534  0.00  0.00     0.027 H 
ATOM     32  H   LIG d   1       9.167  -1.532  -8.118  0.00  0.00     0.027 H 
ATOM     33  H   LIG d   1      10.237   1.511  -5.274  0.00  0.00     0.028 H 
ATOM     34  H   LIG d   1      10.266  -0.259  -4.928  0.00  0.00     0.028 H 
ATOM     35  H   LIG d   1       6.713   1.859  -6.287  0.00  0.00     0.058 H 
ENDROOT
BRANCH   6  36
ATOM     36  C   LIG d   1       4.412  -1.550  -1.925  0.00  0.00    -0.057 C 
ATOM     37  H   LIG d   1       5.324  -2.144  -1.868  0.00  0.00     0.024 H 
ATOM     38  H   LIG d   1       4.056  -1.332  -0.919  0.00  0.00     0.024 H 
ATOM     39  H   LIG d   1       3.649  -2.107  -2.468  0.00  0.00     0.024 H 
ENDBRANCH   6  36
BRANCH   6  40
ATOM     40  C   LIG d   1       4.502   0.872  -1.598  0.00  0.00    -0.057 C 
ATOM     41  H   LIG d   1       5.373   1.527  -1.584  0.00  0.00     0.024 H 
ATOM     42  H   LIG d   1       3.614   1.454  -1.844  0.00  0.00     0.024 H 
ATOM     43  H   LIG d   1       4.376   0.413  -0.618  0.00  0.00     0.024 H 
ENDBRANCH   6  40
BRANCH   4  44
ATOM     44  O   LIG d   1       3.600   1.383  -4.081  0.00  0.00    -0.391 OA
ATOM     45  H   LIG d   1       3.635   1.977  -3.318  0.00  0.00     0.210 HD
ENDBRANCH   4  44
BRANCH   1  46
ATOM     46  C   LIG d   1       6.184  -2.498  -4.177  0.00  0.00    -0.059 C 
ATOM     47  H   LIG d   1       6.120  -2.656  -3.100  0.00  0.00     0.024 H 
ATOM     48  H   LIG d   1       5.274  -2.865  -4.652  0.00  0.00     0.024 H 
ATOM     49  H   LIG d   1       7.044  -3.037  -4.573  0.00  0.00     0.024 H 
ENDBRANCH   1  46
BRANCH  19  50
ATOM     50  C   LIG d   1       8.112   1.642  -8.725  0.00  0.00     0.066 C 
ATOM     51  H   LIG d   1       8.708   2.540  -8.889  0.00  0.00     0.060 H 
ATOM     52  H   LIG d   1       8.372   0.893  -9.472  0.00  0.00     0.060 H 
BRANCH  50  53
ATOM     53  O   LIG d   1       6.724   1.965  -8.837  0.00  0.00    -0.391 OA
ATOM     54  H   LIG d   1       6.479   2.359  -9.686  0.00  0.00     0.210 HD
ENDBRANCH  50  53
ENDBRANCH  19  50
TORSDOF 6
ENDMDL
MODEL 6
REMARK VINA RESULT:      -5.3      8.580     11.443
REMARK  6 active torsions:
REMARK  status: ('A' for Active; 'I' for Inactive)
REMARK    1  A    between atoms: C_1  and  C_2 
REMARK    2  A    between atoms: C_5  and  O_26 
REMARK    3  A    between atoms: C_7  and  C_24 
REMARK    4  A    between atoms: C_7  and  C_25 
REMARK    5  A    between atoms: C_20  and  C_22 
REMARK    6  A    between atoms: C_22  and  O_23 
ROOT
ATOM      1  C   LIG d   1      10.494   5.519  -3.430  0.00  0.00    -0.025 C 
ATOM      2  C   LIG d   1      10.073   4.390  -2.493  0.00  0.00    -0.045 C 
ATOM      3  C   LIG d   1       9.788   3.122  -3.296  0.00  0.00    -0.026 C 
ATOM      4  C   LIG d   1      11.033   2.681  -4.052  0.00  0.00     0.061 C 
ATOM      5  H   LIG d   1      10.761   1.832  -4.700  0.00  0.00     0.060 H 
ATOM      6  C   LIG d   1      11.614   3.783  -4.929  0.00  0.00    -0.006 C 
ATOM      7  C   LIG d   1      11.739   5.120  -4.214  0.00  0.00    -0.028 C 
ATOM      8  H   LIG d   1      11.919   5.899  -4.977  0.00  0.00     0.031 H 
ATOM      9  C   LIG d   1      12.959   5.095  -3.286  0.00  0.00    -0.048 C 
ATOM     10  C   LIG d   1      13.174   6.484  -2.677  0.00  0.00    -0.043 C 
ATOM     11  C   LIG d   1      11.975   6.863  -1.844  0.00  0.00    -0.007 C 
ATOM     12  C   LIG d   1      10.676   6.817  -2.641  0.00  0.00    -0.026 C 
ATOM     13  H   LIG d   1      10.661   7.661  -3.351  0.00  0.00     0.031 H 
ATOM     14  C   LIG d   1       9.511   6.988  -1.655  0.00  0.00    -0.048 C 
ATOM     15  C   LIG d   1       9.714   8.241  -0.800  0.00  0.00    -0.046 C 
ATOM     16  C   LIG d   1      11.105   8.208  -0.145  0.00  0.00    -0.017 C 
ATOM     17  H   LIG d   1      11.238   8.976   0.617  0.00  0.00     0.035 H 
ATOM     18  C   LIG d   1      12.130   8.318  -1.314  0.00  0.00    -0.037 C 
ATOM     19  C   LIG d   1      11.348   6.801   0.376  0.00  0.00    -0.045 C 
ATOM     20  C   LIG d   1      11.836   6.047  -0.585  0.00  0.00    -0.076 C 
ATOM     21  H   LIG d   1      10.866   4.192  -1.772  0.00  0.00     0.027 H 
ATOM     22  H   LIG d   1       9.164   4.675  -1.958  0.00  0.00     0.027 H 
ATOM     23  H   LIG d   1       9.503   2.326  -2.593  0.00  0.00     0.029 H 
ATOM     24  H   LIG d   1       8.955   3.270  -3.977  0.00  0.00     0.029 H 
ATOM     25  H   LIG d   1      12.804   4.372  -2.487  0.00  0.00     0.027 H 
ATOM     26  H   LIG d   1      13.877   4.859  -3.823  0.00  0.00     0.027 H 
ATOM     27  H   LIG d   1      14.063   6.466  -2.048  0.00  0.00     0.027 H 
ATOM     28  H   LIG d   1      13.307   7.211  -3.477  0.00  0.00     0.027 H 
ATOM     29  H   LIG d   1       8.572   7.094  -2.199  0.00  0.00     0.027 H 
ATOM     30  H   LIG d   1       9.450   6.124  -0.997  0.00  0.00     0.027 H 
ATOM     31  H   LIG d   1       9.629   9.125  -1.431  0.00  0.00     0.027 H 
ATOM     32  H   LIG d   1       8.947   8.277  -0.026  0.00  0.00     0.027 H 
ATOM     33  H   LIG d   1      13.140   8.507  -0.952  0.00  0.00     0.028 H 
ATOM     34  H   LIG d   1      11.823   9.052  -2.057  0.00  0.00     0.028 H 
ATOM     35  H   LIG d   1      12.102   5.005  -0.478  0.00  0.00     0.058 H 
ENDROOT
BRANCH   6  36
ATOM     36  C   LIG d   1      10.791   3.900  -6.222  0.00  0.00    -0.057 C 
ATOM     37  H   LIG d   1      11.456   4.122  -7.057  0.00  0.00     0.024 H 
ATOM     38  H   LIG d   1      10.273   2.961  -6.410  0.00  0.00     0.024 H 
ATOM     39  H   LIG d   1      10.062   4.703  -6.116  0.00  0.00     0.024 H 
ENDBRANCH   6  36
BRANCH   6  40
ATOM     40  C   LIG d   1      13.011   3.300  -5.388  0.00  0.00    -0.057 C 
ATOM     41  H   LIG d   1      13.090   3.394  -6.470  0.00  0.00     0.024 H 
ATOM     42  H   LIG d   1      13.780   3.909  -4.913  0.00  0.00     0.024 H 
ATOM     43  H   LIG d   1      13.146   2.257  -5.103  0.00  0.00     0.024 H 
ENDBRANCH   6  40
BRANCH   4  44
ATOM     44  O   LIG d   1      12.025   2.222  -3.129  0.00  0.00    -0.391 OA
ATOM     45  H   LIG d   1      11.691   1.597  -2.469  0.00  0.00     0.210 HD
ENDBRANCH   4  44
BRANCH   1  46
ATOM     46  C   LIG d   1       9.327   5.807  -4.398  0.00  0.00    -0.059 C 
ATOM     47  H   LIG d   1       9.219   6.883  -4.527  0.00  0.00     0.024 H 
ATOM     48  H   LIG d   1       9.534   5.345  -5.364  0.00  0.00     0.024 H 
ATOM     49  H   LIG d   1       8.405   5.395  -3.988  0.00  0.00     0.024 H 
ENDBRANCH   1  46
BRANCH  19  50
ATOM     50  C   LIG d   1      11.074   6.339   1.783  0.00  0.00     0.066 C 
ATOM     51  H   LIG d   1      12.004   6.341   2.353  0.00  0.00     0.060 H 
ATOM     52  H   LIG d   1      10.359   7.012   2.254  0.00  0.00     0.060 H 
BRANCH  50  53
ATOM     53  O   LIG d   1      10.536   5.016   1.754  0.00  0.00    -0.391 OA
ATOM     54  H   LIG d   1      10.783   4.474   2.517  0.00  0.00     0.210 HD
ENDBRANCH  50  53
ENDBRANCH  19  50
TORSDOF 6
ENDMDL
MODEL 7
REMARK VINA RESULT:      -5.2      7.739      9.936
REMARK  6 active torsions:
REMARK  status: ('A' for Active; 'I' for Inactive)
REMARK    1  A    between atoms: C_1  and  C_2 
REMARK    2  A    between atoms: C_5  and  O_26 
REMARK    3  A    between atoms: C_7  and  C_24 
REMARK    4  A    between atoms: C_7  and  C_25 
REMARK    5  A    between atoms: C_20  and  C_22 
REMARK    6  A    between atoms: C_22  and  O_23 
ROOT
ATOM      1  C   LIG d   1       7.056 -10.997  -4.105  0.00  0.00    -0.025 C 
ATOM      2  C   LIG d   1       7.083  -9.626  -4.775  0.00  0.00    -0.045 C 
ATOM      3  C   LIG d   1       6.051  -9.574  -5.901  0.00  0.00    -0.026 C 
ATOM      4  C   LIG d   1       4.653  -9.813  -5.350  0.00  0.00     0.061 C 
ATOM      5  H   LIG d   1       3.953  -9.876  -6.199  0.00  0.00     0.060 H 
ATOM      6  C   LIG d   1       4.545 -11.105  -4.549  0.00  0.00    -0.006 C 
ATOM      7  C   LIG d   1       5.670 -11.284  -3.540  0.00  0.00    -0.028 C 
ATOM      8  H   LIG d   1       5.657 -12.334  -3.198  0.00  0.00     0.031 H 
ATOM      9  C   LIG d   1       5.407 -10.399  -2.315  0.00  0.00    -0.048 C 
ATOM     10  C   LIG d   1       6.457 -10.686  -1.236  0.00  0.00    -0.043 C 
ATOM     11  C   LIG d   1       7.829 -10.344  -1.761  0.00  0.00    -0.007 C 
ATOM     12  C   LIG d   1       8.161 -11.088  -3.049  0.00  0.00    -0.026 C 
ATOM     13  H   LIG d   1       8.331 -12.152  -2.815  0.00  0.00     0.031 H 
ATOM     14  C   LIG d   1       9.462 -10.498  -3.614  0.00  0.00    -0.048 C 
ATOM     15  C   LIG d   1      10.559 -10.507  -2.547  0.00  0.00    -0.046 C 
ATOM     16  C   LIG d   1      10.050  -9.824  -1.267  0.00  0.00    -0.017 C 
ATOM     17  H   LIG d   1      10.840  -9.636  -0.540  0.00  0.00     0.035 H 
ATOM     18  C   LIG d   1       8.914 -10.737  -0.718  0.00  0.00    -0.037 C 
ATOM     19  C   LIG d   1       9.298  -8.566  -1.670  0.00  0.00    -0.045 C 
ATOM     20  C   LIG d   1       8.048  -8.864  -1.949  0.00  0.00    -0.076 C 
ATOM     21  H   LIG d   1       6.860  -8.851  -4.042  0.00  0.00     0.027 H 
ATOM     22  H   LIG d   1       8.072  -9.443  -5.201  0.00  0.00     0.027 H 
ATOM     23  H   LIG d   1       6.084  -8.571  -6.351  0.00  0.00     0.029 H 
ATOM     24  H   LIG d   1       6.287 -10.291  -6.681  0.00  0.00     0.029 H 
ATOM     25  H   LIG d   1       5.458  -9.349  -2.597  0.00  0.00     0.027 H 
ATOM     26  H   LIG d   1       4.442 -10.612  -1.856  0.00  0.00     0.027 H 
ATOM     27  H   LIG d   1       6.241 -10.080  -0.358  0.00  0.00     0.027 H 
ATOM     28  H   LIG d   1       6.420 -11.741  -0.971  0.00  0.00     0.027 H 
ATOM     29  H   LIG d   1       9.804 -11.090  -4.462  0.00  0.00     0.027 H 
ATOM     30  H   LIG d   1       9.297  -9.472  -3.934  0.00  0.00     0.027 H 
ATOM     31  H   LIG d   1      10.836 -11.538  -2.325  0.00  0.00     0.027 H 
ATOM     32  H   LIG d   1      11.432  -9.974  -2.924  0.00  0.00     0.027 H 
ATOM     33  H   LIG d   1       8.619 -10.456   0.293  0.00  0.00     0.028 H 
ATOM     34  H   LIG d   1       9.171 -11.793  -0.784  0.00  0.00     0.028 H 
ATOM     35  H   LIG d   1       7.297  -8.151  -2.258  0.00  0.00     0.058 H 
ENDROOT
BRANCH   6  36
ATOM     36  C   LIG d   1       4.443 -12.300  -5.510  0.00  0.00    -0.057 C 
ATOM     37  H   LIG d   1       5.421 -12.769  -5.611  0.00  0.00     0.024 H 
ATOM     38  H   LIG d   1       3.732 -13.025  -5.114  0.00  0.00     0.024 H 
ATOM     39  H   LIG d   1       4.103 -11.954  -6.485  0.00  0.00     0.024 H 
ENDBRANCH   6  36
BRANCH   6  40
ATOM     40  C   LIG d   1       3.183 -11.065  -3.816  0.00  0.00    -0.057 C 
ATOM     41  H   LIG d   1       2.518 -11.814  -4.244  0.00  0.00     0.024 H 
ATOM     42  H   LIG d   1       3.334 -11.275  -2.757  0.00  0.00     0.024 H 
ATOM     43  H   LIG d   1       2.738 -10.077  -3.931  0.00  0.00     0.024 H 
ENDBRANCH   6  40
BRANCH   4  44
ATOM     44  O   LIG d   1       4.252  -8.705  -4.539  0.00  0.00    -0.391 OA
ATOM     45  H   LIG d   1       3.304  -8.514  -4.573  0.00  0.00     0.210 HD
ENDBRANCH   4  44
BRANCH   1  46
ATOM     46  C   LIG d   1       7.430 -12.060  -5.159  0.00  0.00    -0.059 C 
ATOM     47  H   LIG d   1       8.412 -12.471  -4.928  0.00  0.00     0.024 H 
ATOM     48  H   LIG d   1       6.690 -12.861  -5.146  0.00  0.00     0.024 H 
ATOM     49  H   LIG d   1       7.450 -11.600  -6.146  0.00  0.00     0.024 H 
ENDBRANCH   1  46
BRANCH  19  50
ATOM     50  C   LIG d   1       9.894  -7.185  -1.737  0.00  0.00     0.066 C 
ATOM     51  H   LIG d   1      10.676  -7.163  -2.496  0.00  0.00     0.060 H 
ATOM     52  H   LIG d   1       9.117  -6.466  -1.997  0.00  0.00     0.060 H 
BRANCH  50  53
ATOM     53  O   LIG d   1      10.452  -6.844  -0.467  0.00  0.00    -0.391 OA
ATOM     54  H   LIG d   1       9.793  -6.651   0.214  0.00  0.00     0.210 HD
ENDBRANCH  50  53
ENDBRANCH  19  50
TORSDOF 6
ENDMDL
MODEL 8
REMARK VINA RESULT:      -5.1      7.582      8.970
REMARK  6 active torsions:
REMARK  status: ('A' for Active; 'I' for Inactive)
REMARK    1  A    between atoms: C_1  and  C_2 
REMARK    2  A    between atoms: C_5  and  O_26 
REMARK    3  A    between atoms: C_7  and  C_24 
REMARK    4  A    between atoms: C_7  and  C_25 
REMARK    5  A    between atoms: C_20  and  C_22 
REMARK    6  A    between atoms: C_22  and  O_23 
ROOT
ATOM      1  C   LIG d   1      11.276   5.435  -3.065  0.00  0.00    -0.025 C 
ATOM      2  C   LIG d   1      10.383   5.021  -1.898  0.00  0.00    -0.045 C 
ATOM      3  C   LIG d   1      10.511   6.029  -0.757  0.00  0.00    -0.026 C 
ATOM      4  C   LIG d   1      10.086   7.414  -1.223  0.00  0.00     0.061 C 
ATOM      5  H   LIG d   1      10.293   8.130  -0.411  0.00  0.00     0.060 H 
ATOM      6  C   LIG d   1      10.833   7.876  -2.467  0.00  0.00    -0.006 C 
ATOM      7  C   LIG d   1      10.889   6.822  -3.563  0.00  0.00    -0.028 C 
ATOM      8  H   LIG d   1      11.648   7.138  -4.301  0.00  0.00     0.031 H 
ATOM      9  C   LIG d   1       9.539   6.762  -4.288  0.00  0.00    -0.048 C 
ATOM     10  C   LIG d   1       9.637   5.809  -5.484  0.00  0.00    -0.043 C 
ATOM     11  C   LIG d   1       9.956   4.418  -4.998  0.00  0.00    -0.007 C 
ATOM     12  C   LIG d   1      11.232   4.372  -4.164  0.00  0.00    -0.026 C 
ATOM     13  H   LIG d   1      12.099   4.521  -4.828  0.00  0.00     0.031 H 
ATOM     14  C   LIG d   1      11.333   2.975  -3.534  0.00  0.00    -0.048 C 
ATOM     15  C   LIG d   1      11.211   1.893  -4.610  0.00  0.00    -0.046 C 
ATOM     16  C   LIG d   1       9.941   2.126  -5.445  0.00  0.00    -0.017 C 
ATOM     17  H   LIG d   1       9.702   1.291  -6.103  0.00  0.00     0.035 H 
ATOM     18  C   LIG d   1      10.171   3.464  -6.209  0.00  0.00    -0.037 C 
ATOM     19  C   LIG d   1       8.809   2.480  -4.494  0.00  0.00    -0.045 C 
ATOM     20  C   LIG d   1       8.823   3.771  -4.244  0.00  0.00    -0.076 C 
ATOM     21  H   LIG d   1       9.344   4.974  -2.226  0.00  0.00     0.027 H 
ATOM     22  H   LIG d   1      10.688   4.039  -1.530  0.00  0.00     0.027 H 
ATOM     23  H   LIG d   1       9.845   5.712   0.058  0.00  0.00     0.029 H 
ATOM     24  H   LIG d   1      11.524   6.047  -0.364  0.00  0.00     0.029 H 
ATOM     25  H   LIG d   1       8.766   6.408  -3.608  0.00  0.00     0.027 H 
ATOM     26  H   LIG d   1       9.253   7.730  -4.700  0.00  0.00     0.027 H 
ATOM     27  H   LIG d   1       8.686   5.801  -6.014  0.00  0.00     0.027 H 
ATOM     28  H   LIG d   1      10.425   6.152  -6.153  0.00  0.00     0.027 H 
ATOM     29  H   LIG d   1      12.296   2.856  -3.038  0.00  0.00     0.027 H 
ATOM     30  H   LIG d   1      10.536   2.835  -2.808  0.00  0.00     0.027 H 
ATOM     31  H   LIG d   1      12.086   1.931  -5.259  0.00  0.00     0.027 H 
ATOM     32  H   LIG d   1      11.160   0.914  -4.133  0.00  0.00     0.027 H 
ATOM     33  H   LIG d   1       9.422   3.624  -6.983  0.00  0.00     0.028 H 
ATOM     34  H   LIG d   1      11.183   3.539  -6.604  0.00  0.00     0.028 H 
ATOM     35  H   LIG d   1       8.121   4.283  -3.601  0.00  0.00     0.058 H 
ENDROOT
BRANCH   6  36
ATOM     36  C   LIG d   1      12.235   8.368  -2.074  0.00  0.00    -0.057 C 
ATOM     37  H   LIG d   1      12.897   7.511  -1.947  0.00  0.00     0.024 H 
ATOM     38  H   LIG d   1      12.626   9.016  -2.857  0.00  0.00     0.024 H 
ATOM     39  H   LIG d   1      12.176   8.923  -1.138  0.00  0.00     0.024 H 
ENDBRANCH   6  36
BRANCH   6  40
ATOM     40  C   LIG d   1      10.100   9.136  -2.987  0.00  0.00    -0.057 C 
ATOM     41  H   LIG d   1      10.724  10.014  -2.821  0.00  0.00     0.024 H 
ATOM     42  H   LIG d   1       9.903   9.027  -4.054  0.00  0.00     0.024 H 
ATOM     43  H   LIG d   1       9.157   9.254  -2.453  0.00  0.00     0.024 H 
ENDBRANCH   6  40
BRANCH   4  44
ATOM     44  O   LIG d   1       8.676   7.433  -1.467  0.00  0.00    -0.391 OA
ATOM     45  H   LIG d   1       8.203   8.129  -0.989  0.00  0.00     0.210 HD
ENDBRANCH   4  44
BRANCH   1  46
ATOM     46  C   LIG d   1      12.740   5.436  -2.578  0.00  0.00    -0.059 C 
ATOM     47  H   LIG d   1      12.963   6.387  -2.095  0.00  0.00     0.024 H 
ATOM     48  H   LIG d   1      12.887   4.624  -1.864  0.00  0.00     0.024 H 
ATOM     49  H   LIG d   1      13.406   5.296  -3.429  0.00  0.00     0.024 H 
ENDBRANCH   1  46
BRANCH  19  50
ATOM     50  C   LIG d   1       7.818   1.499  -3.924  0.00  0.00     0.066 C 
ATOM     51  H   LIG d   1       8.349   0.627  -3.542  0.00  0.00     0.060 H 
ATOM     52  H   LIG d   1       7.264   1.971  -3.113  0.00  0.00     0.060 H 
BRANCH  50  53
ATOM     53  O   LIG d   1       6.908   1.092  -4.948  0.00  0.00    -0.391 OA
ATOM     54  H   LIG d   1       6.379   0.316  -4.718  0.00  0.00     0.210 HD
ENDBRANCH  50  53
ENDBRANCH  19  50
TORSDOF 6
ENDMDL
MODEL 9
REMARK VINA RESULT:      -5.0      2.713      4.677
REMARK  6 active torsions:
REMARK  status: ('A' for Active; 'I' for Inactive)
REMARK    1  A    between atoms: C_1  and  C_2 
REMARK    2  A    between atoms: C_5  and  O_26 
REMARK    3  A    between atoms: C_7  and  C_24 
REMARK    4  A    between atoms: C_7  and  C_25 
REMARK    5  A    between atoms: C_20  and  C_22 
REMARK    6  A    between atoms: C_22  and  O_23 
ROOT
ATOM      1  C   LIG d   1       4.174  -0.333  -6.592  0.00  0.00    -0.025 C 
ATOM      2  C   LIG d   1       3.983  -1.685  -7.274  0.00  0.00    -0.045 C 
ATOM      3  C   LIG d   1       3.087  -1.530  -8.502  0.00  0.00    -0.026 C 
ATOM      4  C   LIG d   1       3.717  -0.571  -9.501  0.00  0.00     0.061 C 
ATOM      5  H   LIG d   1       2.997  -0.401 -10.318  0.00  0.00     0.060 H 
ATOM      6  C   LIG d   1       4.066   0.779  -8.887  0.00  0.00    -0.006 C 
ATOM      7  C   LIG d   1       4.800   0.665  -7.559  0.00  0.00    -0.028 C 
ATOM      8  H   LIG d   1       4.784   1.658  -7.074  0.00  0.00     0.031 H 
ATOM      9  C   LIG d   1       6.268   0.302  -7.812  0.00  0.00    -0.048 C 
ATOM     10  C   LIG d   1       7.043   0.330  -6.490  0.00  0.00    -0.043 C 
ATOM     11  C   LIG d   1       6.473  -0.700  -5.547  0.00  0.00    -0.007 C 
ATOM     12  C   LIG d   1       4.981  -0.503  -5.303  0.00  0.00    -0.026 C 
ATOM     13  H   LIG d   1       4.836   0.395  -4.680  0.00  0.00     0.031 H 
ATOM     14  C   LIG d   1       4.465  -1.725  -4.529  0.00  0.00    -0.048 C 
ATOM     15  C   LIG d   1       5.310  -1.960  -3.276  0.00  0.00    -0.046 C 
ATOM     16  C   LIG d   1       6.799  -2.027  -3.654  0.00  0.00    -0.017 C 
ATOM     17  H   LIG d   1       7.433  -2.373  -2.838  0.00  0.00     0.035 H 
ATOM     18  C   LIG d   1       7.176  -0.603  -4.162  0.00  0.00    -0.037 C 
ATOM     19  C   LIG d   1       6.929  -2.871  -4.911  0.00  0.00    -0.045 C 
ATOM     20  C   LIG d   1       6.743  -2.120  -5.975  0.00  0.00    -0.076 C 
ATOM     21  H   LIG d   1       4.950  -2.085  -7.579  0.00  0.00     0.027 H 
ATOM     22  H   LIG d   1       3.507  -2.383  -6.582  0.00  0.00     0.027 H 
ATOM     23  H   LIG d   1       2.983  -2.515  -8.978  0.00  0.00     0.029 H 
ATOM     24  H   LIG d   1       2.092  -1.196  -8.220  0.00  0.00     0.029 H 
ATOM     25  H   LIG d   1       6.335  -0.695  -8.247  0.00  0.00     0.027 H 
ATOM     26  H   LIG d   1       6.762   1.023  -8.463  0.00  0.00     0.027 H 
ATOM     27  H   LIG d   1       8.091   0.106  -6.685  0.00  0.00     0.027 H 
ATOM     28  H   LIG d   1       6.956   1.320  -6.045  0.00  0.00     0.027 H 
ATOM     29  H   LIG d   1       3.432  -1.563  -4.220  0.00  0.00     0.027 H 
ATOM     30  H   LIG d   1       4.517  -2.612  -5.156  0.00  0.00     0.027 H 
ATOM     31  H   LIG d   1       5.149  -1.141  -2.574  0.00  0.00     0.027 H 
ATOM     32  H   LIG d   1       5.010  -2.898  -2.809  0.00  0.00     0.027 H 
ATOM     33  H   LIG d   1       8.253  -0.480  -4.266  0.00  0.00     0.028 H 
ATOM     34  H   LIG d   1       6.738   0.180  -3.544  0.00  0.00     0.028 H 
ATOM     35  H   LIG d   1       6.787  -2.472  -6.995  0.00  0.00     0.058 H 
ENDROOT
BRANCH   6  36
ATOM     36  C   LIG d   1       2.796   1.635  -8.767  0.00  0.00    -0.057 C 
ATOM     37  H   LIG d   1       3.068   2.651  -8.479  0.00  0.00     0.024 H 
ATOM     38  H   LIG d   1       2.279   1.656  -9.726  0.00  0.00     0.024 H 
ATOM     39  H   LIG d   1       2.140   1.207  -8.010  0.00  0.00     0.024 H 
ENDBRANCH   6  36
BRANCH   6  40
ATOM     40  C   LIG d   1       4.953   1.523  -9.915  0.00  0.00    -0.057 C 
ATOM     41  H   LIG d   1       4.753   1.136 -10.913  0.00  0.00     0.024 H 
ATOM     42  H   LIG d   1       4.726   2.589  -9.885  0.00  0.00     0.024 H 
ATOM     43  H   LIG d   1       6.003   1.367  -9.668  0.00  0.00     0.024 H 
ENDBRANCH   6  40
BRANCH   4  44
ATOM     44  O   LIG d   1       4.888  -1.162 -10.072  0.00  0.00    -0.391 OA
ATOM     45  H   LIG d   1       4.895  -2.130 -10.042  0.00  0.00     0.210 HD
ENDBRANCH   4  44
BRANCH   1  46
ATOM     46  C   LIG d   1       2.793   0.175  -6.127  0.00  0.00    -0.059 C 
ATOM     47  H   LIG d   1       2.914   1.111  -5.583  0.00  0.00     0.024 H 
ATOM     48  H   LIG d   1       2.154   0.340  -6.995  0.00  0.00     0.024 H 
ATOM     49  H   LIG d   1       2.334  -0.568  -5.474  0.00  0.00     0.024 H 
ENDBRANCH   1  46
BRANCH  19  50
ATOM     50  C   LIG d   1       7.230  -4.347  -4.937  0.00  0.00     0.066 C 
ATOM     51  H   LIG d   1       6.396  -4.894  -4.496  0.00  0.00     0.060 H 
ATOM     52  H   LIG d   1       7.372  -4.671  -5.967  0.00  0.00     0.060 H 
BRANCH  50  53
ATOM     53  O   LIG d   1       8.418  -4.604  -4.187  0.00  0.00    -0.391 OA
ATOM     54  H   LIG d   1       8.743  -5.512  -4.264  0.00  0.00     0.210 HD
ENDBRANCH  50  53
ENDBRANCH  19  50
TORSDOF 6
ENDMDL
MODEL 10
REMARK VINA RESULT:      -5.0      4.385      6.069
REMARK  6 active torsions:
REMARK  status: ('A' for Active; 'I' for Inactive)
REMARK    1  A    between atoms: C_1  and  C_2 
REMARK    2  A    between atoms: C_5  and  O_26 
REMARK    3  A    between atoms: C_7  and  C_24 
REMARK    4  A    between atoms: C_7  and  C_25 
REMARK    5  A    between atoms: C_20  and  C_22 
REMARK    6  A    between atoms: C_22  and  O_23 
ROOT
ATOM      1  C   LIG d   1       4.015  -1.039 -10.437  0.00  0.00    -0.025 C 
ATOM      2  C   LIG d   1       4.245  -1.901  -9.199  0.00  0.00    -0.045 C 
ATOM      3  C   LIG d   1       4.980  -1.094  -8.129  0.00  0.00    -0.026 C 
ATOM      4  C   LIG d   1       4.158   0.121  -7.724  0.00  0.00     0.061 C 
ATOM      5  H   LIG d   1       4.763   0.733  -7.035  0.00  0.00     0.060 H 
ATOM      6  C   LIG d   1       3.763   0.991  -8.911  0.00  0.00    -0.006 C 
ATOM      7  C   LIG d   1       3.198   0.196 -10.079  0.00  0.00    -0.028 C 
ATOM      8  H   LIG d   1       3.181   0.856 -10.965  0.00  0.00     0.031 H 
ATOM      9  C   LIG d   1       1.748  -0.203  -9.776  0.00  0.00    -0.048 C 
ATOM     10  C   LIG d   1       1.129  -0.874 -11.007  0.00  0.00    -0.043 C 
ATOM     11  C   LIG d   1       1.891  -2.134 -11.333  0.00  0.00    -0.007 C 
ATOM     12  C   LIG d   1       3.377  -1.876 -11.549  0.00  0.00    -0.026 C 
ATOM     13  H   LIG d   1       3.513  -1.345 -12.506  0.00  0.00     0.031 H 
ATOM     14  C   LIG d   1       4.084  -3.236 -11.640  0.00  0.00    -0.048 C 
ATOM     15  C   LIG d   1       3.411  -4.119 -12.693  0.00  0.00    -0.046 C 
ATOM     16  C   LIG d   1       1.900  -4.202 -12.417  0.00  0.00    -0.017 C 
ATOM     17  H   LIG d   1       1.396  -4.958 -13.019  0.00  0.00     0.035 H 
ATOM     18  C   LIG d   1       1.344  -2.764 -12.646  0.00  0.00    -0.037 C 
ATOM     19  C   LIG d   1       1.703  -4.398 -10.923  0.00  0.00    -0.045 C 
ATOM     20  C   LIG d   1       1.700  -3.231 -10.316  0.00  0.00    -0.076 C 
ATOM     21  H   LIG d   1       3.289  -2.244  -8.803  0.00  0.00     0.027 H 
ATOM     22  H   LIG d   1       4.857  -2.768  -9.461  0.00  0.00     0.027 H 
ATOM     23  H   LIG d   1       5.115  -1.736  -7.247  0.00  0.00     0.029 H 
ATOM     24  H   LIG d   1       5.966  -0.797  -8.472  0.00  0.00     0.029 H 
ATOM     25  H   LIG d   1       1.720  -0.895  -8.936  0.00  0.00     0.027 H 
ATOM     26  H   LIG d   1       1.122   0.663  -9.562  0.00  0.00     0.027 H 
ATOM     27  H   LIG d   1       0.090  -1.121 -10.795  0.00  0.00     0.027 H 
ATOM     28  H   LIG d   1       1.178  -0.189 -11.852  0.00  0.00     0.027 H 
ATOM     29  H   LIG d   1       5.127  -3.098 -11.927  0.00  0.00     0.027 H 
ATOM     30  H   LIG d   1       4.040  -3.744 -10.680  0.00  0.00     0.027 H 
ATOM     31  H   LIG d   1       3.578  -3.691 -13.682  0.00  0.00     0.027 H 
ATOM     32  H   LIG d   1       3.844  -5.119 -12.656  0.00  0.00     0.027 H 
ATOM     33  H   LIG d   1       0.255  -2.750 -12.676  0.00  0.00     0.028 H 
ATOM     34  H   LIG d   1       1.778  -2.295 -13.528  0.00  0.00     0.028 H 
ATOM     35  H   LIG d   1       1.572  -3.088  -9.253  0.00  0.00     0.058 H 
ENDROOT
BRANCH   6  36
ATOM     36  C   LIG d   1       4.958   1.859  -9.335  0.00  0.00    -0.057 C 
ATOM     37  H   LIG d   1       4.980   1.940 -10.422  0.00  0.00     0.024 H 
ATOM     38  H   LIG d   1       4.860   2.852  -8.898  0.00  0.00     0.024 H 
ATOM     39  H   LIG d   1       5.882   1.398  -8.987  0.00  0.00     0.024 H 
ENDBRANCH   6  36
BRANCH   6  40
ATOM     40  C   LIG d   1       2.703   1.995  -8.397  0.00  0.00    -0.057 C 
ATOM     41  H   LIG d   1       3.191   2.930  -8.125  0.00  0.00     0.024 H 
ATOM     42  H   LIG d   1       1.970   2.182  -9.182  0.00  0.00     0.024 H 
ATOM     43  H   LIG d   1       2.203   1.579  -7.523  0.00  0.00     0.024 H 
ENDBRANCH   6  40
BRANCH   4  44
ATOM     44  O   LIG d   1       2.986  -0.297  -7.017  0.00  0.00    -0.391 OA
ATOM     45  H   LIG d   1       2.466  -0.969  -7.480  0.00  0.00     0.210 HD
ENDBRANCH   4  44
BRANCH   1  46
ATOM     46  C   LIG d   1       5.390  -0.621 -11.000  0.00  0.00    -0.059 C 
ATOM     47  H   LIG d   1       6.087  -0.464 -10.177  0.00  0.00     0.024 H 
ATOM     48  H   LIG d   1       5.770  -1.406 -11.653  0.00  0.00     0.024 H 
ATOM     49  H   LIG d   1       5.284   0.304 -11.567  0.00  0.00     0.024 H 
ENDBRANCH   1  46
BRANCH  19  50
ATOM     50  C   LIG d   1       1.533  -5.729 -10.239  0.00  0.00     0.066 C 
ATOM     51  H   LIG d   1       1.549  -6.525 -10.984  0.00  0.00     0.060 H 
ATOM     52  H   LIG d   1       2.347  -5.879  -9.529  0.00  0.00     0.060 H 
BRANCH  50  53
ATOM     53  O   LIG d   1       0.285  -5.751  -9.544  0.00  0.00    -0.391 OA
ATOM     54  H   LIG d   1      -0.214  -4.925  -9.605  0.00  0.00     0.210 HD
ENDBRANCH  50  53
ENDBRANCH  19  50
TORSDOF 6
ENDMDL
