MODEL 1
REMARK VINA RESULT:      -6.5      0.000      0.000
REMARK  8 active torsions:
REMARK  status: ('A' for Active; 'I' for Inactive)
REMARK    1  A    between atoms: C_1  and  C_2 
REMARK    2  A    between atoms: C_19  and  C_22 
REMARK    3  A    between atoms: C_25  and  O_32 
REMARK    4  A    between atoms: C_26  and  O_30 
REMARK    5  A    between atoms: C_27  and  O_28 
REMARK    6  A    between atoms: O_28  and  C_29 
REMARK    7  A    between atoms: O_30  and  C_31 
REMARK    8  A    between atoms: O_32  and  C_33 
ROOT
ATOM      1  C   LIG d   1       3.233  -0.755  -8.288  0.00  0.00    -0.033 A 
ATOM      2  C   LIG d   1       2.940   0.278  -7.443  0.00  0.00    -0.015 A 
ATOM      3  C   LIG d   1       3.274   0.200  -6.094  0.00  0.00     0.143 A 
ATOM      4  C   LIG d   1       3.917  -0.947  -5.593  0.00  0.00     0.063 A 
ATOM      5  C   LIG d   1       4.252  -1.012  -4.170  0.00  0.00    -0.023 A 
ATOM      6  C   LIG d   1       3.935   0.046  -3.382  0.00  0.00     0.041 A 
ATOM      7  C   LIG d   1       3.295   1.169  -3.954  0.00  0.00     0.341 A 
ATOM      8  O   LIG d   1       3.017   2.117  -3.243  0.00  0.00    -0.245 OA
ATOM      9  O   LIG d   1       2.986   1.220  -5.258  0.00  0.00    -0.422 OA
ATOM     10  C   LIG d   1       4.365  -0.221  -1.956  0.00  0.00    -0.020 C 
ATOM     11  C   LIG d   1       4.593  -1.747  -1.884  0.00  0.00    -0.045 C 
ATOM     12  C   LIG d   1       4.923  -2.093  -3.353  0.00  0.00    -0.026 C 
ATOM     13  C   LIG d   1       4.227  -2.009  -6.456  0.00  0.00     0.143 A 
ATOM     14  C   LIG d   1       3.874  -1.904  -7.809  0.00  0.00     0.063 A 
ATOM     15  C   LIG d   1       4.189  -3.020  -8.716  0.00  0.00     0.171 C 
ATOM     16  O   LIG d   1       3.723  -3.083  -9.835  0.00  0.00    -0.292 OA
ATOM     17  C   LIG d   1       5.126  -4.086  -8.180  0.00  0.00     0.052 C 
ATOM     18  C   LIG d   1       4.744  -4.329  -6.712  0.00  0.00     0.136 C 
ATOM     19  H   LIG d   1       3.717  -4.691  -6.658  0.00  0.00     0.079 H 
ATOM     20  O   LIG d   1       4.859  -3.106  -5.986  0.00  0.00    -0.482 OA
ATOM     21  H   LIG d   1       2.445   1.159  -7.824  0.00  0.00     0.066 H 
ATOM     22  H   LIG d   1       5.291   0.310  -1.735  0.00  0.00     0.032 H 
ATOM     23  H   LIG d   1       3.581   0.078  -1.262  0.00  0.00     0.032 H 
ATOM     24  H   LIG d   1       3.689  -2.260  -1.557  0.00  0.00     0.027 H 
ATOM     25  H   LIG d   1       5.432  -1.985  -1.230  0.00  0.00     0.027 H 
ATOM     26  H   LIG d   1       4.517  -3.070  -3.612  0.00  0.00     0.031 H 
ATOM     27  H   LIG d   1       6.001  -2.075  -3.514  0.00  0.00     0.031 H 
ATOM     28  H   LIG d   1       6.072  -3.767  -8.254  0.00  0.00     0.038 H 
ATOM     29  H   LIG d   1       5.008  -5.006  -8.752  0.00  0.00     0.038 H 
ENDROOT
BRANCH  18  30
ATOM     30  C   LIG d   1       5.670  -5.358  -6.115  0.00  0.00     0.039 A 
ATOM     31  C   LIG d   1       5.301  -6.694  -6.096  0.00  0.00     0.172 A 
ATOM     32  C   LIG d   1       6.159  -7.642  -5.550  0.00  0.00     0.204 A 
ATOM     33  C   LIG d   1       7.380  -7.244  -5.020  0.00  0.00     0.165 A 
ATOM     34  C   LIG d   1       7.740  -5.905  -5.038  0.00  0.00    -0.016 A 
ATOM     35  C   LIG d   1       6.884  -4.965  -5.581  0.00  0.00    -0.048 A 
ATOM     36  H   LIG d   1       8.689  -5.596  -4.626  0.00  0.00     0.066 H 
ATOM     37  H   LIG d   1       7.166  -3.924  -5.593  0.00  0.00     0.062 H 
BRANCH  31  38
ATOM     38  O   LIG d   1       4.105  -7.077  -6.616  0.00  0.00    -0.491 OA
BRANCH  38  39
ATOM     39  C   LIG d   1       4.121  -7.667  -7.917  0.00  0.00     0.079 C 
ATOM     40  H   LIG d   1       4.005  -6.888  -8.670  0.00  0.00     0.066 H 
ATOM     41  H   LIG d   1       5.069  -8.183  -8.070  0.00  0.00     0.066 H 
ATOM     42  H   LIG d   1       3.301  -8.380  -8.003  0.00  0.00     0.066 H 
ENDBRANCH  38  39
ENDBRANCH  31  38
BRANCH  32  43
ATOM     43  O   LIG d   1       5.802  -8.955  -5.534  0.00  0.00    -0.488 OA
BRANCH  43  44
ATOM     44  C   LIG d   1       5.024  -9.402  -4.422  0.00  0.00     0.079 C 
ATOM     45  H   LIG d   1       5.338 -10.407  -4.140  0.00  0.00     0.066 H 
ATOM     46  H   LIG d   1       5.171  -8.725  -3.581  0.00  0.00     0.066 H 
ATOM     47  H   LIG d   1       3.970  -9.415  -4.699  0.00  0.00     0.066 H 
ENDBRANCH  43  44
ENDBRANCH  32  43
BRANCH  33  48
ATOM     48  O   LIG d   1       8.223  -8.169  -4.484  0.00  0.00    -0.491 OA
BRANCH  48  49
ATOM     49  C   LIG d   1       8.620  -7.974  -3.125  0.00  0.00     0.079 C 
ATOM     50  H   LIG d   1       8.295  -8.826  -2.526  0.00  0.00     0.066 H 
ATOM     51  H   LIG d   1       9.704  -7.885  -3.072  0.00  0.00     0.066 H 
ATOM     52  H   LIG d   1       8.161  -7.064  -2.740  0.00  0.00     0.066 H 
ENDBRANCH  48  49
ENDBRANCH  33  48
ENDBRANCH  18  30
BRANCH   1  53
ATOM     53  C   LIG d   1       2.862  -0.656  -9.745  0.00  0.00    -0.039 C 
ATOM     54  H   LIG d   1       2.273   0.246  -9.910  0.00  0.00     0.028 H 
ATOM     55  H   LIG d   1       3.769  -0.614 -10.349  0.00  0.00     0.028 H 
ATOM     56  H   LIG d   1       2.276  -1.531 -10.030  0.00  0.00     0.028 H 
ENDBRANCH   1  53
TORSDOF 8
ENDMDL
MODEL 2
REMARK VINA RESULT:      -6.4     11.044     15.131
REMARK  8 active torsions:
REMARK  status: ('A' for Active; 'I' for Inactive)
REMARK    1  A    between atoms: C_1  and  C_2 
REMARK    2  A    between atoms: C_19  and  C_22 
REMARK    3  A    between atoms: C_25  and  O_32 
REMARK    4  A    between atoms: C_26  and  O_30 
REMARK    5  A    between atoms: C_27  and  O_28 
REMARK    6  A    between atoms: O_28  and  C_29 
REMARK    7  A    between atoms: O_30  and  C_31 
REMARK    8  A    between atoms: O_32  and  C_33 
ROOT
ATOM      1  C   LIG d   1       9.977   4.740  -3.631  0.00  0.00    -0.033 A 
ATOM      2  C   LIG d   1      10.252   4.573  -2.304  0.00  0.00    -0.015 A 
ATOM      3  C   LIG d   1      10.505   5.677  -1.493  0.00  0.00     0.143 A 
ATOM      4  C   LIG d   1      10.480   6.972  -2.041  0.00  0.00     0.063 A 
ATOM      5  C   LIG d   1      10.757   8.119  -1.175  0.00  0.00    -0.023 A 
ATOM      6  C   LIG d   1      11.024   7.888   0.136  0.00  0.00     0.041 A 
ATOM      7  C   LIG d   1      11.026   6.560   0.620  0.00  0.00     0.341 A 
ATOM      8  O   LIG d   1      11.261   6.361   1.798  0.00  0.00    -0.245 OA
ATOM      9  O   LIG d   1      10.776   5.514  -0.181  0.00  0.00    -0.422 OA
ATOM     10  C   LIG d   1      11.279   9.197   0.851  0.00  0.00    -0.020 C 
ATOM     11  C   LIG d   1      11.563  10.220  -0.271  0.00  0.00    -0.045 C 
ATOM     12  C   LIG d   1      10.810   9.600  -1.469  0.00  0.00    -0.026 C 
ATOM     13  C   LIG d   1      10.193   7.151  -3.404  0.00  0.00     0.143 A 
ATOM     14  C   LIG d   1       9.945   6.021  -4.195  0.00  0.00     0.063 A 
ATOM     15  C   LIG d   1       9.653   6.203  -5.626  0.00  0.00     0.171 C 
ATOM     16  O   LIG d   1       9.645   5.269  -6.400  0.00  0.00    -0.292 OA
ATOM     17  C   LIG d   1       9.360   7.621  -6.083  0.00  0.00     0.052 C 
ATOM     18  C   LIG d   1      10.333   8.547  -5.340  0.00  0.00     0.136 C 
ATOM     19  H   LIG d   1      11.358   8.286  -5.604  0.00  0.00     0.079 H 
ATOM     20  O   LIG d   1      10.150   8.393  -3.933  0.00  0.00    -0.482 OA
ATOM     21  H   LIG d   1      10.274   3.580  -1.881  0.00  0.00     0.066 H 
ATOM     22  H   LIG d   1      10.398   9.496   1.420  0.00  0.00     0.032 H 
ATOM     23  H   LIG d   1      12.143   9.107   1.509  0.00  0.00     0.032 H 
ATOM     24  H   LIG d   1      12.631  10.286  -0.475  0.00  0.00     0.027 H 
ATOM     25  H   LIG d   1      11.154  11.198  -0.018  0.00  0.00     0.027 H 
ATOM     26  H   LIG d   1      11.356   9.784  -2.394  0.00  0.00     0.031 H 
ATOM     27  H   LIG d   1       9.802  10.010  -1.536  0.00  0.00     0.031 H 
ATOM     28  H   LIG d   1       8.411   7.852  -5.865  0.00  0.00     0.038 H 
ATOM     29  H   LIG d   1       9.516   7.703  -7.159  0.00  0.00     0.038 H 
ENDROOT
BRANCH  18  30
ATOM     30  C   LIG d   1      10.063   9.978  -5.729  0.00  0.00     0.039 A 
ATOM     31  C   LIG d   1      10.422  10.433  -6.988  0.00  0.00     0.172 A 
ATOM     32  C   LIG d   1      10.166  11.751  -7.348  0.00  0.00     0.204 A 
ATOM     33  C   LIG d   1       9.558  12.609  -6.440  0.00  0.00     0.165 A 
ATOM     34  C   LIG d   1       9.206  12.147  -5.180  0.00  0.00    -0.016 A 
ATOM     35  C   LIG d   1       9.462  10.836  -4.826  0.00  0.00    -0.048 A 
ATOM     36  H   LIG d   1       8.733  12.814  -4.475  0.00  0.00     0.066 H 
ATOM     37  H   LIG d   1       9.189  10.480  -3.845  0.00  0.00     0.062 H 
BRANCH  31  38
ATOM     38  O   LIG d   1      11.018   9.589  -7.872  0.00  0.00    -0.491 OA
BRANCH  38  39
ATOM     39  C   LIG d   1      12.441   9.473  -7.801  0.00  0.00     0.079 C 
ATOM     40  H   LIG d   1      12.894  10.056  -8.602  0.00  0.00     0.066 H 
ATOM     41  H   LIG d   1      12.788   9.849  -6.838  0.00  0.00     0.066 H 
ATOM     42  H   LIG d   1      12.726   8.426  -7.907  0.00  0.00     0.066 H 
ENDBRANCH  38  39
ENDBRANCH  31  38
BRANCH  32  43
ATOM     43  O   LIG d   1      10.513  12.200  -8.585  0.00  0.00    -0.488 OA
BRANCH  43  44
ATOM     44  C   LIG d   1      11.750  12.907  -8.695  0.00  0.00     0.079 C 
ATOM     45  H   LIG d   1      12.388  12.411  -9.426  0.00  0.00     0.066 H 
ATOM     46  H   LIG d   1      11.556  13.930  -9.016  0.00  0.00     0.066 H 
ATOM     47  H   LIG d   1      12.249  12.918  -7.725  0.00  0.00     0.066 H 
ENDBRANCH  43  44
ENDBRANCH  32  43
BRANCH  33  48
ATOM     48  O   LIG d   1       9.306  13.900  -6.787  0.00  0.00    -0.491 OA
BRANCH  48  49
ATOM     49  C   LIG d   1       9.777  14.915  -5.898  0.00  0.00     0.079 C 
ATOM     50  H   LIG d   1      10.703  14.583  -5.426  0.00  0.00     0.066 H 
ATOM     51  H   LIG d   1       9.962  15.831  -6.457  0.00  0.00     0.066 H 
ATOM     52  H   LIG d   1       9.026  15.102  -5.130  0.00  0.00     0.066 H 
ENDBRANCH  48  49
ENDBRANCH  33  48
ENDBRANCH  18  30
BRANCH   1  53
ATOM     53  C   LIG d   1       9.708   3.534  -4.495  0.00  0.00    -0.039 C 
ATOM     54  H   LIG d   1       9.602   2.652  -3.864  0.00  0.00     0.028 H 
ATOM     55  H   LIG d   1       8.789   3.690  -5.060  0.00  0.00     0.028 H 
ATOM     56  H   LIG d   1      10.539   3.390  -5.186  0.00  0.00     0.028 H 
ENDBRANCH   1  53
TORSDOF 8
ENDMDL
MODEL 3
REMARK VINA RESULT:      -6.2      2.186      6.866
REMARK  8 active torsions:
REMARK  status: ('A' for Active; 'I' for Inactive)
REMARK    1  A    between atoms: C_1  and  C_2 
REMARK    2  A    between atoms: C_19  and  C_22 
REMARK    3  A    between atoms: C_25  and  O_32 
REMARK    4  A    between atoms: C_26  and  O_30 
REMARK    5  A    between atoms: C_27  and  O_28 
REMARK    6  A    between atoms: O_28  and  C_29 
REMARK    7  A    between atoms: O_30  and  C_31 
REMARK    8  A    between atoms: O_32  and  C_33 
ROOT
ATOM      1  C   LIG d   1       4.030  -6.137  -8.051  0.00  0.00    -0.033 A 
ATOM      2  C   LIG d   1       3.268  -5.908  -9.161  0.00  0.00    -0.015 A 
ATOM      3  C   LIG d   1       2.921  -4.608  -9.521  0.00  0.00     0.143 A 
ATOM      4  C   LIG d   1       3.354  -3.522  -8.738  0.00  0.00     0.063 A 
ATOM      5  C   LIG d   1       2.971  -2.164  -9.128  0.00  0.00    -0.023 A 
ATOM      6  C   LIG d   1       2.213  -2.002 -10.241  0.00  0.00     0.041 A 
ATOM      7  C   LIG d   1       1.818  -3.138 -10.984  0.00  0.00     0.341 A 
ATOM      8  O   LIG d   1       1.141  -2.985 -11.984  0.00  0.00    -0.245 OA
ATOM      9  O   LIG d   1       2.169  -4.380 -10.618  0.00  0.00    -0.422 OA
ATOM     10  C   LIG d   1       1.932  -0.533 -10.467  0.00  0.00    -0.020 C 
ATOM     11  C   LIG d   1       2.246   0.149  -9.118  0.00  0.00    -0.045 C 
ATOM     12  C   LIG d   1       3.271  -0.825  -8.496  0.00  0.00    -0.026 C 
ATOM     13  C   LIG d   1       4.143  -3.750  -7.600  0.00  0.00     0.143 A 
ATOM     14  C   LIG d   1       4.473  -5.070  -7.261  0.00  0.00     0.063 A 
ATOM     15  C   LIG d   1       5.292  -5.314  -6.062  0.00  0.00     0.171 C 
ATOM     16  O   LIG d   1       5.429  -6.426  -5.599  0.00  0.00    -0.292 OA
ATOM     17  C   LIG d   1       5.958  -4.101  -5.437  0.00  0.00     0.052 C 
ATOM     18  C   LIG d   1       4.946  -2.948  -5.496  0.00  0.00     0.136 C 
ATOM     19  H   LIG d   1       4.060  -3.212  -4.918  0.00  0.00     0.079 H 
ATOM     20  O   LIG d   1       4.577  -2.712  -6.854  0.00  0.00    -0.482 OA
ATOM     21  H   LIG d   1       2.932  -6.739  -9.763  0.00  0.00     0.066 H 
ATOM     22  H   LIG d   1       2.581  -0.139 -11.249  0.00  0.00     0.032 H 
ATOM     23  H   LIG d   1       0.885  -0.383 -10.732  0.00  0.00     0.032 H 
ATOM     24  H   LIG d   1       1.351   0.219  -8.499  0.00  0.00     0.027 H 
ATOM     25  H   LIG d   1       2.688   1.134  -9.272  0.00  0.00     0.027 H 
ATOM     26  H   LIG d   1       3.138  -0.876  -7.416  0.00  0.00     0.031 H 
ATOM     27  H   LIG d   1       4.287  -0.511  -8.738  0.00  0.00     0.031 H 
ATOM     28  H   LIG d   1       6.787  -3.874  -5.951  0.00  0.00     0.038 H 
ATOM     29  H   LIG d   1       6.220  -4.314  -4.401  0.00  0.00     0.038 H 
ENDROOT
BRANCH  18  30
ATOM     30  C   LIG d   1       5.569  -1.702  -4.919  0.00  0.00     0.039 A 
ATOM     31  C   LIG d   1       4.919  -1.006  -3.912  0.00  0.00     0.172 A 
ATOM     32  C   LIG d   1       5.497   0.139  -3.377  0.00  0.00     0.204 A 
ATOM     33  C   LIG d   1       6.722   0.585  -3.859  0.00  0.00     0.165 A 
ATOM     34  C   LIG d   1       7.363  -0.115  -4.870  0.00  0.00    -0.016 A 
ATOM     35  C   LIG d   1       6.785  -1.253  -5.400  0.00  0.00    -0.048 A 
ATOM     36  H   LIG d   1       8.315   0.230  -5.245  0.00  0.00     0.066 H 
ATOM     37  H   LIG d   1       7.286  -1.795  -6.187  0.00  0.00     0.062 H 
BRANCH  31  38
ATOM     38  O   LIG d   1       3.720  -1.445  -3.444  0.00  0.00    -0.491 OA
BRANCH  38  39
ATOM     39  C   LIG d   1       3.738  -2.246  -2.260  0.00  0.00     0.079 C 
ATOM     40  H   LIG d   1       2.862  -2.892  -2.245  0.00  0.00     0.066 H 
ATOM     41  H   LIG d   1       4.640  -2.857  -2.250  0.00  0.00     0.066 H 
ATOM     42  H   LIG d   1       3.727  -1.598  -1.384  0.00  0.00     0.066 H 
ENDBRANCH  38  39
ENDBRANCH  31  38
BRANCH  32  43
ATOM     43  O   LIG d   1       4.865   0.823  -2.385  0.00  0.00    -0.488 OA
BRANCH  43  44
ATOM     44  C   LIG d   1       3.758   1.644  -2.766  0.00  0.00     0.079 C 
ATOM     45  H   LIG d   1       4.097   2.406  -3.467  0.00  0.00     0.066 H 
ATOM     46  H   LIG d   1       2.995   1.027  -3.239  0.00  0.00     0.066 H 
ATOM     47  H   LIG d   1       3.341   2.124  -1.880  0.00  0.00     0.066 H 
ENDBRANCH  43  44
ENDBRANCH  32  43
BRANCH  33  48
ATOM     48  O   LIG d   1       7.292   1.705  -3.339  0.00  0.00    -0.491 OA
BRANCH  48  49
ATOM     49  C   LIG d   1       8.436   2.227  -4.019  0.00  0.00     0.079 C 
ATOM     50  H   LIG d   1       8.181   3.183  -4.476  0.00  0.00     0.066 H 
ATOM     51  H   LIG d   1       9.248   2.368  -3.307  0.00  0.00     0.066 H 
ATOM     52  H   LIG d   1       8.749   1.526  -4.793  0.00  0.00     0.066 H 
ENDBRANCH  48  49
ENDBRANCH  33  48
ENDBRANCH  18  30
BRANCH   1  53
ATOM     53  C   LIG d   1       4.395  -7.550  -7.675  0.00  0.00    -0.039 C 
ATOM     54  H   LIG d   1       3.596  -7.984  -7.074  0.00  0.00     0.028 H 
ATOM     55  H   LIG d   1       4.534  -8.143  -8.579  0.00  0.00     0.028 H 
ATOM     56  H   LIG d   1       5.322  -7.544  -7.100  0.00  0.00     0.028 H 
ENDBRANCH   1  53
TORSDOF 8
ENDMDL
MODEL 4
REMARK VINA RESULT:      -6.0      2.725      3.798
REMARK  8 active torsions:
REMARK  status: ('A' for Active; 'I' for Inactive)
REMARK    1  A    between atoms: C_1  and  C_2 
REMARK    2  A    between atoms: C_19  and  C_22 
REMARK    3  A    between atoms: C_25  and  O_32 
REMARK    4  A    between atoms: C_26  and  O_30 
REMARK    5  A    between atoms: C_27  and  O_28 
REMARK    6  A    between atoms: O_28  and  C_29 
REMARK    7  A    between atoms: O_30  and  C_31 
REMARK    8  A    between atoms: O_32  and  C_33 
ROOT
ATOM      1  C   LIG d   1       9.358  -0.484  -5.728  0.00  0.00    -0.033 A 
ATOM      2  C   LIG d   1       8.699   0.493  -5.037  0.00  0.00    -0.015 A 
ATOM      3  C   LIG d   1       7.553   0.189  -4.307  0.00  0.00     0.143 A 
ATOM      4  C   LIG d   1       7.067  -1.131  -4.279  0.00  0.00     0.063 A 
ATOM      5  C   LIG d   1       5.856  -1.429  -3.512  0.00  0.00    -0.023 A 
ATOM      6  C   LIG d   1       5.247  -0.416  -2.848  0.00  0.00     0.041 A 
ATOM      7  C   LIG d   1       5.794   0.886  -2.915  0.00  0.00     0.341 A 
ATOM      8  O   LIG d   1       5.246   1.790  -2.312  0.00  0.00    -0.245 OA
ATOM      9  O   LIG d   1       6.902   1.153  -3.623  0.00  0.00    -0.422 OA
ATOM     10  C   LIG d   1       4.024  -0.932  -2.122  0.00  0.00    -0.020 C 
ATOM     11  C   LIG d   1       3.715  -2.296  -2.777  0.00  0.00    -0.045 C 
ATOM     12  C   LIG d   1       5.103  -2.723  -3.303  0.00  0.00    -0.026 C 
ATOM     13  C   LIG d   1       7.743  -2.142  -4.982  0.00  0.00     0.143 A 
ATOM     14  C   LIG d   1       8.891  -1.804  -5.711  0.00  0.00     0.063 A 
ATOM     15  C   LIG d   1       9.597  -2.859  -6.456  0.00  0.00     0.171 C 
ATOM     16  O   LIG d   1      10.458  -2.597  -7.271  0.00  0.00    -0.292 OA
ATOM     17  C   LIG d   1       9.194  -4.290  -6.153  0.00  0.00     0.052 C 
ATOM     18  C   LIG d   1       7.666  -4.306  -5.994  0.00  0.00     0.136 C 
ATOM     19  H   LIG d   1       7.199  -3.989  -6.927  0.00  0.00     0.079 H 
ATOM     20  O   LIG d   1       7.292  -3.414  -4.945  0.00  0.00    -0.482 OA
ATOM     21  H   LIG d   1       9.068   1.507  -5.059  0.00  0.00     0.066 H 
ATOM     22  H   LIG d   1       4.239  -1.062  -1.062  0.00  0.00     0.032 H 
ATOM     23  H   LIG d   1       3.186  -0.249  -2.258  0.00  0.00     0.032 H 
ATOM     24  H   LIG d   1       3.006  -2.183  -3.597  0.00  0.00     0.027 H 
ATOM     25  H   LIG d   1       3.343  -3.007  -2.038  0.00  0.00     0.027 H 
ATOM     26  H   LIG d   1       5.002  -3.260  -4.246  0.00  0.00     0.031 H 
ATOM     27  H   LIG d   1       5.614  -3.343  -2.566  0.00  0.00     0.031 H 
ATOM     28  H   LIG d   1       9.643  -4.592  -5.312  0.00  0.00     0.038 H 
ATOM     29  H   LIG d   1       9.488  -4.941  -6.976  0.00  0.00     0.038 H 
ENDROOT
BRANCH  18  30
ATOM     30  C   LIG d   1       7.211  -5.702  -5.654  0.00  0.00     0.039 A 
ATOM     31  C   LIG d   1       5.990  -6.165  -6.121  0.00  0.00     0.172 A 
ATOM     32  C   LIG d   1       5.574  -7.455  -5.813  0.00  0.00     0.204 A 
ATOM     33  C   LIG d   1       6.381  -8.273  -5.030  0.00  0.00     0.165 A 
ATOM     34  C   LIG d   1       7.598  -7.800  -4.562  0.00  0.00    -0.016 A 
ATOM     35  C   LIG d   1       8.008  -6.517  -4.871  0.00  0.00    -0.048 A 
ATOM     36  H   LIG d   1       8.225  -8.435  -3.955  0.00  0.00     0.066 H 
ATOM     37  H   LIG d   1       8.955  -6.151  -4.505  0.00  0.00     0.062 H 
BRANCH  31  38
ATOM     38  O   LIG d   1       5.204  -5.361  -6.886  0.00  0.00    -0.491 OA
BRANCH  38  39
ATOM     39  C   LIG d   1       4.140  -4.674  -6.224  0.00  0.00     0.079 C 
ATOM     40  H   LIG d   1       3.605  -5.370  -5.578  0.00  0.00     0.066 H 
ATOM     41  H   LIG d   1       4.550  -3.863  -5.623  0.00  0.00     0.066 H 
ATOM     42  H   LIG d   1       3.454  -4.267  -6.966  0.00  0.00     0.066 H 
ENDBRANCH  38  39
ENDBRANCH  31  38
BRANCH  32  43
ATOM     43  O   LIG d   1       4.379  -7.915  -6.274  0.00  0.00    -0.488 OA
BRANCH  43  44
ATOM     44  C   LIG d   1       4.376  -8.532  -7.563  0.00  0.00     0.079 C 
ATOM     45  H   LIG d   1       5.197  -8.134  -8.158  0.00  0.00     0.066 H 
ATOM     46  H   LIG d   1       4.496  -9.609  -7.450  0.00  0.00     0.066 H 
ATOM     47  H   LIG d   1       3.429  -8.322  -8.062  0.00  0.00     0.066 H 
ENDBRANCH  43  44
ENDBRANCH  32  43
BRANCH  33  48
ATOM     48  O   LIG d   1       5.978  -9.536  -4.725  0.00  0.00    -0.491 OA
BRANCH  48  49
ATOM     49  C   LIG d   1       6.667 -10.610  -5.367  0.00  0.00     0.079 C 
ATOM     50  H   LIG d   1       7.483 -10.209  -5.969  0.00  0.00     0.066 H 
ATOM     51  H   LIG d   1       7.069 -11.286  -4.614  0.00  0.00     0.066 H 
ATOM     52  H   LIG d   1       5.974 -11.152  -6.011  0.00  0.00     0.066 H 
ENDBRANCH  48  49
ENDBRANCH  33  48
ENDBRANCH  18  30
BRANCH   1  53
ATOM     53  C   LIG d   1      10.595  -0.137  -6.515  0.00  0.00    -0.039 C 
ATOM     54  H   LIG d   1      10.685  -0.812  -7.366  0.00  0.00     0.028 H 
ATOM     55  H   LIG d   1      10.523   0.890  -6.872  0.00  0.00     0.028 H 
ATOM     56  H   LIG d   1      11.472  -0.239  -5.875  0.00  0.00     0.028 H 
ENDBRANCH   1  53
TORSDOF 8
ENDMDL
MODEL 5
REMARK VINA RESULT:      -5.9      3.081      6.993
REMARK  8 active torsions:
REMARK  status: ('A' for Active; 'I' for Inactive)
REMARK    1  A    between atoms: C_1  and  C_2 
REMARK    2  A    between atoms: C_19  and  C_22 
REMARK    3  A    between atoms: C_25  and  O_32 
REMARK    4  A    between atoms: C_26  and  O_30 
REMARK    5  A    between atoms: C_27  and  O_28 
REMARK    6  A    between atoms: O_28  and  C_29 
REMARK    7  A    between atoms: O_30  and  C_31 
REMARK    8  A    between atoms: O_32  and  C_33 
ROOT
ATOM      1  C   LIG d   1       4.301  -0.500  -3.493  0.00  0.00    -0.033 A 
ATOM      2  C   LIG d   1       5.359  -1.149  -2.923  0.00  0.00    -0.015 A 
ATOM      3  C   LIG d   1       6.283  -1.823  -3.717  0.00  0.00     0.143 A 
ATOM      4  C   LIG d   1       6.128  -1.840  -5.116  0.00  0.00     0.063 A 
ATOM      5  C   LIG d   1       7.105  -2.562  -5.933  0.00  0.00    -0.023 A 
ATOM      6  C   LIG d   1       8.134  -3.186  -5.307  0.00  0.00     0.041 A 
ATOM      7  C   LIG d   1       8.231  -3.123  -3.898  0.00  0.00     0.341 A 
ATOM      8  O   LIG d   1       9.160  -3.681  -3.344  0.00  0.00    -0.245 OA
ATOM      9  O   LIG d   1       7.330  -2.463  -3.156  0.00  0.00    -0.422 OA
ATOM     10  C   LIG d   1       9.023  -3.866  -6.325  0.00  0.00    -0.020 C 
ATOM     11  C   LIG d   1       8.173  -3.946  -7.612  0.00  0.00    -0.045 C 
ATOM     12  C   LIG d   1       7.198  -2.763  -7.428  0.00  0.00    -0.026 C 
ATOM     13  C   LIG d   1       5.046  -1.171  -5.709  0.00  0.00     0.143 A 
ATOM     14  C   LIG d   1       4.130  -0.504  -4.882  0.00  0.00     0.063 A 
ATOM     15  C   LIG d   1       2.989   0.191  -5.500  0.00  0.00     0.171 C 
ATOM     16  O   LIG d   1       2.056   0.597  -4.839  0.00  0.00    -0.292 OA
ATOM     17  C   LIG d   1       3.040   0.376  -7.005  0.00  0.00     0.052 C 
ATOM     18  C   LIG d   1       3.607  -0.921  -7.602  0.00  0.00     0.136 C 
ATOM     19  H   LIG d   1       2.943  -1.752  -7.362  0.00  0.00     0.079 H 
ATOM     20  O   LIG d   1       4.900  -1.168  -7.051  0.00  0.00    -0.482 OA
ATOM     21  H   LIG d   1       5.480  -1.139  -1.850  0.00  0.00     0.066 H 
ATOM     22  H   LIG d   1       9.920  -3.272  -6.501  0.00  0.00     0.032 H 
ATOM     23  H   LIG d   1       9.292  -4.866  -5.986  0.00  0.00     0.032 H 
ATOM     24  H   LIG d   1       7.633  -4.891  -7.663  0.00  0.00     0.027 H 
ATOM     25  H   LIG d   1       8.794  -3.805  -8.498  0.00  0.00     0.027 H 
ATOM     26  H   LIG d   1       6.220  -3.010  -7.839  0.00  0.00     0.031 H 
ATOM     27  H   LIG d   1       7.595  -1.866  -7.906  0.00  0.00     0.031 H 
ATOM     28  H   LIG d   1       3.628   1.155  -7.226  0.00  0.00     0.038 H 
ATOM     29  H   LIG d   1       2.038   0.555  -7.392  0.00  0.00     0.038 H 
ENDROOT
BRANCH  18  30
ATOM     30  C   LIG d   1       3.715  -0.781  -9.098  0.00  0.00     0.039 A 
ATOM     31  C   LIG d   1       3.189  -1.761  -9.925  0.00  0.00     0.172 A 
ATOM     32  C   LIG d   1       3.284  -1.628 -11.306  0.00  0.00     0.204 A 
ATOM     33  C   LIG d   1       3.913  -0.515 -11.851  0.00  0.00     0.165 A 
ATOM     34  C   LIG d   1       4.442   0.458 -11.016  0.00  0.00    -0.016 A 
ATOM     35  C   LIG d   1       4.346   0.322  -9.644  0.00  0.00    -0.048 A 
ATOM     36  H   LIG d   1       4.931   1.323 -11.439  0.00  0.00     0.066 H 
ATOM     37  H   LIG d   1       4.759   1.080  -8.997  0.00  0.00     0.062 H 
BRANCH  31  38
ATOM     38  O   LIG d   1       2.574  -2.849  -9.387  0.00  0.00    -0.491 OA
BRANCH  38  39
ATOM     39  C   LIG d   1       3.380  -4.010  -9.173  0.00  0.00     0.079 C 
ATOM     40  H   LIG d   1       4.073  -4.129 -10.005  0.00  0.00     0.066 H 
ATOM     41  H   LIG d   1       3.941  -3.896  -8.246  0.00  0.00     0.066 H 
ATOM     42  H   LIG d   1       2.739  -4.889  -9.105  0.00  0.00     0.066 H 
ENDBRANCH  38  39
ENDBRANCH  31  38
BRANCH  32  43
ATOM     43  O   LIG d   1       2.763  -2.586 -12.121  0.00  0.00    -0.488 OA
BRANCH  43  44
ATOM     44  C   LIG d   1       1.409  -2.412 -12.544  0.00  0.00     0.079 C 
ATOM     45  H   LIG d   1       0.778  -2.230 -11.674  0.00  0.00     0.066 H 
ATOM     46  H   LIG d   1       1.347  -1.562 -13.223  0.00  0.00     0.066 H 
ATOM     47  H   LIG d   1       1.071  -3.313 -13.056  0.00  0.00     0.066 H 
ENDBRANCH  43  44
ENDBRANCH  32  43
BRANCH  33  48
ATOM     48  O   LIG d   1       4.009  -0.381 -13.201  0.00  0.00    -0.491 OA
BRANCH  48  49
ATOM     49  C   LIG d   1       5.227  -0.813 -13.811  0.00  0.00     0.079 C 
ATOM     50  H   LIG d   1       5.047  -1.036 -14.863  0.00  0.00     0.066 H 
ATOM     51  H   LIG d   1       5.975  -0.026 -13.728  0.00  0.00     0.066 H 
ATOM     52  H   LIG d   1       5.587  -1.711 -13.307  0.00  0.00     0.066 H 
ENDBRANCH  48  49
ENDBRANCH  33  48
ENDBRANCH  18  30
BRANCH   1  53
ATOM     53  C   LIG d   1       3.309   0.223  -2.618  0.00  0.00    -0.039 C 
ATOM     54  H   LIG d   1       3.806   1.051  -2.113  0.00  0.00     0.028 H 
ATOM     55  H   LIG d   1       2.495   0.607  -3.232  0.00  0.00     0.028 H 
ATOM     56  H   LIG d   1       2.909  -0.469  -1.876  0.00  0.00     0.028 H 
ENDBRANCH   1  53
TORSDOF 8
ENDMDL
MODEL 6
REMARK VINA RESULT:      -5.9      5.766      9.064
REMARK  8 active torsions:
REMARK  status: ('A' for Active; 'I' for Inactive)
REMARK    1  A    between atoms: C_1  and  C_2 
REMARK    2  A    between atoms: C_19  and  C_22 
REMARK    3  A    between atoms: C_25  and  O_32 
REMARK    4  A    between atoms: C_26  and  O_30 
REMARK    5  A    between atoms: C_27  and  O_28 
REMARK    6  A    between atoms: O_28  and  C_29 
REMARK    7  A    between atoms: O_30  and  C_31 
REMARK    8  A    between atoms: O_32  and  C_33 
ROOT
ATOM      1  C   LIG d   1       8.658  -2.915  -5.727  0.00  0.00    -0.033 A 
ATOM      2  C   LIG d   1       7.485  -3.427  -5.252  0.00  0.00    -0.015 A 
ATOM      3  C   LIG d   1       6.612  -2.625  -4.520  0.00  0.00     0.143 A 
ATOM      4  C   LIG d   1       6.938  -1.280  -4.266  0.00  0.00     0.063 A 
ATOM      5  C   LIG d   1       6.011  -0.457  -3.488  0.00  0.00    -0.023 A 
ATOM      6  C   LIG d   1       4.861  -1.023  -3.043  0.00  0.00     0.041 A 
ATOM      7  C   LIG d   1       4.596  -2.379  -3.341  0.00  0.00     0.341 A 
ATOM      8  O   LIG d   1       3.560  -2.880  -2.943  0.00  0.00    -0.245 OA
ATOM      9  O   LIG d   1       5.451  -3.129  -4.050  0.00  0.00    -0.422 OA
ATOM     10  C   LIG d   1       4.050  -0.008  -2.268  0.00  0.00    -0.020 C 
ATOM     11  C   LIG d   1       5.043   1.123  -1.924  0.00  0.00    -0.045 C 
ATOM     12  C   LIG d   1       6.087   0.989  -3.055  0.00  0.00    -0.026 C 
ATOM     13  C   LIG d   1       8.140  -0.746  -4.757  0.00  0.00     0.143 A 
ATOM     14  C   LIG d   1       8.999  -1.578  -5.487  0.00  0.00     0.063 A 
ATOM     15  C   LIG d   1      10.265  -1.024  -5.995  0.00  0.00     0.171 C 
ATOM     16  O   LIG d   1      11.140  -1.737  -6.440  0.00  0.00    -0.292 OA
ATOM     17  C   LIG d   1      10.418   0.484  -5.936  0.00  0.00     0.052 C 
ATOM     18  C   LIG d   1       9.819   0.948  -4.601  0.00  0.00     0.136 C 
ATOM     19  H   LIG d   1      10.372   0.496  -3.777  0.00  0.00     0.079 H 
ATOM     20  O   LIG d   1       8.450   0.548  -4.532  0.00  0.00    -0.482 OA
ATOM     21  H   LIG d   1       7.233  -4.459  -5.443  0.00  0.00     0.066 H 
ATOM     22  H   LIG d   1       3.237   0.377  -2.884  0.00  0.00     0.032 H 
ATOM     23  H   LIG d   1       3.655  -0.456  -1.356  0.00  0.00     0.032 H 
ATOM     24  H   LIG d   1       5.501   0.956  -0.950  0.00  0.00     0.027 H 
ATOM     25  H   LIG d   1       4.552   2.096  -1.961  0.00  0.00     0.027 H 
ATOM     26  H   LIG d   1       7.083   1.221  -2.679  0.00  0.00     0.031 H 
ATOM     27  H   LIG d   1       5.832   1.648  -3.886  0.00  0.00     0.031 H 
ATOM     28  H   LIG d   1       9.932   0.899  -6.707  0.00  0.00     0.038 H 
ATOM     29  H   LIG d   1      11.472   0.753  -5.984  0.00  0.00     0.038 H 
ENDROOT
BRANCH  18  30
ATOM     30  C   LIG d   1       9.910   2.450  -4.503  0.00  0.00     0.039 A 
ATOM     31  C   LIG d   1      10.940   3.036  -3.784  0.00  0.00     0.172 A 
ATOM     32  C   LIG d   1      11.027   4.420  -3.700  0.00  0.00     0.204 A 
ATOM     33  C   LIG d   1      10.075   5.212  -4.331  0.00  0.00     0.165 A 
ATOM     34  C   LIG d   1       9.044   4.617  -5.044  0.00  0.00    -0.016 A 
ATOM     35  C   LIG d   1       8.962   3.240  -5.125  0.00  0.00    -0.048 A 
ATOM     36  H   LIG d   1       8.305   5.232  -5.535  0.00  0.00     0.066 H 
ATOM     37  H   LIG d   1       8.158   2.781  -5.680  0.00  0.00     0.062 H 
BRANCH  31  38
ATOM     38  O   LIG d   1      11.869   2.257  -3.167  0.00  0.00    -0.491 OA
BRANCH  38  39
ATOM     39  C   LIG d   1      13.087   2.014  -3.874  0.00  0.00     0.079 C 
ATOM     40  H   LIG d   1      13.888   2.604  -3.430  0.00  0.00     0.066 H 
ATOM     41  H   LIG d   1      13.338   0.956  -3.812  0.00  0.00     0.066 H 
ATOM     42  H   LIG d   1      12.962   2.298  -4.919  0.00  0.00     0.066 H 
ENDBRANCH  38  39
ENDBRANCH  31  38
BRANCH  32  43
ATOM     43  O   LIG d   1      12.040   4.999  -2.999  0.00  0.00    -0.488 OA
BRANCH  43  44
ATOM     44  C   LIG d   1      11.825   5.207  -1.601  0.00  0.00     0.079 C 
ATOM     45  H   LIG d   1      11.923   4.259  -1.074  0.00  0.00     0.066 H 
ATOM     46  H   LIG d   1      12.564   5.913  -1.222  0.00  0.00     0.066 H 
ATOM     47  H   LIG d   1      10.824   5.609  -1.444  0.00  0.00     0.066 H 
ENDBRANCH  43  44
ENDBRANCH  32  43
BRANCH  33  48
ATOM     48  O   LIG d   1      10.155   6.567  -4.252  0.00  0.00    -0.491 OA
BRANCH  48  49
ATOM     49  C   LIG d   1       9.420   7.319  -5.220  0.00  0.00     0.079 C 
ATOM     50  H   LIG d   1       9.912   7.242  -6.190  0.00  0.00     0.066 H 
ATOM     51  H   LIG d   1       8.407   6.924  -5.293  0.00  0.00     0.066 H 
ATOM     52  H   LIG d   1       9.381   8.365  -4.915  0.00  0.00     0.066 H 
ENDBRANCH  48  49
ENDBRANCH  33  48
ENDBRANCH  18  30
BRANCH   1  53
ATOM     53  C   LIG d   1       9.593  -3.797  -6.515  0.00  0.00    -0.039 C 
ATOM     54  H   LIG d   1      10.013  -3.230  -7.346  0.00  0.00     0.028 H 
ATOM     55  H   LIG d   1      10.398  -4.143  -5.867  0.00  0.00     0.028 H 
ATOM     56  H   LIG d   1       9.041  -4.655  -6.901  0.00  0.00     0.028 H 
ENDBRANCH   1  53
TORSDOF 8
ENDMDL
MODEL 7
REMARK VINA RESULT:      -5.7      1.093      2.035
REMARK  8 active torsions:
REMARK  status: ('A' for Active; 'I' for Inactive)
REMARK    1  A    between atoms: C_1  and  C_2 
REMARK    2  A    between atoms: C_19  and  C_22 
REMARK    3  A    between atoms: C_25  and  O_32 
REMARK    4  A    between atoms: C_26  and  O_30 
REMARK    5  A    between atoms: C_27  and  O_28 
REMARK    6  A    between atoms: O_28  and  C_29 
REMARK    7  A    between atoms: O_30  and  C_31 
REMARK    8  A    between atoms: O_32  and  C_33 
ROOT
ATOM      1  C   LIG d   1       3.087  -0.758  -8.362  0.00  0.00    -0.033 A 
ATOM      2  C   LIG d   1       2.848   0.291  -7.520  0.00  0.00    -0.015 A 
ATOM      3  C   LIG d   1       3.194   0.207  -6.174  0.00  0.00     0.143 A 
ATOM      4  C   LIG d   1       3.792  -0.965  -5.674  0.00  0.00     0.063 A 
ATOM      5  C   LIG d   1       4.140  -1.037  -4.254  0.00  0.00    -0.023 A 
ATOM      6  C   LIG d   1       3.877   0.038  -3.469  0.00  0.00     0.041 A 
ATOM      7  C   LIG d   1       3.280   1.185  -4.040  0.00  0.00     0.341 A 
ATOM      8  O   LIG d   1       3.052   2.148  -3.331  0.00  0.00    -0.245 OA
ATOM      9  O   LIG d   1       2.959   1.242  -5.341  0.00  0.00    -0.422 OA
ATOM     10  C   LIG d   1       4.312  -0.240  -2.047  0.00  0.00    -0.020 C 
ATOM     11  C   LIG d   1       4.474  -1.774  -1.968  0.00  0.00    -0.045 C 
ATOM     12  C   LIG d   1       4.772  -2.141  -3.438  0.00  0.00    -0.026 C 
ATOM     13  C   LIG d   1       4.046  -2.044  -6.534  0.00  0.00     0.143 A 
ATOM     14  C   LIG d   1       3.683  -1.931  -7.884  0.00  0.00     0.063 A 
ATOM     15  C   LIG d   1       3.940  -3.064  -8.788  0.00  0.00     0.171 C 
ATOM     16  O   LIG d   1       3.459  -3.113  -9.901  0.00  0.00    -0.292 OA
ATOM     17  C   LIG d   1       4.836  -4.167  -8.256  0.00  0.00     0.052 C 
ATOM     18  C   LIG d   1       4.461  -4.385  -6.783  0.00  0.00     0.136 C 
ATOM     19  H   LIG d   1       3.419  -4.702  -6.716  0.00  0.00     0.079 H 
ATOM     20  O   LIG d   1       4.635  -3.164  -6.065  0.00  0.00    -0.482 OA
ATOM     21  H   LIG d   1       2.387   1.191  -7.901  0.00  0.00     0.066 H 
ATOM     22  H   LIG d   1       5.263   0.252  -1.838  0.00  0.00     0.032 H 
ATOM     23  H   LIG d   1       3.549   0.096  -1.345  0.00  0.00     0.032 H 
ATOM     24  H   LIG d   1       3.553  -2.245  -1.628  0.00  0.00     0.027 H 
ATOM     25  H   LIG d   1       5.310  -2.044  -1.322  0.00  0.00     0.027 H 
ATOM     26  H   LIG d   1       4.322  -3.102  -3.687  0.00  0.00     0.031 H 
ATOM     27  H   LIG d   1       5.849  -2.171  -3.611  0.00  0.00     0.031 H 
ATOM     28  H   LIG d   1       5.794  -3.889  -8.342  0.00  0.00     0.038 H 
ATOM     29  H   LIG d   1       4.672  -5.084  -8.821  0.00  0.00     0.038 H 
ENDROOT
BRANCH  18  30
ATOM     30  C   LIG d   1       5.348  -5.450  -6.190  0.00  0.00     0.039 A 
ATOM     31  C   LIG d   1       6.679  -5.171  -5.921  0.00  0.00     0.172 A 
ATOM     32  C   LIG d   1       7.495  -6.151  -5.368  0.00  0.00     0.204 A 
ATOM     33  C   LIG d   1       6.973  -7.410  -5.093  0.00  0.00     0.165 A 
ATOM     34  C   LIG d   1       5.641  -7.682  -5.369  0.00  0.00    -0.016 A 
ATOM     35  C   LIG d   1       4.833  -6.704  -5.919  0.00  0.00    -0.048 A 
ATOM     36  H   LIG d   1       5.235  -8.659  -5.155  0.00  0.00     0.066 H 
ATOM     37  H   LIG d   1       3.798  -6.920  -6.134  0.00  0.00     0.062 H 
BRANCH  31  38
ATOM     38  O   LIG d   1       7.185  -3.938  -6.193  0.00  0.00    -0.491 OA
BRANCH  38  39
ATOM     39  C   LIG d   1       8.093  -3.838  -7.292  0.00  0.00     0.079 C 
ATOM     40  H   LIG d   1       8.775  -4.687  -7.279  0.00  0.00     0.066 H 
ATOM     41  H   LIG d   1       7.533  -3.836  -8.227  0.00  0.00     0.066 H 
ATOM     42  H   LIG d   1       8.663  -2.912  -7.208  0.00  0.00     0.066 H 
ENDBRANCH  38  39
ENDBRANCH  31  38
BRANCH  32  43
ATOM     43  O   LIG d   1       8.801  -5.880  -5.099  0.00  0.00    -0.488 OA
BRANCH  43  44
ATOM     44  C   LIG d   1       9.095  -5.312  -3.821  0.00  0.00     0.079 C 
ATOM     45  H   LIG d   1       9.100  -6.098  -3.067  0.00  0.00     0.066 H 
ATOM     46  H   LIG d   1      10.073  -4.833  -3.854  0.00  0.00     0.066 H 
ATOM     47  H   LIG d   1       8.335  -4.572  -3.570  0.00  0.00     0.066 H 
ENDBRANCH  43  44
ENDBRANCH  32  43
BRANCH  33  48
ATOM     48  O   LIG d   1       7.767  -8.373  -4.552  0.00  0.00    -0.491 OA
BRANCH  48  49
ATOM     49  C   LIG d   1       7.112  -9.488  -3.945  0.00  0.00     0.079 C 
ATOM     50  H   LIG d   1       7.858 -10.209  -3.609  0.00  0.00     0.066 H 
ATOM     51  H   LIG d   1       6.527  -9.146  -3.092  0.00  0.00     0.066 H 
ATOM     52  H   LIG d   1       6.452  -9.962  -4.672  0.00  0.00     0.066 H 
ENDBRANCH  48  49
ENDBRANCH  33  48
ENDBRANCH  18  30
BRANCH   1  53
ATOM     53  C   LIG d   1       2.705  -0.650  -9.816  0.00  0.00    -0.039 C 
ATOM     54  H   LIG d   1       2.404  -1.631 -10.186  0.00  0.00     0.028 H 
ATOM     55  H   LIG d   1       1.875   0.049  -9.923  0.00  0.00     0.028 H 
ATOM     56  H   LIG d   1       3.559  -0.290 -10.390  0.00  0.00     0.028 H 
ENDBRANCH   1  53
TORSDOF 8
ENDMDL
MODEL 8
REMARK VINA RESULT:      -5.7      3.213      4.360
REMARK  8 active torsions:
REMARK  status: ('A' for Active; 'I' for Inactive)
REMARK    1  A    between atoms: C_1  and  C_2 
REMARK    2  A    between atoms: C_19  and  C_22 
REMARK    3  A    between atoms: C_25  and  O_32 
REMARK    4  A    between atoms: C_26  and  O_30 
REMARK    5  A    between atoms: C_27  and  O_28 
REMARK    6  A    between atoms: O_28  and  C_29 
REMARK    7  A    between atoms: O_30  and  C_31 
REMARK    8  A    between atoms: O_32  and  C_33 
ROOT
ATOM      1  C   LIG d   1       8.774   1.606  -4.487  0.00  0.00    -0.033 A 
ATOM      2  C   LIG d   1       7.665   2.121  -3.879  0.00  0.00    -0.015 A 
ATOM      3  C   LIG d   1       6.630   1.283  -3.476  0.00  0.00     0.143 A 
ATOM      4  C   LIG d   1       6.723  -0.104  -3.694  0.00  0.00     0.063 A 
ATOM      5  C   LIG d   1       5.620  -0.968  -3.269  0.00  0.00    -0.023 A 
ATOM      6  C   LIG d   1       4.545  -0.397  -2.672  0.00  0.00     0.041 A 
ATOM      7  C   LIG d   1       4.521   1.004  -2.479  0.00  0.00     0.341 A 
ATOM      8  O   LIG d   1       3.555   1.509  -1.937  0.00  0.00    -0.245 OA
ATOM      9  O   LIG d   1       5.533   1.790  -2.874  0.00  0.00    -0.422 OA
ATOM     10  C   LIG d   1       3.527  -1.457  -2.312  0.00  0.00    -0.020 C 
ATOM     11  C   LIG d   1       3.918  -2.692  -3.152  0.00  0.00    -0.045 C 
ATOM     12  C   LIG d   1       5.430  -2.464  -3.373  0.00  0.00    -0.026 C 
ATOM     13  C   LIG d   1       7.863  -0.641  -4.312  0.00  0.00     0.143 A 
ATOM     14  C   LIG d   1       8.887   0.229  -4.711  0.00  0.00     0.063 A 
ATOM     15  C   LIG d   1      10.080  -0.329  -5.368  0.00  0.00     0.171 C 
ATOM     16  O   LIG d   1      10.892   0.380  -5.925  0.00  0.00    -0.292 OA
ATOM     17  C   LIG d   1      10.243  -1.837  -5.312  0.00  0.00     0.052 C 
ATOM     18  C   LIG d   1       8.851  -2.451  -5.522  0.00  0.00     0.136 C 
ATOM     19  H   LIG d   1       8.471  -2.165  -6.503  0.00  0.00     0.079 H 
ATOM     20  O   LIG d   1       7.966  -1.973  -4.509  0.00  0.00    -0.482 OA
ATOM     21  H   LIG d   1       7.590   3.186  -3.712  0.00  0.00     0.066 H 
ATOM     22  H   LIG d   1       3.582  -1.690  -1.249  0.00  0.00     0.032 H 
ATOM     23  H   LIG d   1       2.523  -1.123  -2.575  0.00  0.00     0.032 H 
ATOM     24  H   LIG d   1       3.383  -2.702  -4.101  0.00  0.00     0.027 H 
ATOM     25  H   LIG d   1       3.740  -3.613  -2.597  0.00  0.00     0.027 H 
ATOM     26  H   LIG d   1       5.725  -2.816  -4.361  0.00  0.00     0.031 H 
ATOM     27  H   LIG d   1       6.007  -2.974  -2.601  0.00  0.00     0.031 H 
ATOM     28  H   LIG d   1      10.617  -2.099  -4.422  0.00  0.00     0.038 H 
ATOM     29  H   LIG d   1      10.917  -2.167  -6.101  0.00  0.00     0.038 H 
ENDROOT
BRANCH  18  30
ATOM     30  C   LIG d   1       8.946  -3.953  -5.439  0.00  0.00     0.039 A 
ATOM     31  C   LIG d   1       7.959  -4.742  -6.010  0.00  0.00     0.172 A 
ATOM     32  C   LIG d   1       8.051  -6.127  -5.939  0.00  0.00     0.204 A 
ATOM     33  C   LIG d   1       9.130  -6.715  -5.288  0.00  0.00     0.165 A 
ATOM     34  C   LIG d   1      10.110  -5.919  -4.715  0.00  0.00    -0.016 A 
ATOM     35  C   LIG d   1      10.014  -4.542  -4.788  0.00  0.00    -0.048 A 
ATOM     36  H   LIG d   1      10.947  -6.375  -4.210  0.00  0.00     0.066 H 
ATOM     37  H   LIG d   1      10.778  -3.925  -4.340  0.00  0.00     0.062 H 
BRANCH  31  38
ATOM     38  O   LIG d   1       6.906  -4.162  -6.645  0.00  0.00    -0.491 OA
BRANCH  38  39
ATOM     39  C   LIG d   1       7.003  -4.014  -8.063  0.00  0.00     0.079 C 
ATOM     40  H   LIG d   1       6.045  -3.682  -8.460  0.00  0.00     0.066 H 
ATOM     41  H   LIG d   1       7.769  -3.276  -8.300  0.00  0.00     0.066 H 
ATOM     42  H   LIG d   1       7.270  -4.971  -8.510  0.00  0.00     0.066 H 
ENDBRANCH  38  39
ENDBRANCH  31  38
BRANCH  32  43
ATOM     43  O   LIG d   1       7.088  -6.905  -6.503  0.00  0.00    -0.488 OA
BRANCH  43  44
ATOM     44  C   LIG d   1       5.962  -7.236  -5.687  0.00  0.00     0.079 C 
ATOM     45  H   LIG d   1       5.812  -8.315  -5.697  0.00  0.00     0.066 H 
ATOM     46  H   LIG d   1       6.143  -6.902  -4.666  0.00  0.00     0.066 H 
ATOM     47  H   LIG d   1       5.072  -6.742  -6.079  0.00  0.00     0.066 H 
ENDBRANCH  43  44
ENDBRANCH  32  43
BRANCH  33  48
ATOM     48  O   LIG d   1       9.224  -8.070  -5.215  0.00  0.00    -0.491 OA
BRANCH  48  49
ATOM     49  C   LIG d   1      10.539  -8.628  -5.181  0.00  0.00     0.079 C 
ATOM     50  H   LIG d   1      10.741  -9.143  -6.120  0.00  0.00     0.066 H 
ATOM     51  H   LIG d   1      11.268  -7.831  -5.039  0.00  0.00     0.066 H 
ATOM     52  H   LIG d   1      10.611  -9.337  -4.356  0.00  0.00     0.066 H 
ENDBRANCH  48  49
ENDBRANCH  33  48
ENDBRANCH  18  30
BRANCH   1  53
ATOM     53  C   LIG d   1       9.885   2.529  -4.920  0.00  0.00    -0.039 C 
ATOM     54  H   LIG d   1       9.730   2.822  -5.958  0.00  0.00     0.028 H 
ATOM     55  H   LIG d   1       9.887   3.417  -4.288  0.00  0.00     0.028 H 
ATOM     56  H   LIG d   1      10.842   2.014  -4.826  0.00  0.00     0.028 H 
ENDBRANCH   1  53
TORSDOF 8
ENDMDL
MODEL 9
REMARK VINA RESULT:      -5.7      9.753     12.555
REMARK  8 active torsions:
REMARK  status: ('A' for Active; 'I' for Inactive)
REMARK    1  A    between atoms: C_1  and  C_2 
REMARK    2  A    between atoms: C_19  and  C_22 
REMARK    3  A    between atoms: C_25  and  O_32 
REMARK    4  A    between atoms: C_26  and  O_30 
REMARK    5  A    between atoms: C_27  and  O_28 
REMARK    6  A    between atoms: O_28  and  C_29 
REMARK    7  A    between atoms: O_30  and  C_31 
REMARK    8  A    between atoms: O_32  and  C_33 
ROOT
ATOM      1  C   LIG d   1      10.503   9.473  -0.830  0.00  0.00    -0.033 A 
ATOM      2  C   LIG d   1      10.229  10.504  -1.682  0.00  0.00    -0.015 A 
ATOM      3  C   LIG d   1      10.031  10.262  -3.039  0.00  0.00     0.143 A 
ATOM      4  C   LIG d   1      10.113   8.950  -3.539  0.00  0.00     0.063 A 
ATOM      5  C   LIG d   1       9.909   8.718  -4.970  0.00  0.00    -0.023 A 
ATOM      6  C   LIG d   1       9.641   9.783  -5.765  0.00  0.00     0.041 A 
ATOM      7  C   LIG d   1       9.567  11.074  -5.193  0.00  0.00     0.341 A 
ATOM      8  O   LIG d   1       9.320  12.025  -5.912  0.00  0.00    -0.245 OA
ATOM      9  O   LIG d   1       9.759  11.280  -3.882  0.00  0.00    -0.422 OA
ATOM     10  C   LIG d   1       9.464   9.330  -7.197  0.00  0.00    -0.020 C 
ATOM     11  C   LIG d   1      10.085   7.917  -7.252  0.00  0.00    -0.045 C 
ATOM     12  C   LIG d   1       9.942   7.447  -5.787  0.00  0.00    -0.026 C 
ATOM     13  C   LIG d   1      10.388   7.884  -2.667  0.00  0.00     0.143 A 
ATOM     14  C   LIG d   1      10.587   8.159  -1.307  0.00  0.00     0.063 A 
ATOM     15  C   LIG d   1      10.885   7.046  -0.392  0.00  0.00     0.171 C 
ATOM     16  O   LIG d   1      11.277   7.238   0.740  0.00  0.00    -0.292 OA
ATOM     17  C   LIG d   1      10.676   5.645  -0.936  0.00  0.00     0.052 C 
ATOM     18  C   LIG d   1      11.175   5.644  -2.389  0.00  0.00     0.136 C 
ATOM     19  H   LIG d   1      12.238   5.884  -2.408  0.00  0.00     0.079 H 
ATOM     20  O   LIG d   1      10.451   6.620  -3.137  0.00  0.00    -0.482 OA
ATOM     21  H   LIG d   1      10.168  11.513  -1.302  0.00  0.00     0.066 H 
ATOM     22  H   LIG d   1       8.405   9.287  -7.453  0.00  0.00     0.032 H 
ATOM     23  H   LIG d   1       9.990  10.001  -7.875  0.00  0.00     0.032 H 
ATOM     24  H   LIG d   1      11.133   7.964  -7.545  0.00  0.00     0.027 H 
ATOM     25  H   LIG d   1       9.522   7.270  -7.924  0.00  0.00     0.027 H 
ATOM     26  H   LIG d   1      10.797   6.834  -5.502  0.00  0.00     0.031 H 
ATOM     27  H   LIG d   1       9.015   6.888  -5.657  0.00  0.00     0.031 H 
ATOM     28  H   LIG d   1       9.703   5.413  -0.894  0.00  0.00     0.038 H 
ATOM     29  H   LIG d   1      11.247   4.928  -0.347  0.00  0.00     0.038 H 
ENDROOT
BRANCH  18  30
ATOM     30  C   LIG d   1      10.957   4.281  -2.995  0.00  0.00     0.039 A 
ATOM     31  C   LIG d   1      12.036   3.558  -3.478  0.00  0.00     0.172 A 
ATOM     32  C   LIG d   1      11.835   2.299  -4.031  0.00  0.00     0.204 A 
ATOM     33  C   LIG d   1      10.550   1.773  -4.103  0.00  0.00     0.165 A 
ATOM     34  C   LIG d   1       9.475   2.506  -3.623  0.00  0.00    -0.016 A 
ATOM     35  C   LIG d   1       9.680   3.758  -3.073  0.00  0.00    -0.048 A 
ATOM     36  H   LIG d   1       8.477   2.098  -3.678  0.00  0.00     0.066 H 
ATOM     37  H   LIG d   1       8.841   4.326  -2.701  0.00  0.00     0.062 H 
BRANCH  31  38
ATOM     38  O   LIG d   1      13.291   4.077  -3.406  0.00  0.00    -0.491 OA
BRANCH  38  39
ATOM     39  C   LIG d   1      13.773   4.773  -4.557  0.00  0.00     0.079 C 
ATOM     40  H   LIG d   1      14.541   5.484  -4.257  0.00  0.00     0.066 H 
ATOM     41  H   LIG d   1      14.197   4.058  -5.262  0.00  0.00     0.066 H 
ATOM     42  H   LIG d   1      12.949   5.306  -5.031  0.00  0.00     0.066 H 
ENDBRANCH  38  39
ENDBRANCH  31  38
BRANCH  32  43
ATOM     43  O   LIG d   1      12.892   1.583  -4.502  0.00  0.00    -0.488 OA
BRANCH  43  44
ATOM     44  C   LIG d   1      13.543   0.704  -3.581  0.00  0.00     0.079 C 
ATOM     45  H   LIG d   1      14.241   1.272  -2.969  0.00  0.00     0.066 H 
ATOM     46  H   LIG d   1      12.797   0.233  -2.942  0.00  0.00     0.066 H 
ATOM     47  H   LIG d   1      14.085  -0.063  -4.135  0.00  0.00     0.066 H 
ENDBRANCH  43  44
ENDBRANCH  32  43
BRANCH  33  48
ATOM     48  O   LIG d   1      10.348   0.541  -4.644  0.00  0.00    -0.491 OA
BRANCH  48  49
ATOM     49  C   LIG d   1       9.197   0.380  -5.476  0.00  0.00     0.079 C 
ATOM     50  H   LIG d   1       8.400   1.036  -5.126  0.00  0.00     0.066 H 
ATOM     51  H   LIG d   1       9.454   0.634  -6.504  0.00  0.00     0.066 H 
ATOM     52  H   LIG d   1       8.860  -0.656  -5.432  0.00  0.00     0.066 H 
ENDBRANCH  48  49
ENDBRANCH  33  48
ENDBRANCH  18  30
BRANCH   1  53
ATOM     53  C   LIG d   1      10.718   9.752   0.636  0.00  0.00    -0.039 C 
ATOM     54  H   LIG d   1       9.775   9.633   1.170  0.00  0.00     0.028 H 
ATOM     55  H   LIG d   1      11.453   9.054   1.035  0.00  0.00     0.028 H 
ATOM     56  H   LIG d   1      11.081  10.773   0.761  0.00  0.00     0.028 H 
ENDBRANCH   1  53
TORSDOF 8
ENDMDL
