MODEL 1
REMARK VINA RESULT:      -6.2      0.000      0.000
REMARK  21 active torsions:
REMARK  status: ('A' for Active; 'I' for Inactive)
REMARK    1  A    between atoms: C_1  and  C_2 
REMARK    2  A    between atoms: C_2  and  O_4 
REMARK    3  A    between atoms: O_4  and  C_5 
REMARK    4  A    between atoms: C_9  and  C_23 
REMARK    5  A    between atoms: C_11  and  O_19 
REMARK    6  A    between atoms: C_13  and  O_15 
REMARK    7  A    between atoms: O_15  and  C_16 
REMARK    8  A    between atoms: C_16  and  C_18 
REMARK    9  A    between atoms: O_19  and  C_20 
REMARK   10  A    between atoms: C_20  and  C_22 
REMARK   11  A    between atoms: C_24  and  O_59 
REMARK   12  A    between atoms: C_28  and  O_29 
REMARK   13  A    between atoms: O_29  and  C_30 
REMARK   14  A    between atoms: C_34  and  C_36 
REMARK   15  A    between atoms: C_39  and  O_42 
REMARK   16  A    between atoms: O_42  and  C_43 
REMARK   17  A    between atoms: C_45  and  O_58 
REMARK   18  A    between atoms: C_47  and  O_57 
REMARK   19  A    between atoms: C_49  and  O_56 
REMARK   20  A    between atoms: C_51  and  C_54 
REMARK   21  A    between atoms: C_54  and  O_55 
ROOT
ATOM      1  C   LIG d   1      11.473   6.231  -3.026  0.00  0.00     0.069 A 
ATOM      2  C   LIG d   1      11.451   5.400  -1.912  0.00  0.00     0.130 A 
ATOM      3  C   LIG d   1      10.823   4.165  -1.963  0.00  0.00     0.024 A 
ATOM      4  C   LIG d   1      10.208   3.748  -3.134  0.00  0.00     0.146 A 
ATOM      5  C   LIG d   1      10.229   4.586  -4.262  0.00  0.00     0.106 A 
ATOM      6  C   LIG d   1      10.861   5.834  -4.201  0.00  0.00     0.144 A 
ATOM      7  C   LIG d   1       9.570   4.120  -5.494  0.00  0.00     0.197 A 
ATOM      8  O   LIG d   1       9.558   4.806  -6.504  0.00  0.00    -0.287 OA
ATOM      9  C   LIG d   1       8.951   2.849  -5.462  0.00  0.00     0.029 A 
ATOM     10  C   LIG d   1       8.987   2.114  -4.317  0.00  0.00     0.139 A 
ATOM     11  O   LIG d   1       9.592   2.548  -3.201  0.00  0.00    -0.454 OA
ATOM     12  H   LIG d   1      10.812   3.528  -1.091  0.00  0.00     0.069 H 
ATOM     13  H   LIG d   1       8.455   2.463  -6.341  0.00  0.00     0.069 H 
ENDROOT
BRANCH   1  14
ATOM     14  C   LIG d   1      12.161   7.570  -2.954  0.00  0.00     0.131 C 
ATOM     15  O   LIG d   1      13.544   7.379  -2.649  0.00  0.00    -0.364 OA
ATOM     16  C   LIG d   1      14.299   8.590  -2.581  0.00  0.00     0.089 C 
ATOM     17  C   LIG d   1      13.736   9.479  -1.470  0.00  0.00     0.166 C 
ATOM     18  H   LIG d   1      14.233   9.114  -3.534  0.00  0.00     0.060 H 
ATOM     19  H   LIG d   1      15.342   8.357  -2.366  0.00  0.00     0.060 H 
ATOM     20  H   LIG d   1      14.283  10.422  -1.444  0.00  0.00     0.080 H 
ATOM     21  C   LIG d   1      12.255   9.754  -1.746  0.00  0.00     0.181 C 
ATOM     22  C   LIG d   1      11.511   8.419  -1.857  0.00  0.00     0.173 C 
ATOM     23  H   LIG d   1      11.834  10.341  -0.930  0.00  0.00     0.081 H 
ATOM     24  H   LIG d   1      11.569   7.890  -0.905  0.00  0.00     0.080 H 
ATOM     25  H   LIG d   1      12.067   8.080  -3.912  0.00  0.00     0.069 H 
BRANCH  17  26
ATOM     26  O   LIG d   1      13.871   8.815  -0.212  0.00  0.00    -0.455 OA
BRANCH  26  27
ATOM     27  C   LIG d   1      13.794   9.576   0.891  0.00  0.00     0.304 C 
ATOM     28  O   LIG d   1      13.067   9.252   1.800  0.00  0.00    -0.251 OA
BRANCH  27  29
ATOM     29  C   LIG d   1      14.615  10.836   0.995  0.00  0.00     0.033 C 
ATOM     30  H   LIG d   1      13.969  11.703   0.866  0.00  0.00     0.034 H 
ATOM     31  H   LIG d   1      15.091  10.879   1.975  0.00  0.00     0.034 H 
ATOM     32  H   LIG d   1      15.382  10.834   0.219  0.00  0.00     0.034 H 
ENDBRANCH  27  29
ENDBRANCH  26  27
ENDBRANCH  17  26
BRANCH  21  33
ATOM     33  O   LIG d   1      12.124  10.476  -2.973  0.00  0.00    -0.454 OA
BRANCH  33  34
ATOM     34  C   LIG d   1      11.304  11.539  -2.971  0.00  0.00     0.304 C 
ATOM     35  O   LIG d   1      11.362  12.344  -2.073  0.00  0.00    -0.251 OA
BRANCH  34  36
ATOM     36  C   LIG d   1      10.312  11.728  -4.090  0.00  0.00     0.033 C 
ATOM     37  H   LIG d   1       9.303  11.766  -3.678  0.00  0.00     0.034 H 
ATOM     38  H   LIG d   1      10.527  12.660  -4.611  0.00  0.00     0.034 H 
ATOM     39  H   LIG d   1      10.388  10.895  -4.788  0.00  0.00     0.034 H 
ENDBRANCH  34  36
ENDBRANCH  33  34
ENDBRANCH  21  33
BRANCH  22  40
ATOM     40  O   LIG d   1      10.142   8.658  -2.187  0.00  0.00    -0.455 OA
BRANCH  40  41
ATOM     41  C   LIG d   1       9.253   8.601  -1.183  0.00  0.00     0.304 C 
ATOM     42  O   LIG d   1       8.813   7.533  -0.827  0.00  0.00    -0.251 OA
BRANCH  41  43
ATOM     43  C   LIG d   1       8.804   9.866  -0.501  0.00  0.00     0.033 C 
ATOM     44  H   LIG d   1       8.160  10.433  -1.174  0.00  0.00     0.034 H 
ATOM     45  H   LIG d   1       8.253   9.616   0.405  0.00  0.00     0.034 H 
ATOM     46  H   LIG d   1       9.676  10.468  -0.241  0.00  0.00     0.034 H 
ENDBRANCH  41  43
ENDBRANCH  40  41
ENDBRANCH  22  40
ENDBRANCH   1  14
BRANCH   6  47
ATOM     47  O   LIG d   1      10.877   6.646  -5.288  0.00  0.00    -0.494 OA
BRANCH  47  48
ATOM     48  C   LIG d   1       9.886   7.674  -5.346  0.00  0.00     0.079 C 
ATOM     49  H   LIG d   1      10.312   8.611  -4.991  0.00  0.00     0.066 H 
ATOM     50  H   LIG d   1       9.547   7.794  -6.375  0.00  0.00     0.066 H 
ATOM     51  H   LIG d   1       9.040   7.398  -4.715  0.00  0.00     0.066 H 
ENDBRANCH  47  48
ENDBRANCH   6  47
BRANCH   2  52
ATOM     52  O   LIG d   1      12.050   5.801  -0.762  0.00  0.00    -0.506 OA
ATOM     53  H   LIG d   1      11.438   6.148  -0.100  0.00  0.00     0.292 HD
ENDBRANCH   2  52
BRANCH  10  54
ATOM     54  C   LIG d   1       8.337   0.790  -4.303  0.00  0.00     0.018 A 
ATOM     55  C   LIG d   1       7.192   0.580  -3.531  0.00  0.00    -0.048 A 
ATOM     56  C   LIG d   1       6.584  -0.656  -3.526  0.00  0.00    -0.019 A 
ATOM     57  H   LIG d   1       6.780   1.387  -2.943  0.00  0.00     0.063 H 
ATOM     58  C   LIG d   1       7.117  -1.698  -4.277  0.00  0.00     0.124 A 
ATOM     59  H   LIG d   1       5.696  -0.818  -2.934  0.00  0.00     0.065 H 
ATOM     60  C   LIG d   1       8.259  -1.495  -5.041  0.00  0.00    -0.019 A 
ATOM     61  C   LIG d   1       8.869  -0.260  -5.058  0.00  0.00    -0.048 A 
ATOM     62  H   LIG d   1       8.669  -2.306  -5.625  0.00  0.00     0.065 H 
ATOM     63  H   LIG d   1       9.757  -0.102  -5.653  0.00  0.00     0.063 H 
BRANCH  58  64
ATOM     64  O   LIG d   1       6.518  -2.916  -4.265  0.00  0.00    -0.461 OA
BRANCH  64  65
ATOM     65  C   LIG d   1       6.175  -3.483  -5.532  0.00  0.00     0.231 C 
ATOM     66  H   LIG d   1       7.015  -3.374  -6.218  0.00  0.00     0.108 H 
ATOM     67  O   LIG d   1       5.872  -4.869  -5.365  0.00  0.00    -0.331 OA
ATOM     68  C   LIG d   1       5.538  -5.542  -6.582  0.00  0.00     0.114 C 
ATOM     69  C   LIG d   1       4.290  -4.900  -7.193  0.00  0.00     0.112 C 
ATOM     70  H   LIG d   1       6.369  -5.461  -7.282  0.00  0.00     0.065 H 
ATOM     71  C   LIG d   1       4.554  -3.410  -7.428  0.00  0.00     0.115 C 
ATOM     72  H   LIG d   1       4.059  -5.384  -8.143  0.00  0.00     0.065 H 
ATOM     73  C   LIG d   1       4.953  -2.758  -6.100  0.00  0.00     0.145 C 
ATOM     74  H   LIG d   1       5.364  -3.293  -8.149  0.00  0.00     0.065 H 
ATOM     75  H   LIG d   1       5.197  -1.709  -6.269  0.00  0.00     0.068 H 
BRANCH  68  76
ATOM     76  C   LIG d   1       5.261  -7.018  -6.288  0.00  0.00     0.073 C 
ATOM     77  H   LIG d   1       4.705  -7.456  -7.118  0.00  0.00     0.058 H 
ATOM     78  H   LIG d   1       6.206  -7.548  -6.164  0.00  0.00     0.058 H 
BRANCH  76  79
ATOM     79  O   LIG d   1       4.492  -7.129  -5.089  0.00  0.00    -0.392 OA
ATOM     80  H   LIG d   1       4.833  -7.781  -4.462  0.00  0.00     0.209 HD
ENDBRANCH  76  79
ENDBRANCH  68  76
BRANCH  69  81
ATOM     81  O   LIG d   1       3.185  -5.055  -6.299  0.00  0.00    -0.387 OA
ATOM     82  H   LIG d   1       3.318  -5.734  -5.625  0.00  0.00     0.210 HD
ENDBRANCH  69  81
BRANCH  71  83
ATOM     83  O   LIG d   1       3.371  -2.787  -7.932  0.00  0.00    -0.386 OA
ATOM     84  H   LIG d   1       3.261  -1.868  -7.651  0.00  0.00     0.210 HD
ENDBRANCH  71  83
BRANCH  73  85
ATOM     85  O   LIG d   1       3.867  -2.854  -5.177  0.00  0.00    -0.383 OA
ATOM     86  H   LIG d   1       4.142  -3.010  -4.262  0.00  0.00     0.210 HD
ENDBRANCH  73  85
ENDBRANCH  64  65
ENDBRANCH  58  64
ENDBRANCH  10  54
TORSDOF 21
ENDMDL
MODEL 2
REMARK VINA RESULT:      -6.1      3.197     13.519
REMARK  21 active torsions:
REMARK  status: ('A' for Active; 'I' for Inactive)
REMARK    1  A    between atoms: C_1  and  C_2 
REMARK    2  A    between atoms: C_2  and  O_4 
REMARK    3  A    between atoms: O_4  and  C_5 
REMARK    4  A    between atoms: C_9  and  C_23 
REMARK    5  A    between atoms: C_11  and  O_19 
REMARK    6  A    between atoms: C_13  and  O_15 
REMARK    7  A    between atoms: O_15  and  C_16 
REMARK    8  A    between atoms: C_16  and  C_18 
REMARK    9  A    between atoms: O_19  and  C_20 
REMARK   10  A    between atoms: C_20  and  C_22 
REMARK   11  A    between atoms: C_24  and  O_59 
REMARK   12  A    between atoms: C_28  and  O_29 
REMARK   13  A    between atoms: O_29  and  C_30 
REMARK   14  A    between atoms: C_34  and  C_36 
REMARK   15  A    between atoms: C_39  and  O_42 
REMARK   16  A    between atoms: O_42  and  C_43 
REMARK   17  A    between atoms: C_45  and  O_58 
REMARK   18  A    between atoms: C_47  and  O_57 
REMARK   19  A    between atoms: C_49  and  O_56 
REMARK   20  A    between atoms: C_51  and  C_54 
REMARK   21  A    between atoms: C_54  and  O_55 
ROOT
ATOM      1  C   LIG d   1       6.755  -0.274  -7.975  0.00  0.00     0.069 A 
ATOM      2  C   LIG d   1       7.366   0.760  -8.678  0.00  0.00     0.130 A 
ATOM      3  C   LIG d   1       8.015   1.784  -8.005  0.00  0.00     0.024 A 
ATOM      4  C   LIG d   1       8.060   1.785  -6.620  0.00  0.00     0.146 A 
ATOM      5  C   LIG d   1       7.443   0.743  -5.907  0.00  0.00     0.106 A 
ATOM      6  C   LIG d   1       6.785  -0.287  -6.593  0.00  0.00     0.144 A 
ATOM      7  C   LIG d   1       7.505   0.765  -4.436  0.00  0.00     0.197 A 
ATOM      8  O   LIG d   1       6.987  -0.115  -3.767  0.00  0.00    -0.287 OA
ATOM      9  C   LIG d   1       8.185   1.846  -3.829  0.00  0.00     0.029 A 
ATOM     10  C   LIG d   1       8.749   2.808  -4.610  0.00  0.00     0.139 A 
ATOM     11  O   LIG d   1       8.687   2.776  -5.950  0.00  0.00    -0.454 OA
ATOM     12  H   LIG d   1       8.485   2.581  -8.562  0.00  0.00     0.069 H 
ATOM     13  H   LIG d   1       8.258   1.908  -2.753  0.00  0.00     0.069 H 
ENDROOT
BRANCH   1  14
ATOM     14  C   LIG d   1       6.055  -1.380  -8.721  0.00  0.00     0.131 C 
ATOM     15  O   LIG d   1       6.985  -2.034  -9.586  0.00  0.00    -0.364 OA
ATOM     16  C   LIG d   1       6.427  -3.122 -10.327  0.00  0.00     0.089 C 
ATOM     17  C   LIG d   1       5.302  -2.603 -11.225  0.00  0.00     0.166 C 
ATOM     18  H   LIG d   1       6.028  -3.865  -9.636  0.00  0.00     0.060 H 
ATOM     19  H   LIG d   1       7.203  -3.578 -10.943  0.00  0.00     0.060 H 
ATOM     20  H   LIG d   1       4.847  -3.437 -11.758  0.00  0.00     0.080 H 
ATOM     21  C   LIG d   1       4.245  -1.911 -10.358  0.00  0.00     0.181 C 
ATOM     22  C   LIG d   1       4.914  -0.790  -9.555  0.00  0.00     0.173 C 
ATOM     23  H   LIG d   1       3.468  -1.491 -10.997  0.00  0.00     0.081 H 
ATOM     24  H   LIG d   1       5.311  -0.040 -10.238  0.00  0.00     0.080 H 
ATOM     25  H   LIG d   1       5.651  -2.100  -8.010  0.00  0.00     0.069 H 
BRANCH  17  26
ATOM     26  O   LIG d   1       5.834  -1.668 -12.165  0.00  0.00    -0.455 OA
BRANCH  26  27
ATOM     27  C   LIG d   1       5.290  -1.661 -13.392  0.00  0.00     0.304 C 
ATOM     28  O   LIG d   1       5.539  -2.553 -14.168  0.00  0.00    -0.251 OA
BRANCH  27  29
ATOM     29  C   LIG d   1       4.368  -0.541 -13.802  0.00  0.00     0.033 C 
ATOM     30  H   LIG d   1       4.216  -0.571 -14.880  0.00  0.00     0.034 H 
ATOM     31  H   LIG d   1       3.410  -0.655 -13.296  0.00  0.00     0.034 H 
ATOM     32  H   LIG d   1       4.814   0.415 -13.524  0.00  0.00     0.034 H 
ENDBRANCH  27  29
ENDBRANCH  26  27
ENDBRANCH  17  26
BRANCH  21  33
ATOM     33  O   LIG d   1       3.666  -2.862  -9.461  0.00  0.00    -0.454 OA
BRANCH  33  34
ATOM     34  C   LIG d   1       2.497  -3.411  -9.826  0.00  0.00     0.304 C 
ATOM     35  O   LIG d   1       2.362  -4.611  -9.807  0.00  0.00    -0.251 OA
BRANCH  34  36
ATOM     36  C   LIG d   1       1.352  -2.530 -10.257  0.00  0.00     0.033 C 
ATOM     37  H   LIG d   1       0.498  -2.698  -9.602  0.00  0.00     0.034 H 
ATOM     38  H   LIG d   1       1.656  -1.485 -10.197  0.00  0.00     0.034 H 
ATOM     39  H   LIG d   1       1.076  -2.770 -11.284  0.00  0.00     0.034 H 
ENDBRANCH  34  36
ENDBRANCH  33  34
ENDBRANCH  21  33
BRANCH  22  40
ATOM     40  O   LIG d   1       3.954  -0.183  -8.688  0.00  0.00    -0.455 OA
BRANCH  40  41
ATOM     41  C   LIG d   1       3.684   1.116  -8.890  0.00  0.00     0.304 C 
ATOM     42  O   LIG d   1       3.243   1.788  -7.987  0.00  0.00    -0.251 OA
BRANCH  41  43
ATOM     43  C   LIG d   1       3.933   1.737 -10.240  0.00  0.00     0.033 C 
ATOM     44  H   LIG d   1       4.997   1.948 -10.353  0.00  0.00     0.034 H 
ATOM     45  H   LIG d   1       3.615   1.047 -11.021  0.00  0.00     0.034 H 
ATOM     46  H   LIG d   1       3.368   2.665 -10.323  0.00  0.00     0.034 H 
ENDBRANCH  41  43
ENDBRANCH  40  41
ENDBRANCH  22  40
ENDBRANCH   1  14
BRANCH   6  47
ATOM     47  O   LIG d   1       6.185  -1.291  -5.906  0.00  0.00    -0.494 OA
BRANCH  47  48
ATOM     48  C   LIG d   1       4.780  -1.169  -5.671  0.00  0.00     0.079 C 
ATOM     49  H   LIG d   1       4.591  -0.309  -5.030  0.00  0.00     0.066 H 
ATOM     50  H   LIG d   1       4.264  -1.036  -6.622  0.00  0.00     0.066 H 
ATOM     51  H   LIG d   1       4.415  -2.074  -5.183  0.00  0.00     0.066 H 
ENDBRANCH  47  48
ENDBRANCH   6  47
BRANCH   2  52
ATOM     52  O   LIG d   1       7.327   0.765 -10.034  0.00  0.00    -0.506 OA
ATOM     53  H   LIG d   1       8.183   0.608 -10.453  0.00  0.00     0.292 HD
ENDBRANCH   2  52
BRANCH  10  54
ATOM     54  C   LIG d   1       9.455   3.927  -3.959  0.00  0.00     0.018 A 
ATOM     55  C   LIG d   1      10.054   3.746  -2.709  0.00  0.00    -0.048 A 
ATOM     56  C   LIG d   1      10.718   4.792  -2.108  0.00  0.00    -0.019 A 
ATOM     57  H   LIG d   1      10.002   2.785  -2.218  0.00  0.00     0.063 H 
ATOM     58  C   LIG d   1      10.780   6.031  -2.736  0.00  0.00     0.124 A 
ATOM     59  H   LIG d   1      11.186   4.651  -1.145  0.00  0.00     0.065 H 
ATOM     60  C   LIG d   1      10.181   6.217  -3.975  0.00  0.00    -0.019 A 
ATOM     61  C   LIG d   1       9.521   5.174  -4.587  0.00  0.00    -0.048 A 
ATOM     62  H   LIG d   1      10.233   7.181  -4.460  0.00  0.00     0.065 H 
ATOM     63  H   LIG d   1       9.056   5.319  -5.551  0.00  0.00     0.063 H 
BRANCH  58  64
ATOM     64  O   LIG d   1      11.431   7.061  -2.137  0.00  0.00    -0.461 OA
BRANCH  64  65
ATOM     65  C   LIG d   1      10.711   7.791  -1.141  0.00  0.00     0.231 C 
ATOM     66  H   LIG d   1      10.226   7.094  -0.458  0.00  0.00     0.108 H 
ATOM     67  O   LIG d   1      11.618   8.621  -0.412  0.00  0.00    -0.331 OA
ATOM     68  C   LIG d   1      11.002   9.380   0.631  0.00  0.00     0.114 C 
ATOM     69  C   LIG d   1       9.954  10.319   0.027  0.00  0.00     0.112 C 
ATOM     70  H   LIG d   1      10.522   8.705   1.338  0.00  0.00     0.065 H 
ATOM     71  C   LIG d   1       8.926   9.491  -0.749  0.00  0.00     0.115 C 
ATOM     72  H   LIG d   1       9.453  10.868   0.826  0.00  0.00     0.065 H 
ATOM     73  C   LIG d   1       9.652   8.666  -1.816  0.00  0.00     0.145 C 
ATOM     74  H   LIG d   1       8.404   8.822  -0.064  0.00  0.00     0.065 H 
ATOM     75  H   LIG d   1       8.934   8.032  -2.337  0.00  0.00     0.068 H 
BRANCH  68  76
ATOM     76  C   LIG d   1      12.067  10.205   1.358  0.00  0.00     0.073 C 
ATOM     77  H   LIG d   1      12.488   9.617   2.174  0.00  0.00     0.058 H 
ATOM     78  H   LIG d   1      12.857  10.475   0.659  0.00  0.00     0.058 H 
BRANCH  76  79
ATOM     79  O   LIG d   1      11.471  11.392   1.886  0.00  0.00    -0.392 OA
ATOM     80  H   LIG d   1      10.915  11.241   2.663  0.00  0.00     0.209 HD
ENDBRANCH  76  79
ENDBRANCH  68  76
BRANCH  69  81
ATOM     81  O   LIG d   1      10.592  11.242  -0.858  0.00  0.00    -0.387 OA
ATOM     82  H   LIG d   1      10.041  11.515  -1.604  0.00  0.00     0.210 HD
ENDBRANCH  69  81
BRANCH  71  83
ATOM     83  O   LIG d   1       7.984  10.363  -1.377  0.00  0.00    -0.386 OA
ATOM     84  H   LIG d   1       8.285  10.726  -2.221  0.00  0.00     0.210 HD
ENDBRANCH  71  83
BRANCH  73  85
ATOM     85  O   LIG d   1      10.281   9.543  -2.752  0.00  0.00    -0.383 OA
ATOM     86  H   LIG d   1       9.686  10.208  -3.129  0.00  0.00     0.210 HD
ENDBRANCH  73  85
ENDBRANCH  64  65
ENDBRANCH  58  64
ENDBRANCH  10  54
TORSDOF 21
ENDMDL
MODEL 3
REMARK VINA RESULT:      -6.0      2.216      3.836
REMARK  21 active torsions:
REMARK  status: ('A' for Active; 'I' for Inactive)
REMARK    1  A    between atoms: C_1  and  C_2 
REMARK    2  A    between atoms: C_2  and  O_4 
REMARK    3  A    between atoms: O_4  and  C_5 
REMARK    4  A    between atoms: C_9  and  C_23 
REMARK    5  A    between atoms: C_11  and  O_19 
REMARK    6  A    between atoms: C_13  and  O_15 
REMARK    7  A    between atoms: O_15  and  C_16 
REMARK    8  A    between atoms: C_16  and  C_18 
REMARK    9  A    between atoms: O_19  and  C_20 
REMARK   10  A    between atoms: C_20  and  C_22 
REMARK   11  A    between atoms: C_24  and  O_59 
REMARK   12  A    between atoms: C_28  and  O_29 
REMARK   13  A    between atoms: O_29  and  C_30 
REMARK   14  A    between atoms: C_34  and  C_36 
REMARK   15  A    between atoms: C_39  and  O_42 
REMARK   16  A    between atoms: O_42  and  C_43 
REMARK   17  A    between atoms: C_45  and  O_58 
REMARK   18  A    between atoms: C_47  and  O_57 
REMARK   19  A    between atoms: C_49  and  O_56 
REMARK   20  A    between atoms: C_51  and  C_54 
REMARK   21  A    between atoms: C_54  and  O_55 
ROOT
ATOM      1  C   LIG d   1      12.371   7.844  -0.867  0.00  0.00     0.069 A 
ATOM      2  C   LIG d   1      11.672   6.965  -0.047  0.00  0.00     0.130 A 
ATOM      3  C   LIG d   1      10.949   5.915  -0.590  0.00  0.00     0.024 A 
ATOM      4  C   LIG d   1      10.917   5.732  -1.964  0.00  0.00     0.146 A 
ATOM      5  C   LIG d   1      11.623   6.618  -2.796  0.00  0.00     0.106 A 
ATOM      6  C   LIG d   1      12.347   7.681  -2.240  0.00  0.00     0.144 A 
ATOM      7  C   LIG d   1      11.575   6.403  -4.252  0.00  0.00     0.197 A 
ATOM      8  O   LIG d   1      12.169   7.142  -5.022  0.00  0.00    -0.287 OA
ATOM      9  C   LIG d   1      10.814   5.309  -4.725  0.00  0.00     0.029 A 
ATOM     10  C   LIG d   1      10.166   4.509  -3.834  0.00  0.00     0.139 A 
ATOM     11  O   LIG d   1      10.218   4.714  -2.510  0.00  0.00    -0.454 OA
ATOM     12  H   LIG d   1      10.410   5.239   0.057  0.00  0.00     0.069 H 
ATOM     13  H   LIG d   1      10.747   5.109  -5.784  0.00  0.00     0.069 H 
ENDROOT
BRANCH   1  14
ATOM     14  C   LIG d   1      13.152   8.980  -0.260  0.00  0.00     0.131 C 
ATOM     15  O   LIG d   1      14.119   8.459   0.655  0.00  0.00    -0.364 OA
ATOM     16  C   LIG d   1      14.936   9.456   1.272  0.00  0.00     0.089 C 
ATOM     17  C   LIG d   1      14.052  10.409   2.081  0.00  0.00     0.166 C 
ATOM     18  H   LIG d   1      15.467  10.017   0.503  0.00  0.00     0.060 H 
ATOM     19  H   LIG d   1      15.656   8.976   1.935  0.00  0.00     0.060 H 
ATOM     20  H   LIG d   1      14.669  11.195   2.517  0.00  0.00     0.080 H 
ATOM     21  C   LIG d   1      13.006  11.034   1.154  0.00  0.00     0.181 C 
ATOM     22  C   LIG d   1      12.197   9.915   0.488  0.00  0.00     0.173 C 
ATOM     23  H   LIG d   1      12.339  11.671   1.735  0.00  0.00     0.081 H 
ATOM     24  H   LIG d   1      11.659   9.352   1.249  0.00  0.00     0.080 H 
ATOM     25  H   LIG d   1      13.661   9.535  -1.048  0.00  0.00     0.069 H 
BRANCH  17  26
ATOM     26  O   LIG d   1      13.396   9.684   3.122  0.00  0.00    -0.455 OA
BRANCH  26  27
ATOM     27  C   LIG d   1      13.071  10.368   4.230  0.00  0.00     0.304 C 
ATOM     28  O   LIG d   1      12.153   9.997   4.922  0.00  0.00    -0.251 OA
BRANCH  27  29
ATOM     29  C   LIG d   1      13.852  11.600   4.611  0.00  0.00     0.033 C 
ATOM     30  H   LIG d   1      13.308  12.488   4.291  0.00  0.00     0.034 H 
ATOM     31  H   LIG d   1      13.986  11.625   5.692  0.00  0.00     0.034 H 
ATOM     32  H   LIG d   1      14.827  11.576   4.124  0.00  0.00     0.034 H 
ENDBRANCH  27  29
ENDBRANCH  26  27
ENDBRANCH  17  26
BRANCH  21  33
ATOM     33  O   LIG d   1      13.660  11.813   0.150  0.00  0.00    -0.454 OA
BRANCH  33  34
ATOM     34  C   LIG d   1      13.507  13.145   0.216  0.00  0.00     0.304 C 
ATOM     35  O   LIG d   1      14.346  13.873  -0.259  0.00  0.00    -0.251 OA
BRANCH  34  36
ATOM     36  C   LIG d   1      12.289  13.732   0.880  0.00  0.00     0.033 C 
ATOM     37  H   LIG d   1      11.643  12.928   1.232  0.00  0.00     0.034 H 
ATOM     38  H   LIG d   1      12.597  14.346   1.726  0.00  0.00     0.034 H 
ATOM     39  H   LIG d   1      11.745  14.347   0.164  0.00  0.00     0.034 H 
ENDBRANCH  34  36
ENDBRANCH  33  34
ENDBRANCH  21  33
BRANCH  22  40
ATOM     40  O   LIG d   1      11.264  10.481  -0.435  0.00  0.00    -0.455 OA
BRANCH  40  41
ATOM     41  C   LIG d   1       9.975  10.502  -0.064  0.00  0.00     0.304 C 
ATOM     42  O   LIG d   1       9.604  11.275   0.788  0.00  0.00    -0.251 OA
BRANCH  41  43
ATOM     43  C   LIG d   1       8.990   9.562  -0.709  0.00  0.00     0.033 C 
ATOM     44  H   LIG d   1       8.149  10.132  -1.105  0.00  0.00     0.034 H 
ATOM     45  H   LIG d   1       9.479   9.023  -1.520  0.00  0.00     0.034 H 
ATOM     46  H   LIG d   1       8.628   8.849   0.033  0.00  0.00     0.034 H 
ENDBRANCH  41  43
ENDBRANCH  40  41
ENDBRANCH  22  40
ENDBRANCH   1  14
BRANCH   6  47
ATOM     47  O   LIG d   1      13.024   8.540  -3.043  0.00  0.00    -0.494 OA
BRANCH  47  48
ATOM     48  C   LIG d   1      12.369   9.764  -3.383  0.00  0.00     0.079 C 
ATOM     49  H   LIG d   1      12.191   9.795  -4.458  0.00  0.00     0.066 H 
ATOM     50  H   LIG d   1      11.418   9.827  -2.854  0.00  0.00     0.066 H 
ATOM     51  H   LIG d   1      13.001  10.605  -3.096  0.00  0.00     0.066 H 
ENDBRANCH  47  48
ENDBRANCH   6  47
BRANCH   2  52
ATOM     52  O   LIG d   1      11.698   7.138   1.299  0.00  0.00    -0.506 OA
ATOM     53  H   LIG d   1      12.014   6.367   1.789  0.00  0.00     0.292 HD
ENDBRANCH   2  52
BRANCH  10  54
ATOM     54  C   LIG d   1       9.377   3.371  -4.346  0.00  0.00     0.018 A 
ATOM     55  C   LIG d   1       8.878   2.411  -3.462  0.00  0.00    -0.048 A 
ATOM     56  C   LIG d   1       8.137   1.355  -3.943  0.00  0.00    -0.019 A 
ATOM     57  H   LIG d   1       9.069   2.499  -2.403  0.00  0.00     0.063 H 
ATOM     58  C   LIG d   1       7.896   1.236  -5.308  0.00  0.00     0.124 A 
ATOM     59  H   LIG d   1       7.746   0.615  -3.261  0.00  0.00     0.065 H 
ATOM     60  C   LIG d   1       8.396   2.186  -6.190  0.00  0.00    -0.019 A 
ATOM     61  C   LIG d   1       9.132   3.249  -5.717  0.00  0.00    -0.048 A 
ATOM     62  H   LIG d   1       8.205   2.091  -7.249  0.00  0.00     0.065 H 
ATOM     63  H   LIG d   1       9.520   3.988  -6.403  0.00  0.00     0.063 H 
BRANCH  58  64
ATOM     64  O   LIG d   1       7.170   0.191  -5.778  0.00  0.00    -0.461 OA
BRANCH  64  65
ATOM     65  C   LIG d   1       6.353  -0.508  -4.836  0.00  0.00     0.231 C 
ATOM     66  H   LIG d   1       6.980  -0.915  -4.042  0.00  0.00     0.108 H 
ATOM     67  O   LIG d   1       5.397   0.393  -4.274  0.00  0.00    -0.331 OA
ATOM     68  C   LIG d   1       4.542  -0.201  -3.295  0.00  0.00     0.114 C 
ATOM     69  C   LIG d   1       3.736  -1.332  -3.942  0.00  0.00     0.112 C 
ATOM     70  H   LIG d   1       5.144  -0.603  -2.482  0.00  0.00     0.065 H 
ATOM     71  C   LIG d   1       4.702  -2.357  -4.543  0.00  0.00     0.115 C 
ATOM     72  H   LIG d   1       3.115  -1.814  -3.187  0.00  0.00     0.065 H 
ATOM     73  C   LIG d   1       5.621  -1.651  -5.544  0.00  0.00     0.145 C 
ATOM     74  H   LIG d   1       5.302  -2.801  -3.748  0.00  0.00     0.065 H 
ATOM     75  H   LIG d   1       6.348  -2.362  -5.935  0.00  0.00     0.068 H 
BRANCH  68  76
ATOM     76  C   LIG d   1       3.584   0.858  -2.745  0.00  0.00     0.073 C 
ATOM     77  H   LIG d   1       2.607   0.407  -2.567  0.00  0.00     0.058 H 
ATOM     78  H   LIG d   1       3.978   1.254  -1.810  0.00  0.00     0.058 H 
BRANCH  76  79
ATOM     79  O   LIG d   1       3.451   1.919  -3.693  0.00  0.00    -0.392 OA
ATOM     80  H   LIG d   1       4.278   2.387  -3.878  0.00  0.00     0.209 HD
ENDBRANCH  76  79
ENDBRANCH  68  76
BRANCH  69  81
ATOM     81  O   LIG d   1       2.904  -0.797  -4.973  0.00  0.00    -0.387 OA
ATOM     82  H   LIG d   1       1.984  -0.665  -4.706  0.00  0.00     0.210 HD
ENDBRANCH  69  81
BRANCH  71  83
ATOM     83  O   LIG d   1       3.961  -3.380  -5.211  0.00  0.00    -0.386 OA
ATOM     84  H   LIG d   1       4.376  -3.698  -6.025  0.00  0.00     0.210 HD
ENDBRANCH  71  83
BRANCH  73  85
ATOM     85  O   LIG d   1       4.841  -1.125  -6.620  0.00  0.00    -0.383 OA
ATOM     86  H   LIG d   1       4.276  -1.782  -7.053  0.00  0.00     0.210 HD
ENDBRANCH  73  85
ENDBRANCH  64  65
ENDBRANCH  58  64
ENDBRANCH  10  54
TORSDOF 21
ENDMDL
MODEL 4
REMARK VINA RESULT:      -6.0      5.963     12.677
REMARK  21 active torsions:
REMARK  status: ('A' for Active; 'I' for Inactive)
REMARK    1  A    between atoms: C_1  and  C_2 
REMARK    2  A    between atoms: C_2  and  O_4 
REMARK    3  A    between atoms: O_4  and  C_5 
REMARK    4  A    between atoms: C_9  and  C_23 
REMARK    5  A    between atoms: C_11  and  O_19 
REMARK    6  A    between atoms: C_13  and  O_15 
REMARK    7  A    between atoms: O_15  and  C_16 
REMARK    8  A    between atoms: C_16  and  C_18 
REMARK    9  A    between atoms: O_19  and  C_20 
REMARK   10  A    between atoms: C_20  and  C_22 
REMARK   11  A    between atoms: C_24  and  O_59 
REMARK   12  A    between atoms: C_28  and  O_29 
REMARK   13  A    between atoms: O_29  and  C_30 
REMARK   14  A    between atoms: C_34  and  C_36 
REMARK   15  A    between atoms: C_39  and  O_42 
REMARK   16  A    between atoms: O_42  and  C_43 
REMARK   17  A    between atoms: C_45  and  O_58 
REMARK   18  A    between atoms: C_47  and  O_57 
REMARK   19  A    between atoms: C_49  and  O_56 
REMARK   20  A    between atoms: C_51  and  C_54 
REMARK   21  A    between atoms: C_54  and  O_55 
ROOT
ATOM      1  C   LIG d   1       7.250  -0.184  -6.614  0.00  0.00     0.069 A 
ATOM      2  C   LIG d   1       6.814  -0.367  -7.922  0.00  0.00     0.130 A 
ATOM      3  C   LIG d   1       7.173   0.528  -8.918  0.00  0.00     0.024 A 
ATOM      4  C   LIG d   1       7.974   1.618  -8.616  0.00  0.00     0.146 A 
ATOM      5  C   LIG d   1       8.417   1.806  -7.295  0.00  0.00     0.106 A 
ATOM      6  C   LIG d   1       8.046   0.901  -6.292  0.00  0.00     0.144 A 
ATOM      7  C   LIG d   1       9.267   2.971  -6.998  0.00  0.00     0.197 A 
ATOM      8  O   LIG d   1       9.680   3.183  -5.869  0.00  0.00    -0.287 OA
ATOM      9  C   LIG d   1       9.586   3.835  -8.072  0.00  0.00     0.029 A 
ATOM     10  C   LIG d   1       9.106   3.564  -9.316  0.00  0.00     0.139 A 
ATOM     11  O   LIG d   1       8.333   2.499  -9.574  0.00  0.00    -0.454 OA
ATOM     12  H   LIG d   1       6.828   0.375  -9.930  0.00  0.00     0.069 H 
ATOM     13  H   LIG d   1      10.207   4.703  -7.905  0.00  0.00     0.069 H 
ENDROOT
BRANCH   1  14
ATOM     14  C   LIG d   1       6.852  -1.166  -5.543  0.00  0.00     0.131 C 
ATOM     15  O   LIG d   1       7.431  -2.441  -5.827  0.00  0.00    -0.364 OA
ATOM     16  C   LIG d   1       7.135  -3.446  -4.855  0.00  0.00     0.089 C 
ATOM     17  C   LIG d   1       5.621  -3.667  -4.796  0.00  0.00     0.166 C 
ATOM     18  H   LIG d   1       7.493  -3.122  -3.877  0.00  0.00     0.060 H 
ATOM     19  H   LIG d   1       7.628  -4.377  -5.133  0.00  0.00     0.060 H 
ATOM     20  H   LIG d   1       5.390  -4.402  -4.025  0.00  0.00     0.080 H 
ATOM     21  C   LIG d   1       4.931  -2.341  -4.463  0.00  0.00     0.181 C 
ATOM     22  C   LIG d   1       5.326  -1.296  -5.512  0.00  0.00     0.173 C 
ATOM     23  H   LIG d   1       3.850  -2.481  -4.474  0.00  0.00     0.081 H 
ATOM     24  H   LIG d   1       4.967  -1.609  -6.492  0.00  0.00     0.080 H 
ATOM     25  H   LIG d   1       7.206  -0.813  -4.575  0.00  0.00     0.069 H 
BRANCH  17  26
ATOM     26  O   LIG d   1       5.159  -4.142  -6.062  0.00  0.00    -0.455 OA
BRANCH  26  27
ATOM     27  C   LIG d   1       4.453  -5.283  -6.064  0.00  0.00     0.304 C 
ATOM     28  O   LIG d   1       3.304  -5.282  -6.438  0.00  0.00    -0.251 OA
BRANCH  27  29
ATOM     29  C   LIG d   1       5.093  -6.566  -5.599  0.00  0.00     0.033 C 
ATOM     30  H   LIG d   1       6.174  -6.438  -5.558  0.00  0.00     0.034 H 
ATOM     31  H   LIG d   1       4.719  -6.821  -4.608  0.00  0.00     0.034 H 
ATOM     32  H   LIG d   1       4.848  -7.367  -6.298  0.00  0.00     0.034 H 
ENDBRANCH  27  29
ENDBRANCH  26  27
ENDBRANCH  17  26
BRANCH  21  33
ATOM     33  O   LIG d   1       5.344  -1.899  -3.168  0.00  0.00    -0.454 OA
BRANCH  33  34
ATOM     34  C   LIG d   1       4.377  -1.543  -2.308  0.00  0.00     0.304 C 
ATOM     35  O   LIG d   1       3.482  -2.313  -2.054  0.00  0.00    -0.251 OA
BRANCH  34  36
ATOM     36  C   LIG d   1       4.409  -0.183  -1.659  0.00  0.00     0.033 C 
ATOM     37  H   LIG d   1       5.440   0.164  -1.592  0.00  0.00     0.034 H 
ATOM     38  H   LIG d   1       3.829   0.519  -2.258  0.00  0.00     0.034 H 
ATOM     39  H   LIG d   1       3.981  -0.247  -0.659  0.00  0.00     0.034 H 
ENDBRANCH  34  36
ENDBRANCH  33  34
ENDBRANCH  21  33
BRANCH  22  40
ATOM     40  O   LIG d   1       4.747  -0.034  -5.174  0.00  0.00    -0.455 OA
BRANCH  40  41
ATOM     41  C   LIG d   1       3.467   0.164  -5.526  0.00  0.00     0.304 C 
ATOM     42  O   LIG d   1       2.640   0.413  -4.681  0.00  0.00    -0.251 OA
BRANCH  41  43
ATOM     43  C   LIG d   1       3.062   0.077  -6.974  0.00  0.00     0.033 C 
ATOM     44  H   LIG d   1       3.069   1.075  -7.415  0.00  0.00     0.034 H 
ATOM     45  H   LIG d   1       3.763  -0.562  -7.510  0.00  0.00     0.034 H 
ATOM     46  H   LIG d   1       2.059  -0.344  -7.047  0.00  0.00     0.034 H 
ENDBRANCH  41  43
ENDBRANCH  40  41
ENDBRANCH  22  40
ENDBRANCH   1  14
BRANCH   6  47
ATOM     47  O   LIG d   1       8.468   1.084  -5.016  0.00  0.00    -0.494 OA
BRANCH  47  48
ATOM     48  C   LIG d   1       7.526   1.635  -4.093  0.00  0.00     0.079 C 
ATOM     49  H   LIG d   1       7.666   2.714  -4.031  0.00  0.00     0.066 H 
ATOM     50  H   LIG d   1       6.514   1.418  -4.433  0.00  0.00     0.066 H 
ATOM     51  H   LIG d   1       7.682   1.192  -3.109  0.00  0.00     0.066 H 
ENDBRANCH  47  48
ENDBRANCH   6  47
BRANCH   2  52
ATOM     52  O   LIG d   1       6.030  -1.432  -8.225  0.00  0.00    -0.506 OA
ATOM     53  H   LIG d   1       6.405  -2.018  -8.896  0.00  0.00     0.292 HD
ENDBRANCH   2  52
BRANCH  10  54
ATOM     54  C   LIG d   1       9.450   4.477 -10.423  0.00  0.00     0.018 A 
ATOM     55  C   LIG d   1       8.818   5.719 -10.529  0.00  0.00    -0.048 A 
ATOM     56  C   LIG d   1       9.147   6.570 -11.561  0.00  0.00    -0.019 A 
ATOM     57  H   LIG d   1       8.077   6.013  -9.801  0.00  0.00     0.063 H 
ATOM     58  C   LIG d   1      10.096   6.190 -12.503  0.00  0.00     0.124 A 
ATOM     59  H   LIG d   1       8.663   7.532 -11.640  0.00  0.00     0.065 H 
ATOM     60  C   LIG d   1      10.722   4.954 -12.404  0.00  0.00    -0.019 A 
ATOM     61  C   LIG d   1      10.404   4.099 -11.372  0.00  0.00    -0.048 A 
ATOM     62  H   LIG d   1      11.460   4.663 -13.138  0.00  0.00     0.065 H 
ATOM     63  H   LIG d   1      10.892   3.138 -11.295  0.00  0.00     0.063 H 
BRANCH  58  64
ATOM     64  O   LIG d   1      10.413   7.030 -13.521  0.00  0.00    -0.461 OA
BRANCH  64  65
ATOM     65  C   LIG d   1      10.481   6.464 -14.832  0.00  0.00     0.231 C 
ATOM     66  H   LIG d   1      11.321   5.771 -14.886  0.00  0.00     0.108 H 
ATOM     67  O   LIG d   1       9.267   5.764 -15.111  0.00  0.00    -0.331 OA
ATOM     68  C   LIG d   1       9.239   5.135 -16.394  0.00  0.00     0.114 C 
ATOM     69  C   LIG d   1       9.381   6.199 -17.486  0.00  0.00     0.112 C 
ATOM     70  H   LIG d   1      10.062   4.425 -16.469  0.00  0.00     0.065 H 
ATOM     71  C   LIG d   1      10.684   6.973 -17.266  0.00  0.00     0.115 C 
ATOM     72  H   LIG d   1       9.404   5.716 -18.464  0.00  0.00     0.065 H 
ATOM     73  C   LIG d   1      10.673   7.581 -15.860  0.00  0.00     0.145 C 
ATOM     74  H   LIG d   1      11.532   6.295 -17.364  0.00  0.00     0.065 H 
ATOM     75  H   LIG d   1      11.620   8.087 -15.675  0.00  0.00     0.068 H 
BRANCH  68  76
ATOM     76  C   LIG d   1       7.911   4.397 -16.572  0.00  0.00     0.073 C 
ATOM     77  H   LIG d   1       7.636   4.391 -17.626  0.00  0.00     0.058 H 
ATOM     78  H   LIG d   1       8.014   3.371 -16.217  0.00  0.00     0.058 H 
BRANCH  76  79
ATOM     79  O   LIG d   1       6.893   5.060 -15.819  0.00  0.00    -0.392 OA
ATOM     80  H   LIG d   1       6.069   4.558 -15.744  0.00  0.00     0.209 HD
ENDBRANCH  76  79
ENDBRANCH  68  76
BRANCH  69  81
ATOM     81  O   LIG d   1       8.273   7.099 -17.425  0.00  0.00    -0.387 OA
ATOM     82  H   LIG d   1       7.897   7.318 -18.287  0.00  0.00     0.210 HD
ENDBRANCH  69  81
BRANCH  71  83
ATOM     83  O   LIG d   1      10.791   8.016 -18.238  0.00  0.00    -0.386 OA
ATOM     84  H   LIG d   1      10.283   8.810 -18.021  0.00  0.00     0.210 HD
ENDBRANCH  71  83
BRANCH  73  85
ATOM     85  O   LIG d   1       9.601   8.519 -15.754  0.00  0.00    -0.383 OA
ATOM     86  H   LIG d   1       8.960   8.307 -15.061  0.00  0.00     0.210 HD
ENDBRANCH  73  85
ENDBRANCH  64  65
ENDBRANCH  58  64
ENDBRANCH  10  54
TORSDOF 21
ENDMDL
MODEL 5
REMARK VINA RESULT:      -5.9      5.600     13.236
REMARK  21 active torsions:
REMARK  status: ('A' for Active; 'I' for Inactive)
REMARK    1  A    between atoms: C_1  and  C_2 
REMARK    2  A    between atoms: C_2  and  O_4 
REMARK    3  A    between atoms: O_4  and  C_5 
REMARK    4  A    between atoms: C_9  and  C_23 
REMARK    5  A    between atoms: C_11  and  O_19 
REMARK    6  A    between atoms: C_13  and  O_15 
REMARK    7  A    between atoms: O_15  and  C_16 
REMARK    8  A    between atoms: C_16  and  C_18 
REMARK    9  A    between atoms: O_19  and  C_20 
REMARK   10  A    between atoms: C_20  and  C_22 
REMARK   11  A    between atoms: C_24  and  O_59 
REMARK   12  A    between atoms: C_28  and  O_29 
REMARK   13  A    between atoms: O_29  and  C_30 
REMARK   14  A    between atoms: C_34  and  C_36 
REMARK   15  A    between atoms: C_39  and  O_42 
REMARK   16  A    between atoms: O_42  and  C_43 
REMARK   17  A    between atoms: C_45  and  O_58 
REMARK   18  A    between atoms: C_47  and  O_57 
REMARK   19  A    between atoms: C_49  and  O_56 
REMARK   20  A    between atoms: C_51  and  C_54 
REMARK   21  A    between atoms: C_54  and  O_55 
ROOT
ATOM      1  C   LIG d   1       7.176   0.067  -6.729  0.00  0.00     0.069 A 
ATOM      2  C   LIG d   1       6.724   0.150  -8.041  0.00  0.00     0.130 A 
ATOM      3  C   LIG d   1       7.136   1.184  -8.867  0.00  0.00     0.024 A 
ATOM      4  C   LIG d   1       8.007   2.150  -8.387  0.00  0.00     0.146 A 
ATOM      5  C   LIG d   1       8.466   2.070  -7.060  0.00  0.00     0.106 A 
ATOM      6  C   LIG d   1       8.041   1.024  -6.230  0.00  0.00     0.144 A 
ATOM      7  C   LIG d   1       9.391   3.106  -6.573  0.00  0.00     0.197 A 
ATOM      8  O   LIG d   1       9.821   3.085  -5.430  0.00  0.00    -0.287 OA
ATOM      9  C   LIG d   1       9.761   4.128  -7.479  0.00  0.00     0.029 A 
ATOM     10  C   LIG d   1       9.260   4.115  -8.744  0.00  0.00     0.139 A 
ATOM     11  O   LIG d   1       8.419   3.165  -9.177  0.00  0.00    -0.454 OA
ATOM     12  H   LIG d   1       6.779   1.238  -9.884  0.00  0.00     0.069 H 
ATOM     13  H   LIG d   1      10.437   4.911  -7.169  0.00  0.00     0.069 H 
ENDROOT
BRANCH   1  14
ATOM     14  C   LIG d   1       6.718  -1.064  -5.845  0.00  0.00     0.131 C 
ATOM     15  O   LIG d   1       7.172  -2.306  -6.387  0.00  0.00    -0.364 OA
ATOM     16  C   LIG d   1       6.812  -3.449  -5.609  0.00  0.00     0.089 C 
ATOM     17  C   LIG d   1       5.287  -3.550  -5.529  0.00  0.00     0.166 C 
ATOM     18  H   LIG d   1       7.224  -3.349  -4.605  0.00  0.00     0.060 H 
ATOM     19  H   LIG d   1       7.212  -4.348  -6.078  0.00  0.00     0.060 H 
ATOM     20  H   LIG d   1       5.011  -4.397  -4.900  0.00  0.00     0.080 H 
ATOM     21  C   LIG d   1       4.728  -2.259  -4.924  0.00  0.00     0.181 C 
ATOM     22  C   LIG d   1       5.189  -1.070  -5.773  0.00  0.00     0.173 C 
ATOM     23  H   LIG d   1       3.639  -2.303  -4.914  0.00  0.00     0.081 H 
ATOM     24  H   LIG d   1       4.777  -1.160  -6.779  0.00  0.00     0.080 H 
ATOM     25  H   LIG d   1       7.129  -0.934  -4.844  0.00  0.00     0.069 H 
BRANCH  17  26
ATOM     26  O   LIG d   1       4.751  -3.734  -6.840  0.00  0.00    -0.455 OA
BRANCH  26  27
ATOM     27  C   LIG d   1       3.901  -4.759  -7.012  0.00  0.00     0.304 C 
ATOM     28  O   LIG d   1       3.464  -5.349  -6.053  0.00  0.00    -0.251 OA
BRANCH  27  29
ATOM     29  C   LIG d   1       3.493  -5.174  -8.403  0.00  0.00     0.033 C 
ATOM     30  H   LIG d   1       4.170  -4.725  -9.129  0.00  0.00     0.034 H 
ATOM     31  H   LIG d   1       3.538  -6.260  -8.486  0.00  0.00     0.034 H 
ATOM     32  H   LIG d   1       2.475  -4.836  -8.597  0.00  0.00     0.034 H 
ENDBRANCH  27  29
ENDBRANCH  26  27
ENDBRANCH  17  26
BRANCH  21  33
ATOM     33  O   LIG d   1       5.214  -2.108  -3.588  0.00  0.00    -0.454 OA
BRANCH  33  34
ATOM     34  C   LIG d   1       4.301  -1.891  -2.628  0.00  0.00     0.304 C 
ATOM     35  O   LIG d   1       3.457  -2.724  -2.399  0.00  0.00    -0.251 OA
BRANCH  34  36
ATOM     36  C   LIG d   1       4.329  -0.609  -1.836  0.00  0.00     0.033 C 
ATOM     37  H   LIG d   1       5.304  -0.135  -1.948  0.00  0.00     0.034 H 
ATOM     38  H   LIG d   1       3.554   0.062  -2.205  0.00  0.00     0.034 H 
ATOM     39  H   LIG d   1       4.150  -0.828  -0.784  0.00  0.00     0.034 H 
ENDBRANCH  34  36
ENDBRANCH  33  34
ENDBRANCH  21  33
BRANCH  22  40
ATOM     40  O   LIG d   1       4.735   0.148  -5.180  0.00  0.00    -0.455 OA
BRANCH  40  41
ATOM     41  C   LIG d   1       3.479   0.532  -5.458  0.00  0.00     0.304 C 
ATOM     42  O   LIG d   1       2.814   1.081  -4.611  0.00  0.00    -0.251 OA
BRANCH  41  43
ATOM     43  C   LIG d   1       2.899   0.279  -6.825  0.00  0.00     0.033 C 
ATOM     44  H   LIG d   1       3.179   1.092  -7.495  0.00  0.00     0.034 H 
ATOM     45  H   LIG d   1       3.285  -0.662  -7.215  0.00  0.00     0.034 H 
ATOM     46  H   LIG d   1       1.812   0.225  -6.755  0.00  0.00     0.034 H 
ENDBRANCH  41  43
ENDBRANCH  40  41
ENDBRANCH  22  40
ENDBRANCH   1  14
BRANCH   6  47
ATOM     47  O   LIG d   1       8.479   0.949  -4.948  0.00  0.00    -0.494 OA
BRANCH  47  48
ATOM     48  C   LIG d   1       7.594   1.421  -3.930  0.00  0.00     0.079 C 
ATOM     49  H   LIG d   1       6.845   2.076  -4.375  0.00  0.00     0.066 H 
ATOM     50  H   LIG d   1       7.101   0.573  -3.455  0.00  0.00     0.066 H 
ATOM     51  H   LIG d   1       8.164   1.976  -3.184  0.00  0.00     0.066 H 
ENDBRANCH  47  48
ENDBRANCH   6  47
BRANCH   2  52
ATOM     52  O   LIG d   1       5.871  -0.792  -8.519  0.00  0.00    -0.506 OA
ATOM     53  H   LIG d   1       4.938  -0.586  -8.376  0.00  0.00     0.292 HD
ENDBRANCH   2  52
BRANCH  10  54
ATOM     54  C   LIG d   1       9.658   5.189  -9.675  0.00  0.00     0.018 A 
ATOM     55  C   LIG d   1       8.721   5.737 -10.554  0.00  0.00    -0.048 A 
ATOM     56  C   LIG d   1       9.095   6.743 -11.417  0.00  0.00    -0.019 A 
ATOM     57  H   LIG d   1       7.703   5.376 -10.554  0.00  0.00     0.063 H 
ATOM     58  C   LIG d   1      10.407   7.203 -11.423  0.00  0.00     0.124 A 
ATOM     59  H   LIG d   1       8.370   7.171 -12.093  0.00  0.00     0.065 H 
ATOM     60  C   LIG d   1      11.343   6.657 -10.555  0.00  0.00    -0.019 A 
ATOM     61  C   LIG d   1      10.976   5.655  -9.684  0.00  0.00    -0.048 A 
ATOM     62  H   LIG d   1      12.361   7.019 -10.562  0.00  0.00     0.065 H 
ATOM     63  H   LIG d   1      11.704   5.231  -9.008  0.00  0.00     0.063 H 
BRANCH  58  64
ATOM     64  O   LIG d   1      10.773   8.191 -12.279  0.00  0.00    -0.461 OA
BRANCH  64  65
ATOM     65  C   LIG d   1       9.970   8.367 -13.449  0.00  0.00     0.231 C 
ATOM     66  H   LIG d   1       8.970   7.973 -13.267  0.00  0.00     0.108 H 
ATOM     67  O   LIG d   1       9.884   9.759 -13.761  0.00  0.00    -0.331 OA
ATOM     68  C   LIG d   1       9.078  10.050 -14.906  0.00  0.00     0.114 C 
ATOM     69  C   LIG d   1       9.680   9.370 -16.139  0.00  0.00     0.112 C 
ATOM     70  H   LIG d   1       8.067   9.679 -14.743  0.00  0.00     0.065 H 
ATOM     71  C   LIG d   1       9.776   7.863 -15.885  0.00  0.00     0.115 C 
ATOM     72  H   LIG d   1       9.043   9.555 -17.004  0.00  0.00     0.065 H 
ATOM     73  C   LIG d   1      10.608   7.620 -14.622  0.00  0.00     0.145 C 
ATOM     74  H   LIG d   1       8.775   7.453 -15.747  0.00  0.00     0.065 H 
ATOM     75  H   LIG d   1      10.634   6.552 -14.403  0.00  0.00     0.068 H 
BRANCH  68  76
ATOM     76  C   LIG d   1       9.036  11.563 -15.128  0.00  0.00     0.073 C 
ATOM     77  H   LIG d   1       9.683  12.056 -14.402  0.00  0.00     0.058 H 
ATOM     78  H   LIG d   1       9.379  11.793 -16.136  0.00  0.00     0.058 H 
BRANCH  76  79
ATOM     79  O   LIG d   1       7.695  12.031 -14.964  0.00  0.00    -0.392 OA
ATOM     80  H   LIG d   1       7.549  12.929 -15.292  0.00  0.00     0.209 HD
ENDBRANCH  76  79
ENDBRANCH  68  76
BRANCH  69  81
ATOM     81  O   LIG d   1      10.986   9.897 -16.386  0.00  0.00    -0.387 OA
ATOM     82  H   LIG d   1      11.410  10.277 -15.606  0.00  0.00     0.210 HD
ENDBRANCH  69  81
BRANCH  71  83
ATOM     83  O   LIG d   1      10.402   7.227 -17.001  0.00  0.00    -0.386 OA
ATOM     84  H   LIG d   1       9.791   6.743 -17.573  0.00  0.00     0.210 HD
ENDBRANCH  71  83
BRANCH  73  85
ATOM     85  O   LIG d   1      11.938   8.098 -14.828  0.00  0.00    -0.383 OA
ATOM     86  H   LIG d   1      11.990   9.046 -15.018  0.00  0.00     0.210 HD
ENDBRANCH  73  85
ENDBRANCH  64  65
ENDBRANCH  58  64
ENDBRANCH  10  54
TORSDOF 21
ENDMDL
MODEL 6
REMARK VINA RESULT:      -5.6      2.309      3.599
REMARK  21 active torsions:
REMARK  status: ('A' for Active; 'I' for Inactive)
REMARK    1  A    between atoms: C_1  and  C_2 
REMARK    2  A    between atoms: C_2  and  O_4 
REMARK    3  A    between atoms: O_4  and  C_5 
REMARK    4  A    between atoms: C_9  and  C_23 
REMARK    5  A    between atoms: C_11  and  O_19 
REMARK    6  A    between atoms: C_13  and  O_15 
REMARK    7  A    between atoms: O_15  and  C_16 
REMARK    8  A    between atoms: C_16  and  C_18 
REMARK    9  A    between atoms: O_19  and  C_20 
REMARK   10  A    between atoms: C_20  and  C_22 
REMARK   11  A    between atoms: C_24  and  O_59 
REMARK   12  A    between atoms: C_28  and  O_29 
REMARK   13  A    between atoms: O_29  and  C_30 
REMARK   14  A    between atoms: C_34  and  C_36 
REMARK   15  A    between atoms: C_39  and  O_42 
REMARK   16  A    between atoms: O_42  and  C_43 
REMARK   17  A    between atoms: C_45  and  O_58 
REMARK   18  A    between atoms: C_47  and  O_57 
REMARK   19  A    between atoms: C_49  and  O_56 
REMARK   20  A    between atoms: C_51  and  C_54 
REMARK   21  A    between atoms: C_54  and  O_55 
ROOT
ATOM      1  C   LIG d   1      11.603   7.448  -1.507  0.00  0.00     0.069 A 
ATOM      2  C   LIG d   1      10.805   6.673  -0.673  0.00  0.00     0.130 A 
ATOM      3  C   LIG d   1      10.112   5.581  -1.172  0.00  0.00     0.024 A 
ATOM      4  C   LIG d   1      10.210   5.252  -2.515  0.00  0.00     0.146 A 
ATOM      5  C   LIG d   1      11.016   6.033  -3.361  0.00  0.00     0.106 A 
ATOM      6  C   LIG d   1      11.710   7.138  -2.851  0.00  0.00     0.144 A 
ATOM      7  C   LIG d   1      11.106   5.663  -4.784  0.00  0.00     0.197 A 
ATOM      8  O   LIG d   1      11.792   6.306  -5.564  0.00  0.00    -0.287 OA
ATOM      9  C   LIG d   1      10.367   4.536  -5.212  0.00  0.00     0.029 A 
ATOM     10  C   LIG d   1       9.615   3.846  -4.312  0.00  0.00     0.139 A 
ATOM     11  O   LIG d   1       9.542   4.192  -3.018  0.00  0.00    -0.454 OA
ATOM     12  H   LIG d   1       9.494   4.987  -0.515  0.00  0.00     0.069 H 
ATOM     13  H   LIG d   1      10.400   4.224  -6.246  0.00  0.00     0.069 H 
ENDROOT
BRANCH   1  14
ATOM     14  C   LIG d   1      12.350   8.631  -0.948  0.00  0.00     0.131 C 
ATOM     15  O   LIG d   1      13.040   8.241   0.241  0.00  0.00    -0.364 OA
ATOM     16  C   LIG d   1      13.804   9.287   0.842  0.00  0.00     0.089 C 
ATOM     17  C   LIG d   1      12.872  10.432   1.245  0.00  0.00     0.166 C 
ATOM     18  H   LIG d   1      14.543   9.653   0.129  0.00  0.00     0.060 H 
ATOM     19  H   LIG d   1      14.313   8.904   1.727  0.00  0.00     0.060 H 
ATOM     20  H   LIG d   1      13.459  11.249   1.665  0.00  0.00     0.080 H 
ATOM     21  C   LIG d   1      12.117  10.927   0.008  0.00  0.00     0.181 C 
ATOM     22  C   LIG d   1      11.359   9.751  -0.617  0.00  0.00     0.173 C 
ATOM     23  H   LIG d   1      11.412  11.705   0.299  0.00  0.00     0.081 H 
ATOM     24  H   LIG d   1      10.615   9.381   0.089  0.00  0.00     0.080 H 
ATOM     25  H   LIG d   1      13.069   8.989  -1.685  0.00  0.00     0.069 H 
BRANCH  17  26
ATOM     26  O   LIG d   1      11.937   9.966   2.220  0.00  0.00    -0.455 OA
BRANCH  26  27
ATOM     27  C   LIG d   1      12.411   9.725   3.453  0.00  0.00     0.304 C 
ATOM     28  O   LIG d   1      12.292   8.627   3.942  0.00  0.00    -0.251 OA
BRANCH  27  29
ATOM     29  C   LIG d   1      13.092  10.825   4.227  0.00  0.00     0.033 C 
ATOM     30  H   LIG d   1      13.946  11.193   3.660  0.00  0.00     0.034 H 
ATOM     31  H   LIG d   1      12.388  11.640   4.394  0.00  0.00     0.034 H 
ATOM     32  H   LIG d   1      13.432  10.436   5.187  0.00  0.00     0.034 H 
ENDBRANCH  27  29
ENDBRANCH  26  27
ENDBRANCH  17  26
BRANCH  21  33
ATOM     33  O   LIG d   1      13.048  11.453  -0.941  0.00  0.00    -0.454 OA
BRANCH  33  34
ATOM     34  C   LIG d   1      13.003  12.775  -1.170  0.00  0.00     0.304 C 
ATOM     35  O   LIG d   1      12.073  13.250  -1.778  0.00  0.00    -0.251 OA
BRANCH  34  36
ATOM     36  C   LIG d   1      14.110  13.665  -0.669  0.00  0.00     0.033 C 
ATOM     37  H   LIG d   1      14.741  13.966  -1.505  0.00  0.00     0.034 H 
ATOM     38  H   LIG d   1      13.680  14.551  -0.202  0.00  0.00     0.034 H 
ATOM     39  H   LIG d   1      14.709  13.124   0.062  0.00  0.00     0.034 H 
ENDBRANCH  34  36
ENDBRANCH  33  34
ENDBRANCH  21  33
BRANCH  22  40
ATOM     40  O   LIG d   1      10.708  10.181  -1.814  0.00  0.00    -0.455 OA
BRANCH  40  41
ATOM     41  C   LIG d   1       9.384  10.393  -1.746  0.00  0.00     0.304 C 
ATOM     42  O   LIG d   1       8.865  11.203  -2.477  0.00  0.00    -0.251 OA
BRANCH  41  43
ATOM     43  C   LIG d   1       8.547   9.621  -0.761  0.00  0.00     0.033 C 
ATOM     44  H   LIG d   1       8.074   8.778  -1.266  0.00  0.00     0.034 H 
ATOM     45  H   LIG d   1       9.181   9.252   0.045  0.00  0.00     0.034 H 
ATOM     46  H   LIG d   1       7.777  10.274  -0.348  0.00  0.00     0.034 H 
ENDBRANCH  41  43
ENDBRANCH  40  41
ENDBRANCH  22  40
ENDBRANCH   1  14
BRANCH   6  47
ATOM     47  O   LIG d   1      12.484   7.896  -3.668  0.00  0.00    -0.494 OA
BRANCH  47  48
ATOM     48  C   LIG d   1      13.899   7.717  -3.572  0.00  0.00     0.079 C 
ATOM     49  H   LIG d   1      14.373   8.078  -4.484  0.00  0.00     0.066 H 
ATOM     50  H   LIG d   1      14.278   8.277  -2.718  0.00  0.00     0.066 H 
ATOM     51  H   LIG d   1      14.122   6.658  -3.441  0.00  0.00     0.066 H 
ENDBRANCH  47  48
ENDBRANCH   6  47
BRANCH   2  52
ATOM     52  O   LIG d   1      10.703   6.989   0.643  0.00  0.00    -0.506 OA
ATOM     53  H   LIG d   1      10.451   7.907   0.809  0.00  0.00     0.292 HD
ENDBRANCH   2  52
BRANCH  10  54
ATOM     54  C   LIG d   1       8.851   2.672  -4.777  0.00  0.00     0.018 A 
ATOM     55  C   LIG d   1       8.001   1.997  -3.898  0.00  0.00    -0.048 A 
ATOM     56  C   LIG d   1       7.285   0.906  -4.339  0.00  0.00    -0.019 A 
ATOM     57  H   LIG d   1       7.900   2.333  -2.877  0.00  0.00     0.063 H 
ATOM     58  C   LIG d   1       7.418   0.468  -5.651  0.00  0.00     0.124 A 
ATOM     59  H   LIG d   1       6.623   0.386  -3.662  0.00  0.00     0.065 H 
ATOM     60  C   LIG d   1       8.267   1.134  -6.526  0.00  0.00    -0.019 A 
ATOM     61  C   LIG d   1       8.982   2.230  -6.096  0.00  0.00    -0.048 A 
ATOM     62  H   LIG d   1       8.367   0.791  -7.546  0.00  0.00     0.065 H 
ATOM     63  H   LIG d   1       9.642   2.747  -6.778  0.00  0.00     0.063 H 
BRANCH  58  64
ATOM     64  O   LIG d   1       6.715  -0.611  -6.080  0.00  0.00    -0.461 OA
BRANCH  64  65
ATOM     65  C   LIG d   1       5.417  -0.364  -6.625  0.00  0.00     0.231 C 
ATOM     66  H   LIG d   1       4.742  -0.049  -5.830  0.00  0.00     0.108 H 
ATOM     67  O   LIG d   1       5.504   0.665  -7.613  0.00  0.00    -0.331 OA
ATOM     68  C   LIG d   1       4.250   1.009  -8.207  0.00  0.00     0.114 C 
ATOM     69  C   LIG d   1       3.669  -0.217  -8.916  0.00  0.00     0.112 C 
ATOM     70  H   LIG d   1       3.560   1.343  -7.433  0.00  0.00     0.065 H 
ATOM     71  C   LIG d   1       3.519  -1.358  -7.906  0.00  0.00     0.115 C 
ATOM     72  H   LIG d   1       2.692   0.031  -9.334  0.00  0.00     0.065 H 
ATOM     73  C   LIG d   1       4.883  -1.646  -7.271  0.00  0.00     0.145 C 
ATOM     74  H   LIG d   1       2.810  -1.067  -7.131  0.00  0.00     0.065 H 
ATOM     75  H   LIG d   1       4.774  -2.419  -6.510  0.00  0.00     0.068 H 
BRANCH  68  76
ATOM     76  C   LIG d   1       4.459   2.134  -9.223  0.00  0.00     0.073 C 
ATOM     77  H   LIG d   1       3.868   1.932 -10.117  0.00  0.00     0.058 H 
ATOM     78  H   LIG d   1       4.145   3.082  -8.786  0.00  0.00     0.058 H 
BRANCH  76  79
ATOM     79  O   LIG d   1       5.842   2.207  -9.575  0.00  0.00    -0.392 OA
ATOM     80  H   LIG d   1       6.145   1.478 -10.135  0.00  0.00     0.209 HD
ENDBRANCH  76  79
ENDBRANCH  68  76
BRANCH  69  81
ATOM     81  O   LIG d   1       4.547  -0.623  -9.969  0.00  0.00    -0.387 OA
ATOM     82  H   LIG d   1       4.096  -1.023 -10.724  0.00  0.00     0.210 HD
ENDBRANCH  69  81
BRANCH  71  83
ATOM     83  O   LIG d   1       3.045  -2.530  -8.572  0.00  0.00    -0.386 OA
ATOM     84  H   LIG d   1       2.084  -2.560  -8.680  0.00  0.00     0.210 HD
ENDBRANCH  71  83
BRANCH  73  85
ATOM     85  O   LIG d   1       5.794  -2.090  -8.277  0.00  0.00    -0.383 OA
ATOM     86  H   LIG d   1       6.465  -2.708  -7.954  0.00  0.00     0.210 HD
ENDBRANCH  73  85
ENDBRANCH  64  65
ENDBRANCH  58  64
ENDBRANCH  10  54
TORSDOF 21
ENDMDL
MODEL 7
REMARK VINA RESULT:      -5.6      7.644     12.908
REMARK  21 active torsions:
REMARK  status: ('A' for Active; 'I' for Inactive)
REMARK    1  A    between atoms: C_1  and  C_2 
REMARK    2  A    between atoms: C_2  and  O_4 
REMARK    3  A    between atoms: O_4  and  C_5 
REMARK    4  A    between atoms: C_9  and  C_23 
REMARK    5  A    between atoms: C_11  and  O_19 
REMARK    6  A    between atoms: C_13  and  O_15 
REMARK    7  A    between atoms: O_15  and  C_16 
REMARK    8  A    between atoms: C_16  and  C_18 
REMARK    9  A    between atoms: O_19  and  C_20 
REMARK   10  A    between atoms: C_20  and  C_22 
REMARK   11  A    between atoms: C_24  and  O_59 
REMARK   12  A    between atoms: C_28  and  O_29 
REMARK   13  A    between atoms: O_29  and  C_30 
REMARK   14  A    between atoms: C_34  and  C_36 
REMARK   15  A    between atoms: C_39  and  O_42 
REMARK   16  A    between atoms: O_42  and  C_43 
REMARK   17  A    between atoms: C_45  and  O_58 
REMARK   18  A    between atoms: C_47  and  O_57 
REMARK   19  A    between atoms: C_49  and  O_56 
REMARK   20  A    between atoms: C_51  and  C_54 
REMARK   21  A    between atoms: C_54  and  O_55 
ROOT
ATOM      1  C   LIG d   1       3.741  -1.319  -7.877  0.00  0.00     0.069 A 
ATOM      2  C   LIG d   1       2.999  -0.147  -7.981  0.00  0.00     0.130 A 
ATOM      3  C   LIG d   1       2.055   0.005  -8.985  0.00  0.00     0.024 A 
ATOM      4  C   LIG d   1       1.843  -1.016  -9.898  0.00  0.00     0.146 A 
ATOM      5  C   LIG d   1       2.591  -2.202  -9.796  0.00  0.00     0.106 A 
ATOM      6  C   LIG d   1       3.546  -2.346  -8.782  0.00  0.00     0.144 A 
ATOM      7  C   LIG d   1       2.347  -3.273 -10.777  0.00  0.00     0.197 A 
ATOM      8  O   LIG d   1       2.967  -4.324 -10.735  0.00  0.00    -0.287 OA
ATOM      9  C   LIG d   1       1.367  -3.037 -11.769  0.00  0.00     0.029 A 
ATOM     10  C   LIG d   1       0.697  -1.852 -11.782  0.00  0.00     0.139 A 
ATOM     11  O   LIG d   1       0.928  -0.884 -10.882  0.00  0.00    -0.454 OA
ATOM     12  H   LIG d   1       1.486   0.920  -9.057  0.00  0.00     0.069 H 
ATOM     13  H   LIG d   1       1.152  -3.791 -12.511  0.00  0.00     0.069 H 
ENDROOT
BRANCH   1  14
ATOM     14  C   LIG d   1       4.762  -1.468  -6.780  0.00  0.00     0.131 C 
ATOM     15  O   LIG d   1       4.102  -1.478  -5.512  0.00  0.00    -0.364 OA
ATOM     16  C   LIG d   1       4.981  -1.640  -4.398  0.00  0.00     0.089 C 
ATOM     17  C   LIG d   1       5.970  -0.474  -4.355  0.00  0.00     0.166 C 
ATOM     18  H   LIG d   1       5.527  -2.578  -4.500  0.00  0.00     0.060 H 
ATOM     19  H   LIG d   1       4.399  -1.658  -3.476  0.00  0.00     0.060 H 
ATOM     20  H   LIG d   1       6.669  -0.618  -3.530  0.00  0.00     0.080 H 
ATOM     21  C   LIG d   1       6.742  -0.419  -5.676  0.00  0.00     0.181 C 
ATOM     22  C   LIG d   1       5.744  -0.294  -6.832  0.00  0.00     0.173 C 
ATOM     23  H   LIG d   1       7.409   0.443  -5.673  0.00  0.00     0.081 H 
ATOM     24  H   LIG d   1       5.196   0.644  -6.740  0.00  0.00     0.080 H 
ATOM     25  H   LIG d   1       5.306  -2.403  -6.913  0.00  0.00     0.069 H 
BRANCH  17  26
ATOM     26  O   LIG d   1       5.258   0.750  -4.167  0.00  0.00    -0.455 OA
BRANCH  26  27
ATOM     27  C   LIG d   1       4.869   1.044  -2.916  0.00  0.00     0.304 C 
ATOM     28  O   LIG d   1       5.688   1.374  -2.091  0.00  0.00    -0.251 OA
BRANCH  27  29
ATOM     29  C   LIG d   1       3.411   0.962  -2.542  0.00  0.00     0.033 C 
ATOM     30  H   LIG d   1       2.914   0.227  -3.174  0.00  0.00     0.034 H 
ATOM     31  H   LIG d   1       3.321   0.664  -1.497  0.00  0.00     0.034 H 
ATOM     32  H   LIG d   1       2.945   1.938  -2.683  0.00  0.00     0.034 H 
ENDBRANCH  27  29
ENDBRANCH  26  27
ENDBRANCH  17  26
BRANCH  21  33
ATOM     33  O   LIG d   1       7.507  -1.617  -5.833  0.00  0.00    -0.454 OA
BRANCH  33  34
ATOM     34  C   LIG d   1       8.615  -1.735  -5.085  0.00  0.00     0.304 C 
ATOM     35  O   LIG d   1       9.455  -0.868  -5.110  0.00  0.00    -0.251 OA
BRANCH  34  36
ATOM     36  C   LIG d   1       8.809  -2.949  -4.213  0.00  0.00     0.033 C 
ATOM     37  H   LIG d   1       7.934  -3.593  -4.286  0.00  0.00     0.034 H 
ATOM     38  H   LIG d   1       9.692  -3.496  -4.545  0.00  0.00     0.034 H 
ATOM     39  H   LIG d   1       8.944  -2.635  -3.178  0.00  0.00     0.034 H 
ENDBRANCH  34  36
ENDBRANCH  33  34
ENDBRANCH  21  33
BRANCH  22  40
ATOM     40  O   LIG d   1       6.446  -0.314  -8.077  0.00  0.00    -0.455 OA
BRANCH  40  41
ATOM     41  C   LIG d   1       6.610   0.861  -8.705  0.00  0.00     0.304 C 
ATOM     42  O   LIG d   1       5.862   1.780  -8.470  0.00  0.00    -0.251 OA
BRANCH  41  43
ATOM     43  C   LIG d   1       7.727   1.033  -9.700  0.00  0.00     0.033 C 
ATOM     44  H   LIG d   1       7.720   0.199 -10.403  0.00  0.00     0.034 H 
ATOM     45  H   LIG d   1       7.589   1.967 -10.243  0.00  0.00     0.034 H 
ATOM     46  H   LIG d   1       8.683   1.056  -9.175  0.00  0.00     0.034 H 
ENDBRANCH  41  43
ENDBRANCH  40  41
ENDBRANCH  22  40
ENDBRANCH   1  14
BRANCH   6  47
ATOM     47  O   LIG d   1       4.272  -3.488  -8.686  0.00  0.00    -0.494 OA
BRANCH  47  48
ATOM     48  C   LIG d   1       3.897  -4.413  -7.663  0.00  0.00     0.079 C 
ATOM     49  H   LIG d   1       4.341  -4.109  -6.716  0.00  0.00     0.066 H 
ATOM     50  H   LIG d   1       2.811  -4.428  -7.568  0.00  0.00     0.066 H 
ATOM     51  H   LIG d   1       4.252  -5.410  -7.927  0.00  0.00     0.066 H 
ENDBRANCH  47  48
ENDBRANCH   6  47
BRANCH   2  52
ATOM     52  O   LIG d   1       3.201   0.858  -7.091  0.00  0.00    -0.506 OA
ATOM     53  H   LIG d   1       4.125   0.972  -6.830  0.00  0.00     0.292 HD
ENDBRANCH   2  52
BRANCH  10  54
ATOM     54  C   LIG d   1      -0.321  -1.624 -12.825  0.00  0.00     0.018 A 
ATOM     55  C   LIG d   1      -1.290  -0.632 -12.653  0.00  0.00    -0.048 A 
ATOM     56  C   LIG d   1      -2.235  -0.418 -13.632  0.00  0.00    -0.019 A 
ATOM     57  H   LIG d   1      -1.295  -0.030 -11.756  0.00  0.00     0.063 H 
ATOM     58  C   LIG d   1      -2.234  -1.197 -14.783  0.00  0.00     0.124 A 
ATOM     59  H   LIG d   1      -2.981   0.352 -13.502  0.00  0.00     0.065 H 
ATOM     60  C   LIG d   1      -1.276  -2.188 -14.955  0.00  0.00    -0.019 A 
ATOM     61  C   LIG d   1      -0.323  -2.404 -13.984  0.00  0.00    -0.048 A 
ATOM     62  H   LIG d   1      -1.278  -2.791 -15.853  0.00  0.00     0.065 H 
ATOM     63  H   LIG d   1       0.422  -3.175 -14.119  0.00  0.00     0.063 H 
BRANCH  58  64
ATOM     64  O   LIG d   1      -3.170  -0.987 -15.743  0.00  0.00    -0.461 OA
BRANCH  64  65
ATOM     65  C   LIG d   1      -4.449  -1.594 -15.546  0.00  0.00     0.231 C 
ATOM     66  H   LIG d   1      -4.558  -2.442 -16.223  0.00  0.00     0.108 H 
ATOM     67  O   LIG d   1      -4.558  -2.047 -14.195  0.00  0.00    -0.331 OA
ATOM     68  C   LIG d   1      -5.796  -2.696 -13.896  0.00  0.00     0.114 C 
ATOM     69  C   LIG d   1      -6.951  -1.714 -14.113  0.00  0.00     0.112 C 
ATOM     70  H   LIG d   1      -5.922  -3.557 -14.550  0.00  0.00     0.065 H 
ATOM     71  C   LIG d   1      -6.915  -1.208 -15.558  0.00  0.00     0.115 C 
ATOM     72  H   LIG d   1      -7.899  -2.221 -13.927  0.00  0.00     0.065 H 
ATOM     73  C   LIG d   1      -5.550  -0.569 -15.830  0.00  0.00     0.145 C 
ATOM     74  H   LIG d   1      -7.068  -2.044 -16.241  0.00  0.00     0.065 H 
ATOM     75  H   LIG d   1      -5.496  -0.256 -16.873  0.00  0.00     0.068 H 
BRANCH  68  76
ATOM     76  C   LIG d   1      -5.789  -3.160 -12.438  0.00  0.00     0.073 C 
ATOM     77  H   LIG d   1      -6.802  -3.120 -12.038  0.00  0.00     0.058 H 
ATOM     78  H   LIG d   1      -5.416  -4.182 -12.383  0.00  0.00     0.058 H 
BRANCH  76  79
ATOM     79  O   LIG d   1      -4.941  -2.303 -11.669  0.00  0.00    -0.392 OA
ATOM     80  H   LIG d   1      -4.205  -2.760 -11.239  0.00  0.00     0.209 HD
ENDBRANCH  76  79
ENDBRANCH  68  76
BRANCH  69  81
ATOM     81  O   LIG d   1      -6.816  -0.610 -13.216  0.00  0.00    -0.387 OA
ATOM     82  H   LIG d   1      -7.535   0.033 -13.275  0.00  0.00     0.210 HD
ENDBRANCH  69  81
BRANCH  71  83
ATOM     83  O   LIG d   1      -7.946  -0.237 -15.752  0.00  0.00    -0.386 OA
ATOM     84  H   LIG d   1      -7.879   0.530 -15.167  0.00  0.00     0.210 HD
ENDBRANCH  71  83
BRANCH  73  85
ATOM     85  O   LIG d   1      -5.377   0.567 -14.981  0.00  0.00    -0.383 OA
ATOM     86  H   LIG d   1      -5.814   0.485 -14.121  0.00  0.00     0.210 HD
ENDBRANCH  73  85
ENDBRANCH  64  65
ENDBRANCH  58  64
ENDBRANCH  10  54
TORSDOF 21
ENDMDL
MODEL 8
REMARK VINA RESULT:      -5.6      5.702     13.390
REMARK  21 active torsions:
REMARK  status: ('A' for Active; 'I' for Inactive)
REMARK    1  A    between atoms: C_1  and  C_2 
REMARK    2  A    between atoms: C_2  and  O_4 
REMARK    3  A    between atoms: O_4  and  C_5 
REMARK    4  A    between atoms: C_9  and  C_23 
REMARK    5  A    between atoms: C_11  and  O_19 
REMARK    6  A    between atoms: C_13  and  O_15 
REMARK    7  A    between atoms: O_15  and  C_16 
REMARK    8  A    between atoms: C_16  and  C_18 
REMARK    9  A    between atoms: O_19  and  C_20 
REMARK   10  A    between atoms: C_20  and  C_22 
REMARK   11  A    between atoms: C_24  and  O_59 
REMARK   12  A    between atoms: C_28  and  O_29 
REMARK   13  A    between atoms: O_29  and  C_30 
REMARK   14  A    between atoms: C_34  and  C_36 
REMARK   15  A    between atoms: C_39  and  O_42 
REMARK   16  A    between atoms: O_42  and  C_43 
REMARK   17  A    between atoms: C_45  and  O_58 
REMARK   18  A    between atoms: C_47  and  O_57 
REMARK   19  A    between atoms: C_49  and  O_56 
REMARK   20  A    between atoms: C_51  and  C_54 
REMARK   21  A    between atoms: C_54  and  O_55 
ROOT
ATOM      1  C   LIG d   1       7.207  -0.102  -6.583  0.00  0.00     0.069 A 
ATOM      2  C   LIG d   1       6.726  -0.155  -7.887  0.00  0.00     0.130 A 
ATOM      3  C   LIG d   1       7.077   0.819  -8.809  0.00  0.00     0.024 A 
ATOM      4  C   LIG d   1       7.915   1.858  -8.436  0.00  0.00     0.146 A 
ATOM      5  C   LIG d   1       8.403   1.915  -7.119  0.00  0.00     0.106 A 
ATOM      6  C   LIG d   1       8.040   0.930  -6.191  0.00  0.00     0.144 A 
ATOM      7  C   LIG d   1       9.292   3.027  -6.746  0.00  0.00     0.197 A 
ATOM      8  O   LIG d   1       9.745   3.125  -5.617  0.00  0.00    -0.287 OA
ATOM      9  C   LIG d   1       9.600   3.979  -7.747  0.00  0.00     0.029 A 
ATOM     10  C   LIG d   1       9.075   3.834  -8.994  0.00  0.00     0.139 A 
ATOM     11  O   LIG d   1       8.267   2.815  -9.322  0.00  0.00    -0.454 OA
ATOM     12  H   LIG d   1       6.697   0.768  -9.819  0.00  0.00     0.069 H 
ATOM     13  H   LIG d   1      10.248   4.814  -7.523  0.00  0.00     0.069 H 
ENDROOT
BRANCH   1  14
ATOM     14  C   LIG d   1       6.817  -1.169  -5.594  0.00  0.00     0.131 C 
ATOM     15  O   LIG d   1       7.402  -2.414  -5.979  0.00  0.00    -0.364 OA
ATOM     16  C   LIG d   1       7.114  -3.494  -5.090  0.00  0.00     0.089 C 
ATOM     17  C   LIG d   1       5.602  -3.729  -5.046  0.00  0.00     0.166 C 
ATOM     18  H   LIG d   1       7.473  -3.248  -4.090  0.00  0.00     0.060 H 
ATOM     19  H   LIG d   1       7.612  -4.398  -5.442  0.00  0.00     0.060 H 
ATOM     20  H   LIG d   1       5.377  -4.524  -4.335  0.00  0.00     0.080 H 
ATOM     21  C   LIG d   1       4.905  -2.438  -4.607  0.00  0.00     0.181 C 
ATOM     22  C   LIG d   1       5.292  -1.310  -5.570  0.00  0.00     0.173 C 
ATOM     23  H   LIG d   1       3.825  -2.582  -4.627  0.00  0.00     0.081 H 
ATOM     24  H   LIG d   1       4.932  -1.546  -6.571  0.00  0.00     0.080 H 
ATOM     25  H   LIG d   1       7.172  -0.892  -4.601  0.00  0.00     0.069 H 
BRANCH  17  26
ATOM     26  O   LIG d   1       5.139  -4.104  -6.345  0.00  0.00    -0.455 OA
BRANCH  26  27
ATOM     27  C   LIG d   1       4.505  -5.282  -6.449  0.00  0.00     0.304 C 
ATOM     28  O   LIG d   1       3.303  -5.333  -6.338  0.00  0.00    -0.251 OA
BRANCH  27  29
ATOM     29  C   LIG d   1       5.293  -6.541  -6.706  0.00  0.00     0.033 C 
ATOM     30  H   LIG d   1       5.006  -7.303  -5.982  0.00  0.00     0.034 H 
ATOM     31  H   LIG d   1       5.086  -6.901  -7.713  0.00  0.00     0.034 H 
ATOM     32  H   LIG d   1       6.358  -6.329  -6.607  0.00  0.00     0.034 H 
ENDBRANCH  27  29
ENDBRANCH  26  27
ENDBRANCH  17  26
BRANCH  21  33
ATOM     33  O   LIG d   1       5.319  -2.098  -3.282  0.00  0.00    -0.454 OA
BRANCH  33  34
ATOM     34  C   LIG d   1       4.355  -1.771  -2.407  0.00  0.00     0.304 C 
ATOM     35  O   LIG d   1       3.453  -2.544  -2.185  0.00  0.00    -0.251 OA
BRANCH  34  36
ATOM     36  C   LIG d   1       4.397  -0.440  -1.701  0.00  0.00     0.033 C 
ATOM     37  H   LIG d   1       4.675   0.339  -2.410  0.00  0.00     0.034 H 
ATOM     38  H   LIG d   1       3.415  -0.219  -1.284  0.00  0.00     0.034 H 
ATOM     39  H   LIG d   1       5.132  -0.479  -0.897  0.00  0.00     0.034 H 
ENDBRANCH  34  36
ENDBRANCH  33  34
ENDBRANCH  21  33
BRANCH  22  40
ATOM     40  O   LIG d   1       4.706  -0.082  -5.131  0.00  0.00    -0.455 OA
BRANCH  40  41
ATOM     41  C   LIG d   1       3.524   0.256  -5.668  0.00  0.00     0.304 C 
ATOM     42  O   LIG d   1       3.434   0.447  -6.858  0.00  0.00    -0.251 OA
BRANCH  41  43
ATOM     43  C   LIG d   1       2.309   0.397  -4.788  0.00  0.00     0.033 C 
ATOM     44  H   LIG d   1       1.694  -0.499  -4.870  0.00  0.00     0.034 H 
ATOM     45  H   LIG d   1       2.624   0.527  -3.753  0.00  0.00     0.034 H 
ATOM     46  H   LIG d   1       1.730   1.265  -5.104  0.00  0.00     0.034 H 
ENDBRANCH  41  43
ENDBRANCH  40  41
ENDBRANCH  22  40
ENDBRANCH   1  14
BRANCH   6  47
ATOM     47  O   LIG d   1       8.506   0.986  -4.918  0.00  0.00    -0.494 OA
BRANCH  47  48
ATOM     48  C   LIG d   1       7.608   1.472  -3.918  0.00  0.00     0.079 C 
ATOM     49  H   LIG d   1       6.627   1.640  -4.361  0.00  0.00     0.066 H 
ATOM     50  H   LIG d   1       7.525   0.737  -3.117  0.00  0.00     0.066 H 
ATOM     51  H   LIG d   1       7.989   2.410  -3.513  0.00  0.00     0.066 H 
ENDBRANCH  47  48
ENDBRANCH   6  47
BRANCH   2  52
ATOM     52  O   LIG d   1       5.906  -1.169  -8.260  0.00  0.00    -0.506 OA
ATOM     53  H   LIG d   1       5.293  -1.453  -7.570  0.00  0.00     0.292 HD
ENDBRANCH   2  52
BRANCH  10  54
ATOM     54  C   LIG d   1       9.408   4.836 -10.024  0.00  0.00     0.018 A 
ATOM     55  C   LIG d   1       9.994   4.435 -11.228  0.00  0.00    -0.048 A 
ATOM     56  C   LIG d   1      10.297   5.374 -12.190  0.00  0.00    -0.019 A 
ATOM     57  H   LIG d   1      10.204   3.391 -11.406  0.00  0.00     0.063 H 
ATOM     58  C   LIG d   1      10.033   6.719 -11.959  0.00  0.00     0.124 A 
ATOM     59  H   LIG d   1      10.745   5.064 -13.122  0.00  0.00     0.065 H 
ATOM     60  C   LIG d   1       9.456   7.122 -10.761  0.00  0.00    -0.019 A 
ATOM     61  C   LIG d   1       9.143   6.190  -9.796  0.00  0.00    -0.048 A 
ATOM     62  H   LIG d   1       9.252   8.168 -10.586  0.00  0.00     0.065 H 
ATOM     63  H   LIG d   1       8.694   6.504  -8.866  0.00  0.00     0.063 H 
BRANCH  58  64
ATOM     64  O   LIG d   1      10.339   7.641 -12.907  0.00  0.00    -0.461 OA
BRANCH  64  65
ATOM     65  C   LIG d   1      11.722   7.957 -13.083  0.00  0.00     0.231 C 
ATOM     66  H   LIG d   1      12.333   7.136 -12.708  0.00  0.00     0.108 H 
ATOM     67  O   LIG d   1      11.991   8.155 -14.473  0.00  0.00    -0.331 OA
ATOM     68  C   LIG d   1      13.358   8.453 -14.765  0.00  0.00     0.114 C 
ATOM     69  C   LIG d   1      13.758   9.753 -14.061  0.00  0.00     0.112 C 
ATOM     70  H   LIG d   1      13.990   7.639 -14.412  0.00  0.00     0.065 H 
ATOM     71  C   LIG d   1      13.523   9.601 -12.555  0.00  0.00     0.115 C 
ATOM     72  H   LIG d   1      14.812   9.959 -14.247  0.00  0.00     0.065 H 
ATOM     73  C   LIG d   1      12.055   9.236 -12.312  0.00  0.00     0.145 C 
ATOM     74  H   LIG d   1      14.165   8.812 -12.164  0.00  0.00     0.065 H 
ATOM     75  H   LIG d   1      11.893   9.071 -11.247  0.00  0.00     0.068 H 
BRANCH  68  76
ATOM     76  C   LIG d   1      13.533   8.617 -16.276  0.00  0.00     0.073 C 
ATOM     77  H   LIG d   1      13.712   7.642 -16.729  0.00  0.00     0.058 H 
ATOM     78  H   LIG d   1      12.630   9.056 -16.701  0.00  0.00     0.058 H 
BRANCH  76  79
ATOM     79  O   LIG d   1      14.646   9.474 -16.536  0.00  0.00    -0.392 OA
ATOM     80  H   LIG d   1      14.523  10.060 -17.295  0.00  0.00     0.209 HD
ENDBRANCH  76  79
ENDBRANCH  68  76
BRANCH  69  81
ATOM     81  O   LIG d   1      12.966  10.832 -14.562  0.00  0.00    -0.387 OA
ATOM     82  H   LIG d   1      13.412  11.368 -15.230  0.00  0.00     0.210 HD
ENDBRANCH  69  81
BRANCH  71  83
ATOM     83  O   LIG d   1      13.825  10.833 -11.896  0.00  0.00    -0.386 OA
ATOM     84  H   LIG d   1      13.378  10.944 -11.046  0.00  0.00     0.210 HD
ENDBRANCH  71  83
BRANCH  73  85
ATOM     85  O   LIG d   1      11.217  10.300 -12.765  0.00  0.00    -0.383 OA
ATOM     86  H   LIG d   1      10.874  10.176 -13.662  0.00  0.00     0.210 HD
ENDBRANCH  73  85
ENDBRANCH  64  65
ENDBRANCH  58  64
ENDBRANCH  10  54
TORSDOF 21
ENDMDL
MODEL 9
REMARK VINA RESULT:      -5.5      7.071     11.689
REMARK  21 active torsions:
REMARK  status: ('A' for Active; 'I' for Inactive)
REMARK    1  A    between atoms: C_1  and  C_2 
REMARK    2  A    between atoms: C_2  and  O_4 
REMARK    3  A    between atoms: O_4  and  C_5 
REMARK    4  A    between atoms: C_9  and  C_23 
REMARK    5  A    between atoms: C_11  and  O_19 
REMARK    6  A    between atoms: C_13  and  O_15 
REMARK    7  A    between atoms: O_15  and  C_16 
REMARK    8  A    between atoms: C_16  and  C_18 
REMARK    9  A    between atoms: O_19  and  C_20 
REMARK   10  A    between atoms: C_20  and  C_22 
REMARK   11  A    between atoms: C_24  and  O_59 
REMARK   12  A    between atoms: C_28  and  O_29 
REMARK   13  A    between atoms: O_29  and  C_30 
REMARK   14  A    between atoms: C_34  and  C_36 
REMARK   15  A    between atoms: C_39  and  O_42 
REMARK   16  A    between atoms: O_42  and  C_43 
REMARK   17  A    between atoms: C_45  and  O_58 
REMARK   18  A    between atoms: C_47  and  O_57 
REMARK   19  A    between atoms: C_49  and  O_56 
REMARK   20  A    between atoms: C_51  and  C_54 
REMARK   21  A    between atoms: C_54  and  O_55 
ROOT
ATOM      1  C   LIG d   1       4.772  -1.501  -7.323  0.00  0.00     0.069 A 
ATOM      2  C   LIG d   1       5.212  -2.818  -7.391  0.00  0.00     0.130 A 
ATOM      3  C   LIG d   1       4.562  -3.740  -8.197  0.00  0.00     0.024 A 
ATOM      4  C   LIG d   1       3.462  -3.352  -8.946  0.00  0.00     0.146 A 
ATOM      5  C   LIG d   1       3.015  -2.021  -8.880  0.00  0.00     0.106 A 
ATOM      6  C   LIG d   1       3.674  -1.097  -8.059  0.00  0.00     0.144 A 
ATOM      7  C   LIG d   1       1.845  -1.632  -9.686  0.00  0.00     0.197 A 
ATOM      8  O   LIG d   1       1.414  -0.490  -9.667  0.00  0.00    -0.287 OA
ATOM      9  C   LIG d   1       1.239  -2.633 -10.480  0.00  0.00     0.029 A 
ATOM     10  C   LIG d   1       1.750  -3.895 -10.474  0.00  0.00     0.139 A 
ATOM     11  O   LIG d   1       2.817  -4.237  -9.736  0.00  0.00    -0.454 OA
ATOM     12  H   LIG d   1       4.913  -4.760  -8.241  0.00  0.00     0.069 H 
ATOM     13  H   LIG d   1       0.379  -2.398 -11.089  0.00  0.00     0.069 H 
ENDROOT
BRANCH   1  14
ATOM     14  C   LIG d   1       5.491  -0.512  -6.443  0.00  0.00     0.131 C 
ATOM     15  O   LIG d   1       6.785  -0.242  -6.985  0.00  0.00    -0.364 OA
ATOM     16  C   LIG d   1       7.546   0.707  -6.237  0.00  0.00     0.089 C 
ATOM     17  C   LIG d   1       7.779   0.172  -4.822  0.00  0.00     0.166 C 
ATOM     18  H   LIG d   1       7.000   1.649  -6.184  0.00  0.00     0.060 H 
ATOM     19  H   LIG d   1       8.506   0.871  -6.726  0.00  0.00     0.060 H 
ATOM     20  H   LIG d   1       8.322   0.914  -4.236  0.00  0.00     0.080 H 
ATOM     21  C   LIG d   1       6.427  -0.112  -4.162  0.00  0.00     0.181 C 
ATOM     22  C   LIG d   1       5.641  -1.096  -5.035  0.00  0.00     0.173 C 
ATOM     23  H   LIG d   1       6.587  -0.545  -3.174  0.00  0.00     0.081 H 
ATOM     24  H   LIG d   1       6.179  -2.043  -5.090  0.00  0.00     0.080 H 
ATOM     25  H   LIG d   1       4.918   0.414  -6.392  0.00  0.00     0.069 H 
BRANCH  17  26
ATOM     26  O   LIG d   1       8.540  -1.035  -4.888  0.00  0.00    -0.455 OA
BRANCH  26  27
ATOM     27  C   LIG d   1       9.748  -0.964  -5.470  0.00  0.00     0.304 C 
ATOM     28  O   LIG d   1      10.036  -1.730  -6.359  0.00  0.00    -0.251 OA
BRANCH  27  29
ATOM     29  C   LIG d   1      10.743   0.073  -5.016  0.00  0.00     0.033 C 
ATOM     30  H   LIG d   1      11.722  -0.391  -4.897  0.00  0.00     0.034 H 
ATOM     31  H   LIG d   1      10.805   0.867  -5.759  0.00  0.00     0.034 H 
ATOM     32  H   LIG d   1      10.421   0.492  -4.062  0.00  0.00     0.034 H 
ENDBRANCH  27  29
ENDBRANCH  26  27
ENDBRANCH  17  26
BRANCH  21  33
ATOM     33  O   LIG d   1       5.691   1.107  -4.037  0.00  0.00    -0.454 OA
BRANCH  33  34
ATOM     34  C   LIG d   1       4.988   1.282  -2.907  0.00  0.00     0.304 C 
ATOM     35  O   LIG d   1       5.522   1.129  -1.834  0.00  0.00    -0.251 OA
BRANCH  34  36
ATOM     36  C   LIG d   1       3.534   1.671  -2.976  0.00  0.00     0.033 C 
ATOM     37  H   LIG d   1       2.924   0.873  -2.553  0.00  0.00     0.034 H 
ATOM     38  H   LIG d   1       3.376   2.588  -2.407  0.00  0.00     0.034 H 
ATOM     39  H   LIG d   1       3.250   1.834  -4.015  0.00  0.00     0.034 H 
ENDBRANCH  34  36
ENDBRANCH  33  34
ENDBRANCH  21  33
BRANCH  22  40
ATOM     40  O   LIG d   1       4.348  -1.315  -4.469  0.00  0.00    -0.455 OA
BRANCH  40  41
ATOM     41  C   LIG d   1       4.209  -2.371  -3.653  0.00  0.00     0.304 C 
ATOM     42  O   LIG d   1       4.420  -3.486  -4.069  0.00  0.00    -0.251 OA
BRANCH  41  43
ATOM     43  C   LIG d   1       3.791  -2.168  -2.220  0.00  0.00     0.033 C 
ATOM     44  H   LIG d   1       3.931  -3.096  -1.665  0.00  0.00     0.034 H 
ATOM     45  H   LIG d   1       4.397  -1.381  -1.773  0.00  0.00     0.034 H 
ATOM     46  H   LIG d   1       2.740  -1.880  -2.186  0.00  0.00     0.034 H 
ENDBRANCH  41  43
ENDBRANCH  40  41
ENDBRANCH  22  40
ENDBRANCH   1  14
BRANCH   6  47
ATOM     47  O   LIG d   1       3.240   0.187  -7.991  0.00  0.00    -0.494 OA
BRANCH  47  48
ATOM     48  C   LIG d   1       3.985   1.165  -8.718  0.00  0.00     0.079 C 
ATOM     49  H   LIG d   1       5.046   0.922  -8.672  0.00  0.00     0.066 H 
ATOM     50  H   LIG d   1       3.658   1.173  -9.758  0.00  0.00     0.066 H 
ATOM     51  H   LIG d   1       3.819   2.149  -8.277  0.00  0.00     0.066 H 
ENDBRANCH  47  48
ENDBRANCH   6  47
BRANCH   2  52
ATOM     52  O   LIG d   1       6.288  -3.206  -6.661  0.00  0.00    -0.506 OA
ATOM     53  H   LIG d   1       6.763  -2.476  -6.242  0.00  0.00     0.292 HD
ENDBRANCH   2  52
BRANCH  10  54
ATOM     54  C   LIG d   1       1.105  -4.926 -11.310  0.00  0.00     0.018 A 
ATOM     55  C   LIG d   1       1.802  -6.088 -11.651  0.00  0.00    -0.048 A 
ATOM     56  C   LIG d   1       1.194  -7.050 -12.427  0.00  0.00    -0.019 A 
ATOM     57  H   LIG d   1       2.814  -6.233 -11.304  0.00  0.00     0.063 H 
ATOM     58  C   LIG d   1      -0.106  -6.861 -12.880  0.00  0.00     0.124 A 
ATOM     59  H   LIG d   1       1.730  -7.951 -12.686  0.00  0.00     0.065 H 
ATOM     60  C   LIG d   1      -0.801  -5.704 -12.547  0.00  0.00    -0.019 A 
ATOM     61  C   LIG d   1      -0.203  -4.740 -11.766  0.00  0.00    -0.048 A 
ATOM     62  H   LIG d   1      -1.812  -5.562 -12.900  0.00  0.00     0.065 H 
ATOM     63  H   LIG d   1      -0.743  -3.841 -11.508  0.00  0.00     0.063 H 
BRANCH  58  64
ATOM     64  O   LIG d   1      -0.700  -7.809 -13.648  0.00  0.00    -0.461 OA
BRANCH  64  65
ATOM     65  C   LIG d   1      -0.783  -9.128 -13.102  0.00  0.00     0.231 C 
ATOM     66  H   LIG d   1       0.193  -9.424 -12.718  0.00  0.00     0.108 H 
ATOM     67  O   LIG d   1      -1.739  -9.144 -12.040  0.00  0.00    -0.331 OA
ATOM     68  C   LIG d   1      -1.881 -10.416 -11.404  0.00  0.00     0.114 C 
ATOM     69  C   LIG d   1      -2.362 -11.447 -12.430  0.00  0.00     0.112 C 
ATOM     70  H   LIG d   1      -0.921 -10.729 -10.998  0.00  0.00     0.065 H 
ATOM     71  C   LIG d   1      -1.365 -11.505 -13.590  0.00  0.00     0.115 C 
ATOM     72  H   LIG d   1      -2.431 -12.427 -11.957  0.00  0.00     0.065 H 
ATOM     73  C   LIG d   1      -1.220 -10.106 -14.196  0.00  0.00     0.145 C 
ATOM     74  H   LIG d   1      -0.396 -11.845 -13.221  0.00  0.00     0.065 H 
ATOM     75  H   LIG d   1      -0.469 -10.127 -14.986  0.00  0.00     0.068 H 
BRANCH  68  76
ATOM     76  C   LIG d   1      -2.904 -10.309 -10.271  0.00  0.00     0.073 C 
ATOM     77  H   LIG d   1      -2.393 -10.052  -9.343  0.00  0.00     0.058 H 
ATOM     78  H   LIG d   1      -3.632  -9.534 -10.511  0.00  0.00     0.058 H 
BRANCH  76  79
ATOM     79  O   LIG d   1      -3.574 -11.561 -10.114  0.00  0.00    -0.392 OA
ATOM     80  H   LIG d   1      -3.220 -12.110  -9.401  0.00  0.00     0.209 HD
ENDBRANCH  76  79
ENDBRANCH  68  76
BRANCH  69  81
ATOM     81  O   LIG d   1      -3.649 -11.066 -12.924  0.00  0.00    -0.387 OA
ATOM     82  H   LIG d   1      -4.380 -11.571 -12.545  0.00  0.00     0.210 HD
ENDBRANCH  69  81
BRANCH  71  83
ATOM     83  O   LIG d   1      -1.841 -12.412 -14.587  0.00  0.00    -0.386 OA
ATOM     84  H   LIG d   1      -2.769 -12.283 -14.824  0.00  0.00     0.210 HD
ENDBRANCH  71  83
BRANCH  73  85
ATOM     85  O   LIG d   1      -2.474  -9.688 -14.738  0.00  0.00    -0.383 OA
ATOM     86  H   LIG d   1      -2.515  -9.725 -15.705  0.00  0.00     0.210 HD
ENDBRANCH  73  85
ENDBRANCH  64  65
ENDBRANCH  58  64
ENDBRANCH  10  54
TORSDOF 21
ENDMDL
