MODEL 1
REMARK VINA RESULT:      -5.2      0.000      0.000
REMARK  6 active torsions:
REMARK  status: ('A' for Active; 'I' for Inactive)
REMARK    1  A    between atoms: C_1  and  C_2 
REMARK    2  A    between atoms: C_2  and  C_20 
REMARK    3  A    between atoms: C_8  and  C_19 
REMARK    4  A    between atoms: C_15  and  C_17 
REMARK    5  A    between atoms: C_15  and  C_18 
REMARK    6  A    between atoms: C_19  and  N_39 
ROOT
ATOM      1  C   LIG d   1       4.814   0.066  -2.947  0.00  0.00     0.166 C 
ATOM      2  O   LIG d   1       3.981  -1.084  -2.683  0.00  0.00    -0.341 OA
ATOM      3  C   LIG d   1       3.463  -1.456  -3.991  0.00  0.00     0.114 C 
ATOM      4  H   LIG d   1       2.534  -2.023  -3.923  0.00  0.00     0.065 H 
ATOM      5  C   LIG d   1       4.563  -2.246  -4.694  0.00  0.00     0.080 C 
ATOM      6  O   LIG d   1       4.473  -2.192  -6.123  0.00  0.00    -0.340 OA
ATOM      7  C   LIG d   1       4.537  -0.854  -6.583  0.00  0.00     0.243 C 
ATOM      8  C   LIG d   1       3.220  -0.175  -6.118  0.00  0.00     0.149 C 
ATOM      9  H   LIG d   1       2.365  -0.782  -6.418  0.00  0.00     0.068 H 
ATOM     10  C   LIG d   1       3.249  -0.061  -4.632  0.00  0.00     0.122 C 
ATOM     11  H   LIG d   1       2.315   0.373  -4.276  0.00  0.00     0.065 H 
ATOM     12  O   LIG d   1       4.369   0.698  -4.159  0.00  0.00    -0.341 OA
ATOM     13  O   LIG d   1       3.260   1.031  -6.882  0.00  0.00    -0.338 OA
ATOM     14  C   LIG d   1       3.750   0.590  -8.173  0.00  0.00     0.169 C 
ATOM     15  O   LIG d   1       4.521  -0.631  -7.988  0.00  0.00    -0.311 OA
ATOM     16  H   LIG d   1       5.530  -1.847  -4.389  0.00  0.00     0.059 H 
ATOM     17  H   LIG d   1       4.501  -3.288  -4.379  0.00  0.00     0.059 H 
ENDROOT
BRANCH   1  18
ATOM     18  C   LIG d   1       6.265  -0.394  -3.109  0.00  0.00    -0.011 C 
ATOM     19  H   LIG d   1       6.769  -0.353  -2.145  0.00  0.00     0.028 H 
ATOM     20  H   LIG d   1       6.282  -1.416  -3.487  0.00  0.00     0.028 H 
ATOM     21  H   LIG d   1       6.776   0.263  -3.815  0.00  0.00     0.028 H 
ENDBRANCH   1  18
BRANCH   1  22
ATOM     22  C   LIG d   1       4.716   1.057  -1.785  0.00  0.00    -0.011 C 
ATOM     23  H   LIG d   1       4.357   0.540  -0.896  0.00  0.00     0.028 H 
ATOM     24  H   LIG d   1       5.701   1.483  -1.586  0.00  0.00     0.028 H 
ATOM     25  H   LIG d   1       4.022   1.855  -2.047  0.00  0.00     0.028 H 
ENDBRANCH   1  22
BRANCH   7  26
ATOM     26  C   LIG d   1       5.740  -0.144  -5.957  0.00  0.00     0.023 C 
ATOM     27  H   LIG d   1       5.548   0.928  -5.917  0.00  0.00     0.087 H 
ATOM     28  H   LIG d   1       5.900  -0.523  -4.948  0.00  0.00     0.087 H 
BRANCH  26  29
ATOM     29  N   LIG d   1       6.938  -0.423  -6.769  0.00  0.00     0.222 N 
ATOM     30  H   LIG d   1       7.553  -1.067  -6.274  0.00  0.00     0.200 HD
ATOM     31  H   LIG d   1       6.668  -0.830  -7.663  0.00  0.00     0.200 HD
ATOM     32  H   LIG d   1       7.441   0.455  -6.939  0.00  0.00     0.200 HD
ENDBRANCH  26  29
ENDBRANCH   7  26
BRANCH  14  33
ATOM     33  C   LIG d   1       2.568   0.328  -9.111  0.00  0.00    -0.011 C 
ATOM     34  H   LIG d   1       2.805   0.703 -10.106  0.00  0.00     0.028 H 
ATOM     35  H   LIG d   1       2.375  -0.742  -9.162  0.00  0.00     0.028 H 
ATOM     36  H   LIG d   1       1.684   0.840  -8.731  0.00  0.00     0.028 H 
ENDBRANCH  14  33
BRANCH  14  37
ATOM     37  C   LIG d   1       4.656   1.666  -8.777  0.00  0.00    -0.011 C 
ATOM     38  H   LIG d   1       5.312   1.212  -9.519  0.00  0.00     0.028 H 
ATOM     39  H   LIG d   1       4.043   2.431  -9.252  0.00  0.00     0.028 H 
ATOM     40  H   LIG d   1       5.257   2.119  -7.989  0.00  0.00     0.028 H 
ENDBRANCH  14  37
TORSDOF 6
ENDMDL
MODEL 2
REMARK VINA RESULT:      -5.0      1.728      4.913
REMARK  6 active torsions:
REMARK  status: ('A' for Active; 'I' for Inactive)
REMARK    1  A    between atoms: C_1  and  C_2 
REMARK    2  A    between atoms: C_2  and  C_20 
REMARK    3  A    between atoms: C_8  and  C_19 
REMARK    4  A    between atoms: C_15  and  C_17 
REMARK    5  A    between atoms: C_15  and  C_18 
REMARK    6  A    between atoms: C_19  and  N_39 
ROOT
ATOM      1  C   LIG d   1       4.003   0.831  -8.976  0.00  0.00     0.166 C 
ATOM      2  O   LIG d   1       4.599  -0.316  -9.623  0.00  0.00    -0.341 OA
ATOM      3  C   LIG d   1       5.184  -1.077  -8.529  0.00  0.00     0.114 C 
ATOM      4  H   LIG d   1       5.993  -1.728  -8.863  0.00  0.00     0.065 H 
ATOM      5  C   LIG d   1       4.049  -1.863  -7.879  0.00  0.00     0.080 C 
ATOM      6  O   LIG d   1       4.300  -2.187  -6.506  0.00  0.00    -0.340 OA
ATOM      7  C   LIG d   1       4.511  -1.015  -5.739  0.00  0.00     0.243 C 
ATOM      8  C   LIG d   1       5.865  -0.426  -6.219  0.00  0.00     0.149 C 
ATOM      9  H   LIG d   1       6.634  -1.200  -6.197  0.00  0.00     0.068 H 
ATOM     10  C   LIG d   1       5.697   0.067  -7.616  0.00  0.00     0.122 C 
ATOM     11  H   LIG d   1       6.647   0.446  -7.992  0.00  0.00     0.065 H 
ATOM     12  O   LIG d   1       4.675   1.066  -7.728  0.00  0.00    -0.341 OA
ATOM     13  O   LIG d   1       6.110   0.540  -5.194  0.00  0.00    -0.338 OA
ATOM     14  C   LIG d   1       5.695  -0.146  -3.986  0.00  0.00     0.169 C 
ATOM     15  O   LIG d   1       4.715  -1.162  -4.339  0.00  0.00    -0.311 OA
ATOM     16  H   LIG d   1       3.136  -1.272  -7.937  0.00  0.00     0.059 H 
ATOM     17  H   LIG d   1       3.902  -2.788  -8.436  0.00  0.00     0.059 H 
ENDROOT
BRANCH   1  18
ATOM     18  C   LIG d   1       2.522   0.546  -8.718  0.00  0.00    -0.011 C 
ATOM     19  H   LIG d   1       2.371   0.342  -7.659  0.00  0.00     0.028 H 
ATOM     20  H   LIG d   1       1.929   1.413  -9.010  0.00  0.00     0.028 H 
ATOM     21  H   LIG d   1       2.212  -0.320  -9.303  0.00  0.00     0.028 H 
ENDBRANCH   1  18
BRANCH   1  22
ATOM     22  C   LIG d   1       4.141   2.062  -9.874  0.00  0.00    -0.011 C 
ATOM     23  H   LIG d   1       4.495   2.906  -9.282  0.00  0.00     0.028 H 
ATOM     24  H   LIG d   1       4.854   1.852 -10.672  0.00  0.00     0.028 H 
ATOM     25  H   LIG d   1       3.171   2.305 -10.309  0.00  0.00     0.028 H 
ENDBRANCH   1  22
BRANCH   7  26
ATOM     26  C   LIG d   1       3.384  -0.013  -5.999  0.00  0.00     0.023 C 
ATOM     27  H   LIG d   1       3.764   1.001  -5.876  0.00  0.00     0.087 H 
ATOM     28  H   LIG d   1       3.012  -0.141  -7.015  0.00  0.00     0.087 H 
BRANCH  26  29
ATOM     29  N   LIG d   1       2.285  -0.269  -5.050  0.00  0.00     0.222 N 
ATOM     30  H   LIG d   1       1.387  -0.159  -5.518  0.00  0.00     0.200 HD
ATOM     31  H   LIG d   1       2.360  -1.213  -4.675  0.00  0.00     0.200 HD
ATOM     32  H   LIG d   1       2.344   0.404  -4.277  0.00  0.00     0.200 HD
ENDBRANCH  26  29
ENDBRANCH   7  26
BRANCH  14  33
ATOM     33  C   LIG d   1       6.910  -0.796  -3.319  0.00  0.00    -0.011 C 
ATOM     34  H   LIG d   1       7.780  -0.691  -3.967  0.00  0.00     0.028 H 
ATOM     35  H   LIG d   1       7.106  -0.307  -2.365  0.00  0.00     0.028 H 
ATOM     36  H   LIG d   1       6.708  -1.854  -3.150  0.00  0.00     0.028 H 
ENDBRANCH  14  33
BRANCH  14  37
ATOM     37  C   LIG d   1       5.053   0.854  -3.021  0.00  0.00    -0.011 C 
ATOM     38  H   LIG d   1       5.247   0.542  -1.995  0.00  0.00     0.028 H 
ATOM     39  H   LIG d   1       5.478   1.843  -3.187  0.00  0.00     0.028 H 
ATOM     40  H   LIG d   1       3.978   0.886  -3.194  0.00  0.00     0.028 H 
ENDBRANCH  14  37
TORSDOF 6
ENDMDL
MODEL 3
REMARK VINA RESULT:      -4.9      2.326      2.931
REMARK  6 active torsions:
REMARK  status: ('A' for Active; 'I' for Inactive)
REMARK    1  A    between atoms: C_1  and  C_2 
REMARK    2  A    between atoms: C_2  and  C_20 
REMARK    3  A    between atoms: C_8  and  C_19 
REMARK    4  A    between atoms: C_15  and  C_17 
REMARK    5  A    between atoms: C_15  and  C_18 
REMARK    6  A    between atoms: C_19  and  N_39 
ROOT
ATOM      1  C   LIG d   1       3.843   0.795  -3.025  0.00  0.00     0.166 C 
ATOM      2  O   LIG d   1       2.707  -0.084  -2.871  0.00  0.00    -0.341 OA
ATOM      3  C   LIG d   1       3.050  -1.252  -3.669  0.00  0.00     0.114 C 
ATOM      4  H   LIG d   1       2.168  -1.811  -3.984  0.00  0.00     0.065 H 
ATOM      5  C   LIG d   1       3.994  -2.103  -2.825  0.00  0.00     0.080 C 
ATOM      6  O   LIG d   1       4.856  -2.938  -3.609  0.00  0.00    -0.340 OA
ATOM      7  C   LIG d   1       5.644  -2.162  -4.494  0.00  0.00     0.243 C 
ATOM      8  C   LIG d   1       4.661  -1.579  -5.545  0.00  0.00     0.149 C 
ATOM      9  H   LIG d   1       4.051  -2.379  -5.967  0.00  0.00     0.068 H 
ATOM     10  C   LIG d   1       3.778  -0.588  -4.866  0.00  0.00     0.122 C 
ATOM     11  H   LIG d   1       3.048  -0.196  -5.574  0.00  0.00     0.065 H 
ATOM     12  O   LIG d   1       4.514   0.480  -4.257  0.00  0.00    -0.341 OA
ATOM     13  O   LIG d   1       5.581  -1.093  -6.525  0.00  0.00    -0.338 OA
ATOM     14  C   LIG d   1       6.591  -2.132  -6.576  0.00  0.00     0.169 C 
ATOM     15  O   LIG d   1       6.598  -2.839  -5.304  0.00  0.00    -0.311 OA
ATOM     16  H   LIG d   1       4.609  -1.443  -2.214  0.00  0.00     0.059 H 
ATOM     17  H   LIG d   1       3.400  -2.735  -2.165  0.00  0.00     0.059 H 
ENDROOT
BRANCH   1  18
ATOM     18  C   LIG d   1       4.800   0.588  -1.850  0.00  0.00    -0.011 C 
ATOM     19  H   LIG d   1       4.553  -0.342  -1.340  0.00  0.00     0.028 H 
ATOM     20  H   LIG d   1       5.825   0.539  -2.219  0.00  0.00     0.028 H 
ATOM     21  H   LIG d   1       4.704   1.421  -1.153  0.00  0.00     0.028 H 
ENDBRANCH   1  18
BRANCH   1  22
ATOM     22  C   LIG d   1       3.373   2.251  -3.055  0.00  0.00    -0.011 C 
ATOM     23  H   LIG d   1       4.003   2.850  -2.397  0.00  0.00     0.028 H 
ATOM     24  H   LIG d   1       3.443   2.635  -4.073  0.00  0.00     0.028 H 
ATOM     25  H   LIG d   1       2.339   2.305  -2.717  0.00  0.00     0.028 H 
ENDBRANCH   1  22
BRANCH   7  26
ATOM     26  C   LIG d   1       6.324  -1.026  -3.727  0.00  0.00     0.023 C 
ATOM     27  H   LIG d   1       6.494  -0.185  -4.399  0.00  0.00     0.087 H 
ATOM     28  H   LIG d   1       5.683  -0.710  -2.904  0.00  0.00     0.087 H 
BRANCH  26  29
ATOM     29  N   LIG d   1       7.602  -1.514  -3.179  0.00  0.00     0.222 N 
ATOM     30  H   LIG d   1       8.343  -1.404  -3.870  0.00  0.00     0.200 HD
ATOM     31  H   LIG d   1       7.843  -0.994  -2.337  0.00  0.00     0.200 HD
ATOM     32  H   LIG d   1       7.510  -2.509  -2.943  0.00  0.00     0.200 HD
ENDBRANCH  26  29
ENDBRANCH   7  26
BRANCH  14  33
ATOM     33  C   LIG d   1       6.274  -3.103  -7.716  0.00  0.00    -0.011 C 
ATOM     34  H   LIG d   1       7.180  -3.637  -8.001  0.00  0.00     0.028 H 
ATOM     35  H   LIG d   1       5.520  -3.817  -7.386  0.00  0.00     0.028 H 
ATOM     36  H   LIG d   1       5.896  -2.546  -8.573  0.00  0.00     0.028 H 
ENDBRANCH  14  33
BRANCH  14  37
ATOM     37  C   LIG d   1       7.967  -1.502  -6.805  0.00  0.00    -0.011 C 
ATOM     38  H   LIG d   1       8.733  -2.276  -6.750  0.00  0.00     0.028 H 
ATOM     39  H   LIG d   1       7.993  -1.035  -7.789  0.00  0.00     0.028 H 
ATOM     40  H   LIG d   1       8.154  -0.750  -6.040  0.00  0.00     0.028 H 
ENDBRANCH  14  37
TORSDOF 6
ENDMDL
MODEL 4
REMARK VINA RESULT:      -4.9      2.495      4.929
REMARK  6 active torsions:
REMARK  status: ('A' for Active; 'I' for Inactive)
REMARK    1  A    between atoms: C_1  and  C_2 
REMARK    2  A    between atoms: C_2  and  C_20 
REMARK    3  A    between atoms: C_8  and  C_19 
REMARK    4  A    between atoms: C_15  and  C_17 
REMARK    5  A    between atoms: C_15  and  C_18 
REMARK    6  A    between atoms: C_19  and  N_39 
ROOT
ATOM      1  C   LIG d   1       6.761  -1.693  -7.270  0.00  0.00     0.166 C 
ATOM      2  O   LIG d   1       8.121  -1.467  -6.839  0.00  0.00    -0.341 OA
ATOM      3  C   LIG d   1       7.990  -1.059  -5.448  0.00  0.00     0.114 C 
ATOM      4  H   LIG d   1       8.846  -0.477  -5.105  0.00  0.00     0.065 H 
ATOM      5  C   LIG d   1       7.800  -2.332  -4.630  0.00  0.00     0.080 C 
ATOM      6  O   LIG d   1       7.103  -2.113  -3.396  0.00  0.00    -0.340 OA
ATOM      7  C   LIG d   1       5.824  -1.552  -3.631  0.00  0.00     0.243 C 
ATOM      8  C   LIG d   1       6.076  -0.113  -4.158  0.00  0.00     0.149 C 
ATOM      9  H   LIG d   1       6.754   0.415  -3.485  0.00  0.00     0.068 H 
ATOM     10  C   LIG d   1       6.696  -0.208  -5.510  0.00  0.00     0.122 C 
ATOM     11  H   LIG d   1       6.924   0.789  -5.885  0.00  0.00     0.065 H 
ATOM     12  O   LIG d   1       5.874  -0.921  -6.444  0.00  0.00    -0.341 OA
ATOM     13  O   LIG d   1       4.761   0.438  -4.062  0.00  0.00    -0.338 OA
ATOM     14  C   LIG d   1       4.271  -0.089  -2.803  0.00  0.00     0.169 C 
ATOM     15  O   LIG d   1       4.979  -1.326  -2.509  0.00  0.00    -0.311 OA
ATOM     16  H   LIG d   1       7.237  -3.051  -5.225  0.00  0.00     0.059 H 
ATOM     17  H   LIG d   1       8.779  -2.755  -4.408  0.00  0.00     0.059 H 
ENDROOT
BRANCH   1  18
ATOM     18  C   LIG d   1       6.432  -3.180  -7.129  0.00  0.00    -0.011 C 
ATOM     19  H   LIG d   1       7.311  -3.772  -7.379  0.00  0.00     0.028 H 
ATOM     20  H   LIG d   1       6.130  -3.391  -6.103  0.00  0.00     0.028 H 
ATOM     21  H   LIG d   1       5.617  -3.437  -7.807  0.00  0.00     0.028 H 
ENDBRANCH   1  18
BRANCH   1  22
ATOM     22  C   LIG d   1       6.602  -1.267  -8.732  0.00  0.00    -0.011 C 
ATOM     23  H   LIG d   1       6.597  -0.179  -8.795  0.00  0.00     0.028 H 
ATOM     24  H   LIG d   1       7.433  -1.662  -9.317  0.00  0.00     0.028 H 
ATOM     25  H   LIG d   1       5.663  -1.658  -9.123  0.00  0.00     0.028 H 
ENDBRANCH   1  22
BRANCH   7  26
ATOM     26  C   LIG d   1       5.080  -2.372  -4.686  0.00  0.00     0.023 C 
ATOM     27  H   LIG d   1       4.370  -1.732  -5.210  0.00  0.00     0.087 H 
ATOM     28  H   LIG d   1       5.796  -2.780  -5.400  0.00  0.00     0.087 H 
BRANCH  26  29
ATOM     29  N   LIG d   1       4.378  -3.485  -4.023  0.00  0.00     0.222 N 
ATOM     30  H   LIG d   1       3.482  -3.166  -3.660  0.00  0.00     0.200 HD
ATOM     31  H   LIG d   1       4.226  -4.246  -4.684  0.00  0.00     0.200 HD
ATOM     32  H   LIG d   1       4.952  -3.829  -3.244  0.00  0.00     0.200 HD
ENDBRANCH  26  29
ENDBRANCH   7  26
BRANCH  14  33
ATOM     33  C   LIG d   1       4.511   0.932  -1.689  0.00  0.00    -0.011 C 
ATOM     34  H   LIG d   1       5.373   0.626  -1.095  0.00  0.00     0.028 H 
ATOM     35  H   LIG d   1       4.701   1.911  -2.127  0.00  0.00     0.028 H 
ATOM     36  H   LIG d   1       3.630   0.985  -1.049  0.00  0.00     0.028 H 
ENDBRANCH  14  33
BRANCH  14  37
ATOM     37  C   LIG d   1       2.774  -0.385  -2.915  0.00  0.00    -0.011 C 
ATOM     38  H   LIG d   1       2.376  -0.616  -1.927  0.00  0.00     0.028 H 
ATOM     39  H   LIG d   1       2.261   0.487  -3.319  0.00  0.00     0.028 H 
ATOM     40  H   LIG d   1       2.620  -1.236  -3.577  0.00  0.00     0.028 H 
ENDBRANCH  14  37
TORSDOF 6
ENDMDL
MODEL 5
REMARK VINA RESULT:      -4.9      2.529      4.630
REMARK  6 active torsions:
REMARK  status: ('A' for Active; 'I' for Inactive)
REMARK    1  A    between atoms: C_1  and  C_2 
REMARK    2  A    between atoms: C_2  and  C_20 
REMARK    3  A    between atoms: C_8  and  C_19 
REMARK    4  A    between atoms: C_15  and  C_17 
REMARK    5  A    between atoms: C_15  and  C_18 
REMARK    6  A    between atoms: C_19  and  N_39 
ROOT
ATOM      1  C   LIG d   1       8.695  -2.272  -4.963  0.00  0.00     0.166 C 
ATOM      2  O   LIG d   1       8.092  -2.821  -6.156  0.00  0.00    -0.341 OA
ATOM      3  C   LIG d   1       6.710  -2.368  -6.096  0.00  0.00     0.114 C 
ATOM      4  H   LIG d   1       6.040  -3.004  -6.675  0.00  0.00     0.065 H 
ATOM      5  C   LIG d   1       6.695  -0.924  -6.589  0.00  0.00     0.080 C 
ATOM      6  O   LIG d   1       5.595  -0.162  -6.075  0.00  0.00    -0.340 OA
ATOM      7  C   LIG d   1       5.614  -0.137  -4.659  0.00  0.00     0.243 C 
ATOM      8  C   LIG d   1       5.290  -1.585  -4.200  0.00  0.00     0.149 C 
ATOM      9  H   LIG d   1       4.384  -1.937  -4.696  0.00  0.00     0.068 H 
ATOM     10  C   LIG d   1       6.434  -2.465  -4.573  0.00  0.00     0.122 C 
ATOM     11  H   LIG d   1       6.211  -3.497  -4.301  0.00  0.00     0.065 H 
ATOM     12  O   LIG d   1       7.670  -2.043  -3.983  0.00  0.00    -0.341 OA
ATOM     13  O   LIG d   1       5.038  -1.370  -2.810  0.00  0.00    -0.338 OA
ATOM     14  C   LIG d   1       4.287  -0.130  -2.796  0.00  0.00     0.169 C 
ATOM     15  O   LIG d   1       4.619   0.629  -3.993  0.00  0.00    -0.311 OA
ATOM     16  H   LIG d   1       7.624  -0.441  -6.288  0.00  0.00     0.059 H 
ATOM     17  H   LIG d   1       6.641  -0.927  -7.677  0.00  0.00     0.059 H 
ENDROOT
BRANCH   1  18
ATOM     18  C   LIG d   1       9.380  -0.949  -5.312  0.00  0.00    -0.011 C 
ATOM     19  H   LIG d   1       9.544  -0.897  -6.387  0.00  0.00     0.028 H 
ATOM     20  H   LIG d   1       8.747  -0.118  -4.999  0.00  0.00     0.028 H 
ATOM     21  H   LIG d   1      10.338  -0.890  -4.795  0.00  0.00     0.028 H 
ENDBRANCH   1  18
BRANCH   1  22
ATOM     22  C   LIG d   1       9.728  -3.254  -4.406  0.00  0.00    -0.011 C 
ATOM     23  H   LIG d   1      10.050  -2.922  -3.419  0.00  0.00     0.028 H 
ATOM     24  H   LIG d   1       9.281  -4.246  -4.328  0.00  0.00     0.028 H 
ATOM     25  H   LIG d   1      10.588  -3.295  -5.075  0.00  0.00     0.028 H 
ENDBRANCH   1  22
BRANCH   7  26
ATOM     26  C   LIG d   1       7.004   0.269  -4.164  0.00  0.00     0.023 C 
ATOM     27  H   LIG d   1       7.160  -0.123  -3.159  0.00  0.00     0.087 H 
ATOM     28  H   LIG d   1       7.761  -0.136  -4.834  0.00  0.00     0.087 H 
BRANCH  26  29
ATOM     29  N   LIG d   1       7.102   1.740  -4.164  0.00  0.00     0.222 N 
ATOM     30  H   LIG d   1       6.590   2.124  -3.372  0.00  0.00     0.200 HD
ATOM     31  H   LIG d   1       8.079   2.025  -4.107  0.00  0.00     0.200 HD
ATOM     32  H   LIG d   1       6.697   2.105  -5.033  0.00  0.00     0.200 HD
ENDBRANCH  26  29
ENDBRANCH   7  26
BRANCH  14  33
ATOM     33  C   LIG d   1       2.787  -0.436  -2.767  0.00  0.00    -0.011 C 
ATOM     34  H   LIG d   1       2.296   0.075  -3.595  0.00  0.00     0.028 H 
ATOM     35  H   LIG d   1       2.633  -1.510  -2.860  0.00  0.00     0.028 H 
ATOM     36  H   LIG d   1       2.364  -0.088  -1.824  0.00  0.00     0.028 H 
ENDBRANCH  14  33
BRANCH  14  37
ATOM     37  C   LIG d   1       4.668   0.690  -1.562  0.00  0.00    -0.011 C 
ATOM     38  H   LIG d   1       4.678   0.042  -0.686  0.00  0.00     0.028 H 
ATOM     39  H   LIG d   1       5.657   1.123  -1.705  0.00  0.00     0.028 H 
ATOM     40  H   LIG d   1       3.940   1.487  -1.416  0.00  0.00     0.028 H 
ENDBRANCH  14  37
TORSDOF 6
ENDMDL
MODEL 6
REMARK VINA RESULT:      -4.7      2.002      4.598
REMARK  6 active torsions:
REMARK  status: ('A' for Active; 'I' for Inactive)
REMARK    1  A    between atoms: C_1  and  C_2 
REMARK    2  A    between atoms: C_2  and  C_20 
REMARK    3  A    between atoms: C_8  and  C_19 
REMARK    4  A    between atoms: C_15  and  C_17 
REMARK    5  A    between atoms: C_15  and  C_18 
REMARK    6  A    between atoms: C_19  and  N_39 
ROOT
ATOM      1  C   LIG d   1       6.412  -0.412  -7.821  0.00  0.00     0.166 C 
ATOM      2  O   LIG d   1       7.085  -1.637  -7.458  0.00  0.00    -0.341 OA
ATOM      3  C   LIG d   1       6.684  -1.868  -6.078  0.00  0.00     0.114 C 
ATOM      4  H   LIG d   1       7.394  -2.497  -5.540  0.00  0.00     0.065 H 
ATOM      5  C   LIG d   1       5.291  -2.488  -6.120  0.00  0.00     0.080 C 
ATOM      6  O   LIG d   1       4.531  -2.254  -4.928  0.00  0.00    -0.340 OA
ATOM      7  C   LIG d   1       4.382  -0.866  -4.688  0.00  0.00     0.243 C 
ATOM      8  C   LIG d   1       5.795  -0.339  -4.318  0.00  0.00     0.149 C 
ATOM      9  H   LIG d   1       6.225  -0.955  -3.527  0.00  0.00     0.068 H 
ATOM     10  C   LIG d   1       6.659  -0.418  -5.531  0.00  0.00     0.122 C 
ATOM     11  H   LIG d   1       7.671  -0.095  -5.287  0.00  0.00     0.065 H 
ATOM     12  O   LIG d   1       6.138   0.343  -6.629  0.00  0.00    -0.341 OA
ATOM     13  O   LIG d   1       5.470   0.957  -3.812  0.00  0.00    -0.338 OA
ATOM     14  C   LIG d   1       4.264   0.720  -3.043  0.00  0.00     0.169 C 
ATOM     15  O   LIG d   1       3.600  -0.463  -3.570  0.00  0.00    -0.311 OA
ATOM     16  H   LIG d   1       4.747  -2.071  -6.968  0.00  0.00     0.059 H 
ATOM     17  H   LIG d   1       5.391  -3.564  -6.266  0.00  0.00     0.059 H 
ENDROOT
BRANCH   1  18
ATOM     18  C   LIG d   1       5.098  -0.753  -8.527  0.00  0.00    -0.011 C 
ATOM     19  H   LIG d   1       4.896  -0.010  -9.297  0.00  0.00     0.028 H 
ATOM     20  H   LIG d   1       5.176  -1.739  -8.984  0.00  0.00     0.028 H 
ATOM     21  H   LIG d   1       4.285  -0.752  -7.800  0.00  0.00     0.028 H 
ENDBRANCH   1  18
BRANCH   1  22
ATOM     22  C   LIG d   1       7.300   0.411  -8.757  0.00  0.00    -0.011 C 
ATOM     23  H   LIG d   1       7.368   1.434  -8.388  0.00  0.00     0.028 H 
ATOM     24  H   LIG d   1       8.297  -0.030  -8.793  0.00  0.00     0.028 H 
ATOM     25  H   LIG d   1       6.868   0.414  -9.758  0.00  0.00     0.028 H 
ENDBRANCH   1  22
BRANCH   7  26
ATOM     26  C   LIG d   1       3.879  -0.169  -5.954  0.00  0.00     0.023 C 
ATOM     27  H   LIG d   1       4.252   0.855  -5.977  0.00  0.00     0.087 H 
ATOM     28  H   LIG d   1       4.238  -0.706  -6.831  0.00  0.00     0.087 H 
BRANCH  26  29
ATOM     29  N   LIG d   1       2.405  -0.180  -5.956  0.00  0.00     0.222 N 
ATOM     30  H   LIG d   1       2.052   0.471  -6.655  0.00  0.00     0.200 HD
ATOM     31  H   LIG d   1       2.063  -1.118  -6.160  0.00  0.00     0.200 HD
ATOM     32  H   LIG d   1       2.065   0.105  -5.030  0.00  0.00     0.200 HD
ENDBRANCH  26  29
ENDBRANCH   7  26
BRANCH  14  33
ATOM     33  C   LIG d   1       4.625   0.507  -1.571  0.00  0.00    -0.011 C 
ATOM     34  H   LIG d   1       4.258   1.347  -0.982  0.00  0.00     0.028 H 
ATOM     35  H   LIG d   1       4.169  -0.415  -1.213  0.00  0.00     0.028 H 
ATOM     36  H   LIG d   1       5.709   0.439  -1.469  0.00  0.00     0.028 H 
ENDBRANCH  14  33
BRANCH  14  37
ATOM     37  C   LIG d   1       3.325   1.921  -3.174  0.00  0.00    -0.011 C 
ATOM     38  H   LIG d   1       2.418   1.736  -2.597  0.00  0.00     0.028 H 
ATOM     39  H   LIG d   1       3.821   2.812  -2.793  0.00  0.00     0.028 H 
ATOM     40  H   LIG d   1       3.066   2.067  -4.221  0.00  0.00     0.028 H 
ENDBRANCH  14  37
TORSDOF 6
ENDMDL
MODEL 7
REMARK VINA RESULT:      -4.6      2.305      4.448
REMARK  6 active torsions:
REMARK  status: ('A' for Active; 'I' for Inactive)
REMARK    1  A    between atoms: C_1  and  C_2 
REMARK    2  A    between atoms: C_2  and  C_20 
REMARK    3  A    between atoms: C_8  and  C_19 
REMARK    4  A    between atoms: C_15  and  C_17 
REMARK    5  A    between atoms: C_15  and  C_18 
REMARK    6  A    between atoms: C_19  and  N_39 
ROOT
ATOM      1  C   LIG d   1       7.699   0.750  -6.383  0.00  0.00     0.166 C 
ATOM      2  O   LIG d   1       8.687  -0.293  -6.225  0.00  0.00    -0.341 OA
ATOM      3  C   LIG d   1       8.004  -1.315  -5.446  0.00  0.00     0.114 C 
ATOM      4  H   LIG d   1       8.699  -1.960  -4.908  0.00  0.00     0.065 H 
ATOM      5  C   LIG d   1       7.131  -2.103  -6.418  0.00  0.00     0.080 C 
ATOM      6  O   LIG d   1       6.003  -2.725  -5.790  0.00  0.00    -0.340 OA
ATOM      7  C   LIG d   1       5.183  -1.761  -5.153  0.00  0.00     0.243 C 
ATOM      8  C   LIG d   1       6.007  -1.222  -3.952  0.00  0.00     0.149 C 
ATOM      9  H   LIG d   1       6.381  -2.055  -3.355  0.00  0.00     0.068 H 
ATOM     10  C   LIG d   1       7.159  -0.439  -4.485  0.00  0.00     0.122 C 
ATOM     11  H   LIG d   1       7.779  -0.086  -3.662  0.00  0.00     0.065 H 
ATOM     12  O   LIG d   1       6.746   0.657  -5.311  0.00  0.00    -0.341 OA
ATOM     13  O   LIG d   1       4.994  -0.515  -3.234  0.00  0.00    -0.338 OA
ATOM     14  C   LIG d   1       3.843  -1.389  -3.337  0.00  0.00     0.169 C 
ATOM     15  O   LIG d   1       3.987  -2.211  -4.530  0.00  0.00    -0.311 OA
ATOM     16  H   LIG d   1       6.770  -1.426  -7.192  0.00  0.00     0.059 H 
ATOM     17  H   LIG d   1       7.740  -2.875  -6.888  0.00  0.00     0.059 H 
ENDROOT
BRANCH   1  18
ATOM     18  C   LIG d   1       6.986   0.565  -7.723  0.00  0.00    -0.011 C 
ATOM     19  H   LIG d   1       6.080   1.169  -7.739  0.00  0.00     0.028 H 
ATOM     20  H   LIG d   1       7.646   0.877  -8.533  0.00  0.00     0.028 H 
ATOM     21  H   LIG d   1       6.724  -0.486  -7.853  0.00  0.00     0.028 H 
ENDBRANCH   1  18
BRANCH   1  22
ATOM     22  C   LIG d   1       8.380   2.120  -6.347  0.00  0.00    -0.011 C 
ATOM     23  H   LIG d   1       8.040   2.673  -5.472  0.00  0.00     0.028 H 
ATOM     24  H   LIG d   1       9.461   1.986  -6.295  0.00  0.00     0.028 H 
ATOM     25  H   LIG d   1       8.126   2.675  -7.250  0.00  0.00     0.028 H 
ENDBRANCH   1  22
BRANCH   7  26
ATOM     26  C   LIG d   1       4.868  -0.622  -6.125  0.00  0.00     0.023 C 
ATOM     27  H   LIG d   1       4.687   0.295  -5.563  0.00  0.00     0.087 H 
ATOM     28  H   LIG d   1       5.712  -0.475  -6.798  0.00  0.00     0.087 H 
BRANCH  26  29
ATOM     29  N   LIG d   1       3.680  -0.982  -6.919  0.00  0.00     0.222 N 
ATOM     30  H   LIG d   1       3.594  -0.359  -7.720  0.00  0.00     0.200 HD
ATOM     31  H   LIG d   1       3.754  -1.945  -7.242  0.00  0.00     0.200 HD
ATOM     32  H   LIG d   1       2.842  -0.890  -6.332  0.00  0.00     0.200 HD
ENDBRANCH  26  29
ENDBRANCH   7  26
BRANCH  14  33
ATOM     33  C   LIG d   1       3.757  -2.278  -2.094  0.00  0.00    -0.011 C 
ATOM     34  H   LIG d   1       3.023  -1.865  -1.402  0.00  0.00     0.028 H 
ATOM     35  H   LIG d   1       3.455  -3.283  -2.385  0.00  0.00     0.028 H 
ATOM     36  H   LIG d   1       4.732  -2.318  -1.608  0.00  0.00     0.028 H 
ENDBRANCH  14  33
BRANCH  14  37
ATOM     37  C   LIG d   1       2.568  -0.551  -3.459  0.00  0.00    -0.011 C 
ATOM     38  H   LIG d   1       2.420  -0.267  -4.501  0.00  0.00     0.028 H 
ATOM     39  H   LIG d   1       1.716  -1.135  -3.116  0.00  0.00     0.028 H 
ATOM     40  H   LIG d   1       2.664   0.346  -2.848  0.00  0.00     0.028 H 
ENDBRANCH  14  37
TORSDOF 6
ENDMDL
MODEL 8
REMARK VINA RESULT:      -4.5      1.844      4.801
REMARK  6 active torsions:
REMARK  status: ('A' for Active; 'I' for Inactive)
REMARK    1  A    between atoms: C_1  and  C_2 
REMARK    2  A    between atoms: C_2  and  C_20 
REMARK    3  A    between atoms: C_8  and  C_19 
REMARK    4  A    between atoms: C_15  and  C_17 
REMARK    5  A    between atoms: C_15  and  C_18 
REMARK    6  A    between atoms: C_19  and  N_39 
ROOT
ATOM      1  C   LIG d   1       4.528  -1.969  -8.328  0.00  0.00     0.166 C 
ATOM      2  O   LIG d   1       4.774  -0.648  -8.858  0.00  0.00    -0.341 OA
ATOM      3  C   LIG d   1       4.871   0.197  -7.677  0.00  0.00     0.114 C 
ATOM      4  H   LIG d   1       4.653   1.243  -7.897  0.00  0.00     0.065 H 
ATOM      5  C   LIG d   1       6.277   0.013  -7.115  0.00  0.00     0.080 C 
ATOM      6  O   LIG d   1       6.365   0.283  -5.710  0.00  0.00    -0.340 OA
ATOM      7  C   LIG d   1       5.491  -0.557  -4.978  0.00  0.00     0.243 C 
ATOM      8  C   LIG d   1       4.051  -0.099  -5.340  0.00  0.00     0.149 C 
ATOM      9  H   LIG d   1       3.961   0.979  -5.205  0.00  0.00     0.068 H 
ATOM     10  C   LIG d   1       3.792  -0.444  -6.767  0.00  0.00     0.122 C 
ATOM     11  H   LIG d   1       2.803  -0.093  -7.058  0.00  0.00     0.065 H 
ATOM     12  O   LIG d   1       3.927  -1.847  -7.028  0.00  0.00    -0.341 OA
ATOM     13  O   LIG d   1       3.297  -0.786  -4.338  0.00  0.00    -0.338 OA
ATOM     14  C   LIG d   1       4.117  -0.646  -3.151  0.00  0.00     0.169 C 
ATOM     15  O   LIG d   1       5.501  -0.455  -3.560  0.00  0.00    -0.311 OA
ATOM     16  H   LIG d   1       6.594  -1.014  -7.293  0.00  0.00     0.059 H 
ATOM     17  H   LIG d   1       6.955   0.683  -7.643  0.00  0.00     0.059 H 
ENDROOT
BRANCH   1  18
ATOM     18  C   LIG d   1       5.857  -2.718  -8.212  0.00  0.00    -0.011 C 
ATOM     19  H   LIG d   1       5.775  -3.487  -7.445  0.00  0.00     0.028 H 
ATOM     20  H   LIG d   1       6.097  -3.183  -9.169  0.00  0.00     0.028 H 
ATOM     21  H   LIG d   1       6.646  -2.016  -7.940  0.00  0.00     0.028 H 
ENDBRANCH   1  18
BRANCH   1  22
ATOM     22  C   LIG d   1       3.585  -2.735  -9.260  0.00  0.00    -0.011 C 
ATOM     23  H   LIG d   1       3.934  -2.641 -10.287  0.00  0.00     0.028 H 
ATOM     24  H   LIG d   1       3.570  -3.788  -8.975  0.00  0.00     0.028 H 
ATOM     25  H   LIG d   1       2.580  -2.323  -9.178  0.00  0.00     0.028 H 
ENDBRANCH   1  22
BRANCH   7  26
ATOM     26  C   LIG d   1       5.697  -2.014  -5.397  0.00  0.00     0.023 C 
ATOM     27  H   LIG d   1       4.775  -2.573  -5.231  0.00  0.00     0.087 H 
ATOM     28  H   LIG d   1       5.961  -2.054  -6.453  0.00  0.00     0.087 H 
BRANCH  26  29
ATOM     29  N   LIG d   1       6.798  -2.591  -4.605  0.00  0.00     0.222 N 
ATOM     30  H   LIG d   1       7.342  -1.847  -4.171  0.00  0.00     0.200 HD
ATOM     31  H   LIG d   1       6.426  -3.206  -3.884  0.00  0.00     0.200 HD
ATOM     32  H   LIG d   1       7.410  -3.134  -5.225  0.00  0.00     0.200 HD
ENDBRANCH  26  29
ENDBRANCH   7  26
BRANCH  14  33
ATOM     33  C   LIG d   1       3.639   0.557  -2.334  0.00  0.00    -0.011 C 
ATOM     34  H   LIG d   1       3.693   0.319  -1.272  0.00  0.00     0.028 H 
ATOM     35  H   LIG d   1       4.274   1.417  -2.547  0.00  0.00     0.028 H 
ATOM     36  H   LIG d   1       2.609   0.792  -2.602  0.00  0.00     0.028 H 
ENDBRANCH  14  33
BRANCH  14  37
ATOM     37  C   LIG d   1       4.017  -1.915  -2.303  0.00  0.00    -0.011 C 
ATOM     38  H   LIG d   1       3.472  -2.679  -2.857  0.00  0.00     0.028 H 
ATOM     39  H   LIG d   1       5.018  -2.278  -2.074  0.00  0.00     0.028 H 
ATOM     40  H   LIG d   1       3.490  -1.693  -1.376  0.00  0.00     0.028 H 
ENDBRANCH  14  37
TORSDOF 6
ENDMDL
MODEL 9
REMARK VINA RESULT:      -4.5      2.241      2.874
REMARK  6 active torsions:
REMARK  status: ('A' for Active; 'I' for Inactive)
REMARK    1  A    between atoms: C_1  and  C_2 
REMARK    2  A    between atoms: C_2  and  C_20 
REMARK    3  A    between atoms: C_8  and  C_19 
REMARK    4  A    between atoms: C_15  and  C_17 
REMARK    5  A    between atoms: C_15  and  C_18 
REMARK    6  A    between atoms: C_19  and  N_39 
ROOT
ATOM      1  C   LIG d   1       3.930  -1.099  -3.509  0.00  0.00     0.166 C 
ATOM      2  O   LIG d   1       3.761  -2.472  -3.927  0.00  0.00    -0.341 OA
ATOM      3  C   LIG d   1       4.717  -2.634  -5.012  0.00  0.00     0.114 C 
ATOM      4  H   LIG d   1       4.446  -3.448  -5.685  0.00  0.00     0.065 H 
ATOM      5  C   LIG d   1       6.083  -2.856  -4.370  0.00  0.00     0.080 C 
ATOM      6  O   LIG d   1       7.175  -2.467  -5.213  0.00  0.00    -0.340 OA
ATOM      7  C   LIG d   1       7.078  -1.099  -5.567  0.00  0.00     0.243 C 
ATOM      8  C   LIG d   1       5.846  -0.984  -6.504  0.00  0.00     0.149 C 
ATOM      9  H   LIG d   1       5.921  -1.719  -7.307  0.00  0.00     0.068 H 
ATOM     10  C   LIG d   1       4.617  -1.250  -5.702  0.00  0.00     0.122 C 
ATOM     11  H   LIG d   1       3.740  -1.218  -6.348  0.00  0.00     0.065 H 
ATOM     12  O   LIG d   1       4.468  -0.340  -4.605  0.00  0.00    -0.341 OA
ATOM     13  O   LIG d   1       6.032   0.334  -7.025  0.00  0.00    -0.338 OA
ATOM     14  C   LIG d   1       7.463   0.403  -7.249  0.00  0.00     0.169 C 
ATOM     15  O   LIG d   1       8.121  -0.539  -6.356  0.00  0.00    -0.311 OA
ATOM     16  H   LIG d   1       6.134  -2.280  -3.446  0.00  0.00     0.059 H 
ATOM     17  H   LIG d   1       6.188  -3.913  -4.127  0.00  0.00     0.059 H 
ENDROOT
BRANCH   1  18
ATOM     18  C   LIG d   1       4.898  -1.051  -2.325  0.00  0.00    -0.011 C 
ATOM     19  H   LIG d   1       4.925  -2.025  -1.838  0.00  0.00     0.028 H 
ATOM     20  H   LIG d   1       5.896  -0.795  -2.681  0.00  0.00     0.028 H 
ATOM     21  H   LIG d   1       4.562  -0.297  -1.612  0.00  0.00     0.028 H 
ENDBRANCH   1  18
BRANCH   1  22
ATOM     22  C   LIG d   1       2.579  -0.513  -3.093  0.00  0.00    -0.011 C 
ATOM     23  H   LIG d   1       1.858  -0.653  -3.898  0.00  0.00     0.028 H 
ATOM     24  H   LIG d   1       2.225  -1.020  -2.195  0.00  0.00     0.028 H 
ATOM     25  H   LIG d   1       2.693   0.551  -2.888  0.00  0.00     0.028 H 
ENDBRANCH   1  22
BRANCH   7  26
ATOM     26  C   LIG d   1       6.862  -0.250  -4.312  0.00  0.00     0.023 C 
ATOM     27  H   LIG d   1       6.290   0.641  -4.571  0.00  0.00     0.087 H 
ATOM     28  H   LIG d   1       6.314  -0.831  -3.571  0.00  0.00     0.087 H 
BRANCH  26  29
ATOM     29  N   LIG d   1       8.173   0.124  -3.753  0.00  0.00     0.222 N 
ATOM     30  H   LIG d   1       8.657   0.756  -4.390  0.00  0.00     0.200 HD
ATOM     31  H   LIG d   1       8.051   0.579  -2.850  0.00  0.00     0.200 HD
ATOM     32  H   LIG d   1       8.740  -0.723  -3.627  0.00  0.00     0.200 HD
ENDBRANCH  26  29
ENDBRANCH   7  26
BRANCH  14  33
ATOM     33  C   LIG d   1       7.773   0.052  -8.706  0.00  0.00    -0.011 C 
ATOM     34  H   LIG d   1       7.481  -0.980  -8.901  0.00  0.00     0.028 H 
ATOM     35  H   LIG d   1       7.220   0.718  -9.367  0.00  0.00     0.028 H 
ATOM     36  H   LIG d   1       8.843   0.166  -8.887  0.00  0.00     0.028 H 
ENDBRANCH  14  33
BRANCH  14  37
ATOM     37  C   LIG d   1       7.965   1.816  -6.943  0.00  0.00    -0.011 C 
ATOM     38  H   LIG d   1       9.052   1.840  -7.030  0.00  0.00     0.028 H 
ATOM     39  H   LIG d   1       7.528   2.518  -7.650  0.00  0.00     0.028 H 
ATOM     40  H   LIG d   1       7.677   2.092  -5.929  0.00  0.00     0.028 H 
ENDBRANCH  14  37
TORSDOF 6
ENDMDL
MODEL 10
REMARK VINA RESULT:      -4.5      1.938      2.848
REMARK  6 active torsions:
REMARK  status: ('A' for Active; 'I' for Inactive)
REMARK    1  A    between atoms: C_1  and  C_2 
REMARK    2  A    between atoms: C_2  and  C_20 
REMARK    3  A    between atoms: C_8  and  C_19 
REMARK    4  A    between atoms: C_15  and  C_17 
REMARK    5  A    between atoms: C_15  and  C_18 
REMARK    6  A    between atoms: C_19  and  N_39 
ROOT
ATOM      1  C   LIG d   1       4.418  -1.412  -3.307  0.00  0.00     0.166 C 
ATOM      2  O   LIG d   1       5.857  -1.389  -3.175  0.00  0.00    -0.341 OA
ATOM      3  C   LIG d   1       6.340  -1.377  -4.548  0.00  0.00     0.114 C 
ATOM      4  H   LIG d   1       7.358  -1.760  -4.632  0.00  0.00     0.065 H 
ATOM      5  C   LIG d   1       6.227   0.061  -5.045  0.00  0.00     0.080 C 
ATOM      6  O   LIG d   1       6.101   0.159  -6.469  0.00  0.00    -0.340 OA
ATOM      7  C   LIG d   1       4.963  -0.549  -6.926  0.00  0.00     0.243 C 
ATOM      8  C   LIG d   1       5.273  -2.054  -6.699  0.00  0.00     0.149 C 
ATOM      9  H   LIG d   1       6.243  -2.302  -7.134  0.00  0.00     0.068 H 
ATOM     10  C   LIG d   1       5.308  -2.311  -5.231  0.00  0.00     0.122 C 
ATOM     11  H   LIG d   1       5.568  -3.353  -5.044  0.00  0.00     0.065 H 
ATOM     12  O   LIG d   1       4.075  -1.975  -4.583  0.00  0.00    -0.341 OA
ATOM     13  O   LIG d   1       4.224  -2.657  -7.459  0.00  0.00    -0.338 OA
ATOM     14  C   LIG d   1       4.151  -1.824  -8.643  0.00  0.00     0.169 C 
ATOM     15  O   LIG d   1       4.663  -0.502  -8.316  0.00  0.00    -0.311 OA
ATOM     16  H   LIG d   1       5.354   0.523  -4.585  0.00  0.00     0.059 H 
ATOM     17  H   LIG d   1       7.116   0.609  -4.733  0.00  0.00     0.059 H 
ENDROOT
BRANCH   1  18
ATOM     18  C   LIG d   1       3.884   0.019  -3.215  0.00  0.00    -0.011 C 
ATOM     19  H   LIG d   1       3.391   0.283  -4.149  0.00  0.00     0.028 H 
ATOM     20  H   LIG d   1       3.170   0.089  -2.394  0.00  0.00     0.028 H 
ATOM     21  H   LIG d   1       4.713   0.704  -3.034  0.00  0.00     0.028 H 
ENDBRANCH   1  18
BRANCH   1  22
ATOM     22  C   LIG d   1       3.808  -2.261  -2.189  0.00  0.00    -0.011 C 
ATOM     23  H   LIG d   1       2.791  -2.542  -2.460  0.00  0.00     0.028 H 
ATOM     24  H   LIG d   1       4.408  -3.161  -2.048  0.00  0.00     0.028 H 
ATOM     25  H   LIG d   1       3.793  -1.686  -1.263  0.00  0.00     0.028 H 
ENDBRANCH   1  22
BRANCH   7  26
ATOM     26  C   LIG d   1       3.733  -0.141  -6.113  0.00  0.00     0.023 C 
ATOM     27  H   LIG d   1       3.017  -0.962  -6.100  0.00  0.00     0.087 H 
ATOM     28  H   LIG d   1       4.035   0.095  -5.093  0.00  0.00     0.087 H 
BRANCH  26  29
ATOM     29  N   LIG d   1       3.131   1.058  -6.722  0.00  0.00     0.222 N 
ATOM     30  H   LIG d   1       3.035   1.794  -6.024  0.00  0.00     0.200 HD
ATOM     31  H   LIG d   1       3.713   1.391  -7.489  0.00  0.00     0.200 HD
ATOM     32  H   LIG d   1       2.201   0.820  -7.087  0.00  0.00     0.200 HD
ENDBRANCH  26  29
ENDBRANCH   7  26
BRANCH  14  33
ATOM     33  C   LIG d   1       4.985  -2.448  -9.765  0.00  0.00    -0.011 C 
ATOM     34  H   LIG d   1       5.987  -2.020  -9.753  0.00  0.00     0.028 H 
ATOM     35  H   LIG d   1       5.048  -3.525  -9.615  0.00  0.00     0.028 H 
ATOM     36  H   LIG d   1       4.512  -2.242 -10.726  0.00  0.00     0.028 H 
ENDBRANCH  14  33
BRANCH  14  37
ATOM     37  C   LIG d   1       2.694  -1.698  -9.095  0.00  0.00    -0.011 C 
ATOM     38  H   LIG d   1       2.087  -2.438  -8.572  0.00  0.00     0.028 H 
ATOM     39  H   LIG d   1       2.328  -0.699  -8.864  0.00  0.00     0.028 H 
ATOM     40  H   LIG d   1       2.631  -1.870 -10.169  0.00  0.00     0.028 H 
ENDBRANCH  14  37
TORSDOF 6
ENDMDL
