MODEL 1
REMARK VINA RESULT:      -7.0      0.000      0.000
REMARK  24 active torsions:
REMARK  status: ('A' for Active; 'I' for Inactive)
REMARK    1  A    between atoms: C_1  and  C_2 
REMARK    2  A    between atoms: C_2  and  O_4 
REMARK    3  A    between atoms: O_4  and  C_5 
REMARK    4  A    between atoms: C_5  and  C_6 
REMARK    5  A    between atoms: C_5  and  C_7 
REMARK    6  A    between atoms: C_5  and  C_8 
REMARK    7  A    between atoms: C_9  and  C_10 
REMARK    8  A    between atoms: C_10  and  C_12 
REMARK    9  A    between atoms: C_12  and  C_13 
REMARK   10  A    between atoms: C_12  and  C_14 
REMARK   11  A    between atoms: C_12  and  O_60 
REMARK   12  A    between atoms: C_16  and  O_59 
REMARK   13  A    between atoms: C_19  and  C_58 
REMARK   14  A    between atoms: C_20  and  C_57 
REMARK   15  A    between atoms: C_24  and  C_56 
REMARK   16  A    between atoms: C_33  and  O_39 
REMARK   17  A    between atoms: C_36  and  C_37 
REMARK   18  A    between atoms: C_36  and  C_38 
REMARK   19  A    between atoms: O_39  and  C_40 
REMARK   20  A    between atoms: C_42  and  O_55 
REMARK   21  A    between atoms: C_44  and  O_54 
REMARK   22  A    between atoms: C_46  and  O_53 
REMARK   23  A    between atoms: C_48  and  C_51 
REMARK   24  A    between atoms: C_51  and  O_52 
ROOT
ATOM      1  C   LIG d   1       4.164  -0.513  -9.101  0.00  0.00     0.027 C 
ATOM      2  H   LIG d   1       4.037   0.533  -9.324  0.00  0.00     0.036 H 
ATOM      3  C   LIG d   1       5.535  -1.039  -9.599  0.00  0.00     0.062 C 
ATOM      4  H   LIG d   1       6.162  -0.212  -9.927  0.00  0.00     0.060 H 
ATOM      5  C   LIG d   1       5.240  -1.992 -10.789  0.00  0.00    -0.020 C 
ATOM      6  C   LIG d   1       3.834  -1.521 -11.237  0.00  0.00    -0.019 C 
ATOM      7  C   LIG d   1       3.137  -1.376  -9.874  0.00  0.00    -0.011 C 
ATOM      8  C   LIG d   1       1.774  -0.753 -10.030  0.00  0.00     0.013 C 
ATOM      9  C   LIG d   1       1.148  -1.164 -11.348  0.00  0.00     0.141 C 
ATOM     10  O   LIG d   1       0.235  -0.489 -11.814  0.00  0.00    -0.297 OA
ATOM     11  C   LIG d   1       1.621  -2.381 -12.091  0.00  0.00     0.040 C 
ATOM     12  C   LIG d   1       3.133  -2.473 -12.173  0.00  0.00    -0.019 C 
ATOM     13  H   LIG d   1       3.431  -3.503 -11.907  0.00  0.00     0.032 H 
ATOM     14  C   LIG d   1       3.607  -2.220 -13.609  0.00  0.00    -0.030 C 
ATOM     15  C   LIG d   1       2.935  -3.213 -14.529  0.00  0.00    -0.083 C 
ATOM     16  C   LIG d   1       1.636  -3.356 -14.424  0.00  0.00    -0.052 C 
ATOM     17  C   LIG d   1       0.908  -2.515 -13.428  0.00  0.00     0.015 C 
ATOM     18  H   LIG d   1       0.886  -1.503 -13.840  0.00  0.00     0.040 H 
ATOM     19  C   LIG d   1      -0.520  -2.908 -13.225  0.00  0.00    -0.031 C 
ATOM     20  C   LIG d   1      -1.058  -4.011 -13.737  0.00  0.00     0.164 C 
ATOM     21  C   LIG d   1      -0.262  -4.915 -14.571  0.00  0.00     0.207 C 
ATOM     22  O   LIG d   1      -0.536  -6.090 -14.683  0.00  0.00    -0.288 OA
ATOM     23  C   LIG d   1       0.913  -4.323 -15.332  0.00  0.00     0.052 C 
ATOM     24  H   LIG d   1       5.955  -1.830 -11.593  0.00  0.00     0.030 H 
ATOM     25  H   LIG d   1       5.232  -3.030 -10.486  0.00  0.00     0.030 H 
ATOM     26  H   LIG d   1       1.122  -1.052  -9.193  0.00  0.00     0.035 H 
ATOM     27  H   LIG d   1       1.853   0.346  -9.985  0.00  0.00     0.035 H 
ATOM     28  H   LIG d   1       3.309  -1.231 -13.953  0.00  0.00     0.031 H 
ATOM     29  H   LIG d   1       4.684  -2.334 -13.678  0.00  0.00     0.031 H 
ATOM     30  H   LIG d   1       3.530  -3.730 -15.245  0.00  0.00     0.057 H 
ATOM     31  H   LIG d   1      -1.152  -2.270 -12.622  0.00  0.00     0.062 H 
ENDROOT
BRANCH   1  32
ATOM     32  C   LIG d   1       4.015  -0.772  -7.598  0.00  0.00     0.130 C 
BRANCH  32  33
ATOM     33  C   LIG d   1       5.184  -0.165  -6.866  0.00  0.00     0.187 C 
ATOM     34  O   LIG d   1       5.757   0.798  -7.331  0.00  0.00    -0.290 OA
BRANCH  33  35
ATOM     35  C   LIG d   1       5.628  -0.736  -5.596  0.00  0.00    -0.017 C 
ATOM     36  C   LIG d   1       4.861  -0.624  -4.509  0.00  0.00    -0.038 C 
ATOM     37  H   LIG d   1       3.913  -0.111  -4.568  0.00  0.00     0.061 H 
ATOM     38  H   LIG d   1       6.577  -1.250  -5.537  0.00  0.00     0.065 H 
BRANCH  36  39
ATOM     39  C   LIG d   1       5.319  -1.213  -3.200  0.00  0.00     0.126 C 
BRANCH  39  40
ATOM     40  O   LIG d   1       5.467  -0.169  -2.233  0.00  0.00    -0.455 OA
BRANCH  40  41
ATOM     41  C   LIG d   1       5.072   1.060  -2.598  0.00  0.00     0.305 C 
ATOM     42  O   LIG d   1       5.864   1.829  -3.087  0.00  0.00    -0.251 OA
BRANCH  41  43
ATOM     43  C   LIG d   1       3.638   1.480  -2.401  0.00  0.00     0.033 C 
ATOM     44  H   LIG d   1       3.407   1.495  -1.336  0.00  0.00     0.034 H 
ATOM     45  H   LIG d   1       3.490   2.476  -2.820  0.00  0.00     0.034 H 
ATOM     46  H   LIG d   1       2.979   0.773  -2.907  0.00  0.00     0.034 H 
ENDBRANCH  41  43
ENDBRANCH  40  41
ENDBRANCH  39  40
BRANCH  39  47
ATOM     47  C   LIG d   1       6.663  -1.917  -3.399  0.00  0.00    -0.021 C 
ATOM     48  H   LIG d   1       7.410  -1.189  -3.716  0.00  0.00     0.027 H 
ATOM     49  H   LIG d   1       6.976  -2.374  -2.461  0.00  0.00     0.027 H 
ATOM     50  H   LIG d   1       6.559  -2.686  -4.163  0.00  0.00     0.027 H 
ENDBRANCH  39  47
BRANCH  39  51
ATOM     51  C   LIG d   1       4.282  -2.222  -2.704  0.00  0.00    -0.021 C 
ATOM     52  H   LIG d   1       4.542  -3.218  -3.065  0.00  0.00     0.027 H 
ATOM     53  H   LIG d   1       4.269  -2.224  -1.614  0.00  0.00     0.027 H 
ATOM     54  H   LIG d   1       3.297  -1.947  -3.079  0.00  0.00     0.027 H 
ENDBRANCH  39  51
ENDBRANCH  36  39
ENDBRANCH  33  35
ENDBRANCH  32  33
BRANCH  32  55
ATOM     55  C   LIG d   1       2.715  -0.138  -7.098  0.00  0.00    -0.028 C 
ATOM     56  H   LIG d   1       2.947   0.745  -6.504  0.00  0.00     0.026 H 
ATOM     57  H   LIG d   1       2.100   0.149  -7.950  0.00  0.00     0.026 H 
ATOM     58  H   LIG d   1       2.174  -0.858  -6.485  0.00  0.00     0.026 H 
ENDBRANCH  32  55
BRANCH  32  59
ATOM     59  O   LIG d   1       3.982  -2.180  -7.359  0.00  0.00    -0.381 OA
ATOM     60  H   LIG d   1       4.850  -2.605  -7.393  0.00  0.00     0.211 HD
ENDBRANCH  32  59
ENDBRANCH   1  32
BRANCH   7  61
ATOM     61  C   LIG d   1       3.052  -2.703  -9.112  0.00  0.00    -0.058 C 
ATOM     62  H   LIG d   1       3.374  -2.552  -8.081  0.00  0.00     0.024 H 
ATOM     63  H   LIG d   1       2.022  -3.061  -9.121  0.00  0.00     0.024 H 
ATOM     64  H   LIG d   1       3.697  -3.440  -9.590  0.00  0.00     0.024 H 
ENDBRANCH   7  61
BRANCH   3  65
ATOM     65  O   LIG d   1       6.191  -1.758  -8.546  0.00  0.00    -0.391 OA
ATOM     66  H   LIG d   1       5.676  -1.819  -7.730  0.00  0.00     0.210 HD
ENDBRANCH   3  65
BRANCH   6  67
ATOM     67  C   LIG d   1       4.001  -0.135 -11.880  0.00  0.00    -0.059 C 
ATOM     68  H   LIG d   1       3.426  -0.092 -12.805  0.00  0.00     0.024 H 
ATOM     69  H   LIG d   1       3.641   0.630 -11.192  0.00  0.00     0.024 H 
ATOM     70  H   LIG d   1       5.055   0.041 -12.098  0.00  0.00     0.024 H 
ENDBRANCH   6  67
BRANCH  11  71
ATOM     71  C   LIG d   1       1.126  -3.615 -11.319  0.00  0.00    -0.052 C 
ATOM     72  H   LIG d   1       1.935  -4.006 -10.701  0.00  0.00     0.024 H 
ATOM     73  H   LIG d   1       0.287  -3.334 -10.683  0.00  0.00     0.024 H 
ATOM     74  H   LIG d   1       0.806  -4.382 -12.026  0.00  0.00     0.024 H 
ENDBRANCH  11  71
BRANCH  23  75
ATOM     75  C   LIG d   1       1.828  -5.467 -15.781  0.00  0.00    -0.049 C 
ATOM     76  H   LIG d   1       2.249  -5.235 -16.759  0.00  0.00     0.024 H 
ATOM     77  H   LIG d   1       2.634  -5.593 -15.058  0.00  0.00     0.024 H 
ATOM     78  H   LIG d   1       1.251  -6.390 -15.845  0.00  0.00     0.024 H 
ENDBRANCH  23  75
BRANCH  23  79
ATOM     79  C   LIG d   1       0.390  -3.586 -16.575  0.00  0.00    -0.049 C 
ATOM     80  H   LIG d   1      -0.537  -3.069 -16.327  0.00  0.00     0.024 H 
ATOM     81  H   LIG d   1       1.133  -2.862 -16.908  0.00  0.00     0.024 H 
ATOM     82  H   LIG d   1       0.202  -4.307 -17.372  0.00  0.00     0.024 H 
ENDBRANCH  23  79
BRANCH  20  83
ATOM     83  O   LIG d   1      -2.364  -4.298 -13.496  0.00  0.00    -0.458 OA
BRANCH  83  84
ATOM     84  C   LIG d   1      -2.867  -3.985 -12.195  0.00  0.00     0.231 C 
ATOM     85  H   LIG d   1      -2.287  -3.166 -11.769  0.00  0.00     0.108 H 
ATOM     86  O   LIG d   1      -2.759  -5.135 -11.353  0.00  0.00    -0.331 OA
ATOM     87  C   LIG d   1      -3.214  -4.922 -10.015  0.00  0.00     0.114 C 
ATOM     88  C   LIG d   1      -4.697  -4.543 -10.035  0.00  0.00     0.112 C 
ATOM     89  H   LIG d   1      -2.639  -4.115  -9.560  0.00  0.00     0.065 H 
ATOM     90  C   LIG d   1      -4.885  -3.293 -10.901  0.00  0.00     0.115 C 
ATOM     91  H   LIG d   1      -5.278  -5.366 -10.453  0.00  0.00     0.065 H 
ATOM     92  C   LIG d   1      -4.336  -3.569 -12.304  0.00  0.00     0.145 C 
ATOM     93  H   LIG d   1      -4.345  -2.457 -10.455  0.00  0.00     0.065 H 
ATOM     94  H   LIG d   1      -4.910  -4.372 -12.767  0.00  0.00     0.068 H 
BRANCH  87  95
ATOM     95  C   LIG d   1      -3.026  -6.204  -9.202  0.00  0.00     0.073 C 
ATOM     96  H   LIG d   1      -3.890  -6.354  -8.554  0.00  0.00     0.058 H 
ATOM     97  H   LIG d   1      -2.929  -7.053  -9.880  0.00  0.00     0.058 H 
BRANCH  95  98
ATOM     98  O   LIG d   1      -1.845  -6.095  -8.405  0.00  0.00    -0.392 OA
ATOM     99  H   LIG d   1      -1.106  -6.632  -8.720  0.00  0.00     0.209 HD
ENDBRANCH  95  98
ENDBRANCH  87  95
BRANCH  88 100
ATOM    100  O   LIG d   1      -5.140  -4.274  -8.704  0.00  0.00    -0.387 OA
ATOM    101  H   LIG d   1      -5.440  -3.364  -8.565  0.00  0.00     0.210 HD
ENDBRANCH  88 100
BRANCH  90 102
ATOM    102  O   LIG d   1      -6.275  -2.973 -10.985  0.00  0.00    -0.386 OA
ATOM    103  H   LIG d   1      -6.469  -2.031 -10.876  0.00  0.00     0.210 HD
ENDBRANCH  90 102
BRANCH  92 104
ATOM    104  O   LIG d   1      -4.440  -2.386 -13.100  0.00  0.00    -0.383 OA
ATOM    105  H   LIG d   1      -4.951  -2.502 -13.912  0.00  0.00     0.210 HD
ENDBRANCH  92 104
ENDBRANCH  83  84
ENDBRANCH  20  83
TORSDOF 24
ENDMDL
MODEL 2
REMARK VINA RESULT:      -7.0      6.449      9.201
REMARK  24 active torsions:
REMARK  status: ('A' for Active; 'I' for Inactive)
REMARK    1  A    between atoms: C_1  and  C_2 
REMARK    2  A    between atoms: C_2  and  O_4 
REMARK    3  A    between atoms: O_4  and  C_5 
REMARK    4  A    between atoms: C_5  and  C_6 
REMARK    5  A    between atoms: C_5  and  C_7 
REMARK    6  A    between atoms: C_5  and  C_8 
REMARK    7  A    between atoms: C_9  and  C_10 
REMARK    8  A    between atoms: C_10  and  C_12 
REMARK    9  A    between atoms: C_12  and  C_13 
REMARK   10  A    between atoms: C_12  and  C_14 
REMARK   11  A    between atoms: C_12  and  O_60 
REMARK   12  A    between atoms: C_16  and  O_59 
REMARK   13  A    between atoms: C_19  and  C_58 
REMARK   14  A    between atoms: C_20  and  C_57 
REMARK   15  A    between atoms: C_24  and  C_56 
REMARK   16  A    between atoms: C_33  and  O_39 
REMARK   17  A    between atoms: C_36  and  C_37 
REMARK   18  A    between atoms: C_36  and  C_38 
REMARK   19  A    between atoms: O_39  and  C_40 
REMARK   20  A    between atoms: C_42  and  O_55 
REMARK   21  A    between atoms: C_44  and  O_54 
REMARK   22  A    between atoms: C_46  and  O_53 
REMARK   23  A    between atoms: C_48  and  C_51 
REMARK   24  A    between atoms: C_51  and  O_52 
ROOT
ATOM      1  C   LIG d   1       6.810  -1.764  -5.895  0.00  0.00     0.027 C 
ATOM      2  H   LIG d   1       5.840  -1.303  -5.802  0.00  0.00     0.036 H 
ATOM      3  C   LIG d   1       7.463  -1.443  -7.264  0.00  0.00     0.062 C 
ATOM      4  H   LIG d   1       6.886  -0.685  -7.790  0.00  0.00     0.060 H 
ATOM      5  C   LIG d   1       7.472  -2.767  -8.074  0.00  0.00    -0.020 C 
ATOM      6  C   LIG d   1       6.357  -3.582  -7.371  0.00  0.00    -0.019 C 
ATOM      7  C   LIG d   1       6.696  -3.308  -5.896  0.00  0.00    -0.011 C 
ATOM      8  C   LIG d   1       5.632  -3.866  -4.987  0.00  0.00     0.013 C 
ATOM      9  C   LIG d   1       5.034  -5.128  -5.578  0.00  0.00     0.141 C 
ATOM     10  O   LIG d   1       3.935  -5.509  -5.189  0.00  0.00    -0.297 OA
ATOM     11  C   LIG d   1       5.761  -5.918  -6.628  0.00  0.00     0.040 C 
ATOM     12  C   LIG d   1       6.347  -5.048  -7.724  0.00  0.00    -0.019 C 
ATOM     13  H   LIG d   1       7.390  -5.369  -7.899  0.00  0.00     0.032 H 
ATOM     14  C   LIG d   1       5.583  -5.252  -9.036  0.00  0.00    -0.030 C 
ATOM     15  C   LIG d   1       5.623  -6.717  -9.404  0.00  0.00    -0.083 C 
ATOM     16  C   LIG d   1       5.308  -7.586  -8.474  0.00  0.00    -0.052 C 
ATOM     17  C   LIG d   1       4.908  -7.073  -7.130  0.00  0.00     0.015 C 
ATOM     18  H   LIG d   1       3.906  -6.654  -7.249  0.00  0.00     0.040 H 
ATOM     19  C   LIG d   1       4.790  -8.133  -6.082  0.00  0.00    -0.031 C 
ATOM     20  C   LIG d   1       5.176  -9.392  -6.265  0.00  0.00     0.164 C 
ATOM     21  C   LIG d   1       5.735  -9.826  -7.548  0.00  0.00     0.207 C 
ATOM     22  O   LIG d   1       6.481 -10.776  -7.631  0.00  0.00    -0.288 OA
ATOM     23  C   LIG d   1       5.317  -9.063  -8.794  0.00  0.00     0.052 C 
ATOM     24  H   LIG d   1       7.193  -2.582  -9.110  0.00  0.00     0.030 H 
ATOM     25  H   LIG d   1       8.426  -3.272  -8.017  0.00  0.00     0.030 H 
ATOM     26  H   LIG d   1       6.055  -4.080  -3.993  0.00  0.00     0.035 H 
ATOM     27  H   LIG d   1       4.836  -3.118  -4.832  0.00  0.00     0.035 H 
ATOM     28  H   LIG d   1       4.531  -4.992  -8.923  0.00  0.00     0.031 H 
ATOM     29  H   LIG d   1       6.032  -4.667  -9.832  0.00  0.00     0.031 H 
ATOM     30  H   LIG d   1       5.870  -6.987 -10.404  0.00  0.00     0.057 H 
ATOM     31  H   LIG d   1       4.377  -7.865  -5.119  0.00  0.00     0.062 H 
ENDROOT
BRANCH   1  32
ATOM     32  C   LIG d   1       7.734  -1.324  -4.755  0.00  0.00     0.130 C 
BRANCH  32  33
ATOM     33  C   LIG d   1       7.249  -0.013  -4.193  0.00  0.00     0.187 C 
ATOM     34  O   LIG d   1       7.881   1.004  -4.394  0.00  0.00    -0.290 OA
BRANCH  33  35
ATOM     35  C   LIG d   1       6.017   0.036  -3.407  0.00  0.00    -0.017 C 
ATOM     36  C   LIG d   1       4.844  -0.229  -3.987  0.00  0.00    -0.038 C 
ATOM     37  H   LIG d   1       4.805  -0.480  -5.036  0.00  0.00     0.061 H 
ATOM     38  H   LIG d   1       6.056   0.286  -2.357  0.00  0.00     0.065 H 
BRANCH  36  39
ATOM     39  C   LIG d   1       3.575  -0.179  -3.176  0.00  0.00     0.126 C 
BRANCH  39  40
ATOM     40  O   LIG d   1       2.454  -0.045  -4.053  0.00  0.00    -0.455 OA
BRANCH  40  41
ATOM     41  C   LIG d   1       2.614   0.738  -5.131  0.00  0.00     0.305 C 
ATOM     42  O   LIG d   1       2.514   1.937  -5.027  0.00  0.00    -0.251 OA
BRANCH  41  43
ATOM     43  C   LIG d   1       2.921   0.121  -6.471  0.00  0.00     0.033 C 
ATOM     44  H   LIG d   1       3.810  -0.504  -6.388  0.00  0.00     0.034 H 
ATOM     45  H   LIG d   1       2.076  -0.487  -6.794  0.00  0.00     0.034 H 
ATOM     46  H   LIG d   1       3.099   0.911  -7.202  0.00  0.00     0.034 H 
ENDBRANCH  41  43
ENDBRANCH  40  41
ENDBRANCH  39  40
BRANCH  39  47
ATOM     47  C   LIG d   1       3.624   1.018  -2.224  0.00  0.00    -0.021 C 
ATOM     48  H   LIG d   1       2.763   1.661  -2.406  0.00  0.00     0.027 H 
ATOM     49  H   LIG d   1       3.603   0.664  -1.194  0.00  0.00     0.027 H 
ATOM     50  H   LIG d   1       4.540   1.582  -2.397  0.00  0.00     0.027 H 
ENDBRANCH  39  47
BRANCH  39  51
ATOM     51  C   LIG d   1       3.436  -1.469  -2.366  0.00  0.00    -0.021 C 
ATOM     52  H   LIG d   1       3.393  -2.322  -3.044  0.00  0.00     0.027 H 
ATOM     53  H   LIG d   1       4.295  -1.576  -1.703  0.00  0.00     0.027 H 
ATOM     54  H   LIG d   1       2.523  -1.431  -1.773  0.00  0.00     0.027 H 
ENDBRANCH  39  51
ENDBRANCH  36  39
ENDBRANCH  33  35
ENDBRANCH  32  33
BRANCH  32  55
ATOM     55  C   LIG d   1       7.725  -2.386  -3.653  0.00  0.00    -0.028 C 
ATOM     56  H   LIG d   1       8.677  -2.367  -3.124  0.00  0.00     0.026 H 
ATOM     57  H   LIG d   1       6.917  -2.176  -2.953  0.00  0.00     0.026 H 
ATOM     58  H   LIG d   1       7.576  -3.369  -4.098  0.00  0.00     0.026 H 
ENDBRANCH  32  55
BRANCH  32  59
ATOM     59  O   LIG d   1       9.064  -1.166  -5.254  0.00  0.00    -0.381 OA
ATOM     60  H   LIG d   1       9.614  -1.956  -5.160  0.00  0.00     0.211 HD
ENDBRANCH  32  59
ENDBRANCH   1  32
BRANCH   7  61
ATOM     61  C   LIG d   1       8.083  -3.827  -5.503  0.00  0.00    -0.058 C 
ATOM     62  H   LIG d   1       7.992  -4.836  -5.098  0.00  0.00     0.024 H 
ATOM     63  H   LIG d   1       8.726  -3.846  -6.383  0.00  0.00     0.024 H 
ATOM     64  H   LIG d   1       8.517  -3.171  -4.749  0.00  0.00     0.024 H 
ENDBRANCH   7  61
BRANCH   3  65
ATOM     65  O   LIG d   1       8.806  -0.981  -7.066  0.00  0.00    -0.391 OA
ATOM     66  H   LIG d   1       9.420  -1.246  -7.764  0.00  0.00     0.210 HD
ENDBRANCH   3  65
BRANCH   6  67
ATOM     67  C   LIG d   1       5.016  -2.918  -7.723  0.00  0.00    -0.059 C 
ATOM     68  H   LIG d   1       4.841  -2.075  -7.055  0.00  0.00     0.024 H 
ATOM     69  H   LIG d   1       5.045  -2.565  -8.754  0.00  0.00     0.024 H 
ATOM     70  H   LIG d   1       4.211  -3.645  -7.611  0.00  0.00     0.024 H 
ENDBRANCH   6  67
BRANCH  11  71
ATOM     71  C   LIG d   1       6.931  -6.638  -5.937  0.00  0.00    -0.052 C 
ATOM     72  H   LIG d   1       7.833  -6.525  -6.538  0.00  0.00     0.024 H 
ATOM     73  H   LIG d   1       7.094  -6.202  -4.951  0.00  0.00     0.024 H 
ATOM     74  H   LIG d   1       6.695  -7.697  -5.831  0.00  0.00     0.024 H 
ENDBRANCH  11  71
BRANCH  23  75
ATOM     75  C   LIG d   1       6.304  -9.391  -9.919  0.00  0.00    -0.049 C 
ATOM     76  H   LIG d   1       6.284 -10.463 -10.119  0.00  0.00     0.024 H 
ATOM     77  H   LIG d   1       6.021  -8.847 -10.821  0.00  0.00     0.024 H 
ATOM     78  H   LIG d   1       7.310  -9.097  -9.618  0.00  0.00     0.024 H 
ENDBRANCH  23  75
BRANCH  23  79
ATOM     79  C   LIG d   1       3.911  -9.517  -9.216  0.00  0.00    -0.049 C 
ATOM     80  H   LIG d   1       3.697  -9.151 -10.221  0.00  0.00     0.024 H 
ATOM     81  H   LIG d   1       3.862 -10.605  -9.208  0.00  0.00     0.024 H 
ATOM     82  H   LIG d   1       3.175  -9.116  -8.519  0.00  0.00     0.024 H 
ENDBRANCH  23  79
BRANCH  20  83
ATOM     83  O   LIG d   1       5.041 -10.291  -5.255  0.00  0.00    -0.458 OA
BRANCH  83  84
ATOM     84  C   LIG d   1       5.528  -9.900  -3.969  0.00  0.00     0.231 C 
ATOM     85  H   LIG d   1       5.013  -8.996  -3.645  0.00  0.00     0.108 H 
ATOM     86  O   LIG d   1       6.932  -9.648  -4.048  0.00  0.00    -0.331 OA
ATOM     87  C   LIG d   1       7.519  -9.224  -2.816  0.00  0.00     0.114 C 
ATOM     88  C   LIG d   1       7.340 -10.320  -1.763  0.00  0.00     0.112 C 
ATOM     89  H   LIG d   1       7.030  -8.310  -2.477  0.00  0.00     0.065 H 
ATOM     90  C   LIG d   1       5.846 -10.623  -1.602  0.00  0.00     0.115 C 
ATOM     91  H   LIG d   1       7.862 -11.222  -2.083  0.00  0.00     0.065 H 
ATOM     92  C   LIG d   1       5.268 -11.024  -2.963  0.00  0.00     0.145 C 
ATOM     93  H   LIG d   1       5.332  -9.736  -1.234  0.00  0.00     0.065 H 
ATOM     94  H   LIG d   1       5.749 -11.941  -3.307  0.00  0.00     0.068 H 
BRANCH  87  95
ATOM     95  C   LIG d   1       9.011  -8.957  -3.026  0.00  0.00     0.073 C 
ATOM     96  H   LIG d   1       9.570  -9.881  -2.875  0.00  0.00     0.058 H 
ATOM     97  H   LIG d   1       9.176  -8.595  -4.041  0.00  0.00     0.058 H 
BRANCH  95  98
ATOM     98  O   LIG d   1       9.455  -7.973  -2.090  0.00  0.00    -0.392 OA
ATOM     99  H   LIG d   1       8.765  -7.359  -1.806  0.00  0.00     0.209 HD
ENDBRANCH  95  98
ENDBRANCH  87  95
BRANCH  88 100
ATOM    100  O   LIG d   1       7.874  -9.877  -0.514  0.00  0.00    -0.387 OA
ATOM    101  H   LIG d   1       7.226  -9.849   0.204  0.00  0.00     0.210 HD
ENDBRANCH  88 100
BRANCH  90 102
ATOM    102  O   LIG d   1       5.673 -11.696  -0.674  0.00  0.00    -0.386 OA
ATOM    103  H   LIG d   1       4.747 -11.895  -0.472  0.00  0.00     0.210 HD
ENDBRANCH  90 102
BRANCH  92 104
ATOM    104  O   LIG d   1       3.861 -11.241  -2.840  0.00  0.00    -0.383 OA
ATOM    105  H   LIG d   1       3.381 -11.192  -3.678  0.00  0.00     0.210 HD
ENDBRANCH  92 104
ENDBRANCH  83  84
ENDBRANCH  20  83
TORSDOF 24
ENDMDL
MODEL 3
REMARK VINA RESULT:      -6.7      7.971     15.473
REMARK  24 active torsions:
REMARK  status: ('A' for Active; 'I' for Inactive)
REMARK    1  A    between atoms: C_1  and  C_2 
REMARK    2  A    between atoms: C_2  and  O_4 
REMARK    3  A    between atoms: O_4  and  C_5 
REMARK    4  A    between atoms: C_5  and  C_6 
REMARK    5  A    between atoms: C_5  and  C_7 
REMARK    6  A    between atoms: C_5  and  C_8 
REMARK    7  A    between atoms: C_9  and  C_10 
REMARK    8  A    between atoms: C_10  and  C_12 
REMARK    9  A    between atoms: C_12  and  C_13 
REMARK   10  A    between atoms: C_12  and  C_14 
REMARK   11  A    between atoms: C_12  and  O_60 
REMARK   12  A    between atoms: C_16  and  O_59 
REMARK   13  A    between atoms: C_19  and  C_58 
REMARK   14  A    between atoms: C_20  and  C_57 
REMARK   15  A    between atoms: C_24  and  C_56 
REMARK   16  A    between atoms: C_33  and  O_39 
REMARK   17  A    between atoms: C_36  and  C_37 
REMARK   18  A    between atoms: C_36  and  C_38 
REMARK   19  A    between atoms: O_39  and  C_40 
REMARK   20  A    between atoms: C_42  and  O_55 
REMARK   21  A    between atoms: C_44  and  O_54 
REMARK   22  A    between atoms: C_46  and  O_53 
REMARK   23  A    between atoms: C_48  and  C_51 
REMARK   24  A    between atoms: C_51  and  O_52 
ROOT
ATOM      1  C   LIG d   1       9.601   1.099  -4.550  0.00  0.00     0.027 C 
ATOM      2  H   LIG d   1       9.856   0.552  -3.657  0.00  0.00     0.036 H 
ATOM      3  C   LIG d   1      10.296   0.503  -5.801  0.00  0.00     0.062 C 
ATOM      4  H   LIG d   1      10.771  -0.445  -5.555  0.00  0.00     0.060 H 
ATOM      5  C   LIG d   1      11.365   1.535  -6.251  0.00  0.00    -0.020 C 
ATOM      6  C   LIG d   1      11.593   2.349  -4.954  0.00  0.00    -0.019 C 
ATOM      7  C   LIG d   1      10.140   2.550  -4.488  0.00  0.00    -0.011 C 
ATOM      8  C   LIG d   1      10.095   3.185  -3.123  0.00  0.00     0.013 C 
ATOM      9  C   LIG d   1      11.263   4.134  -2.938  0.00  0.00     0.141 C 
ATOM     10  O   LIG d   1      11.603   4.452  -1.803  0.00  0.00    -0.297 OA
ATOM     11  C   LIG d   1      12.008   4.693  -4.116  0.00  0.00     0.040 C 
ATOM     12  C   LIG d   1      12.342   3.642  -5.158  0.00  0.00    -0.019 C 
ATOM     13  H   LIG d   1      12.075   4.043  -6.152  0.00  0.00     0.032 H 
ATOM     14  C   LIG d   1      13.849   3.362  -5.172  0.00  0.00    -0.030 C 
ATOM     15  C   LIG d   1      14.586   4.656  -5.428  0.00  0.00    -0.083 C 
ATOM     16  C   LIG d   1      14.254   5.697  -4.704  0.00  0.00    -0.052 C 
ATOM     17  C   LIG d   1      13.195   5.530  -3.663  0.00  0.00     0.015 C 
ATOM     18  H   LIG d   1      13.652   4.959  -2.852  0.00  0.00     0.040 H 
ATOM     19  C   LIG d   1      12.731   6.814  -3.054  0.00  0.00    -0.031 C 
ATOM     20  C   LIG d   1      13.084   8.012  -3.508  0.00  0.00     0.164 C 
ATOM     21  C   LIG d   1      13.990   8.143  -4.651  0.00  0.00     0.207 C 
ATOM     22  O   LIG d   1      13.989   9.127  -5.359  0.00  0.00    -0.288 OA
ATOM     23  C   LIG d   1      14.971   7.011  -4.908  0.00  0.00     0.052 C 
ATOM     24  H   LIG d   1      12.287   1.030  -6.534  0.00  0.00     0.030 H 
ATOM     25  H   LIG d   1      11.009   2.164  -7.056  0.00  0.00     0.030 H 
ATOM     26  H   LIG d   1       9.145   3.726  -2.987  0.00  0.00     0.035 H 
ATOM     27  H   LIG d   1      10.125   2.407  -2.342  0.00  0.00     0.035 H 
ATOM     28  H   LIG d   1      14.190   2.999  -4.204  0.00  0.00     0.031 H 
ATOM     29  H   LIG d   1      14.094   2.645  -5.950  0.00  0.00     0.031 H 
ATOM     30  H   LIG d   1      15.364   4.666  -6.155  0.00  0.00     0.057 H 
ATOM     31  H   LIG d   1      12.065   6.771  -2.202  0.00  0.00     0.062 H 
ENDROOT
BRANCH   1  32
ATOM     32  C   LIG d   1       8.084   1.130  -4.755  0.00  0.00     0.130 C 
BRANCH  32  33
ATOM     33  C   LIG d   1       7.504  -0.219  -4.420  0.00  0.00     0.187 C 
ATOM     34  O   LIG d   1       7.962  -1.220  -4.931  0.00  0.00    -0.290 OA
BRANCH  33  35
ATOM     35  C   LIG d   1       6.391  -0.324  -3.478  0.00  0.00    -0.017 C 
ATOM     36  C   LIG d   1       5.159  -0.578  -3.926  0.00  0.00    -0.038 C 
ATOM     37  H   LIG d   1       4.985  -0.706  -4.983  0.00  0.00     0.061 H 
ATOM     38  H   LIG d   1       6.565  -0.197  -2.420  0.00  0.00     0.065 H 
BRANCH  36  39
ATOM     39  C   LIG d   1       4.012  -0.686  -2.955  0.00  0.00     0.126 C 
BRANCH  39  40
ATOM     40  O   LIG d   1       2.791  -0.358  -3.621  0.00  0.00    -0.455 OA
BRANCH  40  41
ATOM     41  C   LIG d   1       2.853   0.578  -4.581  0.00  0.00     0.305 C 
ATOM     42  O   LIG d   1       2.933   1.746  -4.283  0.00  0.00    -0.251 OA
BRANCH  41  43
ATOM     43  C   LIG d   1       2.825   0.172  -6.032  0.00  0.00     0.033 C 
ATOM     44  H   LIG d   1       3.829  -0.104  -6.352  0.00  0.00     0.034 H 
ATOM     45  H   LIG d   1       2.156  -0.680  -6.158  0.00  0.00     0.034 H 
ATOM     46  H   LIG d   1       2.466   1.006  -6.635  0.00  0.00     0.034 H 
ENDBRANCH  41  43
ENDBRANCH  40  41
ENDBRANCH  39  40
BRANCH  39  47
ATOM     47  C   LIG d   1       4.235   0.283  -1.791  0.00  0.00    -0.021 C 
ATOM     48  H   LIG d   1       3.832   1.261  -2.052  0.00  0.00     0.027 H 
ATOM     49  H   LIG d   1       3.729  -0.094  -0.903  0.00  0.00     0.027 H 
ATOM     50  H   LIG d   1       5.302   0.371  -1.592  0.00  0.00     0.027 H 
ENDBRANCH  39  47
BRANCH  39  51
ATOM     51  C   LIG d   1       3.931  -2.117  -2.419  0.00  0.00    -0.021 C 
ATOM     52  H   LIG d   1       4.516  -2.779  -3.057  0.00  0.00     0.027 H 
ATOM     53  H   LIG d   1       4.328  -2.148  -1.404  0.00  0.00     0.027 H 
ATOM     54  H   LIG d   1       2.892  -2.445  -2.412  0.00  0.00     0.027 H 
ENDBRANCH  39  51
ENDBRANCH  36  39
ENDBRANCH  33  35
ENDBRANCH  32  33
BRANCH  32  55
ATOM     55  C   LIG d   1       7.467   2.192  -3.842  0.00  0.00    -0.028 C 
ATOM     56  H   LIG d   1       6.701   2.740  -4.389  0.00  0.00     0.026 H 
ATOM     57  H   LIG d   1       7.017   1.708  -2.975  0.00  0.00     0.026 H 
ATOM     58  H   LIG d   1       8.243   2.882  -3.512  0.00  0.00     0.026 H 
ENDBRANCH  32  55
BRANCH  32  59
ATOM     59  O   LIG d   1       7.794   1.448  -6.118  0.00  0.00    -0.381 OA
ATOM     60  H   LIG d   1       6.854   1.583  -6.299  0.00  0.00     0.211 HD
ENDBRANCH  32  59
ENDBRANCH   1  32
BRANCH   7  61
ATOM     61  C   LIG d   1       9.303   3.347  -5.494  0.00  0.00    -0.058 C 
ATOM     62  H   LIG d   1       8.719   4.101  -4.965  0.00  0.00     0.024 H 
ATOM     63  H   LIG d   1       9.965   3.837  -6.209  0.00  0.00     0.024 H 
ATOM     64  H   LIG d   1       8.631   2.673  -6.024  0.00  0.00     0.024 H 
ENDBRANCH   7  61
BRANCH   3  65
ATOM     65  O   LIG d   1       9.333   0.308  -6.845  0.00  0.00    -0.391 OA
ATOM     66  H   LIG d   1       9.282   1.039  -7.475  0.00  0.00     0.210 HD
ENDBRANCH   3  65
BRANCH   6  67
ATOM     67  C   LIG d   1      12.329   1.433  -3.963  0.00  0.00    -0.059 C 
ATOM     68  H   LIG d   1      11.800   0.483  -3.886  0.00  0.00     0.024 H 
ATOM     69  H   LIG d   1      13.345   1.257  -4.317  0.00  0.00     0.024 H 
ATOM     70  H   LIG d   1      12.363   1.911  -2.983  0.00  0.00     0.024 H 
ENDBRANCH   6  67
BRANCH  11  71
ATOM     71  C   LIG d   1      11.098   5.734  -4.788  0.00  0.00    -0.052 C 
ATOM     72  H   LIG d   1      11.709   6.462  -5.321  0.00  0.00     0.024 H 
ATOM     73  H   LIG d   1      10.432   5.234  -5.492  0.00  0.00     0.024 H 
ATOM     74  H   LIG d   1      10.505   6.243  -4.028  0.00  0.00     0.024 H 
ENDBRANCH  11  71
BRANCH  23  75
ATOM     75  C   LIG d   1      15.507   7.146  -6.337  0.00  0.00    -0.049 C 
ATOM     76  H   LIG d   1      16.580   6.957  -6.343  0.00  0.00     0.024 H 
ATOM     77  H   LIG d   1      15.006   6.424  -6.983  0.00  0.00     0.024 H 
ATOM     78  H   LIG d   1      15.314   8.155  -6.704  0.00  0.00     0.024 H 
ENDBRANCH  23  75
BRANCH  23  79
ATOM     79  C   LIG d   1      16.145   7.127  -3.923  0.00  0.00    -0.049 C 
ATOM     80  H   LIG d   1      15.942   6.517  -3.043  0.00  0.00     0.024 H 
ATOM     81  H   LIG d   1      17.059   6.780  -4.404  0.00  0.00     0.024 H 
ATOM     82  H   LIG d   1      16.266   8.169  -3.623  0.00  0.00     0.024 H 
ENDBRANCH  23  79
BRANCH  20  83
ATOM     83  O   LIG d   1      12.608   9.130  -2.898  0.00  0.00    -0.458 OA
BRANCH  83  84
ATOM     84  C   LIG d   1      11.204   9.376  -2.999  0.00  0.00     0.231 C 
ATOM     85  H   LIG d   1      10.702   8.475  -3.351  0.00  0.00     0.108 H 
ATOM     86  O   LIG d   1      10.971  10.443  -3.920  0.00  0.00    -0.331 OA
ATOM     87  C   LIG d   1       9.590  10.755  -4.114  0.00  0.00     0.114 C 
ATOM     88  C   LIG d   1       8.975  11.196  -2.784  0.00  0.00     0.112 C 
ATOM     89  H   LIG d   1       9.067   9.872  -4.482  0.00  0.00     0.065 H 
ATOM     90  C   LIG d   1       9.162  10.081  -1.750  0.00  0.00     0.115 C 
ATOM     91  H   LIG d   1       9.472  12.102  -2.436  0.00  0.00     0.065 H 
ATOM     92  C   LIG d   1      10.655   9.762  -1.623  0.00  0.00     0.145 C 
ATOM     93  H   LIG d   1       8.624   9.191  -2.073  0.00  0.00     0.065 H 
ATOM     94  H   LIG d   1      11.184  10.639  -1.251  0.00  0.00     0.068 H 
BRANCH  87  95
ATOM     95  C   LIG d   1       9.461  11.886  -5.136  0.00  0.00     0.073 C 
ATOM     96  H   LIG d   1      10.334  11.887  -5.789  0.00  0.00     0.058 H 
ATOM     97  H   LIG d   1       8.561  11.737  -5.733  0.00  0.00     0.058 H 
BRANCH  95  98
ATOM     98  O   LIG d   1       9.377  13.139  -4.452  0.00  0.00    -0.392 OA
ATOM     99  H   LIG d   1       8.730  13.751  -4.830  0.00  0.00     0.209 HD
ENDBRANCH  95  98
ENDBRANCH  87  95
BRANCH  88 100
ATOM    100  O   LIG d   1       7.582  11.454  -2.962  0.00  0.00    -0.387 OA
ATOM    101  H   LIG d   1       7.131  10.809  -3.526  0.00  0.00     0.210 HD
ENDBRANCH  88 100
BRANCH  90 102
ATOM    102  O   LIG d   1       8.656  10.512  -0.484  0.00  0.00    -0.386 OA
ATOM    103  H   LIG d   1       8.420   9.787   0.112  0.00  0.00     0.210 HD
ENDBRANCH  90 102
BRANCH  92 104
ATOM    104  O   LIG d   1      10.836   8.674  -0.713  0.00  0.00    -0.383 OA
ATOM    105  H   LIG d   1      11.221   7.884  -1.116  0.00  0.00     0.210 HD
ENDBRANCH  92 104
ENDBRANCH  83  84
ENDBRANCH  20  83
TORSDOF 24
ENDMDL
MODEL 4
REMARK VINA RESULT:      -6.6      3.577     10.709
REMARK  24 active torsions:
REMARK  status: ('A' for Active; 'I' for Inactive)
REMARK    1  A    between atoms: C_1  and  C_2 
REMARK    2  A    between atoms: C_2  and  O_4 
REMARK    3  A    between atoms: O_4  and  C_5 
REMARK    4  A    between atoms: C_5  and  C_6 
REMARK    5  A    between atoms: C_5  and  C_7 
REMARK    6  A    between atoms: C_5  and  C_8 
REMARK    7  A    between atoms: C_9  and  C_10 
REMARK    8  A    between atoms: C_10  and  C_12 
REMARK    9  A    between atoms: C_12  and  C_13 
REMARK   10  A    between atoms: C_12  and  C_14 
REMARK   11  A    between atoms: C_12  and  O_60 
REMARK   12  A    between atoms: C_16  and  O_59 
REMARK   13  A    between atoms: C_19  and  C_58 
REMARK   14  A    between atoms: C_20  and  C_57 
REMARK   15  A    between atoms: C_24  and  C_56 
REMARK   16  A    between atoms: C_33  and  O_39 
REMARK   17  A    between atoms: C_36  and  C_37 
REMARK   18  A    between atoms: C_36  and  C_38 
REMARK   19  A    between atoms: O_39  and  C_40 
REMARK   20  A    between atoms: C_42  and  O_55 
REMARK   21  A    between atoms: C_44  and  O_54 
REMARK   22  A    between atoms: C_46  and  O_53 
REMARK   23  A    between atoms: C_48  and  C_51 
REMARK   24  A    between atoms: C_51  and  O_52 
ROOT
ATOM      1  C   LIG d   1       3.052  -1.168 -11.533  0.00  0.00     0.027 C 
ATOM      2  H   LIG d   1       3.593  -0.343 -11.966  0.00  0.00     0.036 H 
ATOM      3  C   LIG d   1       1.557  -0.818 -11.317  0.00  0.00     0.062 C 
ATOM      4  H   LIG d   1       1.317   0.129 -11.795  0.00  0.00     0.060 H 
ATOM      5  C   LIG d   1       1.342  -0.714  -9.783  0.00  0.00    -0.020 C 
ATOM      6  C   LIG d   1       2.781  -0.456  -9.273  0.00  0.00    -0.019 C 
ATOM      7  C   LIG d   1       3.565  -1.484 -10.107  0.00  0.00    -0.011 C 
ATOM      8  C   LIG d   1       5.049  -1.314  -9.914  0.00  0.00     0.013 C 
ATOM      9  C   LIG d   1       5.353  -0.844  -8.505  0.00  0.00     0.141 C 
ATOM     10  O   LIG d   1       6.431  -0.307  -8.272  0.00  0.00    -0.297 OA
ATOM     11  C   LIG d   1       4.362  -1.025  -7.391  0.00  0.00     0.040 C 
ATOM     12  C   LIG d   1       2.951  -0.633  -7.785  0.00  0.00    -0.019 C 
ATOM     13  H   LIG d   1       2.264  -1.432  -7.452  0.00  0.00     0.032 H 
ATOM     14  C   LIG d   1       2.532   0.654  -7.066  0.00  0.00    -0.030 C 
ATOM     15  C   LIG d   1       2.658   0.446  -5.575  0.00  0.00    -0.083 C 
ATOM     16  C   LIG d   1       3.780  -0.063  -5.125  0.00  0.00    -0.052 C 
ATOM     17  C   LIG d   1       4.861  -0.377  -6.108  0.00  0.00     0.015 C 
ATOM     18  H   LIG d   1       5.279   0.583  -6.419  0.00  0.00     0.040 H 
ATOM     19  C   LIG d   1       5.999  -1.157  -5.533  0.00  0.00    -0.031 C 
ATOM     20  C   LIG d   1       5.985  -1.686  -4.313  0.00  0.00     0.164 C 
ATOM     21  C   LIG d   1       4.828  -1.509  -3.433  0.00  0.00     0.207 C 
ATOM     22  O   LIG d   1       4.574  -2.295  -2.546  0.00  0.00    -0.288 OA
ATOM     23  C   LIG d   1       3.964  -0.276  -3.641  0.00  0.00     0.052 C 
ATOM     24  H   LIG d   1       0.709   0.139  -9.545  0.00  0.00     0.030 H 
ATOM     25  H   LIG d   1       0.932  -1.624  -9.368  0.00  0.00     0.030 H 
ATOM     26  H   LIG d   1       5.569  -2.265 -10.114  0.00  0.00     0.035 H 
ATOM     27  H   LIG d   1       5.444  -0.585 -10.640  0.00  0.00     0.035 H 
ATOM     28  H   LIG d   1       3.195   1.479  -7.320  0.00  0.00     0.031 H 
ATOM     29  H   LIG d   1       1.505   0.908  -7.311  0.00  0.00     0.031 H 
ATOM     30  H   LIG d   1       1.854   0.750  -4.946  0.00  0.00     0.057 H 
ATOM     31  H   LIG d   1       6.880  -1.311  -6.142  0.00  0.00     0.062 H 
ENDROOT
BRANCH   1  32
ATOM     32  C   LIG d   1       3.179  -2.420 -12.407  0.00  0.00     0.130 C 
BRANCH  32  33
ATOM     33  C   LIG d   1       2.783  -2.088 -13.821  0.00  0.00     0.187 C 
ATOM     34  O   LIG d   1       1.850  -2.664 -14.341  0.00  0.00    -0.290 OA
BRANCH  33  35
ATOM     35  C   LIG d   1       3.521  -1.070 -14.569  0.00  0.00    -0.017 C 
ATOM     36  C   LIG d   1       3.967  -1.337 -15.798  0.00  0.00    -0.038 C 
ATOM     37  H   LIG d   1       3.783  -2.304 -16.240  0.00  0.00     0.061 H 
ATOM     38  H   LIG d   1       3.705  -0.102 -14.125  0.00  0.00     0.065 H 
BRANCH  36  39
ATOM     39  C   LIG d   1       4.728  -0.288 -16.567  0.00  0.00     0.126 C 
BRANCH  39  40
ATOM     40  O   LIG d   1       4.269   1.010 -16.185  0.00  0.00    -0.455 OA
BRANCH  40  41
ATOM     41  C   LIG d   1       4.056   1.896 -17.170  0.00  0.00     0.305 C 
ATOM     42  O   LIG d   1       4.986   2.488 -17.662  0.00  0.00    -0.251 OA
BRANCH  41  43
ATOM     43  C   LIG d   1       2.655   2.151 -17.664  0.00  0.00     0.033 C 
ATOM     44  H   LIG d   1       2.511   1.651 -18.622  0.00  0.00     0.034 H 
ATOM     45  H   LIG d   1       1.938   1.764 -16.940  0.00  0.00     0.034 H 
ATOM     46  H   LIG d   1       2.503   3.224 -17.787  0.00  0.00     0.034 H 
ENDBRANCH  41  43
ENDBRANCH  40  41
ENDBRANCH  39  40
BRANCH  39  47
ATOM     47  C   LIG d   1       4.498  -0.489 -18.067  0.00  0.00    -0.021 C 
ATOM     48  H   LIG d   1       5.034   0.281 -18.622  0.00  0.00     0.027 H 
ATOM     49  H   LIG d   1       4.866  -1.471 -18.362  0.00  0.00     0.027 H 
ATOM     50  H   LIG d   1       3.433  -0.419 -18.283  0.00  0.00     0.027 H 
ENDBRANCH  39  47
BRANCH  39  51
ATOM     51  C   LIG d   1       6.221  -0.412 -16.259  0.00  0.00    -0.021 C 
ATOM     52  H   LIG d   1       6.384  -0.283 -15.188  0.00  0.00     0.027 H 
ATOM     53  H   LIG d   1       6.574  -1.397 -16.563  0.00  0.00     0.027 H 
ATOM     54  H   LIG d   1       6.771   0.355 -16.804  0.00  0.00     0.027 H 
ENDBRANCH  39  51
ENDBRANCH  36  39
ENDBRANCH  33  35
ENDBRANCH  32  33
BRANCH  32  55
ATOM     55  C   LIG d   1       4.628  -2.913 -12.385  0.00  0.00    -0.028 C 
ATOM     56  H   LIG d   1       4.693  -3.871 -12.901  0.00  0.00     0.026 H 
ATOM     57  H   LIG d   1       5.266  -2.186 -12.887  0.00  0.00     0.026 H 
ATOM     58  H   LIG d   1       4.954  -3.033 -11.353  0.00  0.00     0.026 H 
ENDBRANCH  32  55
BRANCH  32  59
ATOM     59  O   LIG d   1       2.320  -3.443 -11.899  0.00  0.00    -0.381 OA
ATOM     60  H   LIG d   1       1.391  -3.181 -11.837  0.00  0.00     0.211 HD
ENDBRANCH  32  59
ENDBRANCH   1  32
BRANCH   7  61
ATOM     61  C   LIG d   1       3.134  -2.926  -9.820  0.00  0.00    -0.058 C 
ATOM     62  H   LIG d   1       2.641  -2.973  -8.849  0.00  0.00     0.024 H 
ATOM     63  H   LIG d   1       2.442  -3.259 -10.594  0.00  0.00     0.024 H 
ATOM     64  H   LIG d   1       4.011  -3.574  -9.814  0.00  0.00     0.024 H 
ENDBRANCH   7  61
BRANCH   3  65
ATOM     65  O   LIG d   1       0.732  -1.858 -11.859  0.00  0.00    -0.391 OA
ATOM     66  H   LIG d   1      -0.121  -1.549 -12.194  0.00  0.00     0.210 HD
ENDBRANCH   3  65
BRANCH   6  67
ATOM     67  C   LIG d   1       3.172   0.966  -9.709  0.00  0.00    -0.059 C 
ATOM     68  H   LIG d   1       2.277   1.516 -10.000  0.00  0.00     0.024 H 
ATOM     69  H   LIG d   1       3.662   1.478  -8.881  0.00  0.00     0.024 H 
ATOM     70  H   LIG d   1       3.856   0.910 -10.557  0.00  0.00     0.024 H 
ENDBRANCH   6  67
BRANCH  11  71
ATOM     71  C   LIG d   1       4.341  -2.519  -7.029  0.00  0.00    -0.052 C 
ATOM     72  H   LIG d   1       4.186  -3.109  -7.932  0.00  0.00     0.024 H 
ATOM     73  H   LIG d   1       5.291  -2.796  -6.573  0.00  0.00     0.024 H 
ATOM     74  H   LIG d   1       3.530  -2.712  -6.325  0.00  0.00     0.024 H 
ENDBRANCH  11  71
BRANCH  23  75
ATOM     75  C   LIG d   1       2.624  -0.496  -2.931  0.00  0.00    -0.049 C 
ATOM     76  H   LIG d   1       2.804  -0.797  -1.899  0.00  0.00     0.024 H 
ATOM     77  H   LIG d   1       2.050   0.431  -2.945  0.00  0.00     0.024 H 
ATOM     78  H   LIG d   1       2.064  -1.278  -3.445  0.00  0.00     0.024 H 
ENDBRANCH  23  75
BRANCH  23  79
ATOM     79  C   LIG d   1       4.664   0.942  -3.019  0.00  0.00    -0.049 C 
ATOM     80  H   LIG d   1       4.600   1.787  -3.704  0.00  0.00     0.024 H 
ATOM     81  H   LIG d   1       4.178   1.199  -2.078  0.00  0.00     0.024 H 
ATOM     82  H   LIG d   1       5.712   0.703  -2.833  0.00  0.00     0.024 H 
ENDBRANCH  23  79
BRANCH  20  83
ATOM     83  O   LIG d   1       7.062  -2.389  -3.873  0.00  0.00    -0.458 OA
BRANCH  83  84
ATOM     84  C   LIG d   1       7.479  -3.502  -4.666  0.00  0.00     0.231 C 
ATOM     85  H   LIG d   1       7.809  -3.149  -5.642  0.00  0.00     0.108 H 
ATOM     86  O   LIG d   1       6.384  -4.407  -4.831  0.00  0.00    -0.331 OA
ATOM     87  C   LIG d   1       6.688  -5.549  -5.634  0.00  0.00     0.114 C 
ATOM     88  C   LIG d   1       7.811  -6.352  -4.973  0.00  0.00     0.112 C 
ATOM     89  H   LIG d   1       7.008  -5.222  -6.623  0.00  0.00     0.065 H 
ATOM     90  C   LIG d   1       9.035  -5.449  -4.791  0.00  0.00     0.115 C 
ATOM     91  H   LIG d   1       7.477  -6.713  -4.000  0.00  0.00     0.065 H 
ATOM     92  C   LIG d   1       8.634  -4.223  -3.965  0.00  0.00     0.145 C 
ATOM     93  H   LIG d   1       9.399  -5.129  -5.767  0.00  0.00     0.065 H 
ATOM     94  H   LIG d   1       8.316  -4.541  -2.972  0.00  0.00     0.068 H 
BRANCH  87  95
ATOM     95  C   LIG d   1       5.442  -6.427  -5.764  0.00  0.00     0.073 C 
ATOM     96  H   LIG d   1       5.245  -6.624  -6.818  0.00  0.00     0.058 H 
ATOM     97  H   LIG d   1       5.606  -7.370  -5.242  0.00  0.00     0.058 H 
BRANCH  95  98
ATOM     98  O   LIG d   1       4.321  -5.753  -5.188  0.00  0.00    -0.392 OA
ATOM     99  H   LIG d   1       3.816  -6.291  -4.564  0.00  0.00     0.209 HD
ENDBRANCH  95  98
ENDBRANCH  87  95
BRANCH  88 100
ATOM    100  O   LIG d   1       8.157  -7.463  -5.801  0.00  0.00    -0.387 OA
ATOM    101  H   LIG d   1       9.088  -7.720  -5.748  0.00  0.00     0.210 HD
ENDBRANCH  88 100
BRANCH  90 102
ATOM    102  O   LIG d   1      10.065  -6.168  -4.109  0.00  0.00    -0.386 OA
ATOM    103  H   LIG d   1      10.278  -7.023  -4.510  0.00  0.00     0.210 HD
ENDBRANCH  90 102
BRANCH  92 104
ATOM    104  O   LIG d   1       9.750  -3.337  -3.849  0.00  0.00    -0.383 OA
ATOM    105  H   LIG d   1      10.510  -3.589  -4.391  0.00  0.00     0.210 HD
ENDBRANCH  92 104
ENDBRANCH  83  84
ENDBRANCH  20  83
TORSDOF 24
ENDMDL
MODEL 5
REMARK VINA RESULT:      -6.6      4.222      8.634
REMARK  24 active torsions:
REMARK  status: ('A' for Active; 'I' for Inactive)
REMARK    1  A    between atoms: C_1  and  C_2 
REMARK    2  A    between atoms: C_2  and  O_4 
REMARK    3  A    between atoms: O_4  and  C_5 
REMARK    4  A    between atoms: C_5  and  C_6 
REMARK    5  A    between atoms: C_5  and  C_7 
REMARK    6  A    between atoms: C_5  and  C_8 
REMARK    7  A    between atoms: C_9  and  C_10 
REMARK    8  A    between atoms: C_10  and  C_12 
REMARK    9  A    between atoms: C_12  and  C_13 
REMARK   10  A    between atoms: C_12  and  C_14 
REMARK   11  A    between atoms: C_12  and  O_60 
REMARK   12  A    between atoms: C_16  and  O_59 
REMARK   13  A    between atoms: C_19  and  C_58 
REMARK   14  A    between atoms: C_20  and  C_57 
REMARK   15  A    between atoms: C_24  and  C_56 
REMARK   16  A    between atoms: C_33  and  O_39 
REMARK   17  A    between atoms: C_36  and  C_37 
REMARK   18  A    between atoms: C_36  and  C_38 
REMARK   19  A    between atoms: O_39  and  C_40 
REMARK   20  A    between atoms: C_42  and  O_55 
REMARK   21  A    between atoms: C_44  and  O_54 
REMARK   22  A    between atoms: C_46  and  O_53 
REMARK   23  A    between atoms: C_48  and  C_51 
REMARK   24  A    between atoms: C_51  and  O_52 
ROOT
ATOM      1  C   LIG d   1       4.972   0.032  -4.438  0.00  0.00     0.027 C 
ATOM      2  H   LIG d   1       5.223   0.530  -5.360  0.00  0.00     0.036 H 
ATOM      3  C   LIG d   1       6.079   0.223  -3.369  0.00  0.00     0.062 C 
ATOM      4  H   LIG d   1       6.810   0.955  -3.706  0.00  0.00     0.060 H 
ATOM      5  C   LIG d   1       6.756  -1.161  -3.178  0.00  0.00    -0.020 C 
ATOM      6  C   LIG d   1       6.395  -1.881  -4.501  0.00  0.00    -0.019 C 
ATOM      7  C   LIG d   1       4.909  -1.503  -4.632  0.00  0.00    -0.011 C 
ATOM      8  C   LIG d   1       4.354  -1.953  -5.957  0.00  0.00     0.013 C 
ATOM      9  C   LIG d   1       5.022  -3.238  -6.407  0.00  0.00     0.141 C 
ATOM     10  O   LIG d   1       4.980  -3.552  -7.592  0.00  0.00    -0.297 OA
ATOM     11  C   LIG d   1       5.731  -4.131  -5.430  0.00  0.00     0.040 C 
ATOM     12  C   LIG d   1       6.636  -3.370  -4.480  0.00  0.00    -0.019 C 
ATOM     13  H   LIG d   1       6.448  -3.736  -3.455  0.00  0.00     0.032 H 
ATOM     14  C   LIG d   1       8.108  -3.653  -4.801  0.00  0.00    -0.030 C 
ATOM     15  C   LIG d   1       8.348  -5.143  -4.727  0.00  0.00    -0.083 C 
ATOM     16  C   LIG d   1       7.513  -5.925  -5.368  0.00  0.00    -0.052 C 
ATOM     17  C   LIG d   1       6.403  -5.295  -6.144  0.00  0.00     0.015 C 
ATOM     18  H   LIG d   1       6.863  -4.855  -7.032  0.00  0.00     0.040 H 
ATOM     19  C   LIG d   1       5.382  -6.264  -6.645  0.00  0.00    -0.031 C 
ATOM     20  C   LIG d   1       5.350  -7.546  -6.291  0.00  0.00     0.164 C 
ATOM     21  C   LIG d   1       6.356  -8.097  -5.381  0.00  0.00     0.207 C 
ATOM     22  O   LIG d   1       6.135  -9.074  -4.700  0.00  0.00    -0.288 OA
ATOM     23  C   LIG d   1       7.717  -7.422  -5.341  0.00  0.00     0.052 C 
ATOM     24  H   LIG d   1       7.836  -1.050  -3.104  0.00  0.00     0.030 H 
ATOM     25  H   LIG d   1       6.365  -1.690  -2.320  0.00  0.00     0.030 H 
ATOM     26  H   LIG d   1       3.265  -2.101  -5.882  0.00  0.00     0.035 H 
ATOM     27  H   LIG d   1       4.510  -1.170  -6.719  0.00  0.00     0.035 H 
ATOM     28  H   LIG d   1       8.354  -3.351  -5.818  0.00  0.00     0.031 H 
ATOM     29  H   LIG d   1       8.755  -3.146  -4.091  0.00  0.00     0.031 H 
ATOM     30  H   LIG d   1       9.197  -5.498  -4.193  0.00  0.00     0.057 H 
ATOM     31  H   LIG d   1       4.620  -5.907  -7.326  0.00  0.00     0.062 H 
ENDROOT
BRANCH   1  32
ATOM     32  C   LIG d   1       3.628   0.531  -3.899  0.00  0.00     0.130 C 
BRANCH  32  33
ATOM     33  C   LIG d   1       2.587   0.438  -4.984  0.00  0.00     0.187 C 
ATOM     34  O   LIG d   1       1.494  -0.030  -4.738  0.00  0.00    -0.290 OA
BRANCH  33  35
ATOM     35  C   LIG d   1       2.891   0.913  -6.333  0.00  0.00    -0.017 C 
ATOM     36  C   LIG d   1       2.609   0.148  -7.390  0.00  0.00    -0.038 C 
ATOM     37  H   LIG d   1       2.155  -0.821  -7.248  0.00  0.00     0.061 H 
ATOM     38  H   LIG d   1       3.345   1.883  -6.475  0.00  0.00     0.065 H 
BRANCH  36  39
ATOM     39  C   LIG d   1       2.923   0.637  -8.780  0.00  0.00     0.126 C 
BRANCH  39  40
ATOM     40  O   LIG d   1       1.862   0.270  -9.666  0.00  0.00    -0.455 OA
BRANCH  40  41
ATOM     41  C   LIG d   1       1.989  -0.897 -10.316  0.00  0.00     0.305 C 
ATOM     42  O   LIG d   1       1.732  -1.934  -9.753  0.00  0.00    -0.251 OA
BRANCH  41  43
ATOM     43  C   LIG d   1       2.450  -0.914 -11.751  0.00  0.00     0.033 C 
ATOM     44  H   LIG d   1       2.035  -1.786 -12.256  0.00  0.00     0.034 H 
ATOM     45  H   LIG d   1       2.111  -0.007 -12.253  0.00  0.00     0.034 H 
ATOM     46  H   LIG d   1       3.539  -0.959 -11.782  0.00  0.00     0.034 H 
ENDBRANCH  41  43
ENDBRANCH  40  41
ENDBRANCH  39  40
BRANCH  39  47
ATOM     47  C   LIG d   1       4.231   0.005  -9.260  0.00  0.00    -0.021 C 
ATOM     48  H   LIG d   1       4.306   0.107 -10.343  0.00  0.00     0.027 H 
ATOM     49  H   LIG d   1       5.072   0.510  -8.788  0.00  0.00     0.027 H 
ATOM     50  H   LIG d   1       4.243  -1.051  -8.993  0.00  0.00     0.027 H 
ENDBRANCH  39  47
BRANCH  39  51
ATOM     51  C   LIG d   1       3.068   2.160  -8.763  0.00  0.00    -0.021 C 
ATOM     52  H   LIG d   1       3.908   2.439  -8.127  0.00  0.00     0.027 H 
ATOM     53  H   LIG d   1       3.247   2.519  -9.777  0.00  0.00     0.027 H 
ATOM     54  H   LIG d   1       2.154   2.609  -8.376  0.00  0.00     0.027 H 
ENDBRANCH  39  51
ENDBRANCH  36  39
ENDBRANCH  33  35
ENDBRANCH  32  33
BRANCH  32  55
ATOM     55  C   LIG d   1       3.203  -0.333  -2.709  0.00  0.00    -0.028 C 
ATOM     56  H   LIG d   1       2.669   0.283  -1.986  0.00  0.00     0.026 H 
ATOM     57  H   LIG d   1       2.550  -1.133  -3.056  0.00  0.00     0.026 H 
ATOM     58  H   LIG d   1       4.087  -0.762  -2.239  0.00  0.00     0.026 H 
ENDBRANCH  32  55
BRANCH  32  59
ATOM     59  O   LIG d   1       3.758   1.890  -3.478  0.00  0.00    -0.381 OA
ATOM     60  H   LIG d   1       4.118   1.992  -2.587  0.00  0.00     0.211 HD
ENDBRANCH  32  59
ENDBRANCH   1  32
BRANCH   7  61
ATOM     61  C   LIG d   1       4.061  -2.034  -3.471  0.00  0.00    -0.058 C 
ATOM     62  H   LIG d   1       4.537  -1.775  -2.525  0.00  0.00     0.024 H 
ATOM     63  H   LIG d   1       3.068  -1.586  -3.512  0.00  0.00     0.024 H 
ATOM     64  H   LIG d   1       3.974  -3.117  -3.550  0.00  0.00     0.024 H 
ENDBRANCH   7  61
BRANCH   3  65
ATOM     65  O   LIG d   1       5.492   0.656  -2.134  0.00  0.00    -0.391 OA
ATOM     66  H   LIG d   1       5.890   1.458  -1.769  0.00  0.00     0.210 HD
ENDBRANCH   3  65
BRANCH   6  67
ATOM     67  C   LIG d   1       7.199  -1.205  -5.623  0.00  0.00    -0.059 C 
ATOM     68  H   LIG d   1       7.922  -0.517  -5.187  0.00  0.00     0.024 H 
ATOM     69  H   LIG d   1       7.723  -1.965  -6.203  0.00  0.00     0.024 H 
ATOM     70  H   LIG d   1       6.520  -0.655  -6.275  0.00  0.00     0.024 H 
ENDBRANCH   6  67
BRANCH  11  71
ATOM     71  C   LIG d   1       4.658  -4.831  -4.580  0.00  0.00    -0.052 C 
ATOM     72  H   LIG d   1       3.684  -4.714  -5.057  0.00  0.00     0.024 H 
ATOM     73  H   LIG d   1       4.895  -5.892  -4.496  0.00  0.00     0.024 H 
ATOM     74  H   LIG d   1       4.632  -4.384  -3.586  0.00  0.00     0.024 H 
ENDBRANCH  11  71
BRANCH  23  75
ATOM     75  C   LIG d   1       8.444  -7.869  -4.068  0.00  0.00    -0.049 C 
ATOM     76  H   LIG d   1       7.946  -7.447  -3.196  0.00  0.00     0.024 H 
ATOM     77  H   LIG d   1       8.429  -8.958  -4.005  0.00  0.00     0.024 H 
ATOM     78  H   LIG d   1       9.478  -7.522  -4.099  0.00  0.00     0.024 H 
ENDBRANCH  23  75
BRANCH  23  79
ATOM     79  C   LIG d   1       8.536  -7.863  -6.564  0.00  0.00    -0.049 C 
ATOM     80  H   LIG d   1       8.253  -7.259  -7.427  0.00  0.00     0.024 H 
ATOM     81  H   LIG d   1       9.597  -7.728  -6.359  0.00  0.00     0.024 H 
ATOM     82  H   LIG d   1       8.337  -8.914  -6.774  0.00  0.00     0.024 H 
ENDBRANCH  23  79
BRANCH  20  83
ATOM     83  O   LIG d   1       4.380  -8.357  -6.789  0.00  0.00    -0.458 OA
BRANCH  83  84
ATOM     84  C   LIG d   1       4.270  -8.440  -8.211  0.00  0.00     0.231 C 
ATOM     85  H   LIG d   1       5.140  -7.970  -8.671  0.00  0.00     0.108 H 
ATOM     86  O   LIG d   1       3.083  -7.768  -8.639  0.00  0.00    -0.331 OA
ATOM     87  C   LIG d   1       2.890  -7.770 -10.054  0.00  0.00     0.114 C 
ATOM     88  C   LIG d   1       2.767  -9.213 -10.550  0.00  0.00     0.112 C 
ATOM     89  H   LIG d   1       3.741  -7.291 -10.538  0.00  0.00     0.065 H 
ATOM     90  C   LIG d   1       4.025  -9.990 -10.151  0.00  0.00     0.115 C 
ATOM     91  H   LIG d   1       1.892  -9.680 -10.097  0.00  0.00     0.065 H 
ATOM     92  C   LIG d   1       4.202  -9.911  -8.632  0.00  0.00     0.145 C 
ATOM     93  H   LIG d   1       4.894  -9.554 -10.644  0.00  0.00     0.065 H 
ATOM     94  H   LIG d   1       3.356 -10.392  -8.141  0.00  0.00     0.068 H 
BRANCH  87  95
ATOM     95  C   LIG d   1       1.611  -7.003 -10.396  0.00  0.00     0.073 C 
ATOM     96  H   LIG d   1       1.722  -6.527 -11.370  0.00  0.00     0.058 H 
ATOM     97  H   LIG d   1       0.768  -7.694 -10.423  0.00  0.00     0.058 H 
BRANCH  95  98
ATOM     98  O   LIG d   1       1.374  -6.004  -9.401  0.00  0.00    -0.392 OA
ATOM     99  H   LIG d   1       1.963  -5.239  -9.463  0.00  0.00     0.209 HD
ENDBRANCH  95  98
ENDBRANCH  87  95
BRANCH  88 100
ATOM    100  O   LIG d   1       2.630  -9.221 -11.972  0.00  0.00    -0.387 OA
ATOM    101  H   LIG d   1       3.407  -9.557 -12.440  0.00  0.00     0.210 HD
ENDBRANCH  88 100
BRANCH  90 102
ATOM    102  O   LIG d   1       3.889 -11.358 -10.546  0.00  0.00    -0.386 OA
ATOM    103  H   LIG d   1       4.177 -11.991  -9.873  0.00  0.00     0.210 HD
ENDBRANCH  90 102
BRANCH  92 104
ATOM    104  O   LIG d   1       5.412 -10.572  -8.256  0.00  0.00    -0.383 OA
ATOM    105  H   LIG d   1       6.051 -10.663  -8.976  0.00  0.00     0.210 HD
ENDBRANCH  92 104
ENDBRANCH  83  84
ENDBRANCH  20  83
TORSDOF 24
ENDMDL
MODEL 6
REMARK VINA RESULT:      -6.6      2.261      3.966
REMARK  24 active torsions:
REMARK  status: ('A' for Active; 'I' for Inactive)
REMARK    1  A    between atoms: C_1  and  C_2 
REMARK    2  A    between atoms: C_2  and  O_4 
REMARK    3  A    between atoms: O_4  and  C_5 
REMARK    4  A    between atoms: C_5  and  C_6 
REMARK    5  A    between atoms: C_5  and  C_7 
REMARK    6  A    between atoms: C_5  and  C_8 
REMARK    7  A    between atoms: C_9  and  C_10 
REMARK    8  A    between atoms: C_10  and  C_12 
REMARK    9  A    between atoms: C_12  and  C_13 
REMARK   10  A    between atoms: C_12  and  C_14 
REMARK   11  A    between atoms: C_12  and  O_60 
REMARK   12  A    between atoms: C_16  and  O_59 
REMARK   13  A    between atoms: C_19  and  C_58 
REMARK   14  A    between atoms: C_20  and  C_57 
REMARK   15  A    between atoms: C_24  and  C_56 
REMARK   16  A    between atoms: C_33  and  O_39 
REMARK   17  A    between atoms: C_36  and  C_37 
REMARK   18  A    between atoms: C_36  and  C_38 
REMARK   19  A    between atoms: O_39  and  C_40 
REMARK   20  A    between atoms: C_42  and  O_55 
REMARK   21  A    between atoms: C_44  and  O_54 
REMARK   22  A    between atoms: C_46  and  O_53 
REMARK   23  A    between atoms: C_48  and  C_51 
REMARK   24  A    between atoms: C_51  and  O_52 
ROOT
ATOM      1  C   LIG d   1       6.933   1.056  -7.319  0.00  0.00     0.027 C 
ATOM      2  H   LIG d   1       6.342   1.819  -6.840  0.00  0.00     0.036 H 
ATOM      3  C   LIG d   1       7.742   1.628  -8.512  0.00  0.00     0.062 C 
ATOM      4  H   LIG d   1       7.680   2.714  -8.525  0.00  0.00     0.060 H 
ATOM      5  C   LIG d   1       7.109   1.040  -9.802  0.00  0.00    -0.020 C 
ATOM      6  C   LIG d   1       5.692   0.648  -9.315  0.00  0.00    -0.019 C 
ATOM      7  C   LIG d   1       6.030  -0.020  -7.971  0.00  0.00    -0.011 C 
ATOM      8  C   LIG d   1       4.776  -0.346  -7.203  0.00  0.00     0.013 C 
ATOM      9  C   LIG d   1       3.646  -0.699  -8.150  0.00  0.00     0.141 C 
ATOM     10  O   LIG d   1       2.487  -0.631  -7.753  0.00  0.00    -0.297 OA
ATOM     11  C   LIG d   1       3.919  -1.130  -9.563  0.00  0.00     0.040 C 
ATOM     12  C   LIG d   1       4.940  -0.253 -10.262  0.00  0.00    -0.019 C 
ATOM     13  H   LIG d   1       5.671  -0.910 -10.768  0.00  0.00     0.032 H 
ATOM     14  C   LIG d   1       4.266   0.595 -11.347  0.00  0.00    -0.030 C 
ATOM     15  C   LIG d   1       3.559  -0.323 -12.317  0.00  0.00    -0.083 C 
ATOM     16  C   LIG d   1       2.779  -1.251 -11.818  0.00  0.00    -0.052 C 
ATOM     17  C   LIG d   1       2.621  -1.323 -10.334  0.00  0.00     0.015 C 
ATOM     18  H   LIG d   1       1.995  -0.473 -10.052  0.00  0.00     0.040 H 
ATOM     19  C   LIG d   1       1.902  -2.542  -9.855  0.00  0.00    -0.031 C 
ATOM     20  C   LIG d   1       1.585  -3.565 -10.644  0.00  0.00     0.164 C 
ATOM     21  C   LIG d   1       1.915  -3.541 -12.071  0.00  0.00     0.207 C 
ATOM     22  O   LIG d   1       2.059  -4.560 -12.710  0.00  0.00    -0.288 OA
ATOM     23  C   LIG d   1       2.036  -2.184 -12.744  0.00  0.00     0.052 C 
ATOM     24  H   LIG d   1       7.034   1.805 -10.573  0.00  0.00     0.030 H 
ATOM     25  H   LIG d   1       7.654   0.180 -10.166  0.00  0.00     0.030 H 
ATOM     26  H   LIG d   1       4.962  -1.183  -6.511  0.00  0.00     0.035 H 
ATOM     27  H   LIG d   1       4.480   0.514  -6.578  0.00  0.00     0.035 H 
ATOM     28  H   LIG d   1       3.500   1.241 -10.921  0.00  0.00     0.031 H 
ATOM     29  H   LIG d   1       5.004   1.186 -11.880  0.00  0.00     0.031 H 
ATOM     30  H   LIG d   1       3.691  -0.163 -13.362  0.00  0.00     0.057 H 
ATOM     31  H   LIG d   1       1.630  -2.605  -8.810  0.00  0.00     0.062 H 
ENDROOT
BRANCH   1  32
ATOM     32  C   LIG d   1       7.876   0.386  -6.316  0.00  0.00     0.130 C 
BRANCH  32  33
ATOM     33  C   LIG d   1       7.701   1.022  -4.961  0.00  0.00     0.187 C 
ATOM     34  O   LIG d   1       8.279   2.056  -4.697  0.00  0.00    -0.290 OA
BRANCH  33  35
ATOM     35  C   LIG d   1       6.835   0.394  -3.964  0.00  0.00    -0.017 C 
ATOM     36  C   LIG d   1       5.554   0.756  -3.870  0.00  0.00    -0.038 C 
ATOM     37  H   LIG d   1       5.157   1.513  -4.530  0.00  0.00     0.061 H 
ATOM     38  H   LIG d   1       7.233  -0.363  -3.304  0.00  0.00     0.065 H 
BRANCH  36  39
ATOM     39  C   LIG d   1       4.662   0.109  -2.843  0.00  0.00     0.126 C 
BRANCH  39  40
ATOM     40  O   LIG d   1       5.143  -1.206  -2.554  0.00  0.00    -0.455 OA
BRANCH  40  41
ATOM     41  C   LIG d   1       4.410  -2.235  -3.005  0.00  0.00     0.305 C 
ATOM     42  O   LIG d   1       3.543  -2.710  -2.312  0.00  0.00    -0.251 OA
BRANCH  41  43
ATOM     43  C   LIG d   1       4.668  -2.799  -4.379  0.00  0.00     0.033 C 
ATOM     44  H   LIG d   1       3.727  -2.875  -4.924  0.00  0.00     0.034 H 
ATOM     45  H   LIG d   1       5.350  -2.141  -4.920  0.00  0.00     0.034 H 
ATOM     46  H   LIG d   1       5.117  -3.789  -4.287  0.00  0.00     0.034 H 
ENDBRANCH  41  43
ENDBRANCH  40  41
ENDBRANCH  39  40
BRANCH  39  47
ATOM     47  C   LIG d   1       3.235   0.021  -3.388  0.00  0.00    -0.021 C 
ATOM     48  H   LIG d   1       3.264  -0.309  -4.427  0.00  0.00     0.027 H 
ATOM     49  H   LIG d   1       2.663  -0.692  -2.796  0.00  0.00     0.027 H 
ATOM     50  H   LIG d   1       2.764   1.002  -3.332  0.00  0.00     0.027 H 
ENDBRANCH  39  47
BRANCH  39  51
ATOM     51  C   LIG d   1       4.668   0.945  -1.562  0.00  0.00    -0.021 C 
ATOM     52  H   LIG d   1       5.558   0.711  -0.978  0.00  0.00     0.027 H 
ATOM     53  H   LIG d   1       4.673   2.005  -1.820  0.00  0.00     0.027 H 
ATOM     54  H   LIG d   1       3.779   0.719  -0.974  0.00  0.00     0.027 H 
ENDBRANCH  39  51
ENDBRANCH  36  39
ENDBRANCH  33  35
ENDBRANCH  32  33
BRANCH  32  55
ATOM     55  C   LIG d   1       7.549  -1.106  -6.225  0.00  0.00    -0.028 C 
ATOM     56  H   LIG d   1       7.863  -1.602  -7.143  0.00  0.00     0.026 H 
ATOM     57  H   LIG d   1       8.076  -1.543  -5.378  0.00  0.00     0.026 H 
ATOM     58  H   LIG d   1       6.475  -1.234  -6.091  0.00  0.00     0.026 H 
ENDBRANCH  32  55
BRANCH  32  59
ATOM     59  O   LIG d   1       9.228   0.552  -6.750  0.00  0.00    -0.381 OA
ATOM     60  H   LIG d   1       9.452   1.459  -6.997  0.00  0.00     0.211 HD
ENDBRANCH  32  59
ENDBRANCH   1  32
BRANCH   7  61
ATOM     61  C   LIG d   1       6.913  -1.260  -8.135  0.00  0.00    -0.058 C 
ATOM     62  H   LIG d   1       6.285  -2.136  -8.299  0.00  0.00     0.024 H 
ATOM     63  H   LIG d   1       7.576  -1.124  -8.990  0.00  0.00     0.024 H 
ATOM     64  H   LIG d   1       7.510  -1.404  -7.234  0.00  0.00     0.024 H 
ENDBRANCH   7  61
BRANCH   3  65
ATOM     65  O   LIG d   1       9.113   1.221  -8.409  0.00  0.00    -0.391 OA
ATOM     66  H   LIG d   1       9.546   1.077  -9.261  0.00  0.00     0.210 HD
ENDBRANCH   3  65
BRANCH   6  67
ATOM     67  C   LIG d   1       4.919   1.953  -9.062  0.00  0.00    -0.059 C 
ATOM     68  H   LIG d   1       4.809   2.107  -7.989  0.00  0.00     0.024 H 
ATOM     69  H   LIG d   1       5.468   2.790  -9.495  0.00  0.00     0.024 H 
ATOM     70  H   LIG d   1       3.934   1.887  -9.524  0.00  0.00     0.024 H 
ENDBRANCH   6  67
BRANCH  11  71
ATOM     71  C   LIG d   1       4.495  -2.554  -9.509  0.00  0.00    -0.052 C 
ATOM     72  H   LIG d   1       4.915  -2.813 -10.481  0.00  0.00     0.024 H 
ATOM     73  H   LIG d   1       5.276  -2.601  -8.751  0.00  0.00     0.024 H 
ATOM     74  H   LIG d   1       3.701  -3.258  -9.257  0.00  0.00     0.024 H 
ENDBRANCH  11  71
BRANCH  23  75
ATOM     75  C   LIG d   1       2.775  -2.366 -14.074  0.00  0.00    -0.049 C 
ATOM     76  H   LIG d   1       3.644  -1.708 -14.101  0.00  0.00     0.024 H 
ATOM     77  H   LIG d   1       3.100  -3.403 -14.170  0.00  0.00     0.024 H 
ATOM     78  H   LIG d   1       2.106  -2.118 -14.899  0.00  0.00     0.024 H 
ENDBRANCH  23  75
BRANCH  23  79
ATOM     79  C   LIG d   1       0.630  -1.634 -13.028  0.00  0.00    -0.049 C 
ATOM     80  H   LIG d   1       0.205  -1.231 -12.108  0.00  0.00     0.024 H 
ATOM     81  H   LIG d   1       0.692  -0.844 -13.775  0.00  0.00     0.024 H 
ATOM     82  H   LIG d   1      -0.007  -2.437 -13.401  0.00  0.00     0.024 H 
ENDBRANCH  23  79
BRANCH  20  83
ATOM     83  O   LIG d   1       0.937  -4.640 -10.123  0.00  0.00    -0.458 OA
BRANCH  83  84
ATOM     84  C   LIG d   1      -0.237  -5.084 -10.807  0.00  0.00     0.231 C 
ATOM     85  H   LIG d   1      -0.273  -4.631 -11.798  0.00  0.00     0.108 H 
ATOM     86  O   LIG d   1      -1.396  -4.697 -10.064  0.00  0.00    -0.331 OA
ATOM     87  C   LIG d   1      -2.632  -5.072 -10.676  0.00  0.00     0.114 C 
ATOM     88  C   LIG d   1      -2.694  -6.596 -10.806  0.00  0.00     0.112 C 
ATOM     89  H   LIG d   1      -2.699  -4.619 -11.665  0.00  0.00     0.065 H 
ATOM     90  C   LIG d   1      -1.492  -7.081 -11.621  0.00  0.00     0.115 C 
ATOM     91  H   LIG d   1      -2.668  -7.048  -9.814  0.00  0.00     0.065 H 
ATOM     92  C   LIG d   1      -0.203  -6.608 -10.941  0.00  0.00     0.145 C 
ATOM     93  H   LIG d   1      -1.545  -6.669 -12.629  0.00  0.00     0.065 H 
ATOM     94  H   LIG d   1      -0.127  -7.060  -9.952  0.00  0.00     0.068 H 
BRANCH  87  95
ATOM     95  C   LIG d   1      -3.796  -4.585  -9.812  0.00  0.00     0.073 C 
ATOM     96  H   LIG d   1      -3.590  -3.575  -9.458  0.00  0.00     0.058 H 
ATOM     97  H   LIG d   1      -4.712  -4.583 -10.404  0.00  0.00     0.058 H 
BRANCH  95  98
ATOM     98  O   LIG d   1      -3.957  -5.458  -8.692  0.00  0.00    -0.392 OA
ATOM     99  H   LIG d   1      -3.972  -6.397  -8.923  0.00  0.00     0.209 HD
ENDBRANCH  95  98
ENDBRANCH  87  95
BRANCH  88 100
ATOM    100  O   LIG d   1      -3.903  -6.970 -11.468  0.00  0.00    -0.387 OA
ATOM    101  H   LIG d   1      -4.162  -7.891 -11.324  0.00  0.00     0.210 HD
ENDBRANCH  88 100
BRANCH  90 102
ATOM    102  O   LIG d   1      -1.502  -8.509 -11.687  0.00  0.00    -0.386 OA
ATOM    103  H   LIG d   1      -2.311  -8.912 -11.341  0.00  0.00     0.210 HD
ENDBRANCH  90 102
BRANCH  92 104
ATOM    104  O   LIG d   1       0.924  -6.993 -11.731  0.00  0.00    -0.383 OA
ATOM    105  H   LIG d   1       0.738  -7.701 -12.364  0.00  0.00     0.210 HD
ENDBRANCH  92 104
ENDBRANCH  83  84
ENDBRANCH  20  83
TORSDOF 24
ENDMDL
MODEL 7
REMARK VINA RESULT:      -6.5      7.227     13.185
REMARK  24 active torsions:
REMARK  status: ('A' for Active; 'I' for Inactive)
REMARK    1  A    between atoms: C_1  and  C_2 
REMARK    2  A    between atoms: C_2  and  O_4 
REMARK    3  A    between atoms: O_4  and  C_5 
REMARK    4  A    between atoms: C_5  and  C_6 
REMARK    5  A    between atoms: C_5  and  C_7 
REMARK    6  A    between atoms: C_5  and  C_8 
REMARK    7  A    between atoms: C_9  and  C_10 
REMARK    8  A    between atoms: C_10  and  C_12 
REMARK    9  A    between atoms: C_12  and  C_13 
REMARK   10  A    between atoms: C_12  and  C_14 
REMARK   11  A    between atoms: C_12  and  O_60 
REMARK   12  A    between atoms: C_16  and  O_59 
REMARK   13  A    between atoms: C_19  and  C_58 
REMARK   14  A    between atoms: C_20  and  C_57 
REMARK   15  A    between atoms: C_24  and  C_56 
REMARK   16  A    between atoms: C_33  and  O_39 
REMARK   17  A    between atoms: C_36  and  C_37 
REMARK   18  A    between atoms: C_36  and  C_38 
REMARK   19  A    between atoms: O_39  and  C_40 
REMARK   20  A    between atoms: C_42  and  O_55 
REMARK   21  A    between atoms: C_44  and  O_54 
REMARK   22  A    between atoms: C_46  and  O_53 
REMARK   23  A    between atoms: C_48  and  C_51 
REMARK   24  A    between atoms: C_51  and  O_52 
ROOT
ATOM      1  C   LIG d   1       6.843  -1.708  -5.837  0.00  0.00     0.027 C 
ATOM      2  H   LIG d   1       7.573  -2.449  -6.119  0.00  0.00     0.036 H 
ATOM      3  C   LIG d   1       5.772  -1.515  -6.940  0.00  0.00     0.062 C 
ATOM      4  H   LIG d   1       5.876  -2.280  -7.707  0.00  0.00     0.060 H 
ATOM      5  C   LIG d   1       6.012  -0.108  -7.551  0.00  0.00    -0.020 C 
ATOM      6  C   LIG d   1       7.489   0.161  -7.170  0.00  0.00    -0.019 C 
ATOM      7  C   LIG d   1       7.492  -0.309  -5.705  0.00  0.00    -0.011 C 
ATOM      8  C   LIG d   1       8.889  -0.308  -5.143  0.00  0.00     0.013 C 
ATOM      9  C   LIG d   1       9.710   0.811  -5.755  0.00  0.00     0.141 C 
ATOM     10  O   LIG d   1      10.935   0.750  -5.710  0.00  0.00    -0.297 OA
ATOM     11  C   LIG d   1       9.053   1.991  -6.413  0.00  0.00     0.040 C 
ATOM     12  C   LIG d   1       7.921   1.595  -7.343  0.00  0.00    -0.019 C 
ATOM     13  H   LIG d   1       7.055   2.245  -7.129  0.00  0.00     0.032 H 
ATOM     14  C   LIG d   1       8.320   1.836  -8.803  0.00  0.00    -0.030 C 
ATOM     15  C   LIG d   1       8.702   3.288  -8.973  0.00  0.00    -0.083 C 
ATOM     16  C   LIG d   1       9.545   3.800  -8.110  0.00  0.00    -0.052 C 
ATOM     17  C   LIG d   1      10.088   2.913  -7.037  0.00  0.00     0.015 C 
ATOM     18  H   LIG d   1      10.804   2.247  -7.526  0.00  0.00     0.040 H 
ATOM     19  C   LIG d   1      10.855   3.637  -5.978  0.00  0.00    -0.031 C 
ATOM     20  C   LIG d   1      10.905   4.962  -5.883  0.00  0.00     0.164 C 
ATOM     21  C   LIG d   1      10.209   5.810  -6.854  0.00  0.00     0.207 C 
ATOM     22  O   LIG d   1       9.855   6.936  -6.582  0.00  0.00    -0.288 OA
ATOM     23  C   LIG d   1       9.973   5.242  -8.244  0.00  0.00     0.052 C 
ATOM     24  H   LIG d   1       5.913  -0.141  -8.635  0.00  0.00     0.030 H 
ATOM     25  H   LIG d   1       5.353   0.637  -7.128  0.00  0.00     0.030 H 
ATOM     26  H   LIG d   1       8.857  -0.195  -4.047  0.00  0.00     0.035 H 
ATOM     27  H   LIG d   1       9.379  -1.276  -5.341  0.00  0.00     0.035 H 
ATOM     28  H   LIG d   1       9.199   1.253  -9.072  0.00  0.00     0.031 H 
ATOM     29  H   LIG d   1       7.493   1.599  -9.466  0.00  0.00     0.031 H 
ATOM     30  H   LIG d   1       8.304   3.828  -9.801  0.00  0.00     0.057 H 
ATOM     31  H   LIG d   1      11.392   3.056  -5.240  0.00  0.00     0.062 H 
ENDROOT
BRANCH   1  32
ATOM     32  C   LIG d   1       6.172  -2.083  -4.511  0.00  0.00     0.130 C 
BRANCH  32  33
ATOM     33  C   LIG d   1       5.415  -3.375  -4.679  0.00  0.00     0.187 C 
ATOM     34  O   LIG d   1       4.264  -3.456  -4.306  0.00  0.00    -0.290 OA
BRANCH  33  35
ATOM     35  C   LIG d   1       6.068  -4.531  -5.293  0.00  0.00    -0.017 C 
ATOM     36  C   LIG d   1       5.344  -5.593  -5.653  0.00  0.00    -0.038 C 
ATOM     37  H   LIG d   1       4.277  -5.598  -5.492  0.00  0.00     0.061 H 
ATOM     38  H   LIG d   1       7.136  -4.525  -5.455  0.00  0.00     0.065 H 
BRANCH  36  39
ATOM     39  C   LIG d   1       6.017  -6.784  -6.285  0.00  0.00     0.126 C 
BRANCH  39  40
ATOM     40  O   LIG d   1       5.029  -7.751  -6.650  0.00  0.00    -0.455 OA
BRANCH  40  41
ATOM     41  C   LIG d   1       4.884  -8.809  -5.838  0.00  0.00     0.305 C 
ATOM     42  O   LIG d   1       4.251  -8.704  -4.815  0.00  0.00    -0.251 OA
BRANCH  41  43
ATOM     43  C   LIG d   1       5.509 -10.131  -6.204  0.00  0.00     0.033 C 
ATOM     44  H   LIG d   1       5.888 -10.084  -7.224  0.00  0.00     0.034 H 
ATOM     45  H   LIG d   1       6.331 -10.346  -5.520  0.00  0.00     0.034 H 
ATOM     46  H   LIG d   1       4.760 -10.920  -6.129  0.00  0.00     0.034 H 
ENDBRANCH  41  43
ENDBRANCH  40  41
ENDBRANCH  39  40
BRANCH  39  47
ATOM     47  C   LIG d   1       6.996  -7.406  -5.287  0.00  0.00    -0.021 C 
ATOM     48  H   LIG d   1       7.444  -6.619  -4.681  0.00  0.00     0.027 H 
ATOM     49  H   LIG d   1       6.462  -8.102  -4.641  0.00  0.00     0.027 H 
ATOM     50  H   LIG d   1       7.777  -7.938  -5.828  0.00  0.00     0.027 H 
ENDBRANCH  39  47
BRANCH  39  51
ATOM     51  C   LIG d   1       6.777  -6.336  -7.534  0.00  0.00    -0.021 C 
ATOM     52  H   LIG d   1       7.550  -7.068  -7.772  0.00  0.00     0.027 H 
ATOM     53  H   LIG d   1       6.084  -6.256  -8.372  0.00  0.00     0.027 H 
ATOM     54  H   LIG d   1       7.240  -5.366  -7.352  0.00  0.00     0.027 H 
ENDBRANCH  39  51
ENDBRANCH  36  39
ENDBRANCH  33  35
ENDBRANCH  32  33
BRANCH  32  55
ATOM     55  C   LIG d   1       7.241  -2.254  -3.429  0.00  0.00    -0.028 C 
ATOM     56  H   LIG d   1       7.188  -3.265  -3.025  0.00  0.00     0.026 H 
ATOM     57  H   LIG d   1       8.227  -2.087  -3.862  0.00  0.00     0.026 H 
ATOM     58  H   LIG d   1       7.067  -1.534  -2.631  0.00  0.00     0.026 H 
ENDBRANCH  32  55
BRANCH  32  59
ATOM     59  O   LIG d   1       5.267  -1.046  -4.127  0.00  0.00    -0.381 OA
ATOM     60  H   LIG d   1       4.879  -0.568  -4.872  0.00  0.00     0.211 HD
ENDBRANCH  32  59
ENDBRANCH   1  32
BRANCH   7  61
ATOM     61  C   LIG d   1       6.543   0.508  -4.823  0.00  0.00    -0.058 C 
ATOM     62  H   LIG d   1       5.945  -0.166  -4.210  0.00  0.00     0.024 H 
ATOM     63  H   LIG d   1       7.124   1.166  -4.176  0.00  0.00     0.024 H 
ATOM     64  H   LIG d   1       5.885   1.107  -5.453  0.00  0.00     0.024 H 
ENDBRANCH   7  61
BRANCH   3  65
ATOM     65  O   LIG d   1       4.462  -1.581  -6.363  0.00  0.00    -0.391 OA
ATOM     66  H   LIG d   1       4.022  -0.723  -6.286  0.00  0.00     0.210 HD
ENDBRANCH   3  65
BRANCH   6  67
ATOM     67  C   LIG d   1       8.358  -0.785  -8.015  0.00  0.00    -0.059 C 
ATOM     68  H   LIG d   1       8.642  -1.650  -7.416  0.00  0.00     0.024 H 
ATOM     69  H   LIG d   1       7.793  -1.115  -8.887  0.00  0.00     0.024 H 
ATOM     70  H   LIG d   1       9.255  -0.259  -8.342  0.00  0.00     0.024 H 
ENDBRANCH   6  67
BRANCH  11  71
ATOM     71  C   LIG d   1       8.450   2.863  -5.300  0.00  0.00    -0.052 C 
ATOM     72  H   LIG d   1       8.551   3.915  -5.568  0.00  0.00     0.024 H 
ATOM     73  H   LIG d   1       7.394   2.620  -5.179  0.00  0.00     0.024 H 
ATOM     74  H   LIG d   1       8.976   2.674  -4.364  0.00  0.00     0.024 H 
ENDBRANCH  11  71
BRANCH  23  75
ATOM     75  C   LIG d   1       8.899   6.088  -8.938  0.00  0.00    -0.049 C 
ATOM     76  H   LIG d   1       9.106   6.133 -10.008  0.00  0.00     0.024 H 
ATOM     77  H   LIG d   1       7.920   5.636  -8.775  0.00  0.00     0.024 H 
ATOM     78  H   LIG d   1       8.907   7.097  -8.524  0.00  0.00     0.024 H 
ENDBRANCH  23  75
BRANCH  23  79
ATOM     79  C   LIG d   1      11.276   5.331  -9.054  0.00  0.00    -0.049 C 
ATOM     80  H   LIG d   1      11.884   6.152  -8.675  0.00  0.00     0.024 H 
ATOM     81  H   LIG d   1      11.828   4.396  -8.959  0.00  0.00     0.024 H 
ATOM     82  H   LIG d   1      11.040   5.508 -10.104  0.00  0.00     0.024 H 
ENDBRANCH  23  79
BRANCH  20  83
ATOM     83  O   LIG d   1      11.620   5.539  -4.882  0.00  0.00    -0.458 OA
BRANCH  83  84
ATOM     84  C   LIG d   1      11.070   5.464  -3.565  0.00  0.00     0.231 C 
ATOM     85  H   LIG d   1      10.323   4.671  -3.528  0.00  0.00     0.108 H 
ATOM     86  O   LIG d   1      10.455   6.712  -3.234  0.00  0.00    -0.331 OA
ATOM     87  C   LIG d   1       9.848   6.737  -1.941  0.00  0.00     0.114 C 
ATOM     88  C   LIG d   1      10.914   6.488  -0.872  0.00  0.00     0.112 C 
ATOM     89  H   LIG d   1       9.086   5.960  -1.883  0.00  0.00     0.065 H 
ATOM     90  C   LIG d   1      11.598   5.145  -1.148  0.00  0.00     0.115 C 
ATOM     91  H   LIG d   1      11.656   7.287  -0.903  0.00  0.00     0.065 H 
ATOM     92  C   LIG d   1      12.186   5.164  -2.562  0.00  0.00     0.145 C 
ATOM     93  H   LIG d   1      10.867   4.341  -1.066  0.00  0.00     0.065 H 
ATOM     94  H   LIG d   1      12.953   5.937  -2.627  0.00  0.00     0.068 H 
BRANCH  87  95
ATOM     95  C   LIG d   1       9.202   8.104  -1.708  0.00  0.00     0.073 C 
ATOM     96  H   LIG d   1       9.895   8.746  -1.164  0.00  0.00     0.058 H 
ATOM     97  H   LIG d   1       8.961   8.561  -2.668  0.00  0.00     0.058 H 
BRANCH  95  98
ATOM     98  O   LIG d   1       8.004   7.942  -0.944  0.00  0.00    -0.392 OA
ATOM     99  H   LIG d   1       7.774   8.711  -0.405  0.00  0.00     0.209 HD
ENDBRANCH  95  98
ENDBRANCH  87  95
BRANCH  88 100
ATOM    100  O   LIG d   1      10.301   6.456   0.418  0.00  0.00    -0.387 OA
ATOM    101  H   LIG d   1       9.983   5.581   0.681  0.00  0.00     0.210 HD
ENDBRANCH  88 100
BRANCH  90 102
ATOM    102  O   LIG d   1      12.645   4.936  -0.197  0.00  0.00    -0.386 OA
ATOM    103  H   LIG d   1      12.695   4.031   0.140  0.00  0.00     0.210 HD
ENDBRANCH  90 102
BRANCH  92 104
ATOM    104  O   LIG d   1      12.764   3.891  -2.857  0.00  0.00    -0.383 OA
ATOM    105  H   LIG d   1      13.725   3.910  -2.962  0.00  0.00     0.210 HD
ENDBRANCH  92 104
ENDBRANCH  83  84
ENDBRANCH  20  83
TORSDOF 24
ENDMDL
MODEL 8
REMARK VINA RESULT:      -6.5      4.619     11.899
REMARK  24 active torsions:
REMARK  status: ('A' for Active; 'I' for Inactive)
REMARK    1  A    between atoms: C_1  and  C_2 
REMARK    2  A    between atoms: C_2  and  O_4 
REMARK    3  A    between atoms: O_4  and  C_5 
REMARK    4  A    between atoms: C_5  and  C_6 
REMARK    5  A    between atoms: C_5  and  C_7 
REMARK    6  A    between atoms: C_5  and  C_8 
REMARK    7  A    between atoms: C_9  and  C_10 
REMARK    8  A    between atoms: C_10  and  C_12 
REMARK    9  A    between atoms: C_12  and  C_13 
REMARK   10  A    between atoms: C_12  and  C_14 
REMARK   11  A    between atoms: C_12  and  O_60 
REMARK   12  A    between atoms: C_16  and  O_59 
REMARK   13  A    between atoms: C_19  and  C_58 
REMARK   14  A    between atoms: C_20  and  C_57 
REMARK   15  A    between atoms: C_24  and  C_56 
REMARK   16  A    between atoms: C_33  and  O_39 
REMARK   17  A    between atoms: C_36  and  C_37 
REMARK   18  A    between atoms: C_36  and  C_38 
REMARK   19  A    between atoms: O_39  and  C_40 
REMARK   20  A    between atoms: C_42  and  O_55 
REMARK   21  A    between atoms: C_44  and  O_54 
REMARK   22  A    between atoms: C_46  and  O_53 
REMARK   23  A    between atoms: C_48  and  C_51 
REMARK   24  A    between atoms: C_51  and  O_52 
ROOT
ATOM      1  C   LIG d   1       4.432  -2.603  -6.274  0.00  0.00     0.027 C 
ATOM      2  H   LIG d   1       3.547  -2.036  -6.507  0.00  0.00     0.036 H 
ATOM      3  C   LIG d   1       4.480  -2.993  -4.774  0.00  0.00     0.062 C 
ATOM      4  H   LIG d   1       3.533  -2.758  -4.291  0.00  0.00     0.060 H 
ATOM      5  C   LIG d   1       5.626  -2.163  -4.135  0.00  0.00    -0.020 C 
ATOM      6  C   LIG d   1       5.771  -0.990  -5.135  0.00  0.00    -0.019 C 
ATOM      7  C   LIG d   1       5.709  -1.750  -6.472  0.00  0.00    -0.011 C 
ATOM      8  C   LIG d   1       5.659  -0.793  -7.633  0.00  0.00     0.013 C 
ATOM      9  C   LIG d   1       6.446   0.465  -7.323  0.00  0.00     0.141 C 
ATOM     10  O   LIG d   1       6.224   1.486  -7.966  0.00  0.00    -0.297 OA
ATOM     11  C   LIG d   1       7.492   0.484  -6.244  0.00  0.00     0.040 C 
ATOM     12  C   LIG d   1       7.032  -0.182  -4.962  0.00  0.00    -0.019 C 
ATOM     13  H   LIG d   1       7.833  -0.860  -4.617  0.00  0.00     0.032 H 
ATOM     14  C   LIG d   1       6.820   0.865  -3.862  0.00  0.00    -0.030 C 
ATOM     15  C   LIG d   1       8.105   1.634  -3.662  0.00  0.00    -0.083 C 
ATOM     16  C   LIG d   1       8.700   2.109  -4.729  0.00  0.00    -0.052 C 
ATOM     17  C   LIG d   1       8.059   1.884  -6.060  0.00  0.00     0.015 C 
ATOM     18  H   LIG d   1       7.193   2.548  -6.098  0.00  0.00     0.040 H 
ATOM     19  C   LIG d   1       8.919   2.260  -7.223  0.00  0.00    -0.031 C 
ATOM     20  C   LIG d   1      10.201   2.595  -7.111  0.00  0.00     0.164 C 
ATOM     21  C   LIG d   1      10.853   2.635  -5.800  0.00  0.00     0.207 C 
ATOM     22  O   LIG d   1      12.050   2.492  -5.676  0.00  0.00    -0.288 OA
ATOM     23  C   LIG d   1       9.979   2.900  -4.585  0.00  0.00     0.052 C 
ATOM     24  H   LIG d   1       5.323  -1.781  -3.162  0.00  0.00     0.030 H 
ATOM     25  H   LIG d   1       6.543  -2.731  -4.055  0.00  0.00     0.030 H 
ATOM     26  H   LIG d   1       6.060  -1.274  -8.540  0.00  0.00     0.035 H 
ATOM     27  H   LIG d   1       4.612  -0.527  -7.859  0.00  0.00     0.035 H 
ATOM     28  H   LIG d   1       6.066   1.595  -4.154  0.00  0.00     0.031 H 
ATOM     29  H   LIG d   1       6.537   0.384  -2.930  0.00  0.00     0.031 H 
ATOM     30  H   LIG d   1       8.459   1.790  -2.670  0.00  0.00     0.057 H 
ATOM     31  H   LIG d   1       8.483   2.252  -8.213  0.00  0.00     0.062 H 
ENDROOT
BRANCH   1  32
ATOM     32  C   LIG d   1       4.521  -3.859  -7.147  0.00  0.00     0.130 C 
BRANCH  32  33
ATOM     33  C   LIG d   1       4.402  -3.471  -8.598  0.00  0.00     0.187 C 
ATOM     34  O   LIG d   1       5.185  -3.916  -9.411  0.00  0.00    -0.290 OA
BRANCH  33  35
ATOM     35  C   LIG d   1       3.344  -2.557  -9.027  0.00  0.00    -0.017 C 
ATOM     36  C   LIG d   1       3.436  -1.933 -10.203  0.00  0.00    -0.038 C 
ATOM     37  H   LIG d   1       4.293  -2.103 -10.838  0.00  0.00     0.061 H 
ATOM     38  H   LIG d   1       2.487  -2.388  -8.391  0.00  0.00     0.065 H 
BRANCH  36  39
ATOM     39  C   LIG d   1       2.345  -0.993 -10.644  0.00  0.00     0.126 C 
BRANCH  39  40
ATOM     40  O   LIG d   1       2.913   0.065 -11.421  0.00  0.00    -0.455 OA
BRANCH  40  41
ATOM     41  C   LIG d   1       3.909   0.767 -10.860  0.00  0.00     0.305 C 
ATOM     42  O   LIG d   1       5.049   0.377 -10.950  0.00  0.00    -0.251 OA
BRANCH  41  43
ATOM     43  C   LIG d   1       3.606   2.043 -10.118  0.00  0.00     0.033 C 
ATOM     44  H   LIG d   1       2.615   1.977  -9.669  0.00  0.00     0.034 H 
ATOM     45  H   LIG d   1       4.351   2.194  -9.335  0.00  0.00     0.034 H 
ATOM     46  H   LIG d   1       3.636   2.883 -10.812  0.00  0.00     0.034 H 
ENDBRANCH  41  43
ENDBRANCH  40  41
ENDBRANCH  39  40
BRANCH  39  47
ATOM     47  C   LIG d   1       1.650  -0.405  -9.415  0.00  0.00    -0.021 C 
ATOM     48  H   LIG d   1       0.742   0.114  -9.725  0.00  0.00     0.027 H 
ATOM     49  H   LIG d   1       1.392  -1.208  -8.725  0.00  0.00     0.027 H 
ATOM     50  H   LIG d   1       2.319   0.298  -8.921  0.00  0.00     0.027 H 
ENDBRANCH  39  47
BRANCH  39  51
ATOM     51  C   LIG d   1       1.325  -1.756 -11.491  0.00  0.00    -0.021 C 
ATOM     52  H   LIG d   1       0.325  -1.370 -11.292  0.00  0.00     0.027 H 
ATOM     53  H   LIG d   1       1.561  -1.626 -12.548  0.00  0.00     0.027 H 
ATOM     54  H   LIG d   1       1.362  -2.815 -11.239  0.00  0.00     0.027 H 
ENDBRANCH  39  51
ENDBRANCH  36  39
ENDBRANCH  33  35
ENDBRANCH  32  33
BRANCH  32  55
ATOM     55  C   LIG d   1       5.866  -4.550  -6.912  0.00  0.00    -0.028 C 
ATOM     56  H   LIG d   1       5.704  -5.617  -6.759  0.00  0.00     0.026 H 
ATOM     57  H   LIG d   1       6.507  -4.401  -7.780  0.00  0.00     0.026 H 
ATOM     58  H   LIG d   1       6.343  -4.124  -6.030  0.00  0.00     0.026 H 
ENDBRANCH  32  55
BRANCH  32  59
ATOM     59  O   LIG d   1       3.460  -4.752  -6.804  0.00  0.00    -0.381 OA
ATOM     60  H   LIG d   1       3.529  -5.622  -7.221  0.00  0.00     0.211 HD
ENDBRANCH  32  59
ENDBRANCH   1  32
BRANCH   7  61
ATOM     61  C   LIG d   1       6.857  -2.752  -6.634  0.00  0.00    -0.058 C 
ATOM     62  H   LIG d   1       6.458  -3.766  -6.631  0.00  0.00     0.024 H 
ATOM     63  H   LIG d   1       7.370  -2.567  -7.578  0.00  0.00     0.024 H 
ATOM     64  H   LIG d   1       7.561  -2.636  -5.809  0.00  0.00     0.024 H 
ENDBRANCH   7  61
BRANCH   3  65
ATOM     65  O   LIG d   1       4.757  -4.393  -4.644  0.00  0.00    -0.391 OA
ATOM     66  H   LIG d   1       4.328  -4.943  -5.314  0.00  0.00     0.210 HD
ENDBRANCH   3  65
BRANCH   6  67
ATOM     67  C   LIG d   1       4.522  -0.107  -4.988  0.00  0.00    -0.059 C 
ATOM     68  H   LIG d   1       4.534   0.380  -4.012  0.00  0.00     0.024 H 
ATOM     69  H   LIG d   1       4.518   0.650  -5.772  0.00  0.00     0.024 H 
ATOM     70  H   LIG d   1       3.628  -0.725  -5.075  0.00  0.00     0.024 H 
ENDBRANCH   6  67
BRANCH  11  71
ATOM     71  C   LIG d   1       8.705  -0.306  -6.763  0.00  0.00    -0.052 C 
ATOM     72  H   LIG d   1       9.145  -0.876  -5.945  0.00  0.00     0.024 H 
ATOM     73  H   LIG d   1       8.384  -0.989  -7.550  0.00  0.00     0.024 H 
ATOM     74  H   LIG d   1       9.446   0.387  -7.164  0.00  0.00     0.024 H 
ENDBRANCH  11  71
BRANCH  23  75
ATOM     75  C   LIG d   1      10.756   2.492  -3.329  0.00  0.00    -0.049 C 
ATOM     76  H   LIG d   1      10.266   2.905  -2.447  0.00  0.00     0.024 H 
ATOM     77  H   LIG d   1      10.783   1.404  -3.255  0.00  0.00     0.024 H 
ATOM     78  H   LIG d   1      11.775   2.876  -3.391  0.00  0.00     0.024 H 
ENDBRANCH  23  75
BRANCH  23  79
ATOM     79  C   LIG d   1       9.663   4.402  -4.509  0.00  0.00    -0.049 C 
ATOM     80  H   LIG d   1      10.592   4.971  -4.546  0.00  0.00     0.024 H 
ATOM     81  H   LIG d   1       9.031   4.684  -5.350  0.00  0.00     0.024 H 
ATOM     82  H   LIG d   1       9.142   4.616  -3.575  0.00  0.00     0.024 H 
ENDBRANCH  23  79
BRANCH  20  83
ATOM     83  O   LIG d   1      10.913   2.916  -8.223  0.00  0.00    -0.458 OA
BRANCH  83  84
ATOM     84  C   LIG d   1      10.795   4.256  -8.705  0.00  0.00     0.231 C 
ATOM     85  H   LIG d   1      11.648   4.489  -9.342  0.00  0.00     0.108 H 
ATOM     86  O   LIG d   1      10.767   5.160  -7.598  0.00  0.00    -0.331 OA
ATOM     87  C   LIG d   1      10.676   6.536  -7.970  0.00  0.00     0.114 C 
ATOM     88  C   LIG d   1       9.378   6.769  -8.747  0.00  0.00     0.112 C 
ATOM     89  H   LIG d   1      11.528   6.799  -8.599  0.00  0.00     0.065 H 
ATOM     90  C   LIG d   1       9.353   5.850  -9.972  0.00  0.00     0.115 C 
ATOM     91  H   LIG d   1       8.525   6.545  -8.106  0.00  0.00     0.065 H 
ATOM     92  C   LIG d   1       9.501   4.397  -9.510  0.00  0.00     0.145 C 
ATOM     93  H   LIG d   1      10.176   6.108 -10.637  0.00  0.00     0.065 H 
ATOM     94  H   LIG d   1       8.650   4.125  -8.884  0.00  0.00     0.068 H 
BRANCH  87  95
ATOM     95  C   LIG d   1      10.682   7.407  -6.713  0.00  0.00     0.073 C 
ATOM     96  H   LIG d   1      11.231   6.898  -5.920  0.00  0.00     0.058 H 
ATOM     97  H   LIG d   1      11.162   8.361  -6.933  0.00  0.00     0.058 H 
BRANCH  95  98
ATOM     98  O   LIG d   1       9.337   7.638  -6.287  0.00  0.00    -0.392 OA
ATOM     99  H   LIG d   1       9.260   8.249  -5.541  0.00  0.00     0.209 HD
ENDBRANCH  95  98
ENDBRANCH  87  95
BRANCH  88 100
ATOM    100  O   LIG d   1       9.311   8.132  -9.170  0.00  0.00    -0.387 OA
ATOM    101  H   LIG d   1       8.483   8.367  -9.611  0.00  0.00     0.210 HD
ENDBRANCH  88 100
BRANCH  90 102
ATOM    102  O   LIG d   1       8.112   6.007 -10.664  0.00  0.00    -0.386 OA
ATOM    103  H   LIG d   1       7.451   5.336 -10.442  0.00  0.00     0.210 HD
ENDBRANCH  90 102
BRANCH  92 104
ATOM    104  O   LIG d   1       9.551   3.535 -10.650  0.00  0.00    -0.383 OA
ATOM    105  H   LIG d   1      10.394   3.075 -10.758  0.00  0.00     0.210 HD
ENDBRANCH  92 104
ENDBRANCH  83  84
ENDBRANCH  20  83
TORSDOF 24
ENDMDL
MODEL 9
REMARK VINA RESULT:      -6.4      3.935      9.930
REMARK  24 active torsions:
REMARK  status: ('A' for Active; 'I' for Inactive)
REMARK    1  A    between atoms: C_1  and  C_2 
REMARK    2  A    between atoms: C_2  and  O_4 
REMARK    3  A    between atoms: O_4  and  C_5 
REMARK    4  A    between atoms: C_5  and  C_6 
REMARK    5  A    between atoms: C_5  and  C_7 
REMARK    6  A    between atoms: C_5  and  C_8 
REMARK    7  A    between atoms: C_9  and  C_10 
REMARK    8  A    between atoms: C_10  and  C_12 
REMARK    9  A    between atoms: C_12  and  C_13 
REMARK   10  A    between atoms: C_12  and  C_14 
REMARK   11  A    between atoms: C_12  and  O_60 
REMARK   12  A    between atoms: C_16  and  O_59 
REMARK   13  A    between atoms: C_19  and  C_58 
REMARK   14  A    between atoms: C_20  and  C_57 
REMARK   15  A    between atoms: C_24  and  C_56 
REMARK   16  A    between atoms: C_33  and  O_39 
REMARK   17  A    between atoms: C_36  and  C_37 
REMARK   18  A    between atoms: C_36  and  C_38 
REMARK   19  A    between atoms: O_39  and  C_40 
REMARK   20  A    between atoms: C_42  and  O_55 
REMARK   21  A    between atoms: C_44  and  O_54 
REMARK   22  A    between atoms: C_46  and  O_53 
REMARK   23  A    between atoms: C_48  and  C_51 
REMARK   24  A    between atoms: C_51  and  O_52 
ROOT
ATOM      1  C   LIG d   1       3.312  -0.662 -11.295  0.00  0.00     0.027 C 
ATOM      2  H   LIG d   1       3.793   0.241 -11.634  0.00  0.00     0.036 H 
ATOM      3  C   LIG d   1       1.786  -0.460 -11.113  0.00  0.00     0.062 C 
ATOM      4  H   LIG d   1       1.479   0.501 -11.520  0.00  0.00     0.060 H 
ATOM      5  C   LIG d   1       1.509  -0.508  -9.586  0.00  0.00    -0.020 C 
ATOM      6  C   LIG d   1       2.901  -0.174  -8.996  0.00  0.00    -0.019 C 
ATOM      7  C   LIG d   1       3.801  -1.056  -9.879  0.00  0.00    -0.011 C 
ATOM      8  C   LIG d   1       5.257  -0.778  -9.611  0.00  0.00     0.013 C 
ATOM      9  C   LIG d   1       5.470  -0.407  -8.156  0.00  0.00     0.141 C 
ATOM     10  O   LIG d   1       6.487   0.197  -7.834  0.00  0.00    -0.297 OA
ATOM     11  C   LIG d   1       4.460  -0.768  -7.104  0.00  0.00     0.040 C 
ATOM     12  C   LIG d   1       3.035  -0.465  -7.523  0.00  0.00    -0.019 C 
ATOM     13  H   LIG d   1       2.410  -1.345  -7.286  0.00  0.00     0.032 H 
ATOM     14  C   LIG d   1       2.479   0.714  -6.717  0.00  0.00    -0.030 C 
ATOM     15  C   LIG d   1       2.572   0.389  -5.244  0.00  0.00    -0.083 C 
ATOM     16  C   LIG d   1       3.717  -0.060  -4.792  0.00  0.00    -0.052 C 
ATOM     17  C   LIG d   1       4.855  -0.195  -5.751  0.00  0.00     0.015 C 
ATOM     18  H   LIG d   1       5.198   0.821  -5.963  0.00  0.00     0.040 H 
ATOM     19  C   LIG d   1       6.037  -0.922  -5.196  0.00  0.00    -0.031 C 
ATOM     20  C   LIG d   1       6.028  -1.554  -4.027  0.00  0.00     0.164 C 
ATOM     21  C   LIG d   1       4.830  -1.553  -3.184  0.00  0.00     0.207 C 
ATOM     22  O   LIG d   1       4.616  -2.432  -2.377  0.00  0.00    -0.288 OA
ATOM     23  C   LIG d   1       3.869  -0.385  -3.325  0.00  0.00     0.052 C 
ATOM     24  H   LIG d   1       0.795   0.264  -9.304  0.00  0.00     0.030 H 
ATOM     25  H   LIG d   1       1.167  -1.483  -9.266  0.00  0.00     0.030 H 
ATOM     26  H   LIG d   1       5.865  -1.660  -9.868  0.00  0.00     0.035 H 
ATOM     27  H   LIG d   1       5.611   0.043 -10.257  0.00  0.00     0.035 H 
ATOM     28  H   LIG d   1       3.075   1.612  -6.872  0.00  0.00     0.031 H 
ATOM     29  H   LIG d   1       1.443   0.900  -6.982  0.00  0.00     0.031 H 
ATOM     30  H   LIG d   1       1.722   0.567  -4.627  0.00  0.00     0.057 H 
ATOM     31  H   LIG d   1       6.949  -0.946  -5.778  0.00  0.00     0.062 H 
ENDROOT
BRANCH   1  32
ATOM     32  C   LIG d   1       3.579  -1.818 -12.264  0.00  0.00     0.130 C 
BRANCH  32  33
ATOM     33  C   LIG d   1       5.045  -1.852 -12.612  0.00  0.00     0.187 C 
ATOM     34  O   LIG d   1       5.616  -0.831 -12.934  0.00  0.00    -0.290 OA
BRANCH  33  35
ATOM     35  C   LIG d   1       5.779  -3.116 -12.562  0.00  0.00    -0.017 C 
ATOM     36  C   LIG d   1       6.818  -3.252 -11.735  0.00  0.00    -0.038 C 
ATOM     37  H   LIG d   1       7.115  -2.429 -11.102  0.00  0.00     0.061 H 
ATOM     38  H   LIG d   1       5.481  -3.939 -13.194  0.00  0.00     0.065 H 
BRANCH  36  39
ATOM     39  C   LIG d   1       7.574  -4.554 -11.683  0.00  0.00     0.126 C 
BRANCH  39  40
ATOM     40  O   LIG d   1       8.018  -4.795 -10.346  0.00  0.00    -0.455 OA
BRANCH  40  41
ATOM     41  C   LIG d   1       7.323  -4.210  -9.359  0.00  0.00     0.305 C 
ATOM     42  O   LIG d   1       6.207  -4.591  -9.097  0.00  0.00    -0.251 OA
BRANCH  41  43
ATOM     43  C   LIG d   1       7.936  -3.079  -8.574  0.00  0.00     0.033 C 
ATOM     44  H   LIG d   1       7.172  -2.612  -7.952  0.00  0.00     0.034 H 
ATOM     45  H   LIG d   1       8.735  -3.465  -7.940  0.00  0.00     0.034 H 
ATOM     46  H   LIG d   1       8.346  -2.339  -9.263  0.00  0.00     0.034 H 
ENDBRANCH  41  43
ENDBRANCH  40  41
ENDBRANCH  39  40
BRANCH  39  47
ATOM     47  C   LIG d   1       8.784  -4.479 -12.617  0.00  0.00    -0.021 C 
ATOM     48  H   LIG d   1       9.386  -3.607 -12.360  0.00  0.00     0.027 H 
ATOM     49  H   LIG d   1       9.385  -5.381 -12.506  0.00  0.00     0.027 H 
ATOM     50  H   LIG d   1       8.442  -4.393 -13.648  0.00  0.00     0.027 H 
ENDBRANCH  39  47
BRANCH  39  51
ATOM     51  C   LIG d   1       6.657  -5.695 -12.128  0.00  0.00    -0.021 C 
ATOM     52  H   LIG d   1       6.081  -5.380 -12.999  0.00  0.00     0.027 H 
ATOM     53  H   LIG d   1       7.259  -6.565 -12.388  0.00  0.00     0.027 H 
ATOM     54  H   LIG d   1       5.976  -5.953 -11.317  0.00  0.00     0.027 H 
ENDBRANCH  39  51
ENDBRANCH  36  39
ENDBRANCH  33  35
ENDBRANCH  32  33
BRANCH  32  55
ATOM     55  C   LIG d   1       3.180  -3.139 -11.603  0.00  0.00    -0.028 C 
ATOM     56  H   LIG d   1       2.126  -3.104 -11.329  0.00  0.00     0.026 H 
ATOM     57  H   LIG d   1       3.345  -3.959 -12.303  0.00  0.00     0.026 H 
ATOM     58  H   LIG d   1       3.784  -3.296 -10.711  0.00  0.00     0.026 H 
ENDBRANCH  32  55
BRANCH  32  59
ATOM     59  O   LIG d   1       2.811  -1.628 -13.454  0.00  0.00    -0.381 OA
ATOM     60  H   LIG d   1       1.999  -1.120 -13.320  0.00  0.00     0.211 HD
ENDBRANCH  32  59
ENDBRANCH   1  32
BRANCH   7  61
ATOM     61  C   LIG d   1       3.490  -2.549  -9.733  0.00  0.00    -0.058 C 
ATOM     62  H   LIG d   1       3.489  -3.019 -10.716  0.00  0.00     0.024 H 
ATOM     63  H   LIG d   1       4.249  -3.018  -9.107  0.00  0.00     0.024 H 
ATOM     64  H   LIG d   1       2.510  -2.673  -9.270  0.00  0.00     0.024 H 
ENDBRANCH   7  61
BRANCH   3  65
ATOM     65  O   LIG d   1       1.074  -1.515 -11.774  0.00  0.00    -0.391 OA
ATOM     66  H   LIG d   1       0.373  -1.208 -12.364  0.00  0.00     0.210 HD
ENDBRANCH   3  65
BRANCH   6  67
ATOM     67  C   LIG d   1       3.180   1.308  -9.296  0.00  0.00    -0.059 C 
ATOM     68  H   LIG d   1       3.202   1.463 -10.374  0.00  0.00     0.024 H 
ATOM     69  H   LIG d   1       2.394   1.921  -8.855  0.00  0.00     0.024 H 
ATOM     70  H   LIG d   1       4.143   1.590  -8.868  0.00  0.00     0.024 H 
ENDBRANCH   6  67
BRANCH  11  71
ATOM     71  C   LIG d   1       4.559  -2.284  -6.869  0.00  0.00    -0.052 C 
ATOM     72  H   LIG d   1       5.557  -2.532  -6.508  0.00  0.00     0.024 H 
ATOM     73  H   LIG d   1       3.819  -2.587  -6.128  0.00  0.00     0.024 H 
ATOM     74  H   LIG d   1       4.370  -2.811  -7.806  0.00  0.00     0.024 H 
ENDBRANCH  11  71
BRANCH  23  75
ATOM     75  C   LIG d   1       2.530  -0.779  -2.692  0.00  0.00    -0.049 C 
ATOM     76  H   LIG d   1       1.721  -0.241  -3.188  0.00  0.00     0.024 H 
ATOM     77  H   LIG d   1       2.376  -1.852  -2.805  0.00  0.00     0.024 H 
ATOM     78  H   LIG d   1       2.539  -0.523  -1.632  0.00  0.00     0.024 H 
ENDBRANCH  23  75
BRANCH  23  79
ATOM     79  C   LIG d   1       4.436   0.829  -2.574  0.00  0.00    -0.049 C 
ATOM     80  H   LIG d   1       5.107   1.382  -3.231  0.00  0.00     0.024 H 
ATOM     81  H   LIG d   1       3.619   1.478  -2.260  0.00  0.00     0.024 H 
ATOM     82  H   LIG d   1       4.987   0.489  -1.696  0.00  0.00     0.024 H 
ENDBRANCH  23  79
BRANCH  20  83
ATOM     83  O   LIG d   1       7.147  -2.198  -3.602  0.00  0.00    -0.458 OA
BRANCH  83  84
ATOM     84  C   LIG d   1       7.656  -3.237  -4.441  0.00  0.00     0.231 C 
ATOM     85  H   LIG d   1       8.053  -2.800  -5.358  0.00  0.00     0.108 H 
ATOM     86  O   LIG d   1       6.605  -4.149  -4.763  0.00  0.00    -0.331 OA
ATOM     87  C   LIG d   1       7.003  -5.218  -5.624  0.00  0.00     0.114 C 
ATOM     88  C   LIG d   1       8.093  -6.045  -4.938  0.00  0.00     0.112 C 
ATOM     89  H   LIG d   1       7.391  -4.807  -6.556  0.00  0.00     0.065 H 
ATOM     90  C   LIG d   1       9.273  -5.132  -4.589  0.00  0.00     0.115 C 
ATOM     91  H   LIG d   1       7.694  -6.489  -4.025  0.00  0.00     0.065 H 
ATOM     92  C   LIG d   1       8.773  -3.984  -3.707  0.00  0.00     0.145 C 
ATOM     93  H   LIG d   1       9.703  -4.728  -5.505  0.00  0.00     0.065 H 
ATOM     94  H   LIG d   1       8.387  -4.386  -2.770  0.00  0.00     0.068 H 
BRANCH  87  95
ATOM     95  C   LIG d   1       5.797  -6.110  -5.921  0.00  0.00     0.073 C 
ATOM     96  H   LIG d   1       5.699  -6.862  -5.138  0.00  0.00     0.058 H 
ATOM     97  H   LIG d   1       4.893  -5.501  -5.955  0.00  0.00     0.058 H 
BRANCH  95  98
ATOM     98  O   LIG d   1       5.981  -6.758  -7.182  0.00  0.00    -0.392 OA
ATOM     99  H   LIG d   1       6.903  -6.967  -7.386  0.00  0.00     0.209 HD
ENDBRANCH  95  98
ENDBRANCH  87  95
BRANCH  88 100
ATOM    100  O   LIG d   1       8.534  -7.080  -5.818  0.00  0.00    -0.387 OA
ATOM    101  H   LIG d   1       8.029  -7.902  -5.744  0.00  0.00     0.210 HD
ENDBRANCH  88 100
BRANCH  90 102
ATOM    102  O   LIG d   1      10.265  -5.880  -3.883  0.00  0.00    -0.386 OA
ATOM    103  H   LIG d   1       9.902  -6.539  -3.275  0.00  0.00     0.210 HD
ENDBRANCH  90 102
BRANCH  92 104
ATOM    104  O   LIG d   1       9.850  -3.086  -3.434  0.00  0.00    -0.383 OA
ATOM    105  H   LIG d   1      10.185  -2.624  -4.215  0.00  0.00     0.210 HD
ENDBRANCH  92 104
ENDBRANCH  83  84
ENDBRANCH  20  83
TORSDOF 24
ENDMDL
