MODEL 1
REMARK VINA RESULT:      -7.1      0.000      0.000
REMARK  9 active torsions:
REMARK  status: ('A' for Active; 'I' for Inactive)
REMARK    1  A    between atoms: C_1  and  O_2 
REMARK    2  A    between atoms: O_2  and  C_3 
REMARK    3  A    between atoms: C_3  and  C_4 
REMARK    4  A    between atoms: C_4  and  N_5 
REMARK    5  A    between atoms: N_5  and  C_6 
REMARK    6  A    between atoms: C_9  and  C_12 
REMARK    7  A    between atoms: C_14  and  C_17 
REMARK    8  A    between atoms: N_22  and  C_23 
REMARK    9  A    between atoms: C_23  and  C_24 
ROOT
ATOM      1  C   LIG d   1       8.320   0.975  -6.044  0.00  0.00     0.208 A 
ATOM      2  N   LIG d   1       7.039   1.194  -6.390  0.00  0.00    -0.186 NA
ATOM      3  C   LIG d   1       6.703   0.411  -7.376  0.00  0.00     0.276 A 
ATOM      4  O   LIG d   1       7.763  -0.343  -7.700  0.00  0.00    -0.332 OA
ATOM      5  N   LIG d   1       8.812   0.043  -6.823  0.00  0.00    -0.056 NA
ENDROOT
BRANCH   3   6
ATOM      6  C   LIG d   1       5.352   0.361  -8.039  0.00  0.00     0.060 C 
ATOM      7  H   LIG d   1       5.233  -0.570  -8.595  0.00  0.00     0.095 H 
ATOM      8  N   LIG d   1       4.268   0.515  -7.036  0.00  0.00     0.247 N 
ATOM      9  C   LIG d   1       3.089   0.998  -7.790  0.00  0.00    -0.031 C 
ATOM     10  H   LIG d   1       4.535   1.193  -6.338  0.00  0.00     0.204 HD
ATOM     11  C   LIG d   1       3.617   1.715  -9.047  0.00  0.00    -0.007 C 
ATOM     12  H   LIG d   1       2.516   1.696  -7.178  0.00  0.00     0.082 H 
ATOM     13  H   LIG d   1       2.464   0.154  -8.079  0.00  0.00     0.082 H 
ATOM     14  C   LIG d   1       5.155   1.582  -8.972  0.00  0.00     0.004 C 
ATOM     15  H   LIG d   1       3.326   2.766  -9.034  0.00  0.00     0.032 H 
ATOM     16  H   LIG d   1       3.238   1.228  -9.947  0.00  0.00     0.032 H 
ATOM     17  H   LIG d   1       5.598   2.477  -8.534  0.00  0.00     0.033 H 
ATOM     18  H   LIG d   1       5.574   1.387  -9.959  0.00  0.00     0.033 H 
BRANCH   8  19
ATOM     19  C   LIG d   1       3.975  -0.778  -6.403  0.00  0.00    -0.002 C 
ATOM     20  H   LIG d   1       2.974  -1.102  -6.689  0.00  0.00     0.087 H 
ATOM     21  H   LIG d   1       4.704  -1.518  -6.733  0.00  0.00     0.087 H 
BRANCH  19  22
ATOM     22  C   LIG d   1       4.049  -0.633  -4.906  0.00  0.00     0.032 A 
ATOM     23  C   LIG d   1       2.963  -0.140  -4.204  0.00  0.00     0.132 A 
ATOM     24  C   LIG d   1       3.030  -0.012  -2.826  0.00  0.00    -0.026 A 
ATOM     25  F   LIG d   1       1.836   0.211  -4.860  0.00  0.00    -0.205 F 
ATOM     26  C   LIG d   1       4.186  -0.367  -2.156  0.00  0.00    -0.059 A 
ATOM     27  H   LIG d   1       2.183   0.368  -2.276  0.00  0.00     0.065 H 
ATOM     28  C   LIG d   1       5.272  -0.854  -2.859  0.00  0.00    -0.061 A 
ATOM     29  H   LIG d   1       4.240  -0.264  -1.082  0.00  0.00     0.062 H 
ATOM     30  C   LIG d   1       5.204  -0.987  -4.233  0.00  0.00    -0.051 A 
ATOM     31  H   LIG d   1       6.175  -1.131  -2.335  0.00  0.00     0.062 H 
ATOM     32  H   LIG d   1       6.052  -1.368  -4.781  0.00  0.00     0.062 H 
ENDBRANCH  19  22
ENDBRANCH   8  19
ENDBRANCH   3   6
BRANCH   1  33
ATOM     33  C   LIG d   1       9.058   1.677  -4.965  0.00  0.00     0.086 A 
ATOM     34  C   LIG d   1       8.562   2.869  -4.425  0.00  0.00    -0.038 A 
ATOM     35  C   LIG d   1       9.282   3.487  -3.423  0.00  0.00     0.027 A 
ATOM     36  H   LIG d   1       7.637   3.296  -4.784  0.00  0.00     0.063 H 
ATOM     37  C   LIG d   1      10.470   2.908  -2.985  0.00  0.00     0.269 A 
ATOM     38  H   LIG d   1       8.928   4.408  -2.984  0.00  0.00     0.070 H 
ATOM     39  N   LIG d   1      10.916   1.781  -3.521  0.00  0.00    -0.198 N 
ATOM     40  C   LIG d   1      10.254   1.159  -4.476  0.00  0.00     0.182 A 
ATOM     41  H   LIG d   1      11.748   1.402  -3.200  0.00  0.00     0.454 HD
ATOM     42  H   LIG d   1      10.645   0.240  -4.886  0.00  0.00     0.138 H 
BRANCH  37  43
ATOM     43  N   LIG d   1      11.201   3.522  -1.978  0.00  0.00    -0.289 N 
ATOM     44  H   LIG d   1      11.692   2.984  -1.337  0.00  0.00     0.152 HD
BRANCH  43  45
ATOM     45  C   LIG d   1      11.231   4.984  -1.881  0.00  0.00     0.038 C 
ATOM     46  H   LIG d   1      10.418   5.404  -2.472  0.00  0.00     0.049 H 
ATOM     47  H   LIG d   1      12.184   5.353  -2.260  0.00  0.00     0.049 H 
BRANCH  45  48
ATOM     48  C   LIG d   1      11.069   5.402  -0.418  0.00  0.00     0.063 C 
ATOM     49  H   LIG d   1      12.032   5.725  -0.024  0.00  0.00     0.058 H 
ATOM     50  H   LIG d   1      10.704   4.555   0.163  0.00  0.00     0.058 H 
BRANCH  48  51
ATOM     51  O   LIG d   1      10.133   6.479  -0.331  0.00  0.00    -0.381 OA
BRANCH  51  52
ATOM     52  C   LIG d   1       9.626   6.911  -1.595  0.00  0.00     0.036 C 
ATOM     53  H   LIG d   1      10.296   7.658  -2.020  0.00  0.00     0.052 H 
ATOM     54  H   LIG d   1       9.559   6.058  -2.271  0.00  0.00     0.052 H 
ATOM     55  H   LIG d   1       8.636   7.345  -1.460  0.00  0.00     0.052 H 
ENDBRANCH  51  52
ENDBRANCH  48  51
ENDBRANCH  45  48
ENDBRANCH  43  45
ENDBRANCH  37  43
ENDBRANCH   1  33
TORSDOF 9
ENDMDL
MODEL 2
REMARK VINA RESULT:      -6.9      3.006      4.550
REMARK  9 active torsions:
REMARK  status: ('A' for Active; 'I' for Inactive)
REMARK    1  A    between atoms: C_1  and  O_2 
REMARK    2  A    between atoms: O_2  and  C_3 
REMARK    3  A    between atoms: C_3  and  C_4 
REMARK    4  A    between atoms: C_4  and  N_5 
REMARK    5  A    between atoms: N_5  and  C_6 
REMARK    6  A    between atoms: C_9  and  C_12 
REMARK    7  A    between atoms: C_14  and  C_17 
REMARK    8  A    between atoms: N_22  and  C_23 
REMARK    9  A    between atoms: C_23  and  C_24 
ROOT
ATOM      1  C   LIG d   1       9.879   4.018  -3.377  0.00  0.00     0.208 A 
ATOM      2  N   LIG d   1       9.187   3.539  -4.425  0.00  0.00    -0.186 NA
ATOM      3  C   LIG d   1       9.434   2.269  -4.582  0.00  0.00     0.276 A 
ATOM      4  O   LIG d   1      10.300   1.886  -3.633  0.00  0.00    -0.332 OA
ATOM      5  N   LIG d   1      10.584   3.041  -2.858  0.00  0.00    -0.056 NA
ENDROOT
BRANCH   3   6
ATOM      6  C   LIG d   1       8.847   1.382  -5.648  0.00  0.00     0.060 C 
ATOM      7  H   LIG d   1       9.491   0.521  -5.827  0.00  0.00     0.095 H 
ATOM      8  N   LIG d   1       7.479   0.944  -5.271  0.00  0.00     0.247 N 
ATOM      9  C   LIG d   1       6.810   0.580  -6.541  0.00  0.00    -0.031 C 
ATOM     10  H   LIG d   1       6.983   1.699  -4.822  0.00  0.00     0.204 HD
ATOM     11  C   LIG d   1       7.507   1.372  -7.664  0.00  0.00    -0.007 C 
ATOM     12  H   LIG d   1       5.754   0.850  -6.496  0.00  0.00     0.082 H 
ATOM     13  H   LIG d   1       6.915  -0.489  -6.721  0.00  0.00     0.082 H 
ATOM     14  C   LIG d   1       8.622   2.178  -6.959  0.00  0.00     0.004 C 
ATOM     15  H   LIG d   1       6.799   2.047  -8.146  0.00  0.00     0.032 H 
ATOM     16  H   LIG d   1       7.938   0.689  -8.396  0.00  0.00     0.032 H 
ATOM     17  H   LIG d   1       8.286   3.192  -6.741  0.00  0.00     0.033 H 
ATOM     18  H   LIG d   1       9.528   2.192  -7.563  0.00  0.00     0.033 H 
BRANCH   8  19
ATOM     19  C   LIG d   1       7.548  -0.221  -4.378  0.00  0.00    -0.002 C 
ATOM     20  H   LIG d   1       7.551  -1.134  -4.974  0.00  0.00     0.087 H 
ATOM     21  H   LIG d   1       8.460  -0.171  -3.785  0.00  0.00     0.087 H 
BRANCH  19  22
ATOM     22  C   LIG d   1       6.352  -0.222  -3.462  0.00  0.00     0.032 A 
ATOM     23  C   LIG d   1       5.753  -1.419  -3.108  0.00  0.00     0.132 A 
ATOM     24  C   LIG d   1       4.657  -1.420  -2.260  0.00  0.00    -0.026 A 
ATOM     25  F   LIG d   1       6.240  -2.586  -3.582  0.00  0.00    -0.205 F 
ATOM     26  C   LIG d   1       4.156  -0.225  -1.779  0.00  0.00    -0.059 A 
ATOM     27  H   LIG d   1       4.192  -2.352  -1.979  0.00  0.00     0.065 H 
ATOM     28  C   LIG d   1       4.752   0.970  -2.139  0.00  0.00    -0.061 A 
ATOM     29  H   LIG d   1       3.300  -0.224  -1.122  0.00  0.00     0.062 H 
ATOM     30  C   LIG d   1       5.849   0.971  -2.980  0.00  0.00    -0.051 A 
ATOM     31  H   LIG d   1       4.360   1.903  -1.762  0.00  0.00     0.062 H 
ATOM     32  H   LIG d   1       6.313   1.905  -3.259  0.00  0.00     0.062 H 
ENDBRANCH  19  22
ENDBRANCH   8  19
ENDBRANCH   3   6
BRANCH   1  33
ATOM     33  C   LIG d   1       9.857   5.419  -2.891  0.00  0.00     0.086 A 
ATOM     34  C   LIG d   1      10.183   5.716  -1.563  0.00  0.00    -0.038 A 
ATOM     35  C   LIG d   1      10.148   7.035  -1.156  0.00  0.00     0.027 A 
ATOM     36  H   LIG d   1      10.457   4.932  -0.872  0.00  0.00     0.063 H 
ATOM     37  C   LIG d   1       9.791   8.019  -2.074  0.00  0.00     0.269 A 
ATOM     38  H   LIG d   1      10.395   7.299  -0.138  0.00  0.00     0.070 H 
ATOM     39  N   LIG d   1       9.482   7.704  -3.323  0.00  0.00    -0.198 N 
ATOM     40  C   LIG d   1       9.509   6.458  -3.751  0.00  0.00     0.182 A 
ATOM     41  H   LIG d   1       9.233   8.409  -3.940  0.00  0.00     0.454 HD
ATOM     42  H   LIG d   1       9.255   6.239  -4.777  0.00  0.00     0.138 H 
BRANCH  37  43
ATOM     43  N   LIG d   1       9.753   9.347  -1.673  0.00  0.00    -0.289 N 
ATOM     44  H   LIG d   1       9.476   9.574  -0.772  0.00  0.00     0.152 HD
BRANCH  43  45
ATOM     45  C   LIG d   1      10.131  10.406  -2.612  0.00  0.00     0.038 C 
ATOM     46  H   LIG d   1      10.309   9.973  -3.596  0.00  0.00     0.049 H 
ATOM     47  H   LIG d   1      11.039  10.896  -2.260  0.00  0.00     0.049 H 
BRANCH  45  48
ATOM     48  C   LIG d   1       9.000  11.434  -2.704  0.00  0.00     0.063 C 
ATOM     49  H   LIG d   1       9.393  12.426  -2.480  0.00  0.00     0.058 H 
ATOM     50  H   LIG d   1       8.221  11.181  -1.986  0.00  0.00     0.058 H 
BRANCH  48  51
ATOM     51  O   LIG d   1       8.454  11.424  -4.024  0.00  0.00    -0.381 OA
BRANCH  51  52
ATOM     52  C   LIG d   1       9.348  10.923  -5.020  0.00  0.00     0.036 C 
ATOM     53  H   LIG d   1       8.775  10.490  -5.838  0.00  0.00     0.052 H 
ATOM     54  H   LIG d   1       9.963  11.739  -5.399  0.00  0.00     0.052 H 
ATOM     55  H   LIG d   1       9.989  10.159  -4.580  0.00  0.00     0.052 H 
ENDBRANCH  51  52
ENDBRANCH  48  51
ENDBRANCH  45  48
ENDBRANCH  43  45
ENDBRANCH  37  43
ENDBRANCH   1  33
TORSDOF 9
ENDMDL
MODEL 3
REMARK VINA RESULT:      -6.8      2.742      3.420
REMARK  9 active torsions:
REMARK  status: ('A' for Active; 'I' for Inactive)
REMARK    1  A    between atoms: C_1  and  O_2 
REMARK    2  A    between atoms: O_2  and  C_3 
REMARK    3  A    between atoms: C_3  and  C_4 
REMARK    4  A    between atoms: C_4  and  N_5 
REMARK    5  A    between atoms: N_5  and  C_6 
REMARK    6  A    between atoms: C_9  and  C_12 
REMARK    7  A    between atoms: C_14  and  C_17 
REMARK    8  A    between atoms: N_22  and  C_23 
REMARK    9  A    between atoms: C_23  and  C_24 
ROOT
ATOM      1  C   LIG d   1       8.731   2.244  -4.996  0.00  0.00     0.208 A 
ATOM      2  N   LIG d   1       8.937   1.023  -4.471  0.00  0.00    -0.186 NA
ATOM      3  C   LIG d   1       8.384   0.114  -5.224  0.00  0.00     0.276 A 
ATOM      4  O   LIG d   1       7.801   0.723  -6.265  0.00  0.00    -0.332 OA
ATOM      5  N   LIG d   1       8.033   2.114  -6.098  0.00  0.00    -0.056 NA
ENDROOT
BRANCH   3   6
ATOM      6  C   LIG d   1       8.399  -1.370  -4.968  0.00  0.00     0.060 C 
ATOM      7  H   LIG d   1       9.139  -1.620  -4.208  0.00  0.00     0.095 H 
ATOM      8  N   LIG d   1       7.051  -1.846  -4.564  0.00  0.00     0.247 N 
ATOM      9  C   LIG d   1       7.028  -3.294  -4.874  0.00  0.00    -0.031 C 
ATOM     10  H   LIG d   1       6.340  -1.367  -5.095  0.00  0.00     0.204 HD
ATOM     11  C   LIG d   1       8.056  -3.535  -5.996  0.00  0.00    -0.007 C 
ATOM     12  H   LIG d   1       6.034  -3.587  -5.213  0.00  0.00     0.082 H 
ATOM     13  H   LIG d   1       7.304  -3.865  -3.989  0.00  0.00     0.082 H 
ATOM     14  C   LIG d   1       8.678  -2.148  -6.278  0.00  0.00     0.004 C 
ATOM     15  H   LIG d   1       7.560  -3.917  -6.888  0.00  0.00     0.032 H 
ATOM     16  H   LIG d   1       8.824  -4.233  -5.660  0.00  0.00     0.032 H 
ATOM     17  H   LIG d   1       8.183  -1.669  -7.124  0.00  0.00     0.033 H 
ATOM     18  H   LIG d   1       9.750  -2.235  -6.456  0.00  0.00     0.033 H 
BRANCH   8  19
ATOM     19  C   LIG d   1       6.846  -1.629  -3.126  0.00  0.00    -0.002 C 
ATOM     20  H   LIG d   1       6.729  -2.591  -2.627  0.00  0.00     0.087 H 
ATOM     21  H   LIG d   1       7.707  -1.106  -2.711  0.00  0.00     0.087 H 
BRANCH  19  22
ATOM     22  C   LIG d   1       5.606  -0.799  -2.916  0.00  0.00     0.032 A 
ATOM     23  C   LIG d   1       4.367  -1.413  -2.843  0.00  0.00     0.132 A 
ATOM     24  C   LIG d   1       3.228  -0.649  -2.644  0.00  0.00    -0.026 A 
ATOM     25  F   LIG d   1       4.269  -2.754  -2.960  0.00  0.00    -0.205 F 
ATOM     26  C   LIG d   1       3.329   0.724  -2.530  0.00  0.00    -0.059 A 
ATOM     27  H   LIG d   1       2.262  -1.126  -2.582  0.00  0.00     0.065 H 
ATOM     28  C   LIG d   1       4.567   1.336  -2.609  0.00  0.00    -0.061 A 
ATOM     29  H   LIG d   1       2.442   1.320  -2.378  0.00  0.00     0.062 H 
ATOM     30  C   LIG d   1       5.704   0.575  -2.802  0.00  0.00    -0.051 A 
ATOM     31  H   LIG d   1       4.645   2.409  -2.519  0.00  0.00     0.062 H 
ATOM     32  H   LIG d   1       6.670   1.054  -2.863  0.00  0.00     0.062 H 
ENDBRANCH  19  22
ENDBRANCH   8  19
ENDBRANCH   3   6
BRANCH   1  33
ATOM     33  C   LIG d   1       9.209   3.525  -4.421  0.00  0.00     0.086 A 
ATOM     34  C   LIG d   1       9.209   4.693  -5.192  0.00  0.00    -0.038 A 
ATOM     35  C   LIG d   1       9.662   5.862  -4.615  0.00  0.00     0.027 A 
ATOM     36  H   LIG d   1       8.862   4.680  -6.215  0.00  0.00     0.063 H 
ATOM     37  C   LIG d   1      10.102   5.841  -3.294  0.00  0.00     0.269 A 
ATOM     38  H   LIG d   1       9.675   6.782  -5.181  0.00  0.00     0.070 H 
ATOM     39  N   LIG d   1      10.094   4.717  -2.592  0.00  0.00    -0.198 N 
ATOM     40  C   LIG d   1       9.664   3.582  -3.107  0.00  0.00     0.182 A 
ATOM     41  H   LIG d   1      10.409   4.730  -1.676  0.00  0.00     0.454 HD
ATOM     42  H   LIG d   1       9.668   2.686  -2.503  0.00  0.00     0.138 H 
BRANCH  37  43
ATOM     43  N   LIG d   1      10.559   7.012  -2.705  0.00  0.00    -0.289 N 
ATOM     44  H   LIG d   1      10.229   7.870  -3.013  0.00  0.00     0.152 HD
BRANCH  43  45
ATOM     45  C   LIG d   1      11.540   6.950  -1.619  0.00  0.00     0.038 C 
ATOM     46  H   LIG d   1      12.357   7.640  -1.828  0.00  0.00     0.049 H 
ATOM     47  H   LIG d   1      11.930   5.936  -1.540  0.00  0.00     0.049 H 
BRANCH  45  48
ATOM     48  C   LIG d   1      10.867   7.341  -0.301  0.00  0.00     0.063 C 
ATOM     49  H   LIG d   1      10.075   8.065  -0.499  0.00  0.00     0.058 H 
ATOM     50  H   LIG d   1      11.606   7.785   0.366  0.00  0.00     0.058 H 
BRANCH  48  51
ATOM     51  O   LIG d   1      10.307   6.178   0.312  0.00  0.00    -0.381 OA
BRANCH  51  52
ATOM     52  C   LIG d   1      11.035   5.716   1.452  0.00  0.00     0.036 C 
ATOM     53  H   LIG d   1      10.834   6.368   2.301  0.00  0.00     0.052 H 
ATOM     54  H   LIG d   1      10.725   4.699   1.693  0.00  0.00     0.052 H 
ATOM     55  H   LIG d   1      12.102   5.728   1.230  0.00  0.00     0.052 H 
ENDBRANCH  51  52
ENDBRANCH  48  51
ENDBRANCH  45  48
ENDBRANCH  43  45
ENDBRANCH  37  43
ENDBRANCH   1  33
TORSDOF 9
ENDMDL
MODEL 4
REMARK VINA RESULT:      -6.6      2.784      3.453
REMARK  9 active torsions:
REMARK  status: ('A' for Active; 'I' for Inactive)
REMARK    1  A    between atoms: C_1  and  O_2 
REMARK    2  A    between atoms: O_2  and  C_3 
REMARK    3  A    between atoms: C_3  and  C_4 
REMARK    4  A    between atoms: C_4  and  N_5 
REMARK    5  A    between atoms: N_5  and  C_6 
REMARK    6  A    between atoms: C_9  and  C_12 
REMARK    7  A    between atoms: C_14  and  C_17 
REMARK    8  A    between atoms: N_22  and  C_23 
REMARK    9  A    between atoms: C_23  and  C_24 
ROOT
ATOM      1  C   LIG d   1       8.685   1.869  -5.226  0.00  0.00     0.208 A 
ATOM      2  N   LIG d   1       8.916   0.641  -4.730  0.00  0.00    -0.186 NA
ATOM      3  C   LIG d   1       8.258  -0.249  -5.416  0.00  0.00     0.276 A 
ATOM      4  O   LIG d   1       7.576   0.380  -6.384  0.00  0.00    -0.332 OA
ATOM      5  N   LIG d   1       7.863   1.763  -6.242  0.00  0.00    -0.056 NA
ENDROOT
BRANCH   3   6
ATOM      6  C   LIG d   1       8.261  -1.735  -5.166  0.00  0.00     0.060 C 
ATOM      7  H   LIG d   1       9.025  -1.998  -4.435  0.00  0.00     0.095 H 
ATOM      8  N   LIG d   1       6.923  -2.194  -4.716  0.00  0.00     0.247 N 
ATOM      9  C   LIG d   1       6.869  -3.641  -5.030  0.00  0.00    -0.031 C 
ATOM     10  H   LIG d   1       6.199  -1.703  -5.219  0.00  0.00     0.204 HD
ATOM     11  C   LIG d   1       7.852  -3.891  -6.189  0.00  0.00    -0.007 C 
ATOM     12  H   LIG d   1       5.859  -3.918  -5.333  0.00  0.00     0.082 H 
ATOM     13  H   LIG d   1       7.169  -4.219  -4.157  0.00  0.00     0.082 H 
ATOM     14  C   LIG d   1       8.482  -2.511  -6.489  0.00  0.00     0.004 C 
ATOM     15  H   LIG d   1       7.318  -4.262  -7.064  0.00  0.00     0.032 H 
ATOM     16  H   LIG d   1       8.622  -4.601  -5.885  0.00  0.00     0.032 H 
ATOM     17  H   LIG d   1       7.963  -2.022  -7.314  0.00  0.00     0.033 H 
ATOM     18  H   LIG d   1       9.545  -2.612  -6.706  0.00  0.00     0.033 H 
BRANCH   8  19
ATOM     19  C   LIG d   1       6.773  -1.980  -3.270  0.00  0.00    -0.002 C 
ATOM     20  H   LIG d   1       6.771  -2.943  -2.759  0.00  0.00     0.087 H 
ATOM     21  H   LIG d   1       7.604  -1.377  -2.905  0.00  0.00     0.087 H 
BRANCH  19  22
ATOM     22  C   LIG d   1       5.476  -1.263  -3.000  0.00  0.00     0.032 A 
ATOM     23  C   LIG d   1       5.475   0.101  -2.764  0.00  0.00     0.132 A 
ATOM     24  C   LIG d   1       4.280   0.760  -2.521  0.00  0.00    -0.026 A 
ATOM     25  F   LIG d   1       6.636   0.790  -2.776  0.00  0.00    -0.205 F 
ATOM     26  C   LIG d   1       3.094   0.052  -2.504  0.00  0.00    -0.059 A 
ATOM     27  H   LIG d   1       4.277   1.824  -2.342  0.00  0.00     0.065 H 
ATOM     28  C   LIG d   1       3.097  -1.311  -2.734  0.00  0.00    -0.061 A 
ATOM     29  H   LIG d   1       2.163   0.564  -2.311  0.00  0.00     0.062 H 
ATOM     30  C   LIG d   1       4.288  -1.968  -2.982  0.00  0.00    -0.051 A 
ATOM     31  H   LIG d   1       2.169  -1.863  -2.721  0.00  0.00     0.062 H 
ATOM     32  H   LIG d   1       4.289  -3.033  -3.162  0.00  0.00     0.062 H 
ENDBRANCH  19  22
ENDBRANCH   8  19
ENDBRANCH   3   6
BRANCH   1  33
ATOM     33  C   LIG d   1       9.259   3.135  -4.706  0.00  0.00     0.086 A 
ATOM     34  C   LIG d   1       9.514   4.206  -5.570  0.00  0.00    -0.038 A 
ATOM     35  C   LIG d   1      10.048   5.364  -5.042  0.00  0.00     0.027 A 
ATOM     36  H   LIG d   1       9.297   4.129  -6.626  0.00  0.00     0.063 H 
ATOM     37  C   LIG d   1      10.315   5.427  -3.677  0.00  0.00     0.269 A 
ATOM     38  H   LIG d   1      10.257   6.210  -5.679  0.00  0.00     0.070 H 
ATOM     39  N   LIG d   1      10.067   4.393  -2.886  0.00  0.00    -0.198 N 
ATOM     40  C   LIG d   1       9.552   3.272  -3.352  0.00  0.00     0.182 A 
ATOM     41  H   LIG d   1      10.265   4.463  -1.940  0.00  0.00     0.454 HD
ATOM     42  H   LIG d   1       9.360   2.452  -2.678  0.00  0.00     0.138 H 
BRANCH  37  43
ATOM     43  N   LIG d   1      10.852   6.587  -3.137  0.00  0.00    -0.289 N 
ATOM     44  H   LIG d   1      11.814   6.695  -3.079  0.00  0.00     0.152 HD
BRANCH  43  45
ATOM     45  C   LIG d   1       9.966   7.649  -2.655  0.00  0.00     0.038 C 
ATOM     46  H   LIG d   1       9.016   7.599  -3.186  0.00  0.00     0.049 H 
ATOM     47  H   LIG d   1      10.431   8.619  -2.833  0.00  0.00     0.049 H 
BRANCH  45  48
ATOM     48  C   LIG d   1       9.723   7.470  -1.154  0.00  0.00     0.063 C 
ATOM     49  H   LIG d   1      10.574   7.865  -0.600  0.00  0.00     0.058 H 
ATOM     50  H   LIG d   1       9.604   6.409  -0.931  0.00  0.00     0.058 H 
BRANCH  48  51
ATOM     51  O   LIG d   1       8.538   8.172  -0.775  0.00  0.00    -0.381 OA
BRANCH  51  52
ATOM     52  C   LIG d   1       8.695   9.592  -0.731  0.00  0.00     0.036 C 
ATOM     53  H   LIG d   1       9.716   9.854  -1.006  0.00  0.00     0.052 H 
ATOM     54  H   LIG d   1       8.000  10.056  -1.431  0.00  0.00     0.052 H 
ATOM     55  H   LIG d   1       8.487   9.948   0.278  0.00  0.00     0.052 H 
ENDBRANCH  51  52
ENDBRANCH  48  51
ENDBRANCH  45  48
ENDBRANCH  43  45
ENDBRANCH  37  43
ENDBRANCH   1  33
TORSDOF 9
ENDMDL
MODEL 5
REMARK VINA RESULT:      -6.5      4.360      9.395
REMARK  9 active torsions:
REMARK  status: ('A' for Active; 'I' for Inactive)
REMARK    1  A    between atoms: C_1  and  O_2 
REMARK    2  A    between atoms: O_2  and  C_3 
REMARK    3  A    between atoms: C_3  and  C_4 
REMARK    4  A    between atoms: C_4  and  N_5 
REMARK    5  A    between atoms: N_5  and  C_6 
REMARK    6  A    between atoms: C_9  and  C_12 
REMARK    7  A    between atoms: C_14  and  C_17 
REMARK    8  A    between atoms: N_22  and  C_23 
REMARK    9  A    between atoms: C_23  and  C_24 
ROOT
ATOM      1  C   LIG d   1       4.665  -0.903  -7.551  0.00  0.00     0.208 A 
ATOM      2  N   LIG d   1       5.597  -1.702  -7.000  0.00  0.00    -0.186 NA
ATOM      3  C   LIG d   1       6.436  -0.993  -6.300  0.00  0.00     0.276 A 
ATOM      4  O   LIG d   1       6.072   0.295  -6.377  0.00  0.00    -0.332 OA
ATOM      5  N   LIG d   1       4.917   0.336  -7.201  0.00  0.00    -0.056 NA
ENDROOT
BRANCH   3   6
ATOM      6  C   LIG d   1       7.617  -1.529  -5.534  0.00  0.00     0.060 C 
ATOM      7  H   LIG d   1       8.353  -0.742  -5.365  0.00  0.00     0.095 H 
ATOM      8  N   LIG d   1       7.180  -2.124  -4.245  0.00  0.00     0.247 N 
ATOM      9  C   LIG d   1       8.251  -3.070  -3.856  0.00  0.00    -0.031 C 
ATOM     10  H   LIG d   1       6.309  -2.618  -4.368  0.00  0.00     0.204 HD
ATOM     11  C   LIG d   1       8.967  -3.502  -5.150  0.00  0.00    -0.007 C 
ATOM     12  H   LIG d   1       7.818  -3.941  -3.364  0.00  0.00     0.082 H 
ATOM     13  H   LIG d   1       8.956  -2.575  -3.189  0.00  0.00     0.082 H 
ATOM     14  C   LIG d   1       8.258  -2.724  -6.283  0.00  0.00     0.004 C 
ATOM     15  H   LIG d   1       8.859  -4.576  -5.302  0.00  0.00     0.032 H 
ATOM     16  H   LIG d   1      10.022  -3.229  -5.107  0.00  0.00     0.032 H 
ATOM     17  H   LIG d   1       7.491  -3.341  -6.752  0.00  0.00     0.033 H 
ATOM     18  H   LIG d   1       8.980  -2.376  -7.022  0.00  0.00     0.033 H 
BRANCH   8  19
ATOM     19  C   LIG d   1       7.031  -1.075  -3.227  0.00  0.00    -0.002 C 
ATOM     20  H   LIG d   1       7.490  -1.406  -2.296  0.00  0.00     0.087 H 
ATOM     21  H   LIG d   1       7.520  -0.164  -3.570  0.00  0.00     0.087 H 
BRANCH  19  22
ATOM     22  C   LIG d   1       5.567  -0.803  -2.997  0.00  0.00     0.032 A 
ATOM     23  C   LIG d   1       5.123   0.498  -2.830  0.00  0.00     0.132 A 
ATOM     24  C   LIG d   1       3.776   0.747  -2.624  0.00  0.00    -0.026 A 
ATOM     25  F   LIG d   1       6.001   1.523  -2.874  0.00  0.00    -0.205 F 
ATOM     26  C   LIG d   1       2.880  -0.303  -2.574  0.00  0.00    -0.059 A 
ATOM     27  H   LIG d   1       3.427   1.761  -2.499  0.00  0.00     0.065 H 
ATOM     28  C   LIG d   1       3.326  -1.602  -2.735  0.00  0.00    -0.061 A 
ATOM     29  H   LIG d   1       1.830  -0.110  -2.410  0.00  0.00     0.062 H 
ATOM     30  C   LIG d   1       4.668  -1.852  -2.946  0.00  0.00    -0.051 A 
ATOM     31  H   LIG d   1       2.624  -2.423  -2.696  0.00  0.00     0.062 H 
ATOM     32  H   LIG d   1       5.015  -2.866  -3.072  0.00  0.00     0.062 H 
ENDBRANCH  19  22
ENDBRANCH   8  19
ENDBRANCH   3   6
BRANCH   1  33
ATOM     33  C   LIG d   1       3.544  -1.347  -8.415  0.00  0.00     0.086 A 
ATOM     34  C   LIG d   1       2.618  -0.421  -8.908  0.00  0.00    -0.038 A 
ATOM     35  C   LIG d   1       1.592  -0.880  -9.709  0.00  0.00     0.027 A 
ATOM     36  H   LIG d   1       2.705   0.629  -8.668  0.00  0.00     0.063 H 
ATOM     37  C   LIG d   1       1.512  -2.240  -9.996  0.00  0.00     0.269 A 
ATOM     38  H   LIG d   1       0.860  -0.193 -10.106  0.00  0.00     0.070 H 
ATOM     39  N   LIG d   1       2.402  -3.092  -9.509  0.00  0.00    -0.198 N 
ATOM     40  C   LIG d   1       3.399  -2.691  -8.746  0.00  0.00     0.182 A 
ATOM     41  H   LIG d   1       2.321  -4.034  -9.723  0.00  0.00     0.454 HD
ATOM     42  H   LIG d   1       4.109  -3.414  -8.370  0.00  0.00     0.138 H 
BRANCH  37  43
ATOM     43  N   LIG d   1       0.483  -2.711 -10.800  0.00  0.00    -0.289 N 
ATOM     44  H   LIG d   1      -0.213  -2.106 -11.101  0.00  0.00     0.152 HD
BRANCH  43  45
ATOM     45  C   LIG d   1       0.449  -4.121 -11.195  0.00  0.00     0.038 C 
ATOM     46  H   LIG d   1       1.390  -4.598 -10.922  0.00  0.00     0.049 H 
ATOM     47  H   LIG d   1       0.304  -4.193 -12.273  0.00  0.00     0.049 H 
BRANCH  45  48
ATOM     48  C   LIG d   1      -0.707  -4.823 -10.477  0.00  0.00     0.063 C 
ATOM     49  H   LIG d   1      -1.619  -4.242 -10.605  0.00  0.00     0.058 H 
ATOM     50  H   LIG d   1      -0.476  -4.909  -9.415  0.00  0.00     0.058 H 
BRANCH  48  51
ATOM     51  O   LIG d   1      -0.890  -6.127 -11.032  0.00  0.00    -0.381 OA
BRANCH  51  52
ATOM     52  C   LIG d   1      -0.653  -7.190 -10.107  0.00  0.00     0.036 C 
ATOM     53  H   LIG d   1      -0.738  -8.146 -10.622  0.00  0.00     0.052 H 
ATOM     54  H   LIG d   1       0.349  -7.092  -9.689  0.00  0.00     0.052 H 
ATOM     55  H   LIG d   1      -1.388  -7.143  -9.304  0.00  0.00     0.052 H 
ENDBRANCH  51  52
ENDBRANCH  48  51
ENDBRANCH  45  48
ENDBRANCH  43  45
ENDBRANCH  37  43
ENDBRANCH   1  33
TORSDOF 9
ENDMDL
MODEL 6
REMARK VINA RESULT:      -6.5      2.955      4.608
REMARK  9 active torsions:
REMARK  status: ('A' for Active; 'I' for Inactive)
REMARK    1  A    between atoms: C_1  and  O_2 
REMARK    2  A    between atoms: O_2  and  C_3 
REMARK    3  A    between atoms: C_3  and  C_4 
REMARK    4  A    between atoms: C_4  and  N_5 
REMARK    5  A    between atoms: N_5  and  C_6 
REMARK    6  A    between atoms: C_9  and  C_12 
REMARK    7  A    between atoms: C_14  and  C_17 
REMARK    8  A    between atoms: N_22  and  C_23 
REMARK    9  A    between atoms: C_23  and  C_24 
ROOT
ATOM      1  C   LIG d   1       9.734   4.730  -3.496  0.00  0.00     0.208 A 
ATOM      2  N   LIG d   1       9.492   3.412  -3.606  0.00  0.00    -0.186 NA
ATOM      3  C   LIG d   1       9.129   3.124  -4.823  0.00  0.00     0.276 A 
ATOM      4  O   LIG d   1       9.125   4.254  -5.544  0.00  0.00    -0.332 OA
ATOM      5  N   LIG d   1       9.517   5.294  -4.660  0.00  0.00    -0.056 NA
ENDROOT
BRANCH   3   6
ATOM      6  C   LIG d   1       8.774   1.752  -5.336  0.00  0.00     0.060 C 
ATOM      7  H   LIG d   1       9.514   1.020  -5.013  0.00  0.00     0.095 H 
ATOM      8  N   LIG d   1       7.415   1.359  -4.885  0.00  0.00     0.247 N 
ATOM      9  C   LIG d   1       6.958   0.326  -5.842  0.00  0.00    -0.031 C 
ATOM     10  H   LIG d   1       6.796   2.155  -4.912  0.00  0.00     0.204 HD
ATOM     11  C   LIG d   1       7.721   0.559  -7.160  0.00  0.00    -0.007 C 
ATOM     12  H   LIG d   1       5.886   0.424  -6.012  0.00  0.00     0.082 H 
ATOM     13  H   LIG d   1       7.186  -0.666  -5.452  0.00  0.00     0.082 H 
ATOM     14  C   LIG d   1       8.652   1.761  -6.881  0.00  0.00     0.004 C 
ATOM     15  H   LIG d   1       7.025   0.798  -7.964  0.00  0.00     0.032 H 
ATOM     16  H   LIG d   1       8.309  -0.324  -7.417  0.00  0.00     0.032 H 
ATOM     17  H   LIG d   1       8.197   2.690  -7.226  0.00  0.00     0.033 H 
ATOM     18  H   LIG d   1       9.626   1.611  -7.346  0.00  0.00     0.033 H 
BRANCH   8  19
ATOM     19  C   LIG d   1       7.473   0.805  -3.525  0.00  0.00    -0.002 C 
ATOM     20  H   LIG d   1       8.110  -0.079  -3.521  0.00  0.00     0.087 H 
ATOM     21  H   LIG d   1       7.882   1.553  -2.846  0.00  0.00     0.087 H 
BRANCH  19  22
ATOM     22  C   LIG d   1       6.084   0.427  -3.078  0.00  0.00     0.032 A 
ATOM     23  C   LIG d   1       5.750  -0.906  -2.913  0.00  0.00     0.132 A 
ATOM     24  C   LIG d   1       4.475  -1.253  -2.496  0.00  0.00    -0.026 A 
ATOM     25  F   LIG d   1       6.667  -1.869  -3.151  0.00  0.00    -0.205 F 
ATOM     26  C   LIG d   1       3.536  -0.268  -2.258  0.00  0.00    -0.059 A 
ATOM     27  H   LIG d   1       4.214  -2.291  -2.362  0.00  0.00     0.065 H 
ATOM     28  C   LIG d   1       3.870   1.063  -2.429  0.00  0.00    -0.061 A 
ATOM     29  H   LIG d   1       2.541  -0.537  -1.937  0.00  0.00     0.062 H 
ATOM     30  C   LIG d   1       5.143   1.410  -2.839  0.00  0.00    -0.051 A 
ATOM     31  H   LIG d   1       3.135   1.832  -2.242  0.00  0.00     0.062 H 
ATOM     32  H   LIG d   1       5.403   2.449  -2.972  0.00  0.00     0.062 H 
ENDBRANCH  19  22
ENDBRANCH   8  19
ENDBRANCH   3   6
BRANCH   1  33
ATOM     33  C   LIG d   1      10.167   5.432  -2.263  0.00  0.00     0.086 A 
ATOM     34  C   LIG d   1      11.133   4.865  -1.425  0.00  0.00    -0.038 A 
ATOM     35  C   LIG d   1      11.504   5.554  -0.288  0.00  0.00     0.027 A 
ATOM     36  H   LIG d   1      11.578   3.909  -1.662  0.00  0.00     0.063 H 
ATOM     37  C   LIG d   1      10.909   6.782  -0.015  0.00  0.00     0.269 A 
ATOM     38  H   LIG d   1      12.247   5.145   0.381  0.00  0.00     0.070 H 
ATOM     39  N   LIG d   1       9.993   7.290  -0.826  0.00  0.00    -0.198 N 
ATOM     40  C   LIG d   1       9.616   6.665  -1.923  0.00  0.00     0.182 A 
ATOM     41  H   LIG d   1       9.592   8.146  -0.610  0.00  0.00     0.454 HD
ATOM     42  H   LIG d   1       8.869   7.111  -2.563  0.00  0.00     0.138 H 
BRANCH  37  43
ATOM     43  N   LIG d   1      11.276   7.483   1.126  0.00  0.00    -0.289 N 
ATOM     44  H   LIG d   1      11.542   7.002   1.925  0.00  0.00     0.152 HD
BRANCH  43  45
ATOM     45  C   LIG d   1      11.261   8.948   1.122  0.00  0.00     0.038 C 
ATOM     46  H   LIG d   1      10.261   9.301   1.370  0.00  0.00     0.049 H 
ATOM     47  H   LIG d   1      11.541   9.311   0.133  0.00  0.00     0.049 H 
BRANCH  45  48
ATOM     48  C   LIG d   1      12.260   9.470   2.158  0.00  0.00     0.063 C 
ATOM     49  H   LIG d   1      12.074  10.529   2.338  0.00  0.00     0.058 H 
ATOM     50  H   LIG d   1      13.274   9.338   1.783  0.00  0.00     0.058 H 
BRANCH  48  51
ATOM     51  O   LIG d   1      12.104   8.744   3.379  0.00  0.00    -0.381 OA
BRANCH  51  52
ATOM     52  C   LIG d   1      12.424   9.500   4.549  0.00  0.00     0.036 C 
ATOM     53  H   LIG d   1      11.505   9.803   5.048  0.00  0.00     0.052 H 
ATOM     54  H   LIG d   1      13.020   8.887   5.225  0.00  0.00     0.052 H 
ATOM     55  H   LIG d   1      12.993  10.386   4.265  0.00  0.00     0.052 H 
ENDBRANCH  51  52
ENDBRANCH  48  51
ENDBRANCH  45  48
ENDBRANCH  43  45
ENDBRANCH  37  43
ENDBRANCH   1  33
TORSDOF 9
ENDMDL
MODEL 7
REMARK VINA RESULT:      -6.3      4.090      9.053
REMARK  9 active torsions:
REMARK  status: ('A' for Active; 'I' for Inactive)
REMARK    1  A    between atoms: C_1  and  O_2 
REMARK    2  A    between atoms: O_2  and  C_3 
REMARK    3  A    between atoms: C_3  and  C_4 
REMARK    4  A    between atoms: C_4  and  N_5 
REMARK    5  A    between atoms: N_5  and  C_6 
REMARK    6  A    between atoms: C_9  and  C_12 
REMARK    7  A    between atoms: C_14  and  C_17 
REMARK    8  A    between atoms: N_22  and  C_23 
REMARK    9  A    between atoms: C_23  and  C_24 
ROOT
ATOM      1  C   LIG d   1       4.793  -0.247  -8.151  0.00  0.00     0.208 A 
ATOM      2  N   LIG d   1       5.830  -0.906  -7.604  0.00  0.00    -0.186 NA
ATOM      3  C   LIG d   1       6.679  -0.058  -7.095  0.00  0.00     0.276 A 
ATOM      4  O   LIG d   1       6.213   1.182  -7.297  0.00  0.00    -0.332 OA
ATOM      5  N   LIG d   1       4.983   1.040  -7.992  0.00  0.00    -0.056 NA
ENDROOT
BRANCH   3   6
ATOM      6  C   LIG d   1       7.965  -0.412  -6.396  0.00  0.00     0.060 C 
ATOM      7  H   LIG d   1       8.505   0.490  -6.108  0.00  0.00     0.095 H 
ATOM      8  N   LIG d   1       7.701  -1.266  -5.210  0.00  0.00     0.247 N 
ATOM      9  C   LIG d   1       8.967  -1.987  -4.944  0.00  0.00    -0.031 C 
ATOM     10  H   LIG d   1       6.964  -1.924  -5.413  0.00  0.00     0.204 HD
ATOM     11  C   LIG d   1       9.738  -2.057  -6.276  0.00  0.00    -0.007 C 
ATOM     12  H   LIG d   1       8.754  -2.994  -4.585  0.00  0.00     0.082 H 
ATOM     13  H   LIG d   1       9.553  -1.442  -4.205  0.00  0.00     0.082 H 
ATOM     14  C   LIG d   1       8.848  -1.312  -7.297  0.00  0.00     0.004 C 
ATOM     15  H   LIG d   1       9.875  -3.095  -6.580  0.00  0.00     0.032 H 
ATOM     16  H   LIG d   1      10.703  -1.559  -6.181  0.00  0.00     0.032 H 
ATOM     17  H   LIG d   1       8.233  -2.016  -7.859  0.00  0.00     0.033 H 
ATOM     18  H   LIG d   1       9.457  -0.707  -7.970  0.00  0.00     0.033 H 
BRANCH   8  19
ATOM     19  C   LIG d   1       7.336  -0.433  -4.056  0.00  0.00    -0.002 C 
ATOM     20  H   LIG d   1       8.117  -0.500  -3.299  0.00  0.00     0.087 H 
ATOM     21  H   LIG d   1       7.228   0.603  -4.376  0.00  0.00     0.087 H 
BRANCH  19  22
ATOM     22  C   LIG d   1       6.032  -0.919  -3.478  0.00  0.00     0.032 A 
ATOM     23  C   LIG d   1       5.297  -0.096  -2.642  0.00  0.00     0.132 A 
ATOM     24  C   LIG d   1       4.095  -0.542  -2.116  0.00  0.00    -0.026 A 
ATOM     25  F   LIG d   1       5.746   1.142  -2.345  0.00  0.00    -0.205 F 
ATOM     26  C   LIG d   1       3.639  -1.811  -2.417  0.00  0.00    -0.059 A 
ATOM     27  H   LIG d   1       3.518   0.100  -1.468  0.00  0.00     0.065 H 
ATOM     28  C   LIG d   1       4.378  -2.634  -3.247  0.00  0.00    -0.061 A 
ATOM     29  H   LIG d   1       2.704  -2.161  -2.003  0.00  0.00     0.062 H 
ATOM     30  C   LIG d   1       5.574  -2.188  -3.777  0.00  0.00    -0.051 A 
ATOM     31  H   LIG d   1       4.020  -3.626  -3.481  0.00  0.00     0.062 H 
ATOM     32  H   LIG d   1       6.149  -2.831  -4.425  0.00  0.00     0.062 H 
ENDBRANCH  19  22
ENDBRANCH   8  19
ENDBRANCH   3   6
BRANCH   1  33
ATOM     33  C   LIG d   1       3.629  -0.873  -8.826  0.00  0.00     0.086 A 
ATOM     34  C   LIG d   1       2.525  -0.099  -9.200  0.00  0.00    -0.038 A 
ATOM     35  C   LIG d   1       1.466  -0.723  -9.827  0.00  0.00     0.027 A 
ATOM     36  H   LIG d   1       2.502   0.963  -9.004  0.00  0.00     0.063 H 
ATOM     37  C   LIG d   1       1.530  -2.094 -10.064  0.00  0.00     0.269 A 
ATOM     38  H   LIG d   1       0.598  -0.157 -10.129  0.00  0.00     0.070 H 
ATOM     39  N   LIG d   1       2.589  -2.800  -9.692  0.00  0.00    -0.198 N 
ATOM     40  C   LIG d   1       3.621  -2.238  -9.096  0.00  0.00     0.182 A 
ATOM     41  H   LIG d   1       2.606  -3.753  -9.866  0.00  0.00     0.454 HD
ATOM     42  H   LIG d   1       4.469  -2.844  -8.812  0.00  0.00     0.138 H 
BRANCH  37  43
ATOM     43  N   LIG d   1       0.470  -2.731 -10.693  0.00  0.00    -0.289 N 
ATOM     44  H   LIG d   1      -0.180  -2.212 -11.194  0.00  0.00     0.152 HD
BRANCH  43  45
ATOM     45  C   LIG d   1       0.331  -4.186 -10.602  0.00  0.00     0.038 C 
ATOM     46  H   LIG d   1      -0.690  -4.437 -10.314  0.00  0.00     0.049 H 
ATOM     47  H   LIG d   1       1.025  -4.571  -9.854  0.00  0.00     0.049 H 
BRANCH  45  48
ATOM     48  C   LIG d   1       0.648  -4.816 -11.961  0.00  0.00     0.063 C 
ATOM     49  H   LIG d   1      -0.008  -4.388 -12.719  0.00  0.00     0.058 H 
ATOM     50  H   LIG d   1       0.488  -5.892 -11.907  0.00  0.00     0.058 H 
BRANCH  48  51
ATOM     51  O   LIG d   1       2.009  -4.552 -12.303  0.00  0.00    -0.381 OA
BRANCH  51  52
ATOM     52  C   LIG d   1       2.874  -5.681 -12.157  0.00  0.00     0.036 C 
ATOM     53  H   LIG d   1       2.800  -6.067 -11.141  0.00  0.00     0.052 H 
ATOM     54  H   LIG d   1       2.579  -6.457 -12.863  0.00  0.00     0.052 H 
ATOM     55  H   LIG d   1       3.902  -5.379 -12.357  0.00  0.00     0.052 H 
ENDBRANCH  51  52
ENDBRANCH  48  51
ENDBRANCH  45  48
ENDBRANCH  43  45
ENDBRANCH  37  43
ENDBRANCH   1  33
TORSDOF 9
ENDMDL
MODEL 8
REMARK VINA RESULT:      -6.2      2.563      3.489
REMARK  9 active torsions:
REMARK  status: ('A' for Active; 'I' for Inactive)
REMARK    1  A    between atoms: C_1  and  O_2 
REMARK    2  A    between atoms: O_2  and  C_3 
REMARK    3  A    between atoms: C_3  and  C_4 
REMARK    4  A    between atoms: C_4  and  N_5 
REMARK    5  A    between atoms: N_5  and  C_6 
REMARK    6  A    between atoms: C_9  and  C_12 
REMARK    7  A    between atoms: C_14  and  C_17 
REMARK    8  A    between atoms: N_22  and  C_23 
REMARK    9  A    between atoms: C_23  and  C_24 
ROOT
ATOM      1  C   LIG d   1       9.630   3.216  -4.928  0.00  0.00     0.208 A 
ATOM      2  N   LIG d   1       8.546   2.586  -5.417  0.00  0.00    -0.186 NA
ATOM      3  C   LIG d   1       8.902   1.485  -6.017  0.00  0.00     0.276 A 
ATOM      4  O   LIG d   1      10.234   1.368  -5.933  0.00  0.00    -0.332 OA
ATOM      5  N   LIG d   1      10.694   2.509  -5.224  0.00  0.00    -0.056 NA
ENDROOT
BRANCH   3   6
ATOM      6  C   LIG d   1       7.973   0.509  -6.690  0.00  0.00     0.060 C 
ATOM      7  H   LIG d   1       8.496  -0.418  -6.922  0.00  0.00     0.095 H 
ATOM      8  N   LIG d   1       6.786   0.242  -5.838  0.00  0.00     0.247 N 
ATOM      9  C   LIG d   1       5.731  -0.239  -6.760  0.00  0.00    -0.031 C 
ATOM     10  H   LIG d   1       6.486   1.092  -5.383  0.00  0.00     0.204 HD
ATOM     11  C   LIG d   1       6.054   0.327  -8.155  0.00  0.00    -0.007 C 
ATOM     12  H   LIG d   1       4.756   0.121  -6.430  0.00  0.00     0.082 H 
ATOM     13  H   LIG d   1       5.737  -1.328  -6.791  0.00  0.00     0.082 H 
ATOM     14  C   LIG d   1       7.364   1.129  -7.973  0.00  0.00     0.004 C 
ATOM     15  H   LIG d   1       5.252   0.984  -8.493  0.00  0.00     0.032 H 
ATOM     16  H   LIG d   1       6.204  -0.485  -8.867  0.00  0.00     0.032 H 
ATOM     17  H   LIG d   1       7.150   2.188  -7.825  0.00  0.00     0.033 H 
ATOM     18  H   LIG d   1       8.027   0.984  -8.825  0.00  0.00     0.033 H 
BRANCH   8  19
ATOM     19  C   LIG d   1       7.099  -0.788  -4.839  0.00  0.00    -0.002 C 
ATOM     20  H   LIG d   1       7.116  -1.766  -5.320  0.00  0.00     0.087 H 
ATOM     21  H   LIG d   1       8.075  -0.582  -4.399  0.00  0.00     0.087 H 
BRANCH  19  22
ATOM     22  C   LIG d   1       6.049  -0.776  -3.759  0.00  0.00     0.032 A 
ATOM     23  C   LIG d   1       5.841   0.368  -3.008  0.00  0.00     0.132 A 
ATOM     24  C   LIG d   1       4.871   0.379  -2.018  0.00  0.00    -0.026 A 
ATOM     25  F   LIG d   1       6.579   1.475  -3.242  0.00  0.00    -0.205 F 
ATOM     26  C   LIG d   1       4.121  -0.755  -1.775  0.00  0.00    -0.059 A 
ATOM     27  H   LIG d   1       4.705   1.272  -1.435  0.00  0.00     0.065 H 
ATOM     28  C   LIG d   1       4.334  -1.899  -2.523  0.00  0.00    -0.061 A 
ATOM     29  H   LIG d   1       3.367  -0.748  -1.002  0.00  0.00     0.062 H 
ATOM     30  C   LIG d   1       5.297  -1.909  -3.513  0.00  0.00    -0.051 A 
ATOM     31  H   LIG d   1       3.746  -2.785  -2.332  0.00  0.00     0.062 H 
ATOM     32  H   LIG d   1       5.462  -2.803  -4.096  0.00  0.00     0.062 H 
ENDBRANCH  19  22
ENDBRANCH   8  19
ENDBRANCH   3   6
BRANCH   1  33
ATOM     33  C   LIG d   1       9.624   4.499  -4.184  0.00  0.00     0.086 A 
ATOM     34  C   LIG d   1       9.304   5.696  -4.836  0.00  0.00    -0.038 A 
ATOM     35  C   LIG d   1       9.311   6.865  -4.103  0.00  0.00     0.027 A 
ATOM     36  H   LIG d   1       9.057   5.704  -5.887  0.00  0.00     0.063 H 
ATOM     37  C   LIG d   1       9.635   6.816  -2.750  0.00  0.00     0.269 A 
ATOM     38  H   LIG d   1       9.069   7.807  -4.574  0.00  0.00     0.070 H 
ATOM     39  N   LIG d   1       9.938   5.667  -2.164  0.00  0.00    -0.198 N 
ATOM     40  C   LIG d   1       9.937   4.529  -2.828  0.00  0.00     0.182 A 
ATOM     41  H   LIG d   1      10.164   5.663  -1.221  0.00  0.00     0.454 HD
ATOM     42  H   LIG d   1      10.186   3.611  -2.316  0.00  0.00     0.138 H 
BRANCH  37  43
ATOM     43  N   LIG d   1       9.645   7.988  -2.005  0.00  0.00    -0.289 N 
ATOM     44  H   LIG d   1       9.025   8.098  -1.267  0.00  0.00     0.152 HD
BRANCH  43  45
ATOM     45  C   LIG d   1      10.591   9.057  -2.334  0.00  0.00     0.038 C 
ATOM     46  H   LIG d   1      10.895   8.965  -3.376  0.00  0.00     0.049 H 
ATOM     47  H   LIG d   1      11.468   8.976  -1.691  0.00  0.00     0.049 H 
BRANCH  45  48
ATOM     48  C   LIG d   1       9.922  10.416  -2.114  0.00  0.00     0.063 C 
ATOM     49  H   LIG d   1      10.639  11.105  -1.668  0.00  0.00     0.058 H 
ATOM     50  H   LIG d   1       9.069  10.296  -1.446  0.00  0.00     0.058 H 
BRANCH  48  51
ATOM     51  O   LIG d   1       9.477  10.936  -3.368  0.00  0.00    -0.381 OA
BRANCH  51  52
ATOM     52  C   LIG d   1       8.368  11.833  -3.264  0.00  0.00     0.036 C 
ATOM     53  H   LIG d   1       8.298  12.206  -2.243  0.00  0.00     0.052 H 
ATOM     54  H   LIG d   1       8.513  12.669  -3.948  0.00  0.00     0.052 H 
ATOM     55  H   LIG d   1       7.450  11.306  -3.523  0.00  0.00     0.052 H 
ENDBRANCH  51  52
ENDBRANCH  48  51
ENDBRANCH  45  48
ENDBRANCH  43  45
ENDBRANCH  37  43
ENDBRANCH   1  33
TORSDOF 9
ENDMDL
MODEL 9
REMARK VINA RESULT:      -6.0      5.619      7.154
REMARK  9 active torsions:
REMARK  status: ('A' for Active; 'I' for Inactive)
REMARK    1  A    between atoms: C_1  and  O_2 
REMARK    2  A    between atoms: O_2  and  C_3 
REMARK    3  A    between atoms: C_3  and  C_4 
REMARK    4  A    between atoms: C_4  and  N_5 
REMARK    5  A    between atoms: N_5  and  C_6 
REMARK    6  A    between atoms: C_9  and  C_12 
REMARK    7  A    between atoms: C_14  and  C_17 
REMARK    8  A    between atoms: N_22  and  C_23 
REMARK    9  A    between atoms: C_23  and  C_24 
ROOT
ATOM      1  C   LIG d   1       8.443  -3.771  -4.897  0.00  0.00     0.208 A 
ATOM      2  N   LIG d   1       7.158  -3.680  -5.284  0.00  0.00    -0.186 NA
ATOM      3  C   LIG d   1       7.053  -2.872  -6.300  0.00  0.00     0.276 A 
ATOM      4  O   LIG d   1       8.274  -2.412  -6.605  0.00  0.00    -0.332 OA
ATOM      5  N   LIG d   1       9.169  -3.005  -5.676  0.00  0.00    -0.056 NA
ENDROOT
BRANCH   3   6
ATOM      6  C   LIG d   1       5.775  -2.516  -7.014  0.00  0.00     0.060 C 
ATOM      7  H   LIG d   1       5.089  -3.363  -7.018  0.00  0.00     0.095 H 
ATOM      8  N   LIG d   1       5.138  -1.329  -6.388  0.00  0.00     0.247 N 
ATOM      9  C   LIG d   1       4.264  -0.745  -7.431  0.00  0.00    -0.031 C 
ATOM     10  H   LIG d   1       5.843  -0.660  -6.113  0.00  0.00     0.204 HD
ATOM     11  C   LIG d   1       4.841  -1.169  -8.796  0.00  0.00    -0.007 C 
ATOM     12  H   LIG d   1       4.262   0.342  -7.351  0.00  0.00     0.082 H 
ATOM     13  H   LIG d   1       3.251  -1.130  -7.321  0.00  0.00     0.082 H 
ATOM     14  C   LIG d   1       6.070  -2.045  -8.461  0.00  0.00     0.004 C 
ATOM     15  H   LIG d   1       5.146  -0.291  -9.367  0.00  0.00     0.032 H 
ATOM     16  H   LIG d   1       4.104  -1.747  -9.354  0.00  0.00     0.032 H 
ATOM     17  H   LIG d   1       6.986  -1.454  -8.494  0.00  0.00     0.033 H 
ATOM     18  H   LIG d   1       6.133  -2.896  -9.139  0.00  0.00     0.033 H 
BRANCH   8  19
ATOM     19  C   LIG d   1       4.341  -1.736  -5.223  0.00  0.00    -0.002 C 
ATOM     20  H   LIG d   1       3.293  -1.816  -5.512  0.00  0.00     0.087 H 
ATOM     21  H   LIG d   1       4.693  -2.702  -4.862  0.00  0.00     0.087 H 
BRANCH  19  22
ATOM     22  C   LIG d   1       4.486  -0.708  -4.131  0.00  0.00     0.032 A 
ATOM     23  C   LIG d   1       3.394  -0.368  -3.351  0.00  0.00     0.132 A 
ATOM     24  C   LIG d   1       3.529   0.573  -2.344  0.00  0.00    -0.026 A 
ATOM     25  F   LIG d   1       2.198  -0.959  -3.568  0.00  0.00    -0.205 F 
ATOM     26  C   LIG d   1       4.752   1.180  -2.128  0.00  0.00    -0.059 A 
ATOM     27  H   LIG d   1       2.680   0.835  -1.732  0.00  0.00     0.065 H 
ATOM     28  C   LIG d   1       5.840   0.844  -2.911  0.00  0.00    -0.061 A 
ATOM     29  H   LIG d   1       4.857   1.917  -1.345  0.00  0.00     0.062 H 
ATOM     30  C   LIG d   1       5.707  -0.099  -3.913  0.00  0.00    -0.051 A 
ATOM     31  H   LIG d   1       6.795   1.319  -2.741  0.00  0.00     0.062 H 
ATOM     32  H   LIG d   1       6.558  -0.360  -4.524  0.00  0.00     0.062 H 
ENDBRANCH  19  22
ENDBRANCH   8  19
ENDBRANCH   3   6
BRANCH   1  33
ATOM     33  C   LIG d   1       8.954  -4.593  -3.773  0.00  0.00     0.086 A 
ATOM     34  C   LIG d   1       9.003  -5.988  -3.879  0.00  0.00    -0.038 A 
ATOM     35  C   LIG d   1       9.485  -6.712  -2.808  0.00  0.00     0.027 A 
ATOM     36  H   LIG d   1       8.671  -6.486  -4.778  0.00  0.00     0.063 H 
ATOM     37  C   LIG d   1       9.904  -6.036  -1.665  0.00  0.00     0.269 A 
ATOM     38  H   LIG d   1       9.537  -7.790  -2.856  0.00  0.00     0.070 H 
ATOM     39  N   LIG d   1       9.840  -4.714  -1.595  0.00  0.00    -0.198 N 
ATOM     40  C   LIG d   1       9.390  -3.988  -2.598  0.00  0.00     0.182 A 
ATOM     41  H   LIG d   1      10.135  -4.269  -0.786  0.00  0.00     0.454 HD
ATOM     42  H   LIG d   1       9.356  -2.912  -2.506  0.00  0.00     0.138 H 
BRANCH  37  43
ATOM     43  N   LIG d   1      10.391  -6.756  -0.583  0.00  0.00    -0.289 N 
ATOM     44  H   LIG d   1      10.218  -6.449   0.321  0.00  0.00     0.152 HD
BRANCH  43  45
ATOM     45  C   LIG d   1      11.167  -7.978  -0.806  0.00  0.00     0.038 C 
ATOM     46  H   LIG d   1      11.905  -7.803  -1.588  0.00  0.00     0.049 H 
ATOM     47  H   LIG d   1      10.497  -8.782  -1.112  0.00  0.00     0.049 H 
BRANCH  45  48
ATOM     48  C   LIG d   1      11.880  -8.374   0.489  0.00  0.00     0.063 C 
ATOM     49  H   LIG d   1      12.372  -7.499   0.913  0.00  0.00     0.058 H 
ATOM     50  H   LIG d   1      12.623  -9.141   0.274  0.00  0.00     0.058 H 
BRANCH  48  51
ATOM     51  O   LIG d   1      10.925  -8.883   1.422  0.00  0.00    -0.381 OA
BRANCH  51  52
ATOM     52  C   LIG d   1      11.117  -8.421   2.761  0.00  0.00     0.036 C 
ATOM     53  H   LIG d   1      11.660  -7.477   2.745  0.00  0.00     0.052 H 
ATOM     54  H   LIG d   1      10.148  -8.275   3.237  0.00  0.00     0.052 H 
ATOM     55  H   LIG d   1      11.690  -9.160   3.321  0.00  0.00     0.052 H 
ENDBRANCH  51  52
ENDBRANCH  48  51
ENDBRANCH  45  48
ENDBRANCH  43  45
ENDBRANCH  37  43
ENDBRANCH   1  33
TORSDOF 9
ENDMDL
