MODEL 1
REMARK VINA RESULT:      -5.6      0.000      0.000
REMARK  12 active torsions:
REMARK  status: ('A' for Active; 'I' for Inactive)
REMARK    1  A    between atoms: C_1  and  C_2 
REMARK    2  A    between atoms: C_2  and  C_3 
REMARK    3  A    between atoms: C_2  and  O_4 
REMARK    4  A    between atoms: O_4  and  P_5 
REMARK    5  A    between atoms: P_5  and  N_7 
REMARK    6  A    between atoms: P_5  and  O_24 
REMARK       I    between atoms: N_7  and  C_8 
REMARK    7  A    between atoms: C_8  and  O_10 
REMARK    8  A    between atoms: O_10  and  C_11 
REMARK    9  A    between atoms: C_11  and  C_12 
REMARK   10  A    between atoms: O_24  and  C_25 
REMARK   11  A    between atoms: C_25  and  C_26 
REMARK   12  A    between atoms: C_25  and  C_27 
ROOT
ATOM      1  C   LIG d   1       4.345  -1.758  -7.885  0.00  0.00     0.102 C 
ATOM      2  H   LIG d   1       4.559  -0.842  -7.333  0.00  0.00     0.070 H 
ATOM      3  H   LIG d   1       5.145  -1.945  -8.600  0.00  0.00     0.070 H 
ENDROOT
BRANCH   1   4
ATOM      4  O   LIG d   1       4.256  -2.854  -6.972  0.00  0.00    -0.450 OA
BRANCH   4   5
ATOM      5  C   LIG d   1       4.728  -2.654  -5.728  0.00  0.00     0.407 C 
ATOM      6  N   LIG d   1       5.600  -1.655  -5.490  0.00  0.00    -0.213 N 
ATOM      7  H   LIG d   1       5.829  -1.032  -6.198  0.00  0.00     0.161 HD
ATOM      8  O   LIG d   1       4.368  -3.375  -4.818  0.00  0.00    -0.226 OA
BRANCH   6   9
ATOM      9  P   LIG d   1       6.275  -1.491  -4.004  0.00  0.00     0.266 P 
ATOM     10  S   LIG d   1       7.480  -0.069  -4.022  0.00  0.00     0.013 SA
BRANCH   9  11
ATOM     11  O   LIG d   1       7.051  -2.846  -3.615  0.00  0.00    -0.314 OA
BRANCH  11  12
ATOM     12  C   LIG d   1       8.180  -3.334  -4.343  0.00  0.00     0.061 C 
ATOM     13  H   LIG d   1       8.552  -2.551  -5.003  0.00  0.00     0.059 H 
BRANCH  12  14
ATOM     14  C   LIG d   1       9.283  -3.740  -3.363  0.00  0.00    -0.038 C 
ATOM     15  H   LIG d   1       8.832  -4.140  -2.454  0.00  0.00     0.025 H 
ATOM     16  H   LIG d   1       9.914  -4.500  -3.820  0.00  0.00     0.025 H 
ATOM     17  H   LIG d   1       9.886  -2.867  -3.115  0.00  0.00     0.025 H 
ENDBRANCH  12  14
BRANCH  12  18
ATOM     18  C   LIG d   1       7.765  -4.549  -5.174  0.00  0.00    -0.038 C 
ATOM     19  H   LIG d   1       6.877  -4.305  -5.758  0.00  0.00     0.025 H 
ATOM     20  H   LIG d   1       8.578  -4.823  -5.848  0.00  0.00     0.025 H 
ATOM     21  H   LIG d   1       7.546  -5.386  -4.511  0.00  0.00     0.025 H 
ENDBRANCH  12  18
ENDBRANCH  11  12
ENDBRANCH   9  11
BRANCH   9  22
ATOM     22  O   LIG d   1       5.121  -1.203  -2.919  0.00  0.00    -0.314 OA
BRANCH  22  23
ATOM     23  C   LIG d   1       4.241  -0.081  -2.999  0.00  0.00     0.061 C 
ATOM     24  H   LIG d   1       4.455   0.486  -3.905  0.00  0.00     0.059 H 
BRANCH  23  25
ATOM     25  C   LIG d   1       2.791  -0.571  -3.036  0.00  0.00    -0.038 C 
ATOM     26  H   LIG d   1       2.218  -0.067  -2.258  0.00  0.00     0.025 H 
ATOM     27  H   LIG d   1       2.357  -0.346  -4.010  0.00  0.00     0.025 H 
ATOM     28  H   LIG d   1       2.767  -1.647  -2.867  0.00  0.00     0.025 H 
ENDBRANCH  23  25
BRANCH  23  29
ATOM     29  C   LIG d   1       4.445   0.816  -1.777  0.00  0.00    -0.038 C 
ATOM     30  H   LIG d   1       4.093   1.823  -2.001  0.00  0.00     0.025 H 
ATOM     31  H   LIG d   1       3.882   0.414  -0.933  0.00  0.00     0.025 H 
ATOM     32  H   LIG d   1       5.505   0.849  -1.523  0.00  0.00     0.025 H 
ENDBRANCH  23  29
ENDBRANCH  22  23
ENDBRANCH   9  22
ENDBRANCH   6   9
ENDBRANCH   4   5
ENDBRANCH   1   4
BRANCH   1  33
ATOM     33  C   LIG d   1       3.019  -1.607  -8.632  0.00  0.00     0.036 C 
ATOM     34  H   LIG d   1       2.194  -1.814  -7.950  0.00  0.00     0.039 H 
ATOM     35  C   LIG d   1       2.893  -0.174  -9.162  0.00  0.00    -0.015 C 
ATOM     36  N   LIG d   1       3.983   0.114 -10.098  0.00  0.00     0.238 N 
ATOM     37  H   LIG d   1       1.936  -0.057  -9.670  0.00  0.00     0.086 H 
ATOM     38  C   LIG d   1       2.961   0.784  -7.968  0.00  0.00    -0.009 C 
ATOM     39  C   LIG d   1       3.920  -0.803 -11.246  0.00  0.00    -0.032 C 
ATOM     40  C   LIG d   1       3.864   1.488 -10.606  0.00  0.00    -0.032 C 
ATOM     41  H   LIG d   1       4.868   0.004  -9.627  0.00  0.00     0.204 HD
ATOM     42  C   LIG d   1       4.102  -2.247 -10.777  0.00  0.00    -0.012 C 
ATOM     43  H   LIG d   1       4.710  -0.550 -11.953  0.00  0.00     0.081 H 
ATOM     44  H   LIG d   1       2.953  -0.702 -11.736  0.00  0.00     0.081 H 
ATOM     45  C   LIG d   1       2.975  -2.595  -9.798  0.00  0.00    -0.037 C 
ATOM     46  H   LIG d   1       5.065  -2.350 -10.277  0.00  0.00     0.032 H 
ATOM     47  H   LIG d   1       4.061  -2.917 -11.635  0.00  0.00     0.032 H 
ATOM     48  H   LIG d   1       3.117  -3.609  -9.424  0.00  0.00     0.027 H 
ATOM     49  H   LIG d   1       2.014  -2.520 -10.306  0.00  0.00     0.027 H 
ATOM     50  C   LIG d   1       3.990   2.487  -9.462  0.00  0.00    -0.012 C 
ATOM     51  H   LIG d   1       4.656   1.673 -11.332  0.00  0.00     0.081 H 
ATOM     52  H   LIG d   1       2.897   1.612 -11.092  0.00  0.00     0.081 H 
ATOM     53  C   LIG d   1       2.861   2.229  -8.457  0.00  0.00    -0.043 C 
ATOM     54  H   LIG d   1       3.908   3.502  -9.851  0.00  0.00     0.032 H 
ATOM     55  H   LIG d   1       4.953   2.360  -8.967  0.00  0.00     0.032 H 
ATOM     56  H   LIG d   1       1.897   2.385  -8.944  0.00  0.00     0.027 H 
ATOM     57  H   LIG d   1       2.961   2.910  -7.612  0.00  0.00     0.027 H 
ATOM     58  H   LIG d   1       2.137   0.574  -7.286  0.00  0.00     0.032 H 
ATOM     59  H   LIG d   1       3.907   0.643  -7.444  0.00  0.00     0.032 H 
ENDBRANCH   1  33
TORSDOF 12
ENDMDL
MODEL 2
REMARK VINA RESULT:      -5.6      1.813      3.141
REMARK  12 active torsions:
REMARK  status: ('A' for Active; 'I' for Inactive)
REMARK    1  A    between atoms: C_1  and  C_2 
REMARK    2  A    between atoms: C_2  and  C_3 
REMARK    3  A    between atoms: C_2  and  O_4 
REMARK    4  A    between atoms: O_4  and  P_5 
REMARK    5  A    between atoms: P_5  and  N_7 
REMARK    6  A    between atoms: P_5  and  O_24 
REMARK       I    between atoms: N_7  and  C_8 
REMARK    7  A    between atoms: C_8  and  O_10 
REMARK    8  A    between atoms: O_10  and  C_11 
REMARK    9  A    between atoms: C_11  and  C_12 
REMARK   10  A    between atoms: O_24  and  C_25 
REMARK   11  A    between atoms: C_25  and  C_26 
REMARK   12  A    between atoms: C_25  and  C_27 
ROOT
ATOM      1  C   LIG d   1       4.330  -1.883  -8.245  0.00  0.00     0.102 C 
ATOM      2  H   LIG d   1       4.728  -0.935  -7.881  0.00  0.00     0.070 H 
ATOM      3  H   LIG d   1       5.005  -2.295  -8.995  0.00  0.00     0.070 H 
ENDROOT
BRANCH   1   4
ATOM      4  O   LIG d   1       4.212  -2.799  -7.154  0.00  0.00    -0.450 OA
BRANCH   4   5
ATOM      5  C   LIG d   1       4.670  -2.388  -5.957  0.00  0.00     0.407 C 
ATOM      6  N   LIG d   1       5.391  -1.254  -5.865  0.00  0.00    -0.213 N 
ATOM      7  H   LIG d   1       5.516  -0.693  -6.647  0.00  0.00     0.161 HD
ATOM      8  O   LIG d   1       4.431  -3.039  -4.960  0.00  0.00    -0.226 OA
BRANCH   6   9
ATOM      9  P   LIG d   1       6.059  -0.821  -4.431  0.00  0.00     0.266 P 
ATOM     10  S   LIG d   1       7.451  -1.989  -4.015  0.00  0.00     0.013 SA
BRANCH   9  11
ATOM     11  O   LIG d   1       4.940  -0.890  -3.275  0.00  0.00    -0.314 OA
BRANCH  11  12
ATOM     12  C   LIG d   1       3.853   0.034  -3.187  0.00  0.00     0.061 C 
ATOM     13  H   LIG d   1       3.792   0.611  -4.110  0.00  0.00     0.059 H 
BRANCH  12  14
ATOM     14  C   LIG d   1       2.547  -0.734  -2.978  0.00  0.00    -0.038 C 
ATOM     15  H   LIG d   1       2.563  -1.648  -3.571  0.00  0.00     0.025 H 
ATOM     16  H   LIG d   1       2.439  -0.987  -1.924  0.00  0.00     0.025 H 
ATOM     17  H   LIG d   1       1.707  -0.113  -3.291  0.00  0.00     0.025 H 
ENDBRANCH  12  14
BRANCH  12  18
ATOM     18  C   LIG d   1       4.083   0.981  -2.008  0.00  0.00    -0.038 C 
ATOM     19  H   LIG d   1       3.441   0.689  -1.176  0.00  0.00     0.025 H 
ATOM     20  H   LIG d   1       5.127   0.927  -1.696  0.00  0.00     0.025 H 
ATOM     21  H   LIG d   1       3.846   2.001  -2.309  0.00  0.00     0.025 H 
ENDBRANCH  12  18
ENDBRANCH  11  12
ENDBRANCH   9  11
BRANCH   9  22
ATOM     22  O   LIG d   1       6.631   0.680  -4.535  0.00  0.00    -0.314 OA
BRANCH  22  23
ATOM     23  C   LIG d   1       8.006   0.972  -4.791  0.00  0.00     0.061 C 
ATOM     24  H   LIG d   1       8.603   0.071  -4.643  0.00  0.00     0.059 H 
BRANCH  23  25
ATOM     25  C   LIG d   1       8.166   1.458  -6.233  0.00  0.00    -0.038 C 
ATOM     26  H   LIG d   1       7.397   2.200  -6.452  0.00  0.00     0.025 H 
ATOM     27  H   LIG d   1       9.150   1.908  -6.357  0.00  0.00     0.025 H 
ATOM     28  H   LIG d   1       8.062   0.614  -6.915  0.00  0.00     0.025 H 
ENDBRANCH  23  25
BRANCH  23  29
ATOM     29  C   LIG d   1       8.483   2.062  -3.829  0.00  0.00    -0.038 C 
ATOM     30  H   LIG d   1       9.446   1.777  -3.404  0.00  0.00     0.025 H 
ATOM     31  H   LIG d   1       8.589   3.003  -4.370  0.00  0.00     0.025 H 
ATOM     32  H   LIG d   1       7.754   2.185  -3.028  0.00  0.00     0.025 H 
ENDBRANCH  23  29
ENDBRANCH  22  23
ENDBRANCH   9  22
ENDBRANCH   6   9
ENDBRANCH   4   5
ENDBRANCH   1   4
BRANCH   1  33
ATOM     33  C   LIG d   1       2.953  -1.653  -8.870  0.00  0.00     0.036 C 
ATOM     34  H   LIG d   1       2.180  -1.907  -8.144  0.00  0.00     0.039 H 
ATOM     35  C   LIG d   1       2.813  -0.179  -9.267  0.00  0.00    -0.015 C 
ATOM     36  N   LIG d   1       3.833   0.174 -10.259  0.00  0.00     0.238 N 
ATOM     37  H   LIG d   1       1.823  -0.007  -9.687  0.00  0.00     0.086 H 
ATOM     38  C   LIG d   1       2.992   0.674  -8.007  0.00  0.00    -0.009 C 
ATOM     39  C   LIG d   1       3.665  -0.643 -11.471  0.00  0.00    -0.032 C 
ATOM     40  C   LIG d   1       3.702   1.587 -10.641  0.00  0.00    -0.032 C 
ATOM     41  H   LIG d   1       4.750   0.013  -9.870  0.00  0.00     0.204 HD
ATOM     42  C   LIG d   1       3.854  -2.123 -11.140  0.00  0.00    -0.012 C 
ATOM     43  H   LIG d   1       4.402  -0.341 -12.214  0.00  0.00     0.081 H 
ATOM     44  H   LIG d   1       2.664  -0.489 -11.873  0.00  0.00     0.081 H 
ATOM     45  C   LIG d   1       2.801  -2.538 -10.107  0.00  0.00    -0.037 C 
ATOM     46  H   LIG d   1       4.851  -2.279 -10.727  0.00  0.00     0.032 H 
ATOM     47  H   LIG d   1       3.734  -2.718 -12.044  0.00  0.00     0.032 H 
ATOM     48  H   LIG d   1       2.952  -3.582  -9.831  0.00  0.00     0.027 H 
ATOM     49  H   LIG d   1       1.805  -2.409 -10.530  0.00  0.00     0.027 H 
ATOM     50  C   LIG d   1       3.934   2.484  -9.430  0.00  0.00    -0.012 C 
ATOM     51  H   LIG d   1       4.438   1.823 -11.409  0.00  0.00     0.081 H 
ATOM     52  H   LIG d   1       2.702   1.764 -11.036  0.00  0.00     0.081 H 
ATOM     53  C   LIG d   1       2.882   2.157  -8.365  0.00  0.00    -0.043 C 
ATOM     54  H   LIG d   1       3.842   3.529  -9.726  0.00  0.00     0.032 H 
ATOM     55  H   LIG d   1       4.930   2.304  -9.025  0.00  0.00     0.032 H 
ATOM     56  H   LIG d   1       1.886   2.364  -8.759  0.00  0.00     0.027 H 
ATOM     57  H   LIG d   1       3.060   2.762  -7.477  0.00  0.00     0.027 H 
ATOM     58  H   LIG d   1       2.220   0.417  -7.282  0.00  0.00     0.032 H 
ATOM     59  H   LIG d   1       3.973   0.478  -7.573  0.00  0.00     0.032 H 
ENDBRANCH   1  33
TORSDOF 12
ENDMDL
MODEL 3
REMARK VINA RESULT:      -5.4      4.028      7.153
REMARK  12 active torsions:
REMARK  status: ('A' for Active; 'I' for Inactive)
REMARK    1  A    between atoms: C_1  and  C_2 
REMARK    2  A    between atoms: C_2  and  C_3 
REMARK    3  A    between atoms: C_2  and  O_4 
REMARK    4  A    between atoms: O_4  and  P_5 
REMARK    5  A    between atoms: P_5  and  N_7 
REMARK    6  A    between atoms: P_5  and  O_24 
REMARK       I    between atoms: N_7  and  C_8 
REMARK    7  A    between atoms: C_8  and  O_10 
REMARK    8  A    between atoms: O_10  and  C_11 
REMARK    9  A    between atoms: C_11  and  C_12 
REMARK   10  A    between atoms: O_24  and  C_25 
REMARK   11  A    between atoms: C_25  and  C_26 
REMARK   12  A    between atoms: C_25  and  C_27 
ROOT
ATOM      1  C   LIG d   1       6.929  -0.248  -5.032  0.00  0.00     0.102 C 
ATOM      2  H   LIG d   1       5.976   0.280  -5.079  0.00  0.00     0.070 H 
ATOM      3  H   LIG d   1       7.010  -0.927  -5.880  0.00  0.00     0.070 H 
ENDROOT
BRANCH   1   4
ATOM      4  O   LIG d   1       8.000   0.698  -5.076  0.00  0.00    -0.450 OA
BRANCH   4   5
ATOM      5  C   LIG d   1       8.249   1.285  -6.261  0.00  0.00     0.407 C 
ATOM      6  N   LIG d   1       7.256   1.441  -7.158  0.00  0.00    -0.213 N 
ATOM      7  H   LIG d   1       6.346   1.200  -6.922  0.00  0.00     0.161 HD
ATOM      8  O   LIG d   1       9.370   1.675  -6.522  0.00  0.00    -0.226 OA
BRANCH   6   9
ATOM      9  P   LIG d   1       7.586   2.036  -8.650  0.00  0.00     0.266 P 
ATOM     10  S   LIG d   1       8.475   0.741  -9.654  0.00  0.00     0.013 SA
BRANCH   9  11
ATOM     11  O   LIG d   1       8.518   3.341  -8.515  0.00  0.00    -0.314 OA
BRANCH  11  12
ATOM     12  C   LIG d   1       9.295   3.859  -9.596  0.00  0.00     0.061 C 
ATOM     13  H   LIG d   1       9.100   3.276 -10.496  0.00  0.00     0.059 H 
BRANCH  12  14
ATOM     14  C   LIG d   1       8.914   5.320  -9.844  0.00  0.00    -0.038 C 
ATOM     15  H   LIG d   1       9.024   5.886  -8.918  0.00  0.00     0.025 H 
ATOM     16  H   LIG d   1       9.567   5.742 -10.607  0.00  0.00     0.025 H 
ATOM     17  H   LIG d   1       7.879   5.373 -10.181  0.00  0.00     0.025 H 
ENDBRANCH  12  14
BRANCH  12  18
ATOM     18  C   LIG d   1      10.781   3.772  -9.244  0.00  0.00    -0.038 C 
ATOM     19  H   LIG d   1      10.892   3.610  -8.172  0.00  0.00     0.025 H 
ATOM     20  H   LIG d   1      11.235   2.941  -9.785  0.00  0.00     0.025 H 
ATOM     21  H   LIG d   1      11.276   4.701  -9.524  0.00  0.00     0.025 H 
ENDBRANCH  12  18
ENDBRANCH  11  12
ENDBRANCH   9  11
BRANCH   9  22
ATOM     22  O   LIG d   1       6.210   2.433  -9.386  0.00  0.00    -0.314 OA
BRANCH  22  23
ATOM     23  C   LIG d   1       5.007   1.674  -9.249  0.00  0.00     0.061 C 
ATOM     24  H   LIG d   1       5.073   1.044  -8.362  0.00  0.00     0.059 H 
BRANCH  23  25
ATOM     25  C   LIG d   1       3.816   2.625  -9.111  0.00  0.00    -0.038 C 
ATOM     26  H   LIG d   1       3.203   2.571 -10.012  0.00  0.00     0.025 H 
ATOM     27  H   LIG d   1       3.218   2.335  -8.248  0.00  0.00     0.025 H 
ATOM     28  H   LIG d   1       4.178   3.644  -8.977  0.00  0.00     0.025 H 
ENDBRANCH  23  25
BRANCH  23  29
ATOM     29  C   LIG d   1       4.817   0.793 -10.486  0.00  0.00    -0.038 C 
ATOM     30  H   LIG d   1       5.577   0.012 -10.497  0.00  0.00     0.025 H 
ATOM     31  H   LIG d   1       3.827   0.336 -10.457  0.00  0.00     0.025 H 
ATOM     32  H   LIG d   1       4.908   1.403 -11.385  0.00  0.00     0.025 H 
ENDBRANCH  23  29
ENDBRANCH  22  23
ENDBRANCH   9  22
ENDBRANCH   6   9
ENDBRANCH   4   5
ENDBRANCH   1   4
BRANCH   1  33
ATOM     33  C   LIG d   1       7.008  -1.047  -3.730  0.00  0.00     0.036 C 
ATOM     34  H   LIG d   1       7.860  -0.701  -3.143  0.00  0.00     0.039 H 
ATOM     35  C   LIG d   1       5.719  -0.840  -2.926  0.00  0.00    -0.015 C 
ATOM     36  N   LIG d   1       4.566  -1.319  -3.691  0.00  0.00     0.238 N 
ATOM     37  H   LIG d   1       5.785  -1.385  -1.985  0.00  0.00     0.086 H 
ATOM     38  C   LIG d   1       5.571   0.659  -2.641  0.00  0.00    -0.009 C 
ATOM     39  C   LIG d   1       4.704  -2.757  -3.967  0.00  0.00    -0.032 C 
ATOM     40  C   LIG d   1       3.329  -1.120  -2.923  0.00  0.00    -0.032 C 
ATOM     41  H   LIG d   1       4.506  -0.814  -4.562  0.00  0.00     0.204 HD
ATOM     42  C   LIG d   1       5.946  -3.014  -4.820  0.00  0.00    -0.012 C 
ATOM     43  H   LIG d   1       3.820  -3.109  -4.499  0.00  0.00     0.081 H 
ATOM     44  H   LIG d   1       4.795  -3.298  -3.025  0.00  0.00     0.081 H 
ATOM     45  C   LIG d   1       7.181  -2.531  -4.053  0.00  0.00    -0.037 C 
ATOM     46  H   LIG d   1       5.862  -2.466  -5.759  0.00  0.00     0.032 H 
ATOM     47  H   LIG d   1       6.035  -4.080  -5.024  0.00  0.00     0.032 H 
ATOM     48  H   LIG d   1       8.070  -2.671  -4.668  0.00  0.00     0.027 H 
ATOM     49  H   LIG d   1       7.281  -3.099  -3.128  0.00  0.00     0.027 H 
ATOM     50  C   LIG d   1       3.101   0.365  -2.666  0.00  0.00    -0.012 C 
ATOM     51  H   LIG d   1       2.485  -1.520  -3.486  0.00  0.00     0.081 H 
ATOM     52  H   LIG d   1       3.405  -1.645  -1.971  0.00  0.00     0.081 H 
ATOM     53  C   LIG d   1       4.282   0.912  -1.857  0.00  0.00    -0.043 C 
ATOM     54  H   LIG d   1       2.178   0.502  -2.102  0.00  0.00     0.032 H 
ATOM     55  H   LIG d   1       3.033   0.896  -3.615  0.00  0.00     0.032 H 
ATOM     56  H   LIG d   1       4.334   0.402  -0.894  0.00  0.00     0.027 H 
ATOM     57  H   LIG d   1       4.154   1.983  -1.700  0.00  0.00     0.027 H 
ATOM     58  H   LIG d   1       6.425   1.003  -2.057  0.00  0.00     0.032 H 
ATOM     59  H   LIG d   1       5.536   1.205  -3.584  0.00  0.00     0.032 H 
ENDBRANCH   1  33
TORSDOF 12
ENDMDL
MODEL 4
REMARK VINA RESULT:      -5.3      5.644      7.728
REMARK  12 active torsions:
REMARK  status: ('A' for Active; 'I' for Inactive)
REMARK    1  A    between atoms: C_1  and  C_2 
REMARK    2  A    between atoms: C_2  and  C_3 
REMARK    3  A    between atoms: C_2  and  O_4 
REMARK    4  A    between atoms: O_4  and  P_5 
REMARK    5  A    between atoms: P_5  and  N_7 
REMARK    6  A    between atoms: P_5  and  O_24 
REMARK       I    between atoms: N_7  and  C_8 
REMARK    7  A    between atoms: C_8  and  O_10 
REMARK    8  A    between atoms: O_10  and  C_11 
REMARK    9  A    between atoms: C_11  and  C_12 
REMARK   10  A    between atoms: O_24  and  C_25 
REMARK   11  A    between atoms: C_25  and  C_26 
REMARK   12  A    between atoms: C_25  and  C_27 
ROOT
ATOM      1  C   LIG d   1       9.215   3.458  -4.247  0.00  0.00     0.102 C 
ATOM      2  H   LIG d   1       8.786   3.415  -5.248  0.00  0.00     0.070 H 
ATOM      3  H   LIG d   1       8.621   4.129  -3.626  0.00  0.00     0.070 H 
ENDROOT
BRANCH   1   4
ATOM      4  O   LIG d   1       9.215   2.150  -3.671  0.00  0.00    -0.450 OA
BRANCH   4   5
ATOM      5  C   LIG d   1       8.078   1.437  -3.773  0.00  0.00     0.407 C 
ATOM      6  N   LIG d   1       8.127   0.138  -4.126  0.00  0.00    -0.213 N 
ATOM      7  H   LIG d   1       8.984  -0.305  -4.231  0.00  0.00     0.161 HD
ATOM      8  O   LIG d   1       7.007   1.965  -3.547  0.00  0.00    -0.226 OA
BRANCH   6   9
ATOM      9  P   LIG d   1       6.737  -0.696  -4.377  0.00  0.00     0.266 P 
ATOM     10  S   LIG d   1       7.136  -2.359  -5.119  0.00  0.00     0.013 SA
BRANCH   9  11
ATOM     11  O   LIG d   1       5.791   0.127  -5.385  0.00  0.00    -0.314 OA
BRANCH  11  12
ATOM     12  C   LIG d   1       5.157  -0.467  -6.520  0.00  0.00     0.061 C 
ATOM     13  H   LIG d   1       5.365  -1.537  -6.533  0.00  0.00     0.059 H 
BRANCH  12  14
ATOM     14  C   LIG d   1       3.646  -0.243  -6.435  0.00  0.00    -0.038 C 
ATOM     15  H   LIG d   1       3.446   0.798  -6.182  0.00  0.00     0.025 H 
ATOM     16  H   LIG d   1       3.189  -0.477  -7.396  0.00  0.00     0.025 H 
ATOM     17  H   LIG d   1       3.226  -0.891  -5.666  0.00  0.00     0.025 H 
ENDBRANCH  12  14
BRANCH  12  18
ATOM     18  C   LIG d   1       5.696   0.174  -7.800  0.00  0.00    -0.038 C 
ATOM     19  H   LIG d   1       6.782   0.254  -7.737  0.00  0.00     0.025 H 
ATOM     20  H   LIG d   1       5.427  -0.445  -8.657  0.00  0.00     0.025 H 
ATOM     21  H   LIG d   1       5.265   1.167  -7.919  0.00  0.00     0.025 H 
ENDBRANCH  12  18
ENDBRANCH  11  12
ENDBRANCH   9  11
BRANCH   9  22
ATOM     22  O   LIG d   1       5.974  -0.904  -2.975  0.00  0.00    -0.314 OA
BRANCH  22  23
ATOM     23  C   LIG d   1       4.584  -0.627  -2.797  0.00  0.00     0.061 C 
ATOM     24  H   LIG d   1       4.157  -0.286  -3.740  0.00  0.00     0.059 H 
BRANCH  23  25
ATOM     25  C   LIG d   1       3.863  -1.898  -2.341  0.00  0.00    -0.038 C 
ATOM     26  H   LIG d   1       2.841  -1.891  -2.719  0.00  0.00     0.025 H 
ATOM     27  H   LIG d   1       4.387  -2.771  -2.730  0.00  0.00     0.025 H 
ATOM     28  H   LIG d   1       3.850  -1.938  -1.253  0.00  0.00     0.025 H 
ENDBRANCH  23  25
BRANCH  23  29
ATOM     29  C   LIG d   1       4.413   0.463  -1.737  0.00  0.00    -0.038 C 
ATOM     30  H   LIG d   1       4.112   0.009  -0.793  0.00  0.00     0.025 H 
ATOM     31  H   LIG d   1       5.358   0.990  -1.603  0.00  0.00     0.025 H 
ATOM     32  H   LIG d   1       3.647   1.169  -2.061  0.00  0.00     0.025 H 
ENDBRANCH  23  29
ENDBRANCH  22  23
ENDBRANCH   9  22
ENDBRANCH   6   9
ENDBRANCH   4   5
ENDBRANCH   1   4
BRANCH   1  33
ATOM     33  C   LIG d   1      10.652   3.979  -4.329  0.00  0.00     0.036 C 
ATOM     34  H   LIG d   1      11.225   3.351  -5.011  0.00  0.00     0.039 H 
ATOM     35  C   LIG d   1      10.642   5.420  -4.850  0.00  0.00    -0.015 C 
ATOM     36  N   LIG d   1       9.892   6.283  -3.934  0.00  0.00     0.238 N 
ATOM     37  H   LIG d   1      11.666   5.783  -4.937  0.00  0.00     0.086 H 
ATOM     38  C   LIG d   1       9.978   5.423  -6.232  0.00  0.00    -0.009 C 
ATOM     39  C   LIG d   1      10.526   6.283  -2.606  0.00  0.00    -0.032 C 
ATOM     40  C   LIG d   1       9.881   7.665  -4.432  0.00  0.00    -0.032 C 
ATOM     41  H   LIG d   1       8.945   5.945  -3.853  0.00  0.00     0.204 HD
ATOM     42  C   LIG d   1      10.508   4.874  -2.013  0.00  0.00    -0.012 C 
ATOM     43  H   LIG d   1       9.983   6.960  -1.947  0.00  0.00     0.081 H 
ATOM     44  H   LIG d   1      11.557   6.622  -2.699  0.00  0.00     0.081 H 
ATOM     45  C   LIG d   1      11.289   3.936  -2.940  0.00  0.00    -0.037 C 
ATOM     46  H   LIG d   1       9.477   4.528  -1.928  0.00  0.00     0.032 H 
ATOM     47  H   LIG d   1      10.974   4.887  -1.028  0.00  0.00     0.032 H 
ATOM     48  H   LIG d   1      11.248   2.920  -2.549  0.00  0.00     0.027 H 
ATOM     49  H   LIG d   1      12.326   4.266  -3.002  0.00  0.00     0.027 H 
ATOM     50  C   LIG d   1       9.172   7.733  -5.781  0.00  0.00    -0.012 C 
ATOM     51  H   LIG d   1       9.356   8.302  -3.719  0.00  0.00     0.081 H 
ATOM     52  H   LIG d   1      10.905   8.019  -4.543  0.00  0.00     0.081 H 
ATOM     53  C   LIG d   1       9.928   6.850  -6.780  0.00  0.00    -0.043 C 
ATOM     54  H   LIG d   1       9.163   8.763  -6.137  0.00  0.00     0.032 H 
ATOM     55  H   LIG d   1       8.149   7.372  -5.677  0.00  0.00     0.032 H 
ATOM     56  H   LIG d   1      10.944   7.229  -6.906  0.00  0.00     0.027 H 
ATOM     57  H   LIG d   1       9.410   6.857  -7.738  0.00  0.00     0.027 H 
ATOM     58  H   LIG d   1      10.552   4.793  -6.911  0.00  0.00     0.032 H 
ATOM     59  H   LIG d   1       8.964   5.032  -6.147  0.00  0.00     0.032 H 
ENDBRANCH   1  33
TORSDOF 12
ENDMDL
MODEL 5
REMARK VINA RESULT:      -5.2      5.603      8.042
REMARK  12 active torsions:
REMARK  status: ('A' for Active; 'I' for Inactive)
REMARK    1  A    between atoms: C_1  and  C_2 
REMARK    2  A    between atoms: C_2  and  C_3 
REMARK    3  A    between atoms: C_2  and  O_4 
REMARK    4  A    between atoms: O_4  and  P_5 
REMARK    5  A    between atoms: P_5  and  N_7 
REMARK    6  A    between atoms: P_5  and  O_24 
REMARK       I    between atoms: N_7  and  C_8 
REMARK    7  A    between atoms: C_8  and  O_10 
REMARK    8  A    between atoms: O_10  and  C_11 
REMARK    9  A    between atoms: C_11  and  C_12 
REMARK   10  A    between atoms: O_24  and  C_25 
REMARK   11  A    between atoms: C_25  and  C_26 
REMARK   12  A    between atoms: C_25  and  C_27 
ROOT
ATOM      1  C   LIG d   1       9.186   3.518  -3.688  0.00  0.00     0.102 C 
ATOM      2  H   LIG d   1       8.600   3.761  -4.574  0.00  0.00     0.070 H 
ATOM      3  H   LIG d   1       8.767   4.032  -2.824  0.00  0.00     0.070 H 
ENDROOT
BRANCH   1   4
ATOM      4  O   LIG d   1       9.151   2.107  -3.466  0.00  0.00    -0.450 OA
BRANCH   4   5
ATOM      5  C   LIG d   1       8.047   1.451  -3.870  0.00  0.00     0.407 C 
ATOM      6  N   LIG d   1       8.005   0.105  -3.816  0.00  0.00    -0.213 N 
ATOM      7  H   LIG d   1       8.739  -0.388  -3.416  0.00  0.00     0.161 HD
ATOM      8  O   LIG d   1       7.088   2.072  -4.282  0.00  0.00    -0.226 OA
BRANCH   6   9
ATOM      9  P   LIG d   1       6.714  -0.700  -4.428  0.00  0.00     0.266 P 
ATOM     10  S   LIG d   1       6.627  -0.427  -6.270  0.00  0.00     0.013 SA
BRANCH   9  11
ATOM     11  O   LIG d   1       5.365  -0.152  -3.742  0.00  0.00    -0.314 OA
BRANCH  11  12
ATOM     12  C   LIG d   1       5.033  -0.394  -2.373  0.00  0.00     0.061 C 
ATOM     13  H   LIG d   1       5.918  -0.741  -1.841  0.00  0.00     0.059 H 
BRANCH  12  14
ATOM     14  C   LIG d   1       4.529   0.901  -1.733  0.00  0.00    -0.038 C 
ATOM     15  H   LIG d   1       4.590   0.818  -0.648  0.00  0.00     0.025 H 
ATOM     16  H   LIG d   1       5.143   1.735  -2.069  0.00  0.00     0.025 H 
ATOM     17  H   LIG d   1       3.493   1.071  -2.027  0.00  0.00     0.025 H 
ENDBRANCH  12  14
BRANCH  12  18
ATOM     18  C   LIG d   1       3.939  -1.461  -2.294  0.00  0.00    -0.038 C 
ATOM     19  H   LIG d   1       3.065  -1.050  -1.789  0.00  0.00     0.025 H 
ATOM     20  H   LIG d   1       3.663  -1.773  -3.302  0.00  0.00     0.025 H 
ATOM     21  H   LIG d   1       4.310  -2.321  -1.738  0.00  0.00     0.025 H 
ENDBRANCH  12  18
ENDBRANCH  11  12
ENDBRANCH   9  11
BRANCH   9  22
ATOM     22  O   LIG d   1       6.869  -2.273  -4.125  0.00  0.00    -0.314 OA
BRANCH  22  23
ATOM     23  C   LIG d   1       6.577  -3.284  -5.093  0.00  0.00     0.061 C 
ATOM     24  H   LIG d   1       6.672  -2.867  -6.095  0.00  0.00     0.059 H 
BRANCH  23  25
ATOM     25  C   LIG d   1       7.559  -4.446  -4.929  0.00  0.00    -0.038 C 
ATOM     26  H   LIG d   1       7.087  -5.241  -4.352  0.00  0.00     0.025 H 
ATOM     27  H   LIG d   1       7.838  -4.827  -5.911  0.00  0.00     0.025 H 
ATOM     28  H   LIG d   1       8.451  -4.098  -4.408  0.00  0.00     0.025 H 
ENDBRANCH  23  25
BRANCH  23  29
ATOM     29  C   LIG d   1       5.149  -3.790  -4.885  0.00  0.00    -0.038 C 
ATOM     30  H   LIG d   1       4.833  -3.582  -3.863  0.00  0.00     0.025 H 
ATOM     31  H   LIG d   1       4.479  -3.285  -5.582  0.00  0.00     0.025 H 
ATOM     32  H   LIG d   1       5.114  -4.865  -5.064  0.00  0.00     0.025 H 
ENDBRANCH  23  29
ENDBRANCH  22  23
ENDBRANCH   9  22
ENDBRANCH   6   9
ENDBRANCH   4   5
ENDBRANCH   1   4
BRANCH   1  33
ATOM     33  C   LIG d   1      10.634   3.966  -3.895  0.00  0.00     0.036 C 
ATOM     34  H   LIG d   1      11.146   3.251  -4.539  0.00  0.00     0.039 H 
ATOM     35  C   LIG d   1      10.650   5.349  -4.557  0.00  0.00    -0.015 C 
ATOM     36  N   LIG d   1       9.984   6.328  -3.694  0.00  0.00     0.238 N 
ATOM     37  H   LIG d   1      11.681   5.657  -4.730  0.00  0.00     0.086 H 
ATOM     38  C   LIG d   1       9.913   5.244  -5.896  0.00  0.00    -0.009 C 
ATOM     39  C   LIG d   1      10.689   6.431  -2.407  0.00  0.00    -0.032 C 
ATOM     40  C   LIG d   1       9.997   7.654  -4.327  0.00  0.00    -0.032 C 
ATOM     41  H   LIG d   1       9.031   6.041  -3.533  0.00  0.00     0.204 HD
ATOM     42  C   LIG d   1      10.651   5.090  -1.676  0.00  0.00    -0.012 C 
ATOM     43  H   LIG d   1      10.209   7.193  -1.793  0.00  0.00     0.081 H 
ATOM     44  H   LIG d   1      11.726   6.715  -2.586  0.00  0.00     0.081 H 
ATOM     45  C   LIG d   1      11.345   4.033  -2.542  0.00  0.00    -0.037 C 
ATOM     46  H   LIG d   1       9.614   4.797  -1.504  0.00  0.00     0.032 H 
ATOM     47  H   LIG d   1      11.170   5.179  -0.722  0.00  0.00     0.032 H 
ATOM     48  H   LIG d   1      11.287   3.062  -2.050  0.00  0.00     0.027 H 
ATOM     49  H   LIG d   1      12.388   4.310  -2.690  0.00  0.00     0.027 H 
ATOM     50  C   LIG d   1       9.220   7.620  -5.638  0.00  0.00    -0.012 C 
ATOM     51  H   LIG d   1       9.537   8.379  -3.656  0.00  0.00     0.081 H 
ATOM     52  H   LIG d   1      11.027   7.951  -4.524  0.00  0.00     0.081 H 
ATOM     53  C   LIG d   1       9.886   6.612  -6.581  0.00  0.00    -0.043 C 
ATOM     54  H   LIG d   1       9.230   8.609  -6.095  0.00  0.00     0.032 H 
ATOM     55  H   LIG d   1       8.191   7.314  -5.447  0.00  0.00     0.032 H 
ATOM     56  H   LIG d   1      10.907   6.932  -6.796  0.00  0.00     0.027 H 
ATOM     57  H   LIG d   1       9.318   6.546  -7.508  0.00  0.00     0.027 H 
ATOM     58  H   LIG d   1      10.424   4.527  -6.537  0.00  0.00     0.032 H 
ATOM     59  H   LIG d   1       8.891   4.907  -5.721  0.00  0.00     0.032 H 
ENDBRANCH   1  33
TORSDOF 12
ENDMDL
MODEL 6
REMARK VINA RESULT:      -5.2      4.598      6.772
REMARK  12 active torsions:
REMARK  status: ('A' for Active; 'I' for Inactive)
REMARK    1  A    between atoms: C_1  and  C_2 
REMARK    2  A    between atoms: C_2  and  C_3 
REMARK    3  A    between atoms: C_2  and  O_4 
REMARK    4  A    between atoms: O_4  and  P_5 
REMARK    5  A    between atoms: P_5  and  N_7 
REMARK    6  A    between atoms: P_5  and  O_24 
REMARK       I    between atoms: N_7  and  C_8 
REMARK    7  A    between atoms: C_8  and  O_10 
REMARK    8  A    between atoms: O_10  and  C_11 
REMARK    9  A    between atoms: C_11  and  C_12 
REMARK   10  A    between atoms: O_24  and  C_25 
REMARK   11  A    between atoms: C_25  and  C_26 
REMARK   12  A    between atoms: C_25  and  C_27 
ROOT
ATOM      1  C   LIG d   1       4.633  -3.464  -5.272  0.00  0.00     0.102 C 
ATOM      2  H   LIG d   1       4.289  -3.282  -6.290  0.00  0.00     0.070 H 
ATOM      3  H   LIG d   1       3.775  -3.654  -4.628  0.00  0.00     0.070 H 
ENDROOT
BRANCH   1   4
ATOM      4  O   LIG d   1       5.501  -4.599  -5.257  0.00  0.00    -0.450 OA
BRANCH   4   5
ATOM      5  C   LIG d   1       4.932  -5.806  -5.435  0.00  0.00     0.407 C 
ATOM      6  N   LIG d   1       5.706  -6.899  -5.588  0.00  0.00    -0.213 N 
ATOM      7  H   LIG d   1       6.669  -6.829  -5.494  0.00  0.00     0.161 HD
ATOM      8  O   LIG d   1       3.722  -5.910  -5.457  0.00  0.00    -0.226 OA
BRANCH   6   9
ATOM      9  P   LIG d   1       5.018  -8.347  -5.934  0.00  0.00     0.266 P 
ATOM     10  S   LIG d   1       6.341  -9.556  -6.445  0.00  0.00     0.013 SA
BRANCH   9  11
ATOM     11  O   LIG d   1       3.964  -8.168  -7.136  0.00  0.00    -0.314 OA
BRANCH  11  12
ATOM     12  C   LIG d   1       4.357  -7.952  -8.493  0.00  0.00     0.061 C 
ATOM     13  H   LIG d   1       5.440  -8.047  -8.576  0.00  0.00     0.059 H 
BRANCH  12  14
ATOM     14  C   LIG d   1       3.685  -8.993  -9.391  0.00  0.00    -0.038 C 
ATOM     15  H   LIG d   1       3.207  -8.492 -10.233  0.00  0.00     0.025 H 
ATOM     16  H   LIG d   1       4.435  -9.691  -9.762  0.00  0.00     0.025 H 
ATOM     17  H   LIG d   1       2.935  -9.536  -8.817  0.00  0.00     0.025 H 
ENDBRANCH  12  14
BRANCH  12  18
ATOM     18  C   LIG d   1       3.932  -6.550  -8.931  0.00  0.00    -0.038 C 
ATOM     19  H   LIG d   1       4.440  -5.807  -8.317  0.00  0.00     0.025 H 
ATOM     20  H   LIG d   1       4.200  -6.400  -9.978  0.00  0.00     0.025 H 
ATOM     21  H   LIG d   1       2.854  -6.444  -8.814  0.00  0.00     0.025 H 
ENDBRANCH  12  18
ENDBRANCH  11  12
ENDBRANCH   9  11
BRANCH   9  22
ATOM     22  O   LIG d   1       4.256  -8.906  -4.630  0.00  0.00    -0.314 OA
BRANCH  22  23
ATOM     23  C   LIG d   1       4.490 -10.208  -4.091  0.00  0.00     0.061 C 
ATOM     24  H   LIG d   1       4.994 -10.825  -4.835  0.00  0.00     0.059 H 
BRANCH  23  25
ATOM     25  C   LIG d   1       5.369 -10.094  -2.843  0.00  0.00    -0.038 C 
ATOM     26  H   LIG d   1       5.699  -9.062  -2.726  0.00  0.00     0.025 H 
ATOM     27  H   LIG d   1       4.795 -10.393  -1.967  0.00  0.00     0.025 H 
ATOM     28  H   LIG d   1       6.236 -10.744  -2.949  0.00  0.00     0.025 H 
ENDBRANCH  23  25
BRANCH  23  29
ATOM     29  C   LIG d   1       3.154 -10.852  -3.717  0.00  0.00    -0.038 C 
ATOM     30  H   LIG d   1       3.283 -11.930  -3.620  0.00  0.00     0.025 H 
ATOM     31  H   LIG d   1       2.806 -10.442  -2.768  0.00  0.00     0.025 H 
ATOM     32  H   LIG d   1       2.418 -10.642  -4.494  0.00  0.00     0.025 H 
ENDBRANCH  23  29
ENDBRANCH  22  23
ENDBRANCH   9  22
ENDBRANCH   6   9
ENDBRANCH   4   5
ENDBRANCH   1   4
BRANCH   1  33
ATOM     33  C   LIG d   1       5.390  -2.236  -4.762  0.00  0.00     0.036 C 
ATOM     34  H   LIG d   1       6.432  -2.297  -5.076  0.00  0.00     0.039 H 
ATOM     35  C   LIG d   1       4.756  -0.968  -5.344  0.00  0.00    -0.015 C 
ATOM     36  N   LIG d   1       3.360  -0.859  -4.914  0.00  0.00     0.238 N 
ATOM     37  H   LIG d   1       5.311  -0.094  -5.005  0.00  0.00     0.086 H 
ATOM     38  C   LIG d   1       4.826  -1.059  -6.873  0.00  0.00    -0.009 C 
ATOM     39  C   LIG d   1       3.288  -0.771  -3.447  0.00  0.00    -0.032 C 
ATOM     40  C   LIG d   1       2.750   0.356  -5.473  0.00  0.00    -0.032 C 
ATOM     41  H   LIG d   1       2.847  -1.669  -5.227  0.00  0.00     0.204 HD
ATOM     42  C   LIG d   1       3.855  -2.042  -2.815  0.00  0.00    -0.012 C 
ATOM     43  H   LIG d   1       2.249  -0.648  -3.144  0.00  0.00     0.081 H 
ATOM     44  H   LIG d   1       3.865   0.089  -3.109  0.00  0.00     0.081 H 
ATOM     45  C   LIG d   1       5.321  -2.193  -3.235  0.00  0.00    -0.037 C 
ATOM     46  H   LIG d   1       3.286  -2.906  -3.159  0.00  0.00     0.032 H 
ATOM     47  H   LIG d   1       3.791  -1.969  -1.729  0.00  0.00     0.032 H 
ATOM     48  H   LIG d   1       5.725  -3.118  -2.823  0.00  0.00     0.027 H 
ATOM     49  H   LIG d   1       5.895  -1.344  -2.866  0.00  0.00     0.027 H 
ATOM     50  C   LIG d   1       2.738   0.287  -6.996  0.00  0.00    -0.012 C 
ATOM     51  H   LIG d   1       1.726   0.445  -5.110  0.00  0.00     0.081 H 
ATOM     52  H   LIG d   1       3.321   1.227  -5.154  0.00  0.00     0.081 H 
ATOM     53  C   LIG d   1       4.182   0.181  -7.496  0.00  0.00    -0.043 C 
ATOM     54  H   LIG d   1       2.277   1.189  -7.399  0.00  0.00     0.032 H 
ATOM     55  H   LIG d   1       2.175  -0.589  -7.319  0.00  0.00     0.032 H 
ATOM     56  H   LIG d   1       4.739   1.070  -7.197  0.00  0.00     0.027 H 
ATOM     57  H   LIG d   1       4.188   0.090  -8.582  0.00  0.00     0.027 H 
ATOM     58  H   LIG d   1       5.869  -1.122  -7.185  0.00  0.00     0.032 H 
ATOM     59  H   LIG d   1       4.295  -1.950  -7.207  0.00  0.00     0.032 H 
ENDBRANCH   1  33
TORSDOF 12
ENDMDL
MODEL 7
REMARK VINA RESULT:      -5.2      3.468      7.087
REMARK  12 active torsions:
REMARK  status: ('A' for Active; 'I' for Inactive)
REMARK    1  A    between atoms: C_1  and  C_2 
REMARK    2  A    between atoms: C_2  and  C_3 
REMARK    3  A    between atoms: C_2  and  O_4 
REMARK    4  A    between atoms: O_4  and  P_5 
REMARK    5  A    between atoms: P_5  and  N_7 
REMARK    6  A    between atoms: P_5  and  O_24 
REMARK       I    between atoms: N_7  and  C_8 
REMARK    7  A    between atoms: C_8  and  O_10 
REMARK    8  A    between atoms: O_10  and  C_11 
REMARK    9  A    between atoms: C_11  and  C_12 
REMARK   10  A    between atoms: O_24  and  C_25 
REMARK   11  A    between atoms: C_25  and  C_26 
REMARK   12  A    between atoms: C_25  and  C_27 
ROOT
ATOM      1  C   LIG d   1       6.814  -0.276  -5.110  0.00  0.00     0.102 C 
ATOM      2  H   LIG d   1       6.048   0.492  -5.007  0.00  0.00     0.070 H 
ATOM      3  H   LIG d   1       6.521  -0.979  -5.890  0.00  0.00     0.070 H 
ENDROOT
BRANCH   1   4
ATOM      4  O   LIG d   1       8.057   0.335  -5.463  0.00  0.00    -0.450 OA
BRANCH   4   5
ATOM      5  C   LIG d   1       8.139   0.894  -6.685  0.00  0.00     0.407 C 
ATOM      6  N   LIG d   1       7.015   1.200  -7.363  0.00  0.00    -0.213 N 
ATOM      7  H   LIG d   1       6.148   1.089  -6.940  0.00  0.00     0.161 HD
ATOM      8  O   LIG d   1       9.226   1.123  -7.176  0.00  0.00    -0.226 OA
BRANCH   6   9
ATOM      9  P   LIG d   1       7.112   1.759  -8.901  0.00  0.00     0.266 P 
ATOM     10  S   LIG d   1       8.387   3.116  -8.990  0.00  0.00     0.013 SA
BRANCH   9  11
ATOM     11  O   LIG d   1       5.681   2.339  -9.354  0.00  0.00    -0.314 OA
BRANCH  11  12
ATOM     12  C   LIG d   1       4.492   1.546  -9.380  0.00  0.00     0.061 C 
ATOM     13  H   LIG d   1       4.668   0.611  -8.849  0.00  0.00     0.059 H 
BRANCH  12  14
ATOM     14  C   LIG d   1       3.354   2.311  -8.700  0.00  0.00    -0.038 C 
ATOM     15  H   LIG d   1       2.752   2.815  -9.456  0.00  0.00     0.025 H 
ATOM     16  H   LIG d   1       2.729   1.614  -8.143  0.00  0.00     0.025 H 
ATOM     17  H   LIG d   1       3.772   3.050  -8.016  0.00  0.00     0.025 H 
ENDBRANCH  12  14
BRANCH  12  18
ATOM     18  C   LIG d   1       4.109   1.246 -10.830  0.00  0.00    -0.038 C 
ATOM     19  H   LIG d   1       4.760   0.466 -11.224  0.00  0.00     0.025 H 
ATOM     20  H   LIG d   1       3.073   0.909 -10.870  0.00  0.00     0.025 H 
ATOM     21  H   LIG d   1       4.220   2.149 -11.429  0.00  0.00     0.025 H 
ENDBRANCH  12  18
ENDBRANCH  11  12
ENDBRANCH   9  11
BRANCH   9  22
ATOM     22  O   LIG d   1       7.540   0.557  -9.884  0.00  0.00    -0.314 OA
BRANCH  22  23
ATOM     23  C   LIG d   1       7.390  -0.821  -9.538  0.00  0.00     0.061 C 
ATOM     24  H   LIG d   1       6.920  -0.901  -8.557  0.00  0.00     0.059 H 
BRANCH  23  25
ATOM     25  C   LIG d   1       6.513  -1.517 -10.581  0.00  0.00    -0.038 C 
ATOM     26  H   LIG d   1       5.714  -2.062 -10.078  0.00  0.00     0.025 H 
ATOM     27  H   LIG d   1       6.079  -0.771 -11.246  0.00  0.00     0.025 H 
ATOM     28  H   LIG d   1       7.119  -2.211 -11.161  0.00  0.00     0.025 H 
ENDBRANCH  23  25
BRANCH  23  29
ATOM     29  C   LIG d   1       8.765  -1.490  -9.500  0.00  0.00    -0.038 C 
ATOM     30  H   LIG d   1       9.436  -0.981 -10.193  0.00  0.00     0.025 H 
ATOM     31  H   LIG d   1       9.172  -1.429  -8.490  0.00  0.00     0.025 H 
ATOM     32  H   LIG d   1       8.669  -2.537  -9.790  0.00  0.00     0.025 H 
ENDBRANCH  23  29
ENDBRANCH  22  23
ENDBRANCH   9  22
ENDBRANCH   6   9
ENDBRANCH   4   5
ENDBRANCH   1   4
BRANCH   1  33
ATOM     33  C   LIG d   1       6.971  -1.023  -3.784  0.00  0.00     0.036 C 
ATOM     34  H   LIG d   1       7.848  -0.645  -3.258  0.00  0.00     0.039 H 
ATOM     35  C   LIG d   1       5.724  -0.799  -2.922  0.00  0.00    -0.015 C 
ATOM     36  N   LIG d   1       4.538  -1.321  -3.607  0.00  0.00     0.238 N 
ATOM     37  H   LIG d   1       5.845  -1.307  -1.966  0.00  0.00     0.086 H 
ATOM     38  C   LIG d   1       5.571   0.708  -2.688  0.00  0.00    -0.009 C 
ATOM     39  C   LIG d   1       4.681  -2.767  -3.834  0.00  0.00    -0.032 C 
ATOM     40  C   LIG d   1       3.340  -1.106  -2.783  0.00  0.00    -0.032 C 
ATOM     41  H   LIG d   1       4.427  -0.851  -4.493  0.00  0.00     0.204 HD
ATOM     42  C   LIG d   1       5.880  -3.043  -4.741  0.00  0.00    -0.012 C 
ATOM     43  H   LIG d   1       3.775  -3.150  -4.305  0.00  0.00     0.081 H 
ATOM     44  H   LIG d   1       4.828  -3.270  -2.879  0.00  0.00     0.081 H 
ATOM     45  C   LIG d   1       7.147  -2.517  -4.059  0.00  0.00    -0.037 C 
ATOM     46  H   LIG d   1       5.740  -2.533  -5.695  0.00  0.00     0.032 H 
ATOM     47  H   LIG d   1       5.973  -4.116  -4.908  0.00  0.00     0.032 H 
ATOM     48  H   LIG d   1       8.005  -2.670  -4.714  0.00  0.00     0.027 H 
ATOM     49  H   LIG d   1       7.303  -3.047  -3.119  0.00  0.00     0.027 H 
ATOM     50  C   LIG d   1       3.107   0.386  -2.572  0.00  0.00    -0.012 C 
ATOM     51  H   LIG d   1       2.474  -1.537  -3.285  0.00  0.00     0.081 H 
ATOM     52  H   LIG d   1       3.473  -1.593  -1.817  0.00  0.00     0.081 H 
ATOM     53  C   LIG d   1       4.321   0.977  -1.848  0.00  0.00    -0.043 C 
ATOM     54  H   LIG d   1       2.213   0.533  -1.966  0.00  0.00     0.032 H 
ATOM     55  H   LIG d   1       2.982   0.878  -3.536  0.00  0.00     0.032 H 
ATOM     56  H   LIG d   1       4.430   0.505  -0.870  0.00  0.00     0.027 H 
ATOM     57  H   LIG d   1       4.187   2.052  -1.726  0.00  0.00     0.027 H 
ATOM     58  H   LIG d   1       6.449   1.084  -2.163  0.00  0.00     0.032 H 
ATOM     59  H   LIG d   1       5.479   1.217  -3.648  0.00  0.00     0.032 H 
ENDBRANCH   1  33
TORSDOF 12
ENDMDL
MODEL 8
REMARK VINA RESULT:      -5.2      3.797      6.813
REMARK  12 active torsions:
REMARK  status: ('A' for Active; 'I' for Inactive)
REMARK    1  A    between atoms: C_1  and  C_2 
REMARK    2  A    between atoms: C_2  and  C_3 
REMARK    3  A    between atoms: C_2  and  O_4 
REMARK    4  A    between atoms: O_4  and  P_5 
REMARK    5  A    between atoms: P_5  and  N_7 
REMARK    6  A    between atoms: P_5  and  O_24 
REMARK       I    between atoms: N_7  and  C_8 
REMARK    7  A    between atoms: C_8  and  O_10 
REMARK    8  A    between atoms: O_10  and  C_11 
REMARK    9  A    between atoms: C_11  and  C_12 
REMARK   10  A    between atoms: O_24  and  C_25 
REMARK   11  A    between atoms: C_25  and  C_26 
REMARK   12  A    between atoms: C_25  and  C_27 
ROOT
ATOM      1  C   LIG d   1       4.541  -3.355  -4.481  0.00  0.00     0.102 C 
ATOM      2  H   LIG d   1       3.596  -3.110  -4.968  0.00  0.00     0.070 H 
ATOM      3  H   LIG d   1       4.341  -3.855  -3.534  0.00  0.00     0.070 H 
ENDROOT
BRANCH   1   4
ATOM      4  O   LIG d   1       5.302  -4.220  -5.325  0.00  0.00    -0.450 OA
BRANCH   4   5
ATOM      5  C   LIG d   1       4.616  -5.103  -6.074  0.00  0.00     0.407 C 
ATOM      6  N   LIG d   1       5.211  -5.700  -7.126  0.00  0.00    -0.213 N 
ATOM      7  H   LIG d   1       6.154  -5.553  -7.298  0.00  0.00     0.161 HD
ATOM      8  O   LIG d   1       3.461  -5.363  -5.802  0.00  0.00    -0.226 OA
BRANCH   6   9
ATOM      9  P   LIG d   1       4.339  -6.675  -8.115  0.00  0.00     0.266 P 
ATOM     10  S   LIG d   1       5.366  -7.129  -9.603  0.00  0.00     0.013 SA
BRANCH   9  11
ATOM     11  O   LIG d   1       3.011  -5.904  -8.596  0.00  0.00    -0.314 OA
BRANCH  11  12
ATOM     12  C   LIG d   1       2.995  -4.992  -9.696  0.00  0.00     0.061 C 
ATOM     13  H   LIG d   1       3.816  -5.225 -10.373  0.00  0.00     0.059 H 
BRANCH  12  14
ATOM     14  C   LIG d   1       1.666  -5.119 -10.445  0.00  0.00    -0.038 C 
ATOM     15  H   LIG d   1       1.524  -4.246 -11.083  0.00  0.00     0.025 H 
ATOM     16  H   LIG d   1       1.679  -6.019 -11.058  0.00  0.00     0.025 H 
ATOM     17  H   LIG d   1       0.849  -5.179  -9.726  0.00  0.00     0.025 H 
ENDBRANCH  12  14
BRANCH  12  18
ATOM     18  C   LIG d   1       3.152  -3.562  -9.175  0.00  0.00    -0.038 C 
ATOM     19  H   LIG d   1       3.925  -3.537  -8.408  0.00  0.00     0.025 H 
ATOM     20  H   LIG d   1       3.437  -2.905  -9.998  0.00  0.00     0.025 H 
ATOM     21  H   LIG d   1       2.207  -3.224  -8.751  0.00  0.00     0.025 H 
ENDBRANCH  12  18
ENDBRANCH  11  12
ENDBRANCH   9  11
BRANCH   9  22
ATOM     22  O   LIG d   1       3.925  -8.014  -7.322  0.00  0.00    -0.314 OA
BRANCH  22  23
ATOM     23  C   LIG d   1       4.881  -8.888  -6.719  0.00  0.00     0.061 C 
ATOM     24  H   LIG d   1       5.884  -8.613  -7.047  0.00  0.00     0.059 H 
BRANCH  23  25
ATOM     25  C   LIG d   1       4.793  -8.770  -5.196  0.00  0.00    -0.038 C 
ATOM     26  H   LIG d   1       5.633  -9.295  -4.742  0.00  0.00     0.025 H 
ATOM     27  H   LIG d   1       4.826  -7.718  -4.912  0.00  0.00     0.025 H 
ATOM     28  H   LIG d   1       3.858  -9.210  -4.851  0.00  0.00     0.025 H 
ENDBRANCH  23  25
BRANCH  23  29
ATOM     29  C   LIG d   1       4.587 -10.330  -7.137  0.00  0.00    -0.038 C 
ATOM     30  H   LIG d   1       4.934 -11.012  -6.360  0.00  0.00     0.025 H 
ATOM     31  H   LIG d   1       3.513 -10.456  -7.277  0.00  0.00     0.025 H 
ATOM     32  H   LIG d   1       5.103 -10.551  -8.071  0.00  0.00     0.025 H 
ENDBRANCH  23  29
ENDBRANCH  22  23
ENDBRANCH   9  22
ENDBRANCH   6   9
ENDBRANCH   4   5
ENDBRANCH   1   4
BRANCH   1  33
ATOM     33  C   LIG d   1       5.330  -2.070  -4.221  0.00  0.00     0.036 C 
ATOM     34  H   LIG d   1       6.369  -2.218  -4.517  0.00  0.00     0.039 H 
ATOM     35  C   LIG d   1       4.726  -0.926  -5.042  0.00  0.00    -0.015 C 
ATOM     36  N   LIG d   1       3.334  -0.699  -4.643  0.00  0.00     0.238 N 
ATOM     37  H   LIG d   1       5.304  -0.017  -4.881  0.00  0.00     0.086 H 
ATOM     38  C   LIG d   1       4.787  -1.317  -6.523  0.00  0.00    -0.009 C 
ATOM     39  C   LIG d   1       3.271  -0.323  -3.222  0.00  0.00    -0.032 C 
ATOM     40  C   LIG d   1       2.752   0.397  -5.430  0.00  0.00    -0.032 C 
ATOM     41  H   LIG d   1       2.800  -1.542  -4.791  0.00  0.00     0.204 HD
ATOM     42  C   LIG d   1       3.808  -1.459  -2.351  0.00  0.00    -0.012 C 
ATOM     43  H   LIG d   1       2.236  -0.117  -2.950  0.00  0.00     0.081 H 
ATOM     44  H   LIG d   1       3.870   0.572  -3.059  0.00  0.00     0.081 H 
ATOM     45  C   LIG d   1       5.268  -1.726  -2.733  0.00  0.00    -0.037 C 
ATOM     46  H   LIG d   1       3.216  -2.359  -2.520  0.00  0.00     0.032 H 
ATOM     47  H   LIG d   1       3.750  -1.173  -1.302  0.00  0.00     0.032 H 
ATOM     48  H   LIG d   1       5.651  -2.562  -2.147  0.00  0.00     0.027 H 
ATOM     49  H   LIG d   1       5.865  -0.836  -2.537  0.00  0.00     0.027 H 
ATOM     50  C   LIG d   1       2.732   0.031  -6.909  0.00  0.00    -0.012 C 
ATOM     51  H   LIG d   1       1.732   0.582  -5.092  0.00  0.00     0.081 H 
ATOM     52  H   LIG d   1       3.346   1.299  -5.288  0.00  0.00     0.081 H 
ATOM     53  C   LIG d   1       4.172  -0.208  -7.378  0.00  0.00    -0.043 C 
ATOM     54  H   LIG d   1       2.292   0.847  -7.482  0.00  0.00     0.032 H 
ATOM     55  H   LIG d   1       2.147  -0.877  -7.055  0.00  0.00     0.032 H 
ATOM     56  H   LIG d   1       4.751   0.709  -7.259  0.00  0.00     0.027 H 
ATOM     57  H   LIG d   1       4.170  -0.511  -8.425  0.00  0.00     0.027 H 
ATOM     58  H   LIG d   1       5.826  -1.467  -6.816  0.00  0.00     0.032 H 
ATOM     59  H   LIG d   1       4.232  -2.243  -6.676  0.00  0.00     0.032 H 
ENDBRANCH   1  33
TORSDOF 12
ENDMDL
MODEL 9
REMARK VINA RESULT:      -5.2      5.482      7.460
REMARK  12 active torsions:
REMARK  status: ('A' for Active; 'I' for Inactive)
REMARK    1  A    between atoms: C_1  and  C_2 
REMARK    2  A    between atoms: C_2  and  C_3 
REMARK    3  A    between atoms: C_2  and  O_4 
REMARK    4  A    between atoms: O_4  and  P_5 
REMARK    5  A    between atoms: P_5  and  N_7 
REMARK    6  A    between atoms: P_5  and  O_24 
REMARK       I    between atoms: N_7  and  C_8 
REMARK    7  A    between atoms: C_8  and  O_10 
REMARK    8  A    between atoms: O_10  and  C_11 
REMARK    9  A    between atoms: C_11  and  C_12 
REMARK   10  A    between atoms: O_24  and  C_25 
REMARK   11  A    between atoms: C_25  and  C_26 
REMARK   12  A    between atoms: C_25  and  C_27 
ROOT
ATOM      1  C   LIG d   1       7.343   0.614  -4.956  0.00  0.00     0.102 C 
ATOM      2  H   LIG d   1       6.806   1.455  -4.517  0.00  0.00     0.070 H 
ATOM      3  H   LIG d   1       7.275   0.668  -6.043  0.00  0.00     0.070 H 
ENDROOT
BRANCH   1   4
ATOM      4  O   LIG d   1       8.716   0.667  -4.563  0.00  0.00    -0.450 OA
BRANCH   4   5
ATOM      5  C   LIG d   1       9.315   1.873  -4.593  0.00  0.00     0.407 C 
ATOM      6  N   LIG d   1       9.405   2.608  -3.468  0.00  0.00    -0.213 N 
ATOM      7  H   LIG d   1       9.108   2.239  -2.621  0.00  0.00     0.161 HD
ATOM      8  O   LIG d   1       9.774   2.297  -5.635  0.00  0.00    -0.226 OA
BRANCH   6   9
ATOM      9  P   LIG d   1      10.016   4.129  -3.530  0.00  0.00     0.266 P 
ATOM     10  S   LIG d   1      11.849   4.049  -3.860  0.00  0.00     0.013 SA
BRANCH   9  11
ATOM     11  O   LIG d   1       9.756   4.870  -2.125  0.00  0.00    -0.314 OA
BRANCH  11  12
ATOM     12  C   LIG d   1      10.472   6.037  -1.715  0.00  0.00     0.061 C 
ATOM     13  H   LIG d   1      11.242   6.268  -2.452  0.00  0.00     0.059 H 
BRANCH  12  14
ATOM     14  C   LIG d   1       9.504   7.217  -1.604  0.00  0.00    -0.038 C 
ATOM     15  H   LIG d   1       9.901   7.947  -0.899  0.00  0.00     0.025 H 
ATOM     16  H   LIG d   1       9.385   7.683  -2.582  0.00  0.00     0.025 H 
ATOM     17  H   LIG d   1       8.537   6.860  -1.252  0.00  0.00     0.025 H 
ENDBRANCH  12  14
BRANCH  12  18
ATOM     18  C   LIG d   1      11.126   5.784  -0.356  0.00  0.00    -0.038 C 
ATOM     19  H   LIG d   1      10.537   5.056   0.201  0.00  0.00     0.025 H 
ATOM     20  H   LIG d   1      12.135   5.397  -0.504  0.00  0.00     0.025 H 
ATOM     21  H   LIG d   1      11.174   6.718   0.203  0.00  0.00     0.025 H 
ENDBRANCH  12  18
ENDBRANCH  11  12
ENDBRANCH   9  11
BRANCH   9  22
ATOM     22  O   LIG d   1       9.294   4.951  -4.711  0.00  0.00    -0.314 OA
BRANCH  22  23
ATOM     23  C   LIG d   1       9.971   5.925  -5.507  0.00  0.00     0.061 C 
ATOM     24  H   LIG d   1      11.013   5.992  -5.193  0.00  0.00     0.059 H 
BRANCH  23  25
ATOM     25  C   LIG d   1       9.908   5.515  -6.980  0.00  0.00    -0.038 C 
ATOM     26  H   LIG d   1       9.088   4.812  -7.126  0.00  0.00     0.025 H 
ATOM     27  H   LIG d   1       9.742   6.398  -7.596  0.00  0.00     0.025 H 
ATOM     28  H   LIG d   1      10.848   5.043  -7.266  0.00  0.00     0.025 H 
ENDBRANCH  23  25
BRANCH  23  29
ATOM     29  C   LIG d   1       9.297   7.287  -5.328  0.00  0.00    -0.038 C 
ATOM     30  H   LIG d   1      10.059   8.060  -5.224  0.00  0.00     0.025 H 
ATOM     31  H   LIG d   1       8.677   7.503  -6.199  0.00  0.00     0.025 H 
ATOM     32  H   LIG d   1       8.673   7.269  -4.434  0.00  0.00     0.025 H 
ENDBRANCH  23  29
ENDBRANCH  22  23
ENDBRANCH   9  22
ENDBRANCH   6   9
ENDBRANCH   4   5
ENDBRANCH   1   4
BRANCH   1  33
ATOM     33  C   LIG d   1       6.724  -0.698  -4.471  0.00  0.00     0.036 C 
ATOM     34  H   LIG d   1       7.420  -1.200  -3.798  0.00  0.00     0.039 H 
ATOM     35  C   LIG d   1       5.419  -0.401  -3.725  0.00  0.00    -0.015 C 
ATOM     36  N   LIG d   1       4.464   0.254  -4.623  0.00  0.00     0.238 N 
ATOM     37  H   LIG d   1       4.991  -1.332  -3.354  0.00  0.00     0.086 H 
ATOM     38  C   LIG d   1       5.744   0.521  -2.545  0.00  0.00    -0.009 C 
ATOM     39  C   LIG d   1       4.149  -0.628  -5.757  0.00  0.00    -0.032 C 
ATOM     40  C   LIG d   1       3.212   0.541  -3.909  0.00  0.00    -0.032 C 
ATOM     41  H   LIG d   1       4.861   1.115  -4.966  0.00  0.00     0.204 HD
ATOM     42  C   LIG d   1       5.410  -0.909  -6.573  0.00  0.00    -0.012 C 
ATOM     43  H   LIG d   1       3.406  -0.146  -6.393  0.00  0.00     0.081 H 
ATOM     44  H   LIG d   1       3.745  -1.568  -5.382  0.00  0.00     0.081 H 
ATOM     45  C   LIG d   1       6.438  -1.601  -5.672  0.00  0.00    -0.037 C 
ATOM     46  H   LIG d   1       5.823   0.031  -6.941  0.00  0.00     0.032 H 
ATOM     47  H   LIG d   1       5.165  -1.556  -7.414  0.00  0.00     0.032 H 
ATOM     48  H   LIG d   1       7.359  -1.770  -6.231  0.00  0.00     0.027 H 
ATOM     49  H   LIG d   1       6.038  -2.554  -5.327  0.00  0.00     0.027 H 
ATOM     50  C   LIG d   1       3.470   1.508  -2.759  0.00  0.00    -0.012 C 
ATOM     51  H   LIG d   1       2.497   0.989  -4.599  0.00  0.00     0.081 H 
ATOM     52  H   LIG d   1       2.797  -0.387  -3.516  0.00  0.00     0.081 H 
ATOM     53  C   LIG d   1       4.461   0.861  -1.784  0.00  0.00    -0.043 C 
ATOM     54  H   LIG d   1       2.535   1.720  -2.241  0.00  0.00     0.032 H 
ATOM     55  H   LIG d   1       3.893   2.435  -3.146  0.00  0.00     0.032 H 
ATOM     56  H   LIG d   1       4.027  -0.052  -1.374  0.00  0.00     0.027 H 
ATOM     57  H   LIG d   1       4.687   1.557  -0.977  0.00  0.00     0.027 H 
ATOM     58  H   LIG d   1       6.441   0.019  -1.874  0.00  0.00     0.032 H 
ATOM     59  H   LIG d   1       6.199   1.439  -2.917  0.00  0.00     0.032 H 
ENDBRANCH   1  33
TORSDOF 12
ENDMDL
