MODEL 1
REMARK VINA RESULT:      -7.2      0.000      0.000
REMARK  1 active torsions:
REMARK  status: ('A' for Active; 'I' for Inactive)
REMARK    1  A    between atoms: C_10  and  C_22 
ROOT
ATOM      1  C   LIG d   1       4.611  -1.573  -2.596  0.00  0.00    -0.061 A 
ATOM      2  C   LIG d   1       3.592  -0.672  -2.361  0.00  0.00    -0.060 A 
ATOM      3  C   LIG d   1       3.012   0.064  -3.382  0.00  0.00    -0.041 A 
ATOM      4  C   LIG d   1       3.503  -0.141  -4.673  0.00  0.00     0.031 A 
ATOM      5  C   LIG d   1       4.526  -1.069  -4.901  0.00  0.00    -0.022 A 
ATOM      6  C   LIG d   1       5.102  -1.793  -3.879  0.00  0.00    -0.057 A 
ATOM      7  C   LIG d   1       4.816  -1.093  -6.387  0.00  0.00     0.008 C 
ATOM      8  H   LIG d   1       4.880  -2.113  -6.764  0.00  0.00     0.037 H 
ATOM      9  C   LIG d   1       6.129  -0.342  -6.601  0.00  0.00    -0.020 C 
ATOM     10  C   LIG d   1       6.328   0.005  -8.079  0.00  0.00     0.066 C 
ATOM     11  H   LIG d   1       6.374  -0.907  -8.675  0.00  0.00     0.056 H 
ATOM     12  N   LIG d   1       5.159   0.812  -8.473  0.00  0.00    -0.288 N 
ATOM     13  C   LIG d   1       3.784   0.351  -8.260  0.00  0.00     0.046 C 
ATOM     14  H   LIG d   1       3.526  -0.334  -9.068  0.00  0.00     0.052 H 
ATOM     15  C   LIG d   1       3.605  -0.351  -6.953  0.00  0.00     0.046 C 
ATOM     16  H   LIG d   1       2.830  -1.099  -7.112  0.00  0.00     0.052 H 
ATOM     17  N   LIG d   1       3.140   0.500  -5.854  0.00  0.00    -0.338 N 
ATOM     18  C   LIG d   1       2.900   1.608  -8.368  0.00  0.00    -0.024 C 
ATOM     19  C   LIG d   1       3.774   2.531  -9.251  0.00  0.00     0.026 C 
ATOM     20  C   LIG d   1       5.185   2.035  -9.025  0.00  0.00     0.216 C 
ATOM     21  O   LIG d   1       6.193   2.651  -9.301  0.00  0.00    -0.276 OA
ATOM     22  H   LIG d   1       5.036  -2.118  -1.767  0.00  0.00     0.062 H 
ATOM     23  H   LIG d   1       3.235  -0.537  -1.350  0.00  0.00     0.062 H 
ATOM     24  H   LIG d   1       2.215   0.766  -3.188  0.00  0.00     0.064 H 
ATOM     25  H   LIG d   1       5.899  -2.498  -4.066  0.00  0.00     0.062 H 
ATOM     26  H   LIG d   1       6.958  -0.966  -6.266  0.00  0.00     0.029 H 
ATOM     27  H   LIG d   1       6.114   0.577  -6.017  0.00  0.00     0.029 H 
ATOM     28  H   LIG d   1       2.670   1.344  -5.934  0.00  0.00     0.146 HD
ATOM     29  H   LIG d   1       1.955   1.380  -8.860  0.00  0.00     0.029 H 
ATOM     30  H   LIG d   1       2.731   2.052  -7.386  0.00  0.00     0.029 H 
ATOM     31  H   LIG d   1       3.497   2.430 -10.300  0.00  0.00     0.036 H 
ATOM     32  H   LIG d   1       3.679   3.569  -8.929  0.00  0.00     0.036 H 
ENDROOT
BRANCH  10  33
ATOM     33  C   LIG d   1       7.593   0.804  -8.258  0.00  0.00     0.062 C 
ATOM     34  O   LIG d   1       8.239   0.695  -9.273  0.00  0.00    -0.548 OA
ATOM     35  O   LIG d   1       7.998   1.643  -7.291  0.00  0.00    -0.548 OA
ENDBRANCH  10  33
TORSDOF 1
ENDMDL
MODEL 2
REMARK VINA RESULT:      -6.8      2.872      5.620
REMARK  1 active torsions:
REMARK  status: ('A' for Active; 'I' for Inactive)
REMARK    1  A    between atoms: C_10  and  C_22 
ROOT
ATOM      1  C   LIG d   1       2.491   0.704  -9.848  0.00  0.00    -0.061 A 
ATOM      2  C   LIG d   1       3.635   1.273 -10.367  0.00  0.00    -0.060 A 
ATOM      3  C   LIG d   1       4.844   1.239  -9.688  0.00  0.00    -0.041 A 
ATOM      4  C   LIG d   1       4.860   0.601  -8.447  0.00  0.00     0.031 A 
ATOM      5  C   LIG d   1       3.695   0.013  -7.939  0.00  0.00    -0.022 A 
ATOM      6  C   LIG d   1       2.496   0.057  -8.617  0.00  0.00    -0.057 A 
ATOM      7  C   LIG d   1       4.032  -0.623  -6.607  0.00  0.00     0.008 C 
ATOM      8  H   LIG d   1       3.629  -1.633  -6.536  0.00  0.00     0.037 H 
ATOM      9  C   LIG d   1       3.454   0.280  -5.518  0.00  0.00    -0.020 C 
ATOM     10  C   LIG d   1       4.041  -0.070  -4.148  0.00  0.00     0.066 C 
ATOM     11  H   LIG d   1       3.791  -1.098  -3.885  0.00  0.00     0.056 H 
ATOM     12  N   LIG d   1       5.502   0.081  -4.274  0.00  0.00    -0.288 N 
ATOM     13  C   LIG d   1       6.269  -0.599  -5.322  0.00  0.00     0.046 C 
ATOM     14  H   LIG d   1       6.450  -1.625  -5.000  0.00  0.00     0.052 H 
ATOM     15  C   LIG d   1       5.560  -0.619  -6.637  0.00  0.00     0.046 C 
ATOM     16  H   LIG d   1       5.863  -1.541  -7.133  0.00  0.00     0.052 H 
ATOM     17  N   LIG d   1       5.914   0.474  -7.547  0.00  0.00    -0.338 N 
ATOM     18  C   LIG d   1       7.616   0.145  -5.402  0.00  0.00    -0.024 C 
ATOM     19  C   LIG d   1       7.726   0.750  -3.982  0.00  0.00     0.026 C 
ATOM     20  C   LIG d   1       6.292   0.848  -3.508  0.00  0.00     0.216 C 
ATOM     21  O   LIG d   1       5.912   1.522  -2.573  0.00  0.00    -0.276 OA
ATOM     22  H   LIG d   1       1.571   0.762 -10.410  0.00  0.00     0.062 H 
ATOM     23  H   LIG d   1       3.589   1.759 -11.331  0.00  0.00     0.062 H 
ATOM     24  H   LIG d   1       5.736   1.686 -10.103  0.00  0.00     0.064 H 
ATOM     25  H   LIG d   1       1.600  -0.389  -8.209  0.00  0.00     0.062 H 
ATOM     26  H   LIG d   1       2.372   0.155  -5.486  0.00  0.00     0.029 H 
ATOM     27  H   LIG d   1       3.689   1.317  -5.753  0.00  0.00     0.029 H 
ATOM     28  H   LIG d   1       6.725   1.006  -7.526  0.00  0.00     0.146 HD
ATOM     29  H   LIG d   1       8.435  -0.549  -5.594  0.00  0.00     0.029 H 
ATOM     30  H   LIG d   1       7.585   0.929  -6.159  0.00  0.00     0.029 H 
ATOM     31  H   LIG d   1       8.299   0.091  -3.329  0.00  0.00     0.036 H 
ATOM     32  H   LIG d   1       8.182   1.740  -4.023  0.00  0.00     0.036 H 
ENDROOT
BRANCH  10  33
ATOM     33  C   LIG d   1       3.511   0.876  -3.101  0.00  0.00     0.062 C 
ATOM     34  O   LIG d   1       3.318   0.484  -1.975  0.00  0.00    -0.548 OA
ATOM     35  O   LIG d   1       3.260   2.155  -3.420  0.00  0.00    -0.548 OA
ENDBRANCH  10  33
TORSDOF 1
ENDMDL
MODEL 3
REMARK VINA RESULT:      -6.5      2.844      3.982
REMARK  1 active torsions:
REMARK  status: ('A' for Active; 'I' for Inactive)
REMARK    1  A    between atoms: C_10  and  C_22 
ROOT
ATOM      1  C   LIG d   1       4.783  -0.017  -2.272  0.00  0.00    -0.061 A 
ATOM      2  C   LIG d   1       4.200  -1.178  -1.806  0.00  0.00    -0.060 A 
ATOM      3  C   LIG d   1       4.008  -2.282  -2.623  0.00  0.00    -0.041 A 
ATOM      4  C   LIG d   1       4.430  -2.173  -3.949  0.00  0.00     0.031 A 
ATOM      5  C   LIG d   1       5.035  -0.997  -4.405  0.00  0.00    -0.022 A 
ATOM      6  C   LIG d   1       5.216   0.099  -3.588  0.00  0.00    -0.057 A 
ATOM      7  C   LIG d   1       5.410  -1.193  -5.859  0.00  0.00     0.008 C 
ATOM      8  H   LIG d   1       6.428  -0.859  -6.056  0.00  0.00     0.037 H 
ATOM      9  C   LIG d   1       4.400  -0.408  -6.694  0.00  0.00    -0.020 C 
ATOM     10  C   LIG d   1       4.464  -0.825  -8.166  0.00  0.00     0.066 C 
ATOM     11  H   LIG d   1       5.454  -0.616  -8.572  0.00  0.00     0.056 H 
ATOM     12  N   LIG d   1       4.197  -2.274  -8.195  0.00  0.00    -0.288 N 
ATOM     13  C   LIG d   1       4.963  -3.225  -7.384  0.00  0.00     0.046 C 
ATOM     14  H   LIG d   1       5.901  -3.435  -7.900  0.00  0.00     0.052 H 
ATOM     15  C   LIG d   1       5.265  -2.707  -6.016  0.00  0.00     0.046 C 
ATOM     16  H   LIG d   1       6.223  -3.140  -5.730  0.00  0.00     0.052 H 
ATOM     17  N   LIG d   1       4.307  -3.101  -4.980  0.00  0.00    -0.338 N 
ATOM     18  C   LIG d   1       4.118  -4.513  -7.341  0.00  0.00    -0.024 C 
ATOM     19  C   LIG d   1       3.281  -4.383  -8.637  0.00  0.00     0.026 C 
ATOM     20  C   LIG d   1       3.244  -2.895  -8.907  0.00  0.00     0.216 C 
ATOM     21  O   LIG d   1       2.465  -2.342  -9.656  0.00  0.00    -0.276 OA
ATOM     22  H   LIG d   1       4.905   0.819  -1.600  0.00  0.00     0.062 H 
ATOM     23  H   LIG d   1       3.885  -1.229  -0.774  0.00  0.00     0.062 H 
ATOM     24  H   LIG d   1       3.552  -3.187  -2.249  0.00  0.00     0.064 H 
ATOM     25  H   LIG d   1       5.673   1.007  -3.955  0.00  0.00     0.062 H 
ATOM     26  H   LIG d   1       4.620   0.657  -6.615  0.00  0.00     0.029 H 
ATOM     27  H   LIG d   1       3.397  -0.596  -6.313  0.00  0.00     0.029 H 
ATOM     28  H   LIG d   1       3.705  -3.861  -5.007  0.00  0.00     0.146 HD
ATOM     29  H   LIG d   1       4.753  -5.398  -7.375  0.00  0.00     0.029 H 
ATOM     30  H   LIG d   1       3.475  -4.529  -6.461  0.00  0.00     0.029 H 
ATOM     31  H   LIG d   1       3.767  -4.908  -9.460  0.00  0.00     0.036 H 
ATOM     32  H   LIG d   1       2.273  -4.768  -8.480  0.00  0.00     0.036 H 
ENDROOT
BRANCH  10  33
ATOM     33  C   LIG d   1       3.414  -0.089  -8.959  0.00  0.00     0.062 C 
ATOM     34  O   LIG d   1       2.375   0.231  -8.434  0.00  0.00    -0.548 OA
ATOM     35  O   LIG d   1       3.638   0.215 -10.247  0.00  0.00    -0.548 OA
ENDBRANCH  10  33
TORSDOF 1
ENDMDL
MODEL 4
REMARK VINA RESULT:      -6.4      3.379      5.628
REMARK  1 active torsions:
REMARK  status: ('A' for Active; 'I' for Inactive)
REMARK    1  A    between atoms: C_10  and  C_22 
ROOT
ATOM      1  C   LIG d   1       2.942  -1.481 -11.208  0.00  0.00    -0.061 A 
ATOM      2  C   LIG d   1       1.695  -0.993 -10.877  0.00  0.00    -0.060 A 
ATOM      3  C   LIG d   1       1.405  -0.522  -9.605  0.00  0.00    -0.041 A 
ATOM      4  C   LIG d   1       2.433  -0.561  -8.663  0.00  0.00     0.031 A 
ATOM      5  C   LIG d   1       3.699  -1.043  -9.016  0.00  0.00    -0.022 A 
ATOM      6  C   LIG d   1       3.977  -1.516 -10.280  0.00  0.00    -0.057 A 
ATOM      7  C   LIG d   1       4.600  -0.928  -7.805  0.00  0.00     0.008 C 
ATOM      8  H   LIG d   1       5.563  -0.489  -8.065  0.00  0.00     0.037 H 
ATOM      9  C   LIG d   1       4.772  -2.336  -7.237  0.00  0.00    -0.020 C 
ATOM     10  C   LIG d   1       5.357  -2.290  -5.822  0.00  0.00     0.066 C 
ATOM     11  H   LIG d   1       6.342  -1.824  -5.840  0.00  0.00     0.056 H 
ATOM     12  N   LIG d   1       4.425  -1.478  -5.018  0.00  0.00    -0.288 N 
ATOM     13  C   LIG d   1       4.015  -0.130  -5.422  0.00  0.00     0.046 C 
ATOM     14  H   LIG d   1       4.801   0.567  -5.130  0.00  0.00     0.052 H 
ATOM     15  C   LIG d   1       3.783  -0.013  -6.893  0.00  0.00     0.046 C 
ATOM     16  H   LIG d   1       4.048   1.009  -7.164  0.00  0.00     0.052 H 
ATOM     17  N   LIG d   1       2.394  -0.205  -7.317  0.00  0.00    -0.338 N 
ATOM     18  C   LIG d   1       2.744   0.181  -4.609  0.00  0.00    -0.024 C 
ATOM     19  C   LIG d   1       2.923  -0.742  -3.380  0.00  0.00     0.026 C 
ATOM     20  C   LIG d   1       3.826  -1.850  -3.877  0.00  0.00     0.216 C 
ATOM     21  O   LIG d   1       3.984  -2.920  -3.325  0.00  0.00    -0.276 OA
ATOM     22  H   LIG d   1       3.118  -1.843 -12.210  0.00  0.00     0.062 H 
ATOM     23  H   LIG d   1       0.921  -0.976 -11.631  0.00  0.00     0.062 H 
ATOM     24  H   LIG d   1       0.425  -0.140  -9.355  0.00  0.00     0.064 H 
ATOM     25  H   LIG d   1       4.955  -1.897 -10.538  0.00  0.00     0.062 H 
ATOM     26  H   LIG d   1       5.441  -2.904  -7.882  0.00  0.00     0.029 H 
ATOM     27  H   LIG d   1       3.801  -2.829  -7.205  0.00  0.00     0.029 H 
ATOM     28  H   LIG d   1       1.601  -0.103  -6.768  0.00  0.00     0.146 HD
ATOM     29  H   LIG d   1       2.719   1.229  -4.308  0.00  0.00     0.029 H 
ATOM     30  H   LIG d   1       1.847  -0.084  -5.170  0.00  0.00     0.029 H 
ATOM     31  H   LIG d   1       3.398  -0.202  -2.562  0.00  0.00     0.036 H 
ATOM     32  H   LIG d   1       1.961  -1.147  -3.064  0.00  0.00     0.036 H 
ENDROOT
BRANCH  10  33
ATOM     33  C   LIG d   1       5.452  -3.683  -5.255  0.00  0.00     0.062 C 
ATOM     34  O   LIG d   1       6.418  -4.006  -4.605  0.00  0.00    -0.548 OA
ATOM     35  O   LIG d   1       4.460  -4.562  -5.467  0.00  0.00    -0.548 OA
ENDBRANCH  10  33
TORSDOF 1
ENDMDL
MODEL 5
REMARK VINA RESULT:      -6.1      4.057      5.494
REMARK  1 active torsions:
REMARK  status: ('A' for Active; 'I' for Inactive)
REMARK    1  A    between atoms: C_10  and  C_22 
ROOT
ATOM      1  C   LIG d   1       5.285  -6.994  -6.446  0.00  0.00    -0.061 A 
ATOM      2  C   LIG d   1       4.362  -6.838  -7.460  0.00  0.00    -0.060 A 
ATOM      3  C   LIG d   1       3.874  -5.592  -7.823  0.00  0.00    -0.041 A 
ATOM      4  C   LIG d   1       4.357  -4.489  -7.117  0.00  0.00     0.031 A 
ATOM      5  C   LIG d   1       5.306  -4.658  -6.102  0.00  0.00    -0.022 A 
ATOM      6  C   LIG d   1       5.780  -5.901  -5.742  0.00  0.00    -0.057 A 
ATOM      7  C   LIG d   1       5.656  -3.292  -5.553  0.00  0.00     0.008 C 
ATOM      8  H   LIG d   1       6.734  -3.166  -5.457  0.00  0.00     0.037 H 
ATOM      9  C   LIG d   1       4.962  -3.160  -4.198  0.00  0.00    -0.020 C 
ATOM     10  C   LIG d   1       4.950  -1.703  -3.727  0.00  0.00     0.066 C 
ATOM     11  H   LIG d   1       5.971  -1.340  -3.606  0.00  0.00     0.056 H 
ATOM     12  N   LIG d   1       4.259  -0.937  -4.779  0.00  0.00    -0.288 N 
ATOM     13  C   LIG d   1       4.671  -0.993  -6.185  0.00  0.00     0.046 C 
ATOM     14  H   LIG d   1       5.519  -0.321  -6.318  0.00  0.00     0.052 H 
ATOM     15  C   LIG d   1       5.066  -2.367  -6.617  0.00  0.00     0.046 C 
ATOM     16  H   LIG d   1       5.837  -2.238  -7.377  0.00  0.00     0.052 H 
ATOM     17  N   LIG d   1       3.997  -3.150  -7.243  0.00  0.00    -0.338 N 
ATOM     18  C   LIG d   1       3.475  -0.453  -6.993  0.00  0.00    -0.024 C 
ATOM     19  C   LIG d   1       2.764   0.437  -5.945  0.00  0.00     0.026 C 
ATOM     20  C   LIG d   1       3.189  -0.144  -4.614  0.00  0.00     0.216 C 
ATOM     21  O   LIG d   1       2.641   0.073  -3.553  0.00  0.00    -0.276 OA
ATOM     22  H   LIG d   1       5.630  -7.985  -6.195  0.00  0.00     0.062 H 
ATOM     23  H   LIG d   1       4.009  -7.713  -7.987  0.00  0.00     0.062 H 
ATOM     24  H   LIG d   1       3.152  -5.479  -8.619  0.00  0.00     0.064 H 
ATOM     25  H   LIG d   1       6.503  -6.021  -4.949  0.00  0.00     0.062 H 
ATOM     26  H   LIG d   1       5.491  -3.769  -3.464  0.00  0.00     0.029 H 
ATOM     27  H   LIG d   1       3.936  -3.516  -4.286  0.00  0.00     0.029 H 
ATOM     28  H   LIG d   1       3.194  -2.803  -7.662  0.00  0.00     0.146 HD
ATOM     29  H   LIG d   1       3.813   0.140  -7.842  0.00  0.00     0.029 H 
ATOM     30  H   LIG d   1       2.826  -1.266  -7.319  0.00  0.00     0.029 H 
ATOM     31  H   LIG d   1       3.098   1.471  -6.034  0.00  0.00     0.036 H 
ATOM     32  H   LIG d   1       1.682   0.373  -6.062  0.00  0.00     0.036 H 
ENDROOT
BRANCH  10  33
ATOM     33  C   LIG d   1       4.201  -1.586  -2.424  0.00  0.00     0.062 C 
ATOM     34  O   LIG d   1       3.350  -2.395  -2.142  0.00  0.00    -0.548 OA
ATOM     35  O   LIG d   1       4.486  -0.585  -1.576  0.00  0.00    -0.548 OA
ENDBRANCH  10  33
TORSDOF 1
ENDMDL
MODEL 6
REMARK VINA RESULT:      -6.1      3.769      5.302
REMARK  1 active torsions:
REMARK  status: ('A' for Active; 'I' for Inactive)
REMARK    1  A    between atoms: C_10  and  C_22 
ROOT
ATOM      1  C   LIG d   1       8.493  -5.389  -4.307  0.00  0.00    -0.061 A 
ATOM      2  C   LIG d   1       7.660  -5.962  -5.245  0.00  0.00    -0.060 A 
ATOM      3  C   LIG d   1       6.712  -5.222  -5.935  0.00  0.00    -0.041 A 
ATOM      4  C   LIG d   1       6.630  -3.860  -5.640  0.00  0.00     0.031 A 
ATOM      5  C   LIG d   1       7.492  -3.287  -4.698  0.00  0.00    -0.022 A 
ATOM      6  C   LIG d   1       8.427  -4.031  -4.011  0.00  0.00    -0.057 A 
ATOM      7  C   LIG d   1       7.188  -1.805  -4.622  0.00  0.00     0.008 C 
ATOM      8  H   LIG d   1       8.100  -1.210  -4.652  0.00  0.00     0.037 H 
ATOM      9  C   LIG d   1       6.418  -1.570  -3.324  0.00  0.00    -0.020 C 
ATOM     10  C   LIG d   1       5.754  -0.190  -3.323  0.00  0.00     0.066 C 
ATOM     11  H   LIG d   1       6.511   0.590  -3.398  0.00  0.00     0.056 H 
ATOM     12  N   LIG d   1       4.871  -0.157  -4.504  0.00  0.00    -0.288 N 
ATOM     13  C   LIG d   1       5.359  -0.464  -5.852  0.00  0.00     0.046 C 
ATOM     14  H   LIG d   1       5.846   0.427  -6.249  0.00  0.00     0.052 H 
ATOM     15  C   LIG d   1       6.331  -1.599  -5.871  0.00  0.00     0.046 C 
ATOM     16  H   LIG d   1       7.020  -1.396  -6.690  0.00  0.00     0.052 H 
ATOM     17  N   LIG d   1       5.741  -2.913  -6.142  0.00  0.00    -0.338 N 
ATOM     18  C   LIG d   1       4.103  -0.764  -6.692  0.00  0.00    -0.024 C 
ATOM     19  C   LIG d   1       3.013   0.015  -5.917  0.00  0.00     0.026 C 
ATOM     20  C   LIG d   1       3.557   0.112  -4.509  0.00  0.00     0.216 C 
ATOM     21  O   LIG d   1       2.901   0.393  -3.527  0.00  0.00    -0.276 OA
ATOM     22  H   LIG d   1       9.211  -6.007  -3.790  0.00  0.00     0.062 H 
ATOM     23  H   LIG d   1       7.750  -7.019  -5.450  0.00  0.00     0.062 H 
ATOM     24  H   LIG d   1       6.065  -5.679  -6.669  0.00  0.00     0.064 H 
ATOM     25  H   LIG d   1       9.079  -3.580  -3.277  0.00  0.00     0.062 H 
ATOM     26  H   LIG d   1       7.106  -1.635  -2.482  0.00  0.00     0.029 H 
ATOM     27  H   LIG d   1       5.650  -2.336  -3.220  0.00  0.00     0.029 H 
ATOM     28  H   LIG d   1       4.897  -3.089  -6.585  0.00  0.00     0.146 HD
ATOM     29  H   LIG d   1       4.210  -0.378  -7.706  0.00  0.00     0.029 H 
ATOM     30  H   LIG d   1       3.886  -1.833  -6.703  0.00  0.00     0.029 H 
ATOM     31  H   LIG d   1       2.878   1.009  -6.344  0.00  0.00     0.036 H 
ATOM     32  H   LIG d   1       2.072  -0.536  -5.925  0.00  0.00     0.036 H 
ENDROOT
BRANCH  10  33
ATOM     33  C   LIG d   1       4.943  -0.006  -2.066  0.00  0.00     0.062 C 
ATOM     34  O   LIG d   1       4.834   1.091  -1.572  0.00  0.00    -0.548 OA
ATOM     35  O   LIG d   1       4.337  -1.061  -1.499  0.00  0.00    -0.548 OA
ENDBRANCH  10  33
TORSDOF 1
ENDMDL
MODEL 7
REMARK VINA RESULT:      -5.9      3.166      5.274
REMARK  1 active torsions:
REMARK  status: ('A' for Active; 'I' for Inactive)
REMARK    1  A    between atoms: C_10  and  C_22 
ROOT
ATOM      1  C   LIG d   1       9.845   2.314  -6.081  0.00  0.00    -0.061 A 
ATOM      2  C   LIG d   1       9.757   3.017  -4.897  0.00  0.00    -0.060 A 
ATOM      3  C   LIG d   1       8.812   2.711  -3.930  0.00  0.00    -0.041 A 
ATOM      4  C   LIG d   1       7.942   1.654  -4.203  0.00  0.00     0.031 A 
ATOM      5  C   LIG d   1       8.051   0.938  -5.401  0.00  0.00    -0.022 A 
ATOM      6  C   LIG d   1       8.990   1.253  -6.360  0.00  0.00    -0.057 A 
ATOM      7  C   LIG d   1       7.006  -0.157  -5.392  0.00  0.00     0.008 C 
ATOM      8  H   LIG d   1       7.428  -1.113  -5.699  0.00  0.00     0.037 H 
ATOM      9  C   LIG d   1       5.888   0.282  -6.337  0.00  0.00    -0.020 C 
ATOM     10  C   LIG d   1       4.630  -0.566  -6.129  0.00  0.00     0.066 C 
ATOM     11  H   LIG d   1       4.844  -1.613  -6.342  0.00  0.00     0.056 H 
ATOM     12  N   LIG d   1       4.253  -0.403  -4.713  0.00  0.00    -0.288 N 
ATOM     13  C   LIG d   1       5.198  -0.653  -3.620  0.00  0.00     0.046 C 
ATOM     14  H   LIG d   1       5.232  -1.727  -3.439  0.00  0.00     0.052 H 
ATOM     15  C   LIG d   1       6.577  -0.167  -3.925  0.00  0.00     0.046 C 
ATOM     16  H   LIG d   1       7.259  -0.841  -3.408  0.00  0.00     0.052 H 
ATOM     17  N   LIG d   1       6.880   1.182  -3.437  0.00  0.00    -0.338 N 
ATOM     18  C   LIG d   1       4.599   0.044  -2.383  0.00  0.00    -0.024 C 
ATOM     19  C   LIG d   1       3.092   0.071  -2.735  0.00  0.00     0.026 C 
ATOM     20  C   LIG d   1       3.064   0.008  -4.247  0.00  0.00     0.216 C 
ATOM     21  O   LIG d   1       2.106   0.289  -4.938  0.00  0.00    -0.276 OA
ATOM     22  H   LIG d   1      10.594   2.594  -6.807  0.00  0.00     0.062 H 
ATOM     23  H   LIG d   1      10.446   3.829  -4.717  0.00  0.00     0.062 H 
ATOM     24  H   LIG d   1       8.751   3.266  -3.006  0.00  0.00     0.064 H 
ATOM     25  H   LIG d   1       9.057   0.701  -7.286  0.00  0.00     0.062 H 
ATOM     26  H   LIG d   1       6.226   0.173  -7.367  0.00  0.00     0.029 H 
ATOM     27  H   LIG d   1       5.649   1.328  -6.147  0.00  0.00     0.029 H 
ATOM     28  H   LIG d   1       6.428   1.653  -2.719  0.00  0.00     0.146 HD
ATOM     29  H   LIG d   1       4.777  -0.541  -1.480  0.00  0.00     0.029 H 
ATOM     30  H   LIG d   1       4.993   1.055  -2.275  0.00  0.00     0.029 H 
ATOM     31  H   LIG d   1       2.584  -0.794  -2.308  0.00  0.00     0.036 H 
ATOM     32  H   LIG d   1       2.634   0.996  -2.384  0.00  0.00     0.036 H 
ENDROOT
BRANCH  10  33
ATOM     33  C   LIG d   1       3.519  -0.072  -7.020  0.00  0.00     0.062 C 
ATOM     34  O   LIG d   1       2.787  -0.862  -7.568  0.00  0.00    -0.548 OA
ATOM     35  O   LIG d   1       3.339   1.246  -7.199  0.00  0.00    -0.548 OA
ENDBRANCH  10  33
TORSDOF 1
ENDMDL
MODEL 8
REMARK VINA RESULT:      -5.8      3.914      5.899
REMARK  1 active torsions:
REMARK  status: ('A' for Active; 'I' for Inactive)
REMARK    1  A    between atoms: C_10  and  C_22 
ROOT
ATOM      1  C   LIG d   1      10.046   0.707  -7.038  0.00  0.00    -0.061 A 
ATOM      2  C   LIG d   1       9.553   1.995  -7.045  0.00  0.00    -0.060 A 
ATOM      3  C   LIG d   1       8.538   2.397  -6.190  0.00  0.00    -0.041 A 
ATOM      4  C   LIG d   1       8.028   1.438  -5.313  0.00  0.00     0.031 A 
ATOM      5  C   LIG d   1       8.548   0.139  -5.304  0.00  0.00    -0.022 A 
ATOM      6  C   LIG d   1       9.553  -0.254  -6.163  0.00  0.00    -0.057 A 
ATOM      7  C   LIG d   1       7.824  -0.651  -4.234  0.00  0.00     0.008 C 
ATOM      8  H   LIG d   1       8.522  -1.213  -3.614  0.00  0.00     0.037 H 
ATOM      9  C   LIG d   1       6.845  -1.582  -4.948  0.00  0.00    -0.020 C 
ATOM     10  C   LIG d   1       5.819  -2.155  -3.966  0.00  0.00     0.066 C 
ATOM     11  H   LIG d   1       6.324  -2.740  -3.196  0.00  0.00     0.056 H 
ATOM     12  N   LIG d   1       5.139  -0.997  -3.359  0.00  0.00    -0.288 N 
ATOM     13  C   LIG d   1       5.877   0.093  -2.714  0.00  0.00     0.046 C 
ATOM     14  H   LIG d   1       6.138  -0.224  -1.704  0.00  0.00     0.052 H 
ATOM     15  C   LIG d   1       7.127   0.458  -3.447  0.00  0.00     0.046 C 
ATOM     16  H   LIG d   1       7.836   0.795  -2.692  0.00  0.00     0.052 H 
ATOM     17  N   LIG d   1       6.984   1.562  -4.400  0.00  0.00    -0.338 N 
ATOM     18  C   LIG d   1       4.890   1.273  -2.628  0.00  0.00    -0.024 C 
ATOM     19  C   LIG d   1       3.526   0.544  -2.648  0.00  0.00     0.026 C 
ATOM     20  C   LIG d   1       3.817  -0.770  -3.340  0.00  0.00     0.216 C 
ATOM     21  O   LIG d   1       2.978  -1.510  -3.811  0.00  0.00    -0.276 OA
ATOM     22  H   LIG d   1      10.833   0.439  -7.728  0.00  0.00     0.062 H 
ATOM     23  H   LIG d   1       9.970   2.713  -7.736  0.00  0.00     0.062 H 
ATOM     24  H   LIG d   1       8.159   3.408  -6.201  0.00  0.00     0.064 H 
ATOM     25  H   LIG d   1       9.938  -1.264  -6.155  0.00  0.00     0.062 H 
ATOM     26  H   LIG d   1       7.399  -2.402  -5.405  0.00  0.00     0.029 H 
ATOM     27  H   LIG d   1       6.324  -1.025  -5.725  0.00  0.00     0.029 H 
ATOM     28  H   LIG d   1       6.296   2.246  -4.396  0.00  0.00     0.146 HD
ATOM     29  H   LIG d   1       5.023   1.826  -1.699  0.00  0.00     0.029 H 
ATOM     30  H   LIG d   1       4.994   1.932  -3.491  0.00  0.00     0.029 H 
ATOM     31  H   LIG d   1       3.172   0.369  -1.631  0.00  0.00     0.036 H 
ATOM     32  H   LIG d   1       2.793   1.119  -3.214  0.00  0.00     0.036 H 
ENDROOT
BRANCH  10  33
ATOM     33  C   LIG d   1       4.823  -3.014  -4.700  0.00  0.00     0.062 C 
ATOM     34  O   LIG d   1       4.297  -3.945  -4.138  0.00  0.00    -0.548 OA
ATOM     35  O   LIG d   1       4.516  -2.741  -5.978  0.00  0.00    -0.548 OA
ENDBRANCH  10  33
TORSDOF 1
ENDMDL
MODEL 9
REMARK VINA RESULT:      -5.7      3.188      5.165
REMARK  1 active torsions:
REMARK  status: ('A' for Active; 'I' for Inactive)
REMARK    1  A    between atoms: C_10  and  C_22 
ROOT
ATOM      1  C   LIG d   1       9.345  -3.924  -6.148  0.00  0.00    -0.061 A 
ATOM      2  C   LIG d   1       9.849  -3.526  -4.927  0.00  0.00    -0.060 A 
ATOM      3  C   LIG d   1       9.037  -3.001  -3.933  0.00  0.00    -0.041 A 
ATOM      4  C   LIG d   1       7.675  -2.889  -4.217  0.00  0.00     0.031 A 
ATOM      5  C   LIG d   1       7.173  -3.311  -5.454  0.00  0.00    -0.022 A 
ATOM      6  C   LIG d   1       7.988  -3.825  -6.439  0.00  0.00    -0.057 A 
ATOM      7  C   LIG d   1       5.674  -3.097  -5.451  0.00  0.00     0.008 C 
ATOM      8  H   LIG d   1       5.146  -3.973  -5.826  0.00  0.00     0.037 H 
ATOM      9  C   LIG d   1       5.394  -1.871  -6.319  0.00  0.00    -0.020 C 
ATOM     10  C   LIG d   1       3.969  -1.355  -6.094  0.00  0.00     0.066 C 
ATOM     11  H   LIG d   1       3.245  -2.121  -6.370  0.00  0.00     0.056 H 
ATOM     12  N   LIG d   1       3.864  -1.051  -4.655  0.00  0.00    -0.288 N 
ATOM     13  C   LIG d   1       4.195  -2.037  -3.623  0.00  0.00     0.046 C 
ATOM     14  H   LIG d   1       3.338  -2.700  -3.498  0.00  0.00     0.052 H 
ATOM     15  C   LIG d   1       5.397  -2.855  -3.968  0.00  0.00     0.046 C 
ATOM     16  H   LIG d   1       5.238  -3.835  -3.519  0.00  0.00     0.052 H 
ATOM     17  N   LIG d   1       6.663  -2.352  -3.426  0.00  0.00    -0.338 N 
ATOM     18  C   LIG d   1       4.396  -1.231  -2.325  0.00  0.00    -0.024 C 
ATOM     19  C   LIG d   1       3.547   0.032  -2.604  0.00  0.00     0.026 C 
ATOM     20  C   LIG d   1       3.500   0.122  -4.114  0.00  0.00     0.216 C 
ATOM     21  O   LIG d   1       3.180   1.109  -4.743  0.00  0.00    -0.276 OA
ATOM     22  H   LIG d   1      10.018  -4.320  -6.893  0.00  0.00     0.062 H 
ATOM     23  H   LIG d   1      10.908  -3.627  -4.739  0.00  0.00     0.062 H 
ATOM     24  H   LIG d   1       9.440  -2.693  -2.979  0.00  0.00     0.064 H 
ATOM     25  H   LIG d   1       7.591  -4.137  -7.394  0.00  0.00     0.062 H 
ATOM     26  H   LIG d   1       5.516  -2.138  -7.368  0.00  0.00     0.029 H 
ATOM     27  H   LIG d   1       6.103  -1.084  -6.065  0.00  0.00     0.029 H 
ATOM     28  H   LIG d   1       6.773  -1.761  -2.666  0.00  0.00     0.146 HD
ATOM     29  H   LIG d   1       4.012  -1.776  -1.463  0.00  0.00     0.029 H 
ATOM     30  H   LIG d   1       5.446  -0.973  -2.185  0.00  0.00     0.029 H 
ATOM     31  H   LIG d   1       2.542  -0.086  -2.198  0.00  0.00     0.036 H 
ATOM     32  H   LIG d   1       4.028   0.916  -2.184  0.00  0.00     0.036 H 
ENDROOT
BRANCH  10  33
ATOM     33  C   LIG d   1       3.737  -0.106  -6.905  0.00  0.00     0.062 C 
ATOM     34  O   LIG d   1       2.627   0.159  -7.302  0.00  0.00    -0.548 OA
ATOM     35  O   LIG d   1       4.763   0.715  -7.181  0.00  0.00    -0.548 OA
ENDBRANCH  10  33
TORSDOF 1
ENDMDL
MODEL 10
REMARK VINA RESULT:      -5.3      3.293      5.646
REMARK  1 active torsions:
REMARK  status: ('A' for Active; 'I' for Inactive)
REMARK    1  A    between atoms: C_10  and  C_22 
ROOT
ATOM      1  C   LIG d   1       3.656   1.090 -10.413  0.00  0.00    -0.061 A 
ATOM      2  C   LIG d   1       2.782   1.759  -9.581  0.00  0.00    -0.060 A 
ATOM      3  C   LIG d   1       2.795   1.580  -8.206  0.00  0.00    -0.041 A 
ATOM      4  C   LIG d   1       3.736   0.688  -7.690  0.00  0.00     0.031 A 
ATOM      5  C   LIG d   1       4.628   0.028  -8.543  0.00  0.00    -0.022 A 
ATOM      6  C   LIG d   1       4.604   0.206  -9.909  0.00  0.00    -0.057 A 
ATOM      7  C   LIG d   1       5.539  -0.836  -7.695  0.00  0.00     0.008 C 
ATOM      8  H   LIG d   1       6.582  -0.716  -7.984  0.00  0.00     0.037 H 
ATOM      9  C   LIG d   1       5.079  -2.282  -7.872  0.00  0.00    -0.020 C 
ATOM     10  C   LIG d   1       5.686  -3.186  -6.795  0.00  0.00     0.066 C 
ATOM     11  H   LIG d   1       6.774  -3.178  -6.869  0.00  0.00     0.056 H 
ATOM     12  N   LIG d   1       5.262  -2.624  -5.499  0.00  0.00    -0.288 N 
ATOM     13  C   LIG d   1       5.489  -1.220  -5.144  0.00  0.00     0.046 C 
ATOM     14  H   LIG d   1       6.518  -1.119  -4.798  0.00  0.00     0.052 H 
ATOM     15  C   LIG d   1       5.268  -0.290  -6.293  0.00  0.00     0.046 C 
ATOM     16  H   LIG d   1       5.955   0.543  -6.147  0.00  0.00     0.052 H 
ATOM     17  N   LIG d   1       3.924   0.290  -6.369  0.00  0.00    -0.338 N 
ATOM     18  C   LIG d   1       4.536  -0.927  -3.970  0.00  0.00    -0.024 C 
ATOM     19  C   LIG d   1       4.332  -2.338  -3.369  0.00  0.00     0.026 C 
ATOM     20  C   LIG d   1       4.611  -3.276  -4.524  0.00  0.00     0.216 C 
ATOM     21  O   LIG d   1       4.293  -4.447  -4.562  0.00  0.00    -0.276 OA
ATOM     22  H   LIG d   1       3.602   1.257 -11.479  0.00  0.00     0.062 H 
ATOM     23  H   LIG d   1       2.065   2.443 -10.013  0.00  0.00     0.062 H 
ATOM     24  H   LIG d   1       2.108   2.109  -7.562  0.00  0.00     0.064 H 
ATOM     25  H   LIG d   1       5.289  -0.318 -10.559  0.00  0.00     0.062 H 
ATOM     26  H   LIG d   1       5.388  -2.639  -8.854  0.00  0.00     0.029 H 
ATOM     27  H   LIG d   1       3.993  -2.323  -7.801  0.00  0.00     0.029 H 
ATOM     28  H   LIG d   1       3.290   0.379  -5.641  0.00  0.00     0.146 HD
ATOM     29  H   LIG d   1       5.002  -0.259  -3.246  0.00  0.00     0.029 H 
ATOM     30  H   LIG d   1       3.591  -0.514  -4.328  0.00  0.00     0.029 H 
ATOM     31  H   LIG d   1       5.038  -2.513  -2.557  0.00  0.00     0.036 H 
ATOM     32  H   LIG d   1       3.307  -2.460  -3.019  0.00  0.00     0.036 H 
ENDROOT
BRANCH  10  33
ATOM     33  C   LIG d   1       5.166  -4.592  -6.945  0.00  0.00     0.062 C 
ATOM     34  O   LIG d   1       5.881  -5.531  -6.688  0.00  0.00    -0.548 OA
ATOM     35  O   LIG d   1       3.906  -4.800  -7.359  0.00  0.00    -0.548 OA
ENDBRANCH  10  33
TORSDOF 1
ENDMDL
