MODEL 1
REMARK VINA RESULT:      -6.5      0.000      0.000
REMARK  10 active torsions:
REMARK  status: ('A' for Active; 'I' for Inactive)
REMARK    1  A    between atoms: C_3  and  O_36 
REMARK    2  A    between atoms: C_6  and  C_7 
REMARK    3  A    between atoms: C_12  and  O_19 
REMARK    4  A    between atoms: C_14  and  O_18 
REMARK    5  A    between atoms: O_19  and  C_20 
REMARK    6  A    between atoms: C_22  and  O_35 
REMARK    7  A    between atoms: C_24  and  O_34 
REMARK    8  A    between atoms: C_26  and  O_33 
REMARK    9  A    between atoms: C_28  and  C_31 
REMARK   10  A    between atoms: C_31  and  O_32 
ROOT
ATOM      1  C   LIG d   1       7.021  -0.262  -4.502  0.00  0.00     0.064 C 
ATOM      2  C   LIG d   1       6.552   0.696  -3.660  0.00  0.00     0.104 C 
ATOM      3  O   LIG d   1       7.312   1.696  -3.209  0.00  0.00    -0.462 OA
ATOM      4  C   LIG d   1       8.489   2.006  -3.785  0.00  0.00     0.145 A 
ATOM      5  C   LIG d   1       9.105   3.222  -3.523  0.00  0.00     0.023 A 
ATOM      6  C   LIG d   1      10.321   3.527  -4.113  0.00  0.00     0.131 A 
ATOM      7  C   LIG d   1      10.942   2.625  -4.970  0.00  0.00     0.023 A 
ATOM      8  C   LIG d   1      10.346   1.409  -5.247  0.00  0.00     0.135 A 
ATOM      9  C   LIG d   1       9.112   1.099  -4.661  0.00  0.00     0.106 A 
ATOM     10  C   LIG d   1       8.428  -0.177  -4.937  0.00  0.00     0.204 C 
ATOM     11  O   LIG d   1       8.990  -1.105  -5.495  0.00  0.00    -0.286 OA
ATOM     12  H   LIG d   1       5.520   0.646  -3.343  0.00  0.00     0.104 H 
ATOM     13  H   LIG d   1       8.635   3.932  -2.858  0.00  0.00     0.069 H 
ATOM     14  H   LIG d   1      11.892   2.875  -5.420  0.00  0.00     0.069 H 
ENDROOT
BRANCH   6  15
ATOM     15  O   LIG d   1      10.913   4.721  -3.850  0.00  0.00    -0.461 OA
BRANCH  15  16
ATOM     16  C   LIG d   1      10.848   5.194  -2.503  0.00  0.00     0.231 C 
ATOM     17  H   LIG d   1      10.338   4.456  -1.882  0.00  0.00     0.108 H 
ATOM     18  O   LIG d   1      10.129   6.428  -2.465  0.00  0.00    -0.331 OA
ATOM     19  C   LIG d   1       9.983   6.977  -1.154  0.00  0.00     0.114 C 
ATOM     20  C   LIG d   1      11.367   7.270  -0.568  0.00  0.00     0.112 C 
ATOM     21  H   LIG d   1       9.461   6.264  -0.517  0.00  0.00     0.065 H 
ATOM     22  C   LIG d   1      12.187   5.977  -0.548  0.00  0.00     0.115 C 
ATOM     23  H   LIG d   1      11.873   8.014  -1.182  0.00  0.00     0.065 H 
ATOM     24  C   LIG d   1      12.266   5.414  -1.971  0.00  0.00     0.145 C 
ATOM     25  H   LIG d   1      11.707   5.249   0.106  0.00  0.00     0.065 H 
ATOM     26  H   LIG d   1      12.791   6.120  -2.614  0.00  0.00     0.068 H 
BRANCH  19  27
ATOM     27  C   LIG d   1       9.177   8.276  -1.232  0.00  0.00     0.073 C 
ATOM     28  H   LIG d   1       9.569   8.991  -0.509  0.00  0.00     0.058 H 
ATOM     29  H   LIG d   1       9.257   8.693  -2.236  0.00  0.00     0.058 H 
BRANCH  27  30
ATOM     30  O   LIG d   1       7.806   8.004  -0.938  0.00  0.00    -0.392 OA
ATOM     31  H   LIG d   1       7.614   7.923   0.007  0.00  0.00     0.209 HD
ENDBRANCH  27  30
ENDBRANCH  19  27
BRANCH  20  32
ATOM     32  O   LIG d   1      11.226   7.767   0.766  0.00  0.00    -0.387 OA
ATOM     33  H   LIG d   1      10.426   7.466   1.215  0.00  0.00     0.210 HD
ENDBRANCH  20  32
BRANCH  22  34
ATOM     34  O   LIG d   1      13.506   6.253  -0.069  0.00  0.00    -0.386 OA
ATOM     35  H   LIG d   1      13.781   5.693   0.669  0.00  0.00     0.210 HD
ENDBRANCH  22  34
BRANCH  24  36
ATOM     36  O   LIG d   1      12.969   4.169  -1.954  0.00  0.00    -0.383 OA
ATOM     37  H   LIG d   1      13.534   4.027  -2.726  0.00  0.00     0.210 HD
ENDBRANCH  24  36
ENDBRANCH  15  16
ENDBRANCH   6  15
BRANCH   8  38
ATOM     38  O   LIG d   1      10.949   0.525  -6.081  0.00  0.00    -0.506 OA
ATOM     39  H   LIG d   1      10.936   0.789  -7.011  0.00  0.00     0.292 HD
ENDBRANCH   8  38
BRANCH   1  40
ATOM     40  C   LIG d   1       6.145  -1.366  -4.965  0.00  0.00    -0.011 A 
ATOM     41  C   LIG d   1       5.541  -1.299  -6.220  0.00  0.00    -0.050 A 
ATOM     42  C   LIG d   1       4.727  -2.327  -6.647  0.00  0.00    -0.020 A 
ATOM     43  H   LIG d   1       5.714  -0.445  -6.857  0.00  0.00     0.062 H 
ATOM     44  C   LIG d   1       4.509  -3.427  -5.830  0.00  0.00     0.117 A 
ATOM     45  H   LIG d   1       4.259  -2.276  -7.619  0.00  0.00     0.065 H 
ATOM     46  C   LIG d   1       5.107  -3.497  -4.580  0.00  0.00    -0.020 A 
ATOM     47  C   LIG d   1       5.923  -2.472  -4.146  0.00  0.00    -0.050 A 
ATOM     48  H   LIG d   1       4.935  -4.354  -3.945  0.00  0.00     0.065 H 
ATOM     49  H   LIG d   1       6.389  -2.526  -3.174  0.00  0.00     0.062 H 
BRANCH  44  50
ATOM     50  O   LIG d   1       3.706  -4.438  -6.254  0.00  0.00    -0.507 OA
ATOM     51  H   LIG d   1       3.317  -4.293  -7.127  0.00  0.00     0.292 HD
ENDBRANCH  44  50
ENDBRANCH   1  40
TORSDOF 10
ENDMDL
MODEL 2
REMARK VINA RESULT:      -6.5      3.667      9.228
REMARK  10 active torsions:
REMARK  status: ('A' for Active; 'I' for Inactive)
REMARK    1  A    between atoms: C_3  and  O_36 
REMARK    2  A    between atoms: C_6  and  C_7 
REMARK    3  A    between atoms: C_12  and  O_19 
REMARK    4  A    between atoms: C_14  and  O_18 
REMARK    5  A    between atoms: O_19  and  C_20 
REMARK    6  A    between atoms: C_22  and  O_35 
REMARK    7  A    between atoms: C_24  and  O_34 
REMARK    8  A    between atoms: C_26  and  O_33 
REMARK    9  A    between atoms: C_28  and  C_31 
REMARK   10  A    between atoms: C_31  and  O_32 
ROOT
ATOM      1  C   LIG d   1       9.908   5.424  -7.116  0.00  0.00     0.064 C 
ATOM      2  C   LIG d   1       9.512   4.485  -8.015  0.00  0.00     0.104 C 
ATOM      3  O   LIG d   1       9.263   3.219  -7.674  0.00  0.00    -0.462 OA
ATOM      4  C   LIG d   1       9.086   2.853  -6.390  0.00  0.00     0.145 A 
ATOM      5  C   LIG d   1       8.520   1.625  -6.077  0.00  0.00     0.023 A 
ATOM      6  C   LIG d   1       8.352   1.254  -4.753  0.00  0.00     0.131 A 
ATOM      7  C   LIG d   1       8.746   2.099  -3.722  0.00  0.00     0.023 A 
ATOM      8  C   LIG d   1       9.310   3.328  -4.009  0.00  0.00     0.135 A 
ATOM      9  C   LIG d   1       9.475   3.712  -5.347  0.00  0.00     0.106 A 
ATOM     10  C   LIG d   1      10.056   5.018  -5.706  0.00  0.00     0.204 C 
ATOM     11  O   LIG d   1      10.621   5.723  -4.886  0.00  0.00    -0.286 OA
ATOM     12  H   LIG d   1       9.392   4.776  -9.049  0.00  0.00     0.104 H 
ATOM     13  H   LIG d   1       8.210   0.957  -6.868  0.00  0.00     0.069 H 
ATOM     14  H   LIG d   1       8.612   1.795  -2.694  0.00  0.00     0.069 H 
ENDROOT
BRANCH   6  15
ATOM     15  O   LIG d   1       7.795   0.051  -4.459  0.00  0.00    -0.461 OA
BRANCH  15  16
ATOM     16  C   LIG d   1       6.380  -0.065  -4.620  0.00  0.00     0.231 C 
ATOM     17  H   LIG d   1       6.072   0.464  -5.523  0.00  0.00     0.108 H 
ATOM     18  O   LIG d   1       5.723   0.506  -3.487  0.00  0.00    -0.331 OA
ATOM     19  C   LIG d   1       4.296   0.465  -3.558  0.00  0.00     0.114 C 
ATOM     20  C   LIG d   1       3.831  -0.992  -3.634  0.00  0.00     0.112 C 
ATOM     21  H   LIG d   1       3.961   1.001  -4.447  0.00  0.00     0.065 H 
ATOM     22  C   LIG d   1       4.475  -1.661  -4.852  0.00  0.00     0.115 C 
ATOM     23  H   LIG d   1       4.130  -1.517  -2.728  0.00  0.00     0.065 H 
ATOM     24  C   LIG d   1       5.999  -1.543  -4.739  0.00  0.00     0.145 C 
ATOM     25  H   LIG d   1       4.137  -1.167  -5.762  0.00  0.00     0.065 H 
ATOM     26  H   LIG d   1       6.342  -2.080  -3.855  0.00  0.00     0.068 H 
BRANCH  19  27
ATOM     27  C   LIG d   1       3.703   1.125  -2.311  0.00  0.00     0.073 C 
ATOM     28  H   LIG d   1       3.360   2.129  -2.560  0.00  0.00     0.058 H 
ATOM     29  H   LIG d   1       2.862   0.532  -1.951  0.00  0.00     0.058 H 
BRANCH  27  30
ATOM     30  O   LIG d   1       4.703   1.201  -1.293  0.00  0.00    -0.392 OA
ATOM     31  H   LIG d   1       5.567   1.498  -1.611  0.00  0.00     0.209 HD
ENDBRANCH  27  30
ENDBRANCH  19  27
BRANCH  20  32
ATOM     32  O   LIG d   1       2.408  -1.034  -3.764  0.00  0.00    -0.387 OA
ATOM     33  H   LIG d   1       2.094  -0.971  -4.675  0.00  0.00     0.210 HD
ENDBRANCH  20  32
BRANCH  22  34
ATOM     34  O   LIG d   1       4.105  -3.042  -4.892  0.00  0.00    -0.386 OA
ATOM     35  H   LIG d   1       3.529  -3.273  -5.633  0.00  0.00     0.210 HD
ENDBRANCH  22  34
BRANCH  24  36
ATOM     36  O   LIG d   1       6.609  -2.101  -5.905  0.00  0.00    -0.383 OA
ATOM     37  H   LIG d   1       7.093  -2.922  -5.740  0.00  0.00     0.210 HD
ENDBRANCH  24  36
ENDBRANCH  15  16
ENDBRANCH   6  15
BRANCH   8  38
ATOM     38  O   LIG d   1       9.699   4.156  -3.007  0.00  0.00    -0.506 OA
ATOM     39  H   LIG d   1      10.333   4.833  -3.279  0.00  0.00     0.292 HD
ENDBRANCH   8  38
BRANCH   1  40
ATOM     40  C   LIG d   1      10.189   6.817  -7.543  0.00  0.00    -0.011 A 
ATOM     41  C   LIG d   1      11.415   7.135  -8.125  0.00  0.00    -0.050 A 
ATOM     42  C   LIG d   1      11.673   8.431  -8.521  0.00  0.00    -0.020 A 
ATOM     43  H   LIG d   1      12.160   6.367  -8.269  0.00  0.00     0.062 H 
ATOM     44  C   LIG d   1      10.713   9.417  -8.342  0.00  0.00     0.117 A 
ATOM     45  H   LIG d   1      12.622   8.678  -8.972  0.00  0.00     0.065 H 
ATOM     46  C   LIG d   1       9.492   9.104  -7.762  0.00  0.00    -0.020 A 
ATOM     47  C   LIG d   1       9.227   7.809  -7.363  0.00  0.00    -0.050 A 
ATOM     48  H   LIG d   1       8.747   9.874  -7.622  0.00  0.00     0.065 H 
ATOM     49  H   LIG d   1       8.277   7.566  -6.913  0.00  0.00     0.062 H 
BRANCH  44  50
ATOM     50  O   LIG d   1      10.970  10.693  -8.733  0.00  0.00    -0.507 OA
ATOM     51  H   LIG d   1      11.507  10.759  -9.534  0.00  0.00     0.292 HD
ENDBRANCH  44  50
ENDBRANCH   1  40
TORSDOF 10
ENDMDL
MODEL 3
REMARK VINA RESULT:      -6.2      3.384      3.914
REMARK  10 active torsions:
REMARK  status: ('A' for Active; 'I' for Inactive)
REMARK    1  A    between atoms: C_3  and  O_36 
REMARK    2  A    between atoms: C_6  and  C_7 
REMARK    3  A    between atoms: C_12  and  O_19 
REMARK    4  A    between atoms: C_14  and  O_18 
REMARK    5  A    between atoms: O_19  and  C_20 
REMARK    6  A    between atoms: C_22  and  O_35 
REMARK    7  A    between atoms: C_24  and  O_34 
REMARK    8  A    between atoms: C_26  and  O_33 
REMARK    9  A    between atoms: C_28  and  C_31 
REMARK   10  A    between atoms: C_31  and  O_32 
ROOT
ATOM      1  C   LIG d   1       7.313   1.690  -8.286  0.00  0.00     0.064 C 
ATOM      2  C   LIG d   1       7.398   1.127  -7.052  0.00  0.00     0.104 C 
ATOM      3  O   LIG d   1       8.356   1.443  -6.179  0.00  0.00    -0.462 OA
ATOM      4  C   LIG d   1       9.114   2.547  -6.328  0.00  0.00     0.145 A 
ATOM      5  C   LIG d   1       9.872   3.031  -5.270  0.00  0.00     0.023 A 
ATOM      6  C   LIG d   1      10.656   4.162  -5.437  0.00  0.00     0.131 A 
ATOM      7  C   LIG d   1      10.698   4.823  -6.659  0.00  0.00     0.023 A 
ATOM      8  C   LIG d   1       9.951   4.360  -7.726  0.00  0.00     0.135 A 
ATOM      9  C   LIG d   1       9.150   3.223  -7.560  0.00  0.00     0.106 A 
ATOM     10  C   LIG d   1       8.322   2.699  -8.661  0.00  0.00     0.204 C 
ATOM     11  O   LIG d   1       8.460   3.079  -9.812  0.00  0.00    -0.286 OA
ATOM     12  H   LIG d   1       6.657   0.394  -6.766  0.00  0.00     0.104 H 
ATOM     13  H   LIG d   1       9.849   2.527  -4.315  0.00  0.00     0.069 H 
ATOM     14  H   LIG d   1      11.317   5.701  -6.776  0.00  0.00     0.069 H 
ENDROOT
BRANCH   6  15
ATOM     15  O   LIG d   1      11.390   4.627  -4.394  0.00  0.00    -0.461 OA
BRANCH  15  16
ATOM     16  C   LIG d   1      10.678   5.271  -3.336  0.00  0.00     0.231 C 
ATOM     17  H   LIG d   1       9.625   4.990  -3.382  0.00  0.00     0.108 H 
ATOM     18  O   LIG d   1      10.799   6.689  -3.473  0.00  0.00    -0.331 OA
ATOM     19  C   LIG d   1      10.098   7.433  -2.474  0.00  0.00     0.114 C 
ATOM     20  C   LIG d   1      10.660   7.086  -1.093  0.00  0.00     0.112 C 
ATOM     21  H   LIG d   1       9.038   7.181  -2.510  0.00  0.00     0.065 H 
ATOM     22  C   LIG d   1      10.533   5.578  -0.863  0.00  0.00     0.115 C 
ATOM     23  H   LIG d   1      11.709   7.376  -1.043  0.00  0.00     0.065 H 
ATOM     24  C   LIG d   1      11.263   4.838  -1.989  0.00  0.00     0.145 C 
ATOM     25  H   LIG d   1       9.481   5.295  -0.863  0.00  0.00     0.065 H 
ATOM     26  H   LIG d   1      12.324   5.082  -1.958  0.00  0.00     0.068 H 
BRANCH  19  27
ATOM     27  C   LIG d   1      10.275   8.930  -2.736  0.00  0.00     0.073 C 
ATOM     28  H   LIG d   1      11.193   9.276  -2.260  0.00  0.00     0.058 H 
ATOM     29  H   LIG d   1      10.333   9.107  -3.810  0.00  0.00     0.058 H 
BRANCH  27  30
ATOM     30  O   LIG d   1       9.160   9.643  -2.196  0.00  0.00    -0.392 OA
ATOM     31  H   LIG d   1       9.380  10.524  -1.864  0.00  0.00     0.209 HD
ENDBRANCH  27  30
ENDBRANCH  19  27
BRANCH  20  32
ATOM     32  O   LIG d   1       9.923   7.786  -0.087  0.00  0.00    -0.387 OA
ATOM     33  H   LIG d   1      10.050   8.744  -0.102  0.00  0.00     0.210 HD
ENDBRANCH  20  32
BRANCH  22  34
ATOM     34  O   LIG d   1      11.120   5.232   0.393  0.00  0.00    -0.386 OA
ATOM     35  H   LIG d   1      11.984   4.805   0.319  0.00  0.00     0.210 HD
ENDBRANCH  22  34
BRANCH  24  36
ATOM     36  O   LIG d   1      11.090   3.428  -1.826  0.00  0.00    -0.383 OA
ATOM     37  H   LIG d   1      10.395   3.050  -2.383  0.00  0.00     0.210 HD
ENDBRANCH  24  36
ENDBRANCH  15  16
ENDBRANCH   6  15
BRANCH   8  38
ATOM     38  O   LIG d   1       9.991   5.001  -8.921  0.00  0.00    -0.506 OA
ATOM     39  H   LIG d   1       9.538   5.855  -8.925  0.00  0.00     0.292 HD
ENDBRANCH   8  38
BRANCH   1  40
ATOM     40  C   LIG d   1       6.240   1.296  -9.231  0.00  0.00    -0.011 A 
ATOM     41  C   LIG d   1       5.061   2.038  -9.299  0.00  0.00    -0.050 A 
ATOM     42  C   LIG d   1       4.066   1.669 -10.179  0.00  0.00    -0.020 A 
ATOM     43  H   LIG d   1       4.931   2.903  -8.666  0.00  0.00     0.062 H 
ATOM     44  C   LIG d   1       4.236   0.561 -10.997  0.00  0.00     0.117 A 
ATOM     45  H   LIG d   1       3.153   2.244 -10.233  0.00  0.00     0.065 H 
ATOM     46  C   LIG d   1       5.407  -0.181 -10.931  0.00  0.00    -0.020 A 
ATOM     47  C   LIG d   1       6.407   0.182 -10.053  0.00  0.00    -0.050 A 
ATOM     48  H   LIG d   1       5.536  -1.044 -11.568  0.00  0.00     0.065 H 
ATOM     49  H   LIG d   1       7.318  -0.394 -10.003  0.00  0.00     0.062 H 
BRANCH  44  50
ATOM     50  O   LIG d   1       3.253   0.199 -11.863  0.00  0.00    -0.507 OA
ATOM     51  H   LIG d   1       2.765   0.945 -12.239  0.00  0.00     0.292 HD
ENDBRANCH  44  50
ENDBRANCH   1  40
TORSDOF 10
ENDMDL
MODEL 4
REMARK VINA RESULT:      -6.2      3.819      4.978
REMARK  10 active torsions:
REMARK  status: ('A' for Active; 'I' for Inactive)
REMARK    1  A    between atoms: C_3  and  O_36 
REMARK    2  A    between atoms: C_6  and  C_7 
REMARK    3  A    between atoms: C_12  and  O_19 
REMARK    4  A    between atoms: C_14  and  O_18 
REMARK    5  A    between atoms: O_19  and  C_20 
REMARK    6  A    between atoms: C_22  and  O_35 
REMARK    7  A    between atoms: C_24  and  O_34 
REMARK    8  A    between atoms: C_26  and  O_33 
REMARK    9  A    between atoms: C_28  and  C_31 
REMARK   10  A    between atoms: C_31  and  O_32 
ROOT
ATOM      1  C   LIG d   1       7.976   1.253  -4.658  0.00  0.00     0.064 C 
ATOM      2  C   LIG d   1       9.047   1.824  -4.048  0.00  0.00     0.104 C 
ATOM      3  O   LIG d   1       9.979   2.508  -4.715  0.00  0.00    -0.462 OA
ATOM      4  C   LIG d   1       9.773   2.942  -5.974  0.00  0.00     0.145 A 
ATOM      5  C   LIG d   1      10.599   3.908  -6.532  0.00  0.00     0.023 A 
ATOM      6  C   LIG d   1      10.384   4.341  -7.830  0.00  0.00     0.131 A 
ATOM      7  C   LIG d   1       9.346   3.817  -8.592  0.00  0.00     0.023 A 
ATOM      8  C   LIG d   1       8.509   2.856  -8.056  0.00  0.00     0.135 A 
ATOM      9  C   LIG d   1       8.716   2.421  -6.741  0.00  0.00     0.106 A 
ATOM     10  C   LIG d   1       7.842   1.410  -6.119  0.00  0.00     0.204 C 
ATOM     11  O   LIG d   1       7.053   0.747  -6.771  0.00  0.00    -0.286 OA
ATOM     12  H   LIG d   1       9.149   1.721  -2.977  0.00  0.00     0.104 H 
ATOM     13  H   LIG d   1      11.410   4.324  -5.952  0.00  0.00     0.069 H 
ATOM     14  H   LIG d   1       9.192   4.162  -9.604  0.00  0.00     0.069 H 
ENDROOT
BRANCH   6  15
ATOM     15  O   LIG d   1      11.198   5.288  -8.364  0.00  0.00    -0.461 OA
BRANCH  15  16
ATOM     16  C   LIG d   1      10.993   6.636  -7.935  0.00  0.00     0.231 C 
ATOM     17  H   LIG d   1      11.853   7.244  -8.219  0.00  0.00     0.108 H 
ATOM     18  O   LIG d   1      10.839   6.665  -6.514  0.00  0.00    -0.331 OA
ATOM     19  C   LIG d   1      10.653   7.976  -5.975  0.00  0.00     0.114 C 
ATOM     20  C   LIG d   1       9.377   8.589  -6.557  0.00  0.00     0.112 C 
ATOM     21  H   LIG d   1      11.508   8.600  -6.234  0.00  0.00     0.065 H 
ATOM     22  C   LIG d   1       9.486   8.619  -8.085  0.00  0.00     0.115 C 
ATOM     23  H   LIG d   1       8.516   7.988  -6.264  0.00  0.00     0.065 H 
ATOM     24  C   LIG d   1       9.731   7.196  -8.596  0.00  0.00     0.145 C 
ATOM     25  H   LIG d   1      10.315   9.261  -8.380  0.00  0.00     0.065 H 
ATOM     26  H   LIG d   1       8.878   6.566  -8.345  0.00  0.00     0.068 H 
BRANCH  19  27
ATOM     27  C   LIG d   1      10.527   7.888  -4.452  0.00  0.00     0.073 C 
ATOM     28  H   LIG d   1      11.114   7.045  -4.087  0.00  0.00     0.058 H 
ATOM     29  H   LIG d   1      10.898   8.810  -4.004  0.00  0.00     0.058 H 
BRANCH  27  30
ATOM     30  O   LIG d   1       9.156   7.704  -4.098  0.00  0.00    -0.392 OA
ATOM     31  H   LIG d   1       8.835   6.800  -4.224  0.00  0.00     0.209 HD
ENDBRANCH  27  30
ENDBRANCH  19  27
BRANCH  20  32
ATOM     32  O   LIG d   1       9.218   9.922  -6.064  0.00  0.00    -0.387 OA
ATOM     33  H   LIG d   1       9.297  10.605  -6.744  0.00  0.00     0.210 HD
ENDBRANCH  20  32
BRANCH  22  34
ATOM     34  O   LIG d   1       8.270   9.124  -8.643  0.00  0.00    -0.386 OA
ATOM     35  H   LIG d   1       8.230  10.089  -8.690  0.00  0.00     0.210 HD
ENDBRANCH  22  34
BRANCH  24  36
ATOM     36  O   LIG d   1       9.906   7.221 -10.014  0.00  0.00    -0.383 OA
ATOM     37  H   LIG d   1       9.869   8.107 -10.399  0.00  0.00     0.210 HD
ENDBRANCH  24  36
ENDBRANCH  15  16
ENDBRANCH   6  15
BRANCH   8  38
ATOM     38  O   LIG d   1       7.496   2.340  -8.796  0.00  0.00    -0.506 OA
ATOM     39  H   LIG d   1       6.680   2.194  -8.299  0.00  0.00     0.292 HD
ENDBRANCH   8  38
BRANCH   1  40
ATOM     40  C   LIG d   1       6.973   0.487  -3.878  0.00  0.00    -0.011 A 
ATOM     41  C   LIG d   1       6.991  -0.907  -3.893  0.00  0.00    -0.050 A 
ATOM     42  C   LIG d   1       6.057  -1.614  -3.166  0.00  0.00    -0.020 A 
ATOM     43  H   LIG d   1       7.738  -1.431  -4.471  0.00  0.00     0.062 H 
ATOM     44  C   LIG d   1       5.102  -0.941  -2.418  0.00  0.00     0.117 A 
ATOM     45  H   LIG d   1       6.071  -2.694  -3.177  0.00  0.00     0.065 H 
ATOM     46  C   LIG d   1       5.080   0.447  -2.401  0.00  0.00    -0.020 A 
ATOM     47  C   LIG d   1       6.011   1.161  -3.127  0.00  0.00    -0.050 A 
ATOM     48  H   LIG d   1       4.334   0.969  -1.820  0.00  0.00     0.065 H 
ATOM     49  H   LIG d   1       5.995   2.240  -3.113  0.00  0.00     0.062 H 
BRANCH  44  50
ATOM     50  O   LIG d   1       4.182  -1.641  -1.703  0.00  0.00    -0.507 OA
ATOM     51  H   LIG d   1       3.266  -1.412  -1.908  0.00  0.00     0.292 HD
ENDBRANCH  44  50
ENDBRANCH   1  40
TORSDOF 10
ENDMDL
MODEL 5
REMARK VINA RESULT:      -6.1      5.887     13.313
REMARK  10 active torsions:
REMARK  status: ('A' for Active; 'I' for Inactive)
REMARK    1  A    between atoms: C_3  and  O_36 
REMARK    2  A    between atoms: C_6  and  C_7 
REMARK    3  A    between atoms: C_12  and  O_19 
REMARK    4  A    between atoms: C_14  and  O_18 
REMARK    5  A    between atoms: O_19  and  C_20 
REMARK    6  A    between atoms: C_22  and  O_35 
REMARK    7  A    between atoms: C_24  and  O_34 
REMARK    8  A    between atoms: C_26  and  O_33 
REMARK    9  A    between atoms: C_28  and  C_31 
REMARK   10  A    between atoms: C_31  and  O_32 
ROOT
ATOM      1  C   LIG d   1       3.797  -0.622  -6.137  0.00  0.00     0.064 C 
ATOM      2  C   LIG d   1       2.976   0.080  -6.961  0.00  0.00     0.104 C 
ATOM      3  O   LIG d   1       2.677  -0.324  -8.198  0.00  0.00    -0.462 OA
ATOM      4  C   LIG d   1       2.910  -1.587  -8.606  0.00  0.00     0.145 A 
ATOM      5  C   LIG d   1       2.314  -2.077  -9.760  0.00  0.00     0.023 A 
ATOM      6  C   LIG d   1       2.567  -3.374 -10.176  0.00  0.00     0.131 A 
ATOM      7  C   LIG d   1       3.419  -4.200  -9.451  0.00  0.00     0.023 A 
ATOM      8  C   LIG d   1       4.022  -3.734  -8.298  0.00  0.00     0.135 A 
ATOM      9  C   LIG d   1       3.762  -2.426  -7.867  0.00  0.00     0.106 A 
ATOM     10  C   LIG d   1       4.368  -1.887  -6.636  0.00  0.00     0.204 C 
ATOM     11  O   LIG d   1       5.282  -2.455  -6.063  0.00  0.00    -0.286 OA
ATOM     12  H   LIG d   1       2.546   1.004  -6.601  0.00  0.00     0.104 H 
ATOM     13  H   LIG d   1       1.650  -1.447 -10.333  0.00  0.00     0.069 H 
ATOM     14  H   LIG d   1       3.610  -5.208  -9.789  0.00  0.00     0.069 H 
ENDROOT
BRANCH   6  15
ATOM     15  O   LIG d   1       1.976  -3.843 -11.305  0.00  0.00    -0.461 OA
BRANCH  15  16
ATOM     16  C   LIG d   1       0.548  -3.903 -11.313  0.00  0.00     0.231 C 
ATOM     17  H   LIG d   1       0.144  -2.997 -10.859  0.00  0.00     0.108 H 
ATOM     18  O   LIG d   1       0.115  -5.043 -10.568  0.00  0.00    -0.331 OA
ATOM     19  C   LIG d   1      -1.305  -5.184 -10.491  0.00  0.00     0.114 C 
ATOM     20  C   LIG d   1      -1.878  -5.350 -11.901  0.00  0.00     0.112 C 
ATOM     21  H   LIG d   1      -1.733  -4.295 -10.026  0.00  0.00     0.065 H 
ATOM     22  C   LIG d   1      -1.477  -4.141 -12.751  0.00  0.00     0.115 C 
ATOM     23  H   LIG d   1      -1.481  -6.260 -12.350  0.00  0.00     0.065 H 
ATOM     24  C   LIG d   1       0.050  -4.017 -12.755  0.00  0.00     0.145 C 
ATOM     25  H   LIG d   1      -1.915  -3.236 -12.330  0.00  0.00     0.065 H 
ATOM     26  H   LIG d   1       0.486  -4.900 -13.222  0.00  0.00     0.068 H 
BRANCH  19  27
ATOM     27  C   LIG d   1      -1.651  -6.416  -9.651  0.00  0.00     0.073 C 
ATOM     28  H   LIG d   1      -2.686  -6.704  -9.838  0.00  0.00     0.058 H 
ATOM     29  H   LIG d   1      -0.990  -7.238  -9.924  0.00  0.00     0.058 H 
BRANCH  27  30
ATOM     30  O   LIG d   1      -1.484  -6.110  -8.266  0.00  0.00    -0.392 OA
ATOM     31  H   LIG d   1      -0.580  -5.862  -8.024  0.00  0.00     0.209 HD
ENDBRANCH  27  30
ENDBRANCH  19  27
BRANCH  20  32
ATOM     32  O   LIG d   1      -3.303  -5.433 -11.832  0.00  0.00    -0.387 OA
ATOM     33  H   LIG d   1      -3.701  -4.841 -11.179  0.00  0.00     0.210 HD
ENDBRANCH  20  32
BRANCH  22  34
ATOM     34  O   LIG d   1      -1.946  -4.319 -14.090  0.00  0.00    -0.386 OA
ATOM     35  H   LIG d   1      -2.670  -3.728 -14.335  0.00  0.00     0.210 HD
ENDBRANCH  22  34
BRANCH  24  36
ATOM     36  O   LIG d   1       0.433  -2.850 -13.487  0.00  0.00    -0.383 OA
ATOM     37  H   LIG d   1       0.711  -2.111 -12.928  0.00  0.00     0.210 HD
ENDBRANCH  24  36
ENDBRANCH  15  16
ENDBRANCH   6  15
BRANCH   8  38
ATOM     38  O   LIG d   1       4.855  -4.535  -7.588  0.00  0.00    -0.506 OA
ATOM     39  H   LIG d   1       5.640  -4.818  -8.077  0.00  0.00     0.292 HD
ENDBRANCH   8  38
BRANCH   1  40
ATOM     40  C   LIG d   1       4.114  -0.126  -4.776  0.00  0.00    -0.011 A 
ATOM     41  C   LIG d   1       5.437   0.115  -4.410  0.00  0.00    -0.050 A 
ATOM     42  C   LIG d   1       5.728   0.577  -3.144  0.00  0.00    -0.020 A 
ATOM     43  H   LIG d   1       6.233  -0.055  -5.120  0.00  0.00     0.062 H 
ATOM     44  C   LIG d   1       4.706   0.801  -2.233  0.00  0.00     0.117 A 
ATOM     45  H   LIG d   1       6.753   0.764  -2.860  0.00  0.00     0.065 H 
ATOM     46  C   LIG d   1       3.386   0.561  -2.593  0.00  0.00    -0.020 A 
ATOM     47  C   LIG d   1       3.088   0.099  -3.859  0.00  0.00    -0.050 A 
ATOM     48  H   LIG d   1       2.592   0.736  -1.882  0.00  0.00     0.065 H 
ATOM     49  H   LIG d   1       2.063  -0.086  -4.138  0.00  0.00     0.062 H 
BRANCH  44  50
ATOM     50  O   LIG d   1       4.995   1.256  -0.986  0.00  0.00    -0.507 OA
ATOM     51  H   LIG d   1       5.176   2.205  -0.944  0.00  0.00     0.292 HD
ENDBRANCH  44  50
ENDBRANCH   1  40
TORSDOF 10
ENDMDL
MODEL 6
REMARK VINA RESULT:      -6.1      5.188     13.277
REMARK  10 active torsions:
REMARK  status: ('A' for Active; 'I' for Inactive)
REMARK    1  A    between atoms: C_3  and  O_36 
REMARK    2  A    between atoms: C_6  and  C_7 
REMARK    3  A    between atoms: C_12  and  O_19 
REMARK    4  A    between atoms: C_14  and  O_18 
REMARK    5  A    between atoms: O_19  and  C_20 
REMARK    6  A    between atoms: C_22  and  O_35 
REMARK    7  A    between atoms: C_24  and  O_34 
REMARK    8  A    between atoms: C_26  and  O_33 
REMARK    9  A    between atoms: C_28  and  C_31 
REMARK   10  A    between atoms: C_31  and  O_32 
ROOT
ATOM      1  C   LIG d   1       5.367  -0.982  -6.375  0.00  0.00     0.064 C 
ATOM      2  C   LIG d   1       5.623  -2.311  -6.498  0.00  0.00     0.104 C 
ATOM      3  O   LIG d   1       4.839  -3.136  -7.195  0.00  0.00    -0.462 OA
ATOM      4  C   LIG d   1       3.926  -2.673  -8.071  0.00  0.00     0.145 A 
ATOM      5  C   LIG d   1       3.354  -3.522  -9.009  0.00  0.00     0.023 A 
ATOM      6  C   LIG d   1       2.409  -3.039  -9.899  0.00  0.00     0.131 A 
ATOM      7  C   LIG d   1       2.019  -1.705  -9.867  0.00  0.00     0.023 A 
ATOM      8  C   LIG d   1       2.577  -0.840  -8.944  0.00  0.00     0.135 A 
ATOM      9  C   LIG d   1       3.540  -1.322  -8.047  0.00  0.00     0.106 A 
ATOM     10  C   LIG d   1       4.176  -0.437  -7.054  0.00  0.00     0.204 C 
ATOM     11  O   LIG d   1       3.747   0.678  -6.812  0.00  0.00    -0.286 OA
ATOM     12  H   LIG d   1       6.498  -2.716  -6.011  0.00  0.00     0.104 H 
ATOM     13  H   LIG d   1       3.647  -4.561  -9.045  0.00  0.00     0.069 H 
ATOM     14  H   LIG d   1       1.278  -1.342 -10.565  0.00  0.00     0.069 H 
ENDROOT
BRANCH   6  15
ATOM     15  O   LIG d   1       1.858  -3.878 -10.813  0.00  0.00    -0.461 OA
BRANCH  15  16
ATOM     16  C   LIG d   1       0.431  -3.904 -10.892  0.00  0.00     0.231 C 
ATOM     17  H   LIG d   1       0.023  -3.019 -10.400  0.00  0.00     0.108 H 
ATOM     18  O   LIG d   1      -0.062  -5.078 -10.245  0.00  0.00    -0.331 OA
ATOM     19  C   LIG d   1      -1.487  -5.189 -10.244  0.00  0.00     0.114 C 
ATOM     20  C   LIG d   1      -1.993  -5.252 -11.688  0.00  0.00     0.112 C 
ATOM     21  H   LIG d   1      -1.919  -4.323  -9.744  0.00  0.00     0.065 H 
ATOM     22  C   LIG d   1      -1.526  -4.001 -12.438  0.00  0.00     0.115 C 
ATOM     23  H   LIG d   1      -1.594  -6.140 -12.176  0.00  0.00     0.065 H 
ATOM     24  C   LIG d   1       0.002  -3.914 -12.362  0.00  0.00     0.145 C 
ATOM     25  H   LIG d   1      -1.965  -3.115 -11.980  0.00  0.00     0.065 H 
ATOM     26  H   LIG d   1       0.442  -4.775 -12.864  0.00  0.00     0.068 H 
BRANCH  19  27
ATOM     27  C   LIG d   1      -1.899  -6.464  -9.504  0.00  0.00     0.073 C 
ATOM     28  H   LIG d   1      -2.970  -6.625  -9.625  0.00  0.00     0.058 H 
ATOM     29  H   LIG d   1      -1.355  -7.315  -9.915  0.00  0.00     0.058 H 
BRANCH  27  30
ATOM     30  O   LIG d   1      -1.591  -6.328  -8.115  0.00  0.00    -0.392 OA
ATOM     31  H   LIG d   1      -2.185  -6.820  -7.531  0.00  0.00     0.209 HD
ENDBRANCH  27  30
ENDBRANCH  19  27
BRANCH  20  32
ATOM     32  O   LIG d   1      -3.422  -5.305 -11.692  0.00  0.00    -0.387 OA
ATOM     33  H   LIG d   1      -3.845  -4.532 -11.296  0.00  0.00     0.210 HD
ENDBRANCH  20  32
BRANCH  22  34
ATOM     34  O   LIG d   1      -1.932  -4.082 -13.806  0.00  0.00    -0.386 OA
ATOM     35  H   LIG d   1      -1.716  -3.298 -14.327  0.00  0.00     0.210 HD
ENDBRANCH  22  34
BRANCH  24  36
ATOM     36  O   LIG d   1       0.444  -2.712 -12.996  0.00  0.00    -0.383 OA
ATOM     37  H   LIG d   1       1.111  -2.853 -13.683  0.00  0.00     0.210 HD
ENDBRANCH  24  36
ENDBRANCH  15  16
ENDBRANCH   6  15
BRANCH   8  38
ATOM     38  O   LIG d   1       2.198   0.462  -8.908  0.00  0.00    -0.506 OA
ATOM     39  H   LIG d   1       1.273   0.609  -9.147  0.00  0.00     0.292 HD
ENDBRANCH   8  38
BRANCH   1  40
ATOM     40  C   LIG d   1       6.257  -0.105  -5.576  0.00  0.00    -0.011 A 
ATOM     41  C   LIG d   1       7.301   0.581  -6.195  0.00  0.00    -0.050 A 
ATOM     42  C   LIG d   1       8.127   1.396  -5.448  0.00  0.00    -0.020 A 
ATOM     43  H   LIG d   1       7.461   0.477  -7.257  0.00  0.00     0.062 H 
ATOM     44  C   LIG d   1       7.919   1.533  -4.083  0.00  0.00     0.117 A 
ATOM     45  H   LIG d   1       8.936   1.928  -5.927  0.00  0.00     0.065 H 
ATOM     46  C   LIG d   1       6.881   0.851  -3.463  0.00  0.00    -0.020 A 
ATOM     47  C   LIG d   1       6.051   0.034  -4.204  0.00  0.00    -0.050 A 
ATOM     48  H   LIG d   1       6.722   0.959  -2.400  0.00  0.00     0.065 H 
ATOM     49  H   LIG d   1       5.244  -0.496  -3.722  0.00  0.00     0.062 H 
BRANCH  44  50
ATOM     50  O   LIG d   1       8.734   2.336  -3.350  0.00  0.00    -0.507 OA
ATOM     51  H   LIG d   1       8.537   3.280  -3.435  0.00  0.00     0.292 HD
ENDBRANCH  44  50
ENDBRANCH   1  40
TORSDOF 10
ENDMDL
MODEL 7
REMARK VINA RESULT:      -6.1      3.362      4.250
REMARK  10 active torsions:
REMARK  status: ('A' for Active; 'I' for Inactive)
REMARK    1  A    between atoms: C_3  and  O_36 
REMARK    2  A    between atoms: C_6  and  C_7 
REMARK    3  A    between atoms: C_12  and  O_19 
REMARK    4  A    between atoms: C_14  and  O_18 
REMARK    5  A    between atoms: O_19  and  C_20 
REMARK    6  A    between atoms: C_22  and  O_35 
REMARK    7  A    between atoms: C_24  and  O_34 
REMARK    8  A    between atoms: C_26  and  O_33 
REMARK    9  A    between atoms: C_28  and  C_31 
REMARK   10  A    between atoms: C_31  and  O_32 
ROOT
ATOM      1  C   LIG d   1       7.298   0.314  -4.845  0.00  0.00     0.064 C 
ATOM      2  C   LIG d   1       7.139   1.154  -3.789  0.00  0.00     0.104 C 
ATOM      3  O   LIG d   1       7.925   2.213  -3.583  0.00  0.00    -0.462 OA
ATOM      4  C   LIG d   1       8.722   2.702  -4.553  0.00  0.00     0.145 A 
ATOM      5  C   LIG d   1       9.280   3.968  -4.437  0.00  0.00     0.023 A 
ATOM      6  C   LIG d   1      10.106   4.458  -5.435  0.00  0.00     0.131 A 
ATOM      7  C   LIG d   1      10.391   3.694  -6.561  0.00  0.00     0.023 A 
ATOM      8  C   LIG d   1       9.844   2.431  -6.700  0.00  0.00     0.135 A 
ATOM      9  C   LIG d   1       9.001   1.934  -5.697  0.00  0.00     0.106 A 
ATOM     10  C   LIG d   1       8.381   0.601  -5.805  0.00  0.00     0.204 C 
ATOM     11  O   LIG d   1       8.739  -0.214  -6.639  0.00  0.00    -0.286 OA
ATOM     12  H   LIG d   1       6.342   0.956  -3.086  0.00  0.00     0.104 H 
ATOM     13  H   LIG d   1       9.068   4.572  -3.567  0.00  0.00     0.069 H 
ATOM     14  H   LIG d   1      11.040   4.087  -7.330  0.00  0.00     0.069 H 
ENDROOT
BRANCH   6  15
ATOM     15  O   LIG d   1      10.644   5.698  -5.311  0.00  0.00    -0.461 OA
BRANCH  15  16
ATOM     16  C   LIG d   1       9.933   6.777  -5.922  0.00  0.00     0.231 C 
ATOM     17  H   LIG d   1       8.881   6.509  -6.022  0.00  0.00     0.108 H 
ATOM     18  O   LIG d   1      10.483   7.038  -7.216  0.00  0.00    -0.331 OA
ATOM     19  C   LIG d   1       9.824   8.088  -7.928  0.00  0.00     0.114 C 
ATOM     20  C   LIG d   1       9.948   9.394  -7.138  0.00  0.00     0.112 C 
ATOM     21  H   LIG d   1       8.771   7.836  -8.054  0.00  0.00     0.065 H 
ATOM     22  C   LIG d   1       9.347   9.196  -5.744  0.00  0.00     0.115 C 
ATOM     23  H   LIG d   1      10.999   9.666  -7.048  0.00  0.00     0.065 H 
ATOM     24  C   LIG d   1      10.061   8.030  -5.052  0.00  0.00     0.145 C 
ATOM     25  H   LIG d   1       8.284   8.972  -5.832  0.00  0.00     0.065 H 
ATOM     26  H   LIG d   1      11.114   8.275  -4.919  0.00  0.00     0.068 H 
BRANCH  19  27
ATOM     27  C   LIG d   1      10.476   8.259  -9.302  0.00  0.00     0.073 C 
ATOM     28  H   LIG d   1      11.259   9.014  -9.241  0.00  0.00     0.058 H 
ATOM     29  H   LIG d   1      10.910   7.310  -9.619  0.00  0.00     0.058 H 
BRANCH  27  30
ATOM     30  O   LIG d   1       9.488   8.670 -10.249  0.00  0.00    -0.392 OA
ATOM     31  H   LIG d   1       8.796   8.013 -10.406  0.00  0.00     0.209 HD
ENDBRANCH  27  30
ENDBRANCH  19  27
BRANCH  20  32
ATOM     32  O   LIG d   1       9.242  10.433  -7.819  0.00  0.00    -0.387 OA
ATOM     33  H   LIG d   1       8.352  10.184  -8.102  0.00  0.00     0.210 HD
ENDBRANCH  20  32
BRANCH  22  34
ATOM     34  O   LIG d   1       9.522  10.387  -4.973  0.00  0.00    -0.386 OA
ATOM     35  H   LIG d   1       8.860  11.070  -5.149  0.00  0.00     0.210 HD
ENDBRANCH  22  34
BRANCH  24  36
ATOM     36  O   LIG d   1       9.461   7.789  -3.778  0.00  0.00    -0.383 OA
ATOM     37  H   LIG d   1      10.096   7.593  -3.075  0.00  0.00     0.210 HD
ENDBRANCH  24  36
ENDBRANCH  15  16
ENDBRANCH   6  15
BRANCH   8  38
ATOM     38  O   LIG d   1      10.121   1.681  -7.796  0.00  0.00    -0.506 OA
ATOM     39  H   LIG d   1      11.028   1.349  -7.827  0.00  0.00     0.292 HD
ENDBRANCH   8  38
BRANCH   1  40
ATOM     40  C   LIG d   1       6.411  -0.861  -5.025  0.00  0.00    -0.011 A 
ATOM     41  C   LIG d   1       5.452  -0.864  -6.038  0.00  0.00    -0.050 A 
ATOM     42  C   LIG d   1       4.629  -1.958  -6.202  0.00  0.00    -0.020 A 
ATOM     43  H   LIG d   1       5.357  -0.012  -6.694  0.00  0.00     0.062 H 
ATOM     44  C   LIG d   1       4.755  -3.056  -5.362  0.00  0.00     0.117 A 
ATOM     45  H   LIG d   1       3.886  -1.962  -6.986  0.00  0.00     0.065 H 
ATOM     46  C   LIG d   1       5.707  -3.056  -4.352  0.00  0.00    -0.020 A 
ATOM     47  C   LIG d   1       6.534  -1.964  -4.182  0.00  0.00    -0.050 A 
ATOM     48  H   LIG d   1       5.802  -3.911  -3.699  0.00  0.00     0.065 H 
ATOM     49  H   LIG d   1       7.275  -1.964  -3.398  0.00  0.00     0.062 H 
BRANCH  44  50
ATOM     50  O   LIG d   1       3.942  -4.133  -5.526  0.00  0.00    -0.507 OA
ATOM     51  H   LIG d   1       4.319  -4.963  -5.202  0.00  0.00     0.292 HD
ENDBRANCH  44  50
ENDBRANCH   1  40
TORSDOF 10
ENDMDL
MODEL 8
REMARK VINA RESULT:      -6.1      5.755      8.225
REMARK  10 active torsions:
REMARK  status: ('A' for Active; 'I' for Inactive)
REMARK    1  A    between atoms: C_3  and  O_36 
REMARK    2  A    between atoms: C_6  and  C_7 
REMARK    3  A    between atoms: C_12  and  O_19 
REMARK    4  A    between atoms: C_14  and  O_18 
REMARK    5  A    between atoms: O_19  and  C_20 
REMARK    6  A    between atoms: C_22  and  O_35 
REMARK    7  A    between atoms: C_24  and  O_34 
REMARK    8  A    between atoms: C_26  and  O_33 
REMARK    9  A    between atoms: C_28  and  C_31 
REMARK   10  A    between atoms: C_31  and  O_32 
ROOT
ATOM      1  C   LIG d   1      10.166   6.465 -10.151  0.00  0.00     0.064 C 
ATOM      2  C   LIG d   1      10.379   5.262  -9.556  0.00  0.00     0.104 C 
ATOM      3  O   LIG d   1      10.464   5.116  -8.232  0.00  0.00    -0.462 OA
ATOM      4  C   LIG d   1      10.045   6.076  -7.386  0.00  0.00     0.145 A 
ATOM      5  C   LIG d   1       9.841   5.793  -6.042  0.00  0.00     0.023 A 
ATOM      6  C   LIG d   1       9.418   6.790  -5.178  0.00  0.00     0.131 A 
ATOM      7  C   LIG d   1       9.195   8.083  -5.638  0.00  0.00     0.023 A 
ATOM      8  C   LIG d   1       9.389   8.388  -6.972  0.00  0.00     0.135 A 
ATOM      9  C   LIG d   1       9.808   7.382  -7.853  0.00  0.00     0.106 A 
ATOM     10  C   LIG d   1      10.014   7.651  -9.287  0.00  0.00     0.204 C 
ATOM     11  O   LIG d   1      10.052   8.786  -9.733  0.00  0.00    -0.286 OA
ATOM     12  H   LIG d   1      10.483   4.387 -10.181  0.00  0.00     0.104 H 
ATOM     13  H   LIG d   1      10.011   4.794  -5.670  0.00  0.00     0.069 H 
ATOM     14  H   LIG d   1       8.869   8.851  -4.952  0.00  0.00     0.069 H 
ENDROOT
BRANCH   6  15
ATOM     15  O   LIG d   1       9.220   6.501  -3.866  0.00  0.00    -0.461 OA
BRANCH  15  16
ATOM     16  C   LIG d   1      10.253   6.882  -2.955  0.00  0.00     0.231 C 
ATOM     17  H   LIG d   1      10.500   7.934  -3.104  0.00  0.00     0.108 H 
ATOM     18  O   LIG d   1      11.414   6.082  -3.190  0.00  0.00    -0.331 OA
ATOM     19  C   LIG d   1      12.522   6.401  -2.345  0.00  0.00     0.114 C 
ATOM     20  C   LIG d   1      12.131   6.168  -0.883  0.00  0.00     0.112 C 
ATOM     21  H   LIG d   1      12.798   7.446  -2.486  0.00  0.00     0.065 H 
ATOM     22  C   LIG d   1      10.904   7.023  -0.550  0.00  0.00     0.115 C 
ATOM     23  H   LIG d   1      11.894   5.115  -0.733  0.00  0.00     0.065 H 
ATOM     24  C   LIG d   1       9.771   6.669  -1.518  0.00  0.00     0.145 C 
ATOM     25  H   LIG d   1      11.155   8.078  -0.652  0.00  0.00     0.065 H 
ATOM     26  H   LIG d   1       9.486   5.626  -1.380  0.00  0.00     0.068 H 
BRANCH  19  27
ATOM     27  C   LIG d   1      13.711   5.506  -2.703  0.00  0.00     0.073 C 
ATOM     28  H   LIG d   1      13.727   5.337  -3.779  0.00  0.00     0.058 H 
ATOM     29  H   LIG d   1      14.637   5.993  -2.398  0.00  0.00     0.058 H 
BRANCH  27  30
ATOM     30  O   LIG d   1      13.586   4.255  -2.025  0.00  0.00    -0.392 OA
ATOM     31  H   LIG d   1      12.770   4.165  -1.513  0.00  0.00     0.209 HD
ENDBRANCH  27  30
ENDBRANCH  19  27
BRANCH  20  32
ATOM     32  O   LIG d   1      13.217   6.540  -0.031  0.00  0.00    -0.387 OA
ATOM     33  H   LIG d   1      13.053   7.338   0.489  0.00  0.00     0.210 HD
ENDBRANCH  20  32
BRANCH  22  34
ATOM     34  O   LIG d   1      10.486   6.759   0.792  0.00  0.00    -0.386 OA
ATOM     35  H   LIG d   1      10.339   5.823   0.980  0.00  0.00     0.210 HD
ENDBRANCH  22  34
BRANCH  24  36
ATOM     36  O   LIG d   1       8.644   7.511  -1.263  0.00  0.00    -0.383 OA
ATOM     37  H   LIG d   1       8.124   7.720  -2.052  0.00  0.00     0.210 HD
ENDBRANCH  24  36
ENDBRANCH  15  16
ENDBRANCH   6  15
BRANCH   8  38
ATOM     38  O   LIG d   1       9.175   9.648  -7.426  0.00  0.00    -0.506 OA
ATOM     39  H   LIG d   1       8.789  10.243  -6.769  0.00  0.00     0.292 HD
ENDBRANCH   8  38
BRANCH   1  40
ATOM     40  C   LIG d   1      10.095   6.583 -11.628  0.00  0.00    -0.011 A 
ATOM     41  C   LIG d   1      11.211   7.001 -12.351  0.00  0.00    -0.050 A 
ATOM     42  C   LIG d   1      11.141   7.109 -13.724  0.00  0.00    -0.020 A 
ATOM     43  H   LIG d   1      12.130   7.237 -11.836  0.00  0.00     0.062 H 
ATOM     44  C   LIG d   1       9.962   6.800 -14.387  0.00  0.00     0.117 A 
ATOM     45  H   LIG d   1      12.006   7.433 -14.284  0.00  0.00     0.065 H 
ATOM     46  C   LIG d   1       8.848   6.384 -13.670  0.00  0.00    -0.020 A 
ATOM     47  C   LIG d   1       8.911   6.274 -12.296  0.00  0.00    -0.050 A 
ATOM     48  H   LIG d   1       7.930   6.146 -14.188  0.00  0.00     0.065 H 
ATOM     49  H   LIG d   1       8.045   5.950 -11.739  0.00  0.00     0.062 H 
BRANCH  44  50
ATOM     50  O   LIG d   1       9.895   6.907 -15.739  0.00  0.00    -0.507 OA
ATOM     51  H   LIG d   1      10.720   7.196 -16.153  0.00  0.00     0.292 HD
ENDBRANCH  44  50
ENDBRANCH   1  40
TORSDOF 10
ENDMDL
MODEL 9
REMARK VINA RESULT:      -6.0      2.154      9.716
REMARK  10 active torsions:
REMARK  status: ('A' for Active; 'I' for Inactive)
REMARK    1  A    between atoms: C_3  and  O_36 
REMARK    2  A    between atoms: C_6  and  C_7 
REMARK    3  A    between atoms: C_12  and  O_19 
REMARK    4  A    between atoms: C_14  and  O_18 
REMARK    5  A    between atoms: O_19  and  C_20 
REMARK    6  A    between atoms: C_22  and  O_35 
REMARK    7  A    between atoms: C_24  and  O_34 
REMARK    8  A    between atoms: C_26  and  O_33 
REMARK    9  A    between atoms: C_28  and  C_31 
REMARK   10  A    between atoms: C_31  and  O_32 
ROOT
ATOM      1  C   LIG d   1       9.953   6.826  -3.145  0.00  0.00     0.064 C 
ATOM      2  C   LIG d   1       9.360   6.891  -4.366  0.00  0.00     0.104 C 
ATOM      3  O   LIG d   1       9.260   5.836  -5.178  0.00  0.00    -0.462 OA
ATOM      4  C   LIG d   1       9.455   4.580  -4.733  0.00  0.00     0.145 A 
ATOM      5  C   LIG d   1       9.042   3.491  -5.488  0.00  0.00     0.023 A 
ATOM      6  C   LIG d   1       9.255   2.202  -5.025  0.00  0.00     0.131 A 
ATOM      7  C   LIG d   1       9.886   1.980  -3.806  0.00  0.00     0.023 A 
ATOM      8  C   LIG d   1      10.304   3.049  -3.036  0.00  0.00     0.135 A 
ATOM      9  C   LIG d   1      10.083   4.354  -3.494  0.00  0.00     0.106 A 
ATOM     10  C   LIG d   1      10.495   5.527  -2.704  0.00  0.00     0.204 C 
ATOM     11  O   LIG d   1      11.237   5.430  -1.740  0.00  0.00    -0.286 OA
ATOM     12  H   LIG d   1       8.952   7.837  -4.694  0.00  0.00     0.104 H 
ATOM     13  H   LIG d   1       8.551   3.648  -6.437  0.00  0.00     0.069 H 
ATOM     14  H   LIG d   1      10.049   0.969  -3.460  0.00  0.00     0.069 H 
ENDROOT
BRANCH   6  15
ATOM     15  O   LIG d   1       8.844   1.145  -5.772  0.00  0.00    -0.461 OA
BRANCH  15  16
ATOM     16  C   LIG d   1       7.512   0.677  -5.554  0.00  0.00     0.231 C 
ATOM     17  H   LIG d   1       6.924   1.461  -5.076  0.00  0.00     0.108 H 
ATOM     18  O   LIG d   1       7.544  -0.476  -4.710  0.00  0.00    -0.331 OA
ATOM     19  C   LIG d   1       6.255  -1.012  -4.406  0.00  0.00     0.114 C 
ATOM     20  C   LIG d   1       5.567  -1.450  -5.702  0.00  0.00     0.112 C 
ATOM     21  H   LIG d   1       5.651  -0.250  -3.913  0.00  0.00     0.065 H 
ATOM     22  C   LIG d   1       5.469  -0.249  -6.648  0.00  0.00     0.115 C 
ATOM     23  H   LIG d   1       6.150  -2.240  -6.175  0.00  0.00     0.065 H 
ATOM     24  C   LIG d   1       6.875   0.308  -6.896  0.00  0.00     0.145 C 
ATOM     25  H   LIG d   1       4.845   0.522  -6.197  0.00  0.00     0.065 H 
ATOM     26  H   LIG d   1       7.484  -0.447  -7.393  0.00  0.00     0.068 H 
BRANCH  19  27
ATOM     27  C   LIG d   1       6.410  -2.220  -3.478  0.00  0.00     0.073 C 
ATOM     28  H   LIG d   1       5.762  -2.097  -2.611  0.00  0.00     0.058 H 
ATOM     29  H   LIG d   1       6.131  -3.128  -4.014  0.00  0.00     0.058 H 
BRANCH  27  30
ATOM     30  O   LIG d   1       7.769  -2.319  -3.049  0.00  0.00    -0.392 OA
ATOM     31  H   LIG d   1       8.169  -1.471  -2.811  0.00  0.00     0.209 HD
ENDBRANCH  27  30
ENDBRANCH  19  27
BRANCH  20  32
ATOM     32  O   LIG d   1       4.255  -1.934  -5.408  0.00  0.00    -0.387 OA
ATOM     33  H   LIG d   1       3.687  -2.027  -6.184  0.00  0.00     0.210 HD
ENDBRANCH  20  32
BRANCH  22  34
ATOM     34  O   LIG d   1       4.894  -0.663  -7.890  0.00  0.00    -0.386 OA
ATOM     35  H   LIG d   1       5.342  -0.306  -8.668  0.00  0.00     0.210 HD
ENDBRANCH  22  34
BRANCH  24  36
ATOM     36  O   LIG d   1       6.789   1.472  -7.720  0.00  0.00    -0.383 OA
ATOM     37  H   LIG d   1       6.104   1.423  -8.401  0.00  0.00     0.210 HD
ENDBRANCH  24  36
ENDBRANCH  15  16
ENDBRANCH   6  15
BRANCH   8  38
ATOM     38  O   LIG d   1      10.922   2.837  -1.847  0.00  0.00    -0.506 OA
ATOM     39  H   LIG d   1      10.467   3.234  -1.091  0.00  0.00     0.292 HD
ENDBRANCH   8  38
BRANCH   1  40
ATOM     40  C   LIG d   1      10.055   8.029  -2.283  0.00  0.00    -0.011 A 
ATOM     41  C   LIG d   1       9.125   8.242  -1.267  0.00  0.00    -0.050 A 
ATOM     42  C   LIG d   1       9.224   9.362  -0.468  0.00  0.00    -0.020 A 
ATOM     43  H   LIG d   1       8.330   7.530  -1.105  0.00  0.00     0.062 H 
ATOM     44  C   LIG d   1      10.249  10.275  -0.673  0.00  0.00     0.117 A 
ATOM     45  H   LIG d   1       8.504   9.528   0.319  0.00  0.00     0.065 H 
ATOM     46  C   LIG d   1      11.177  10.066  -1.684  0.00  0.00    -0.020 A 
ATOM     47  C   LIG d   1      11.083   8.948  -2.488  0.00  0.00    -0.050 A 
ATOM     48  H   LIG d   1      11.973  10.779  -1.843  0.00  0.00     0.065 H 
ATOM     49  H   LIG d   1      11.805   8.786  -3.274  0.00  0.00     0.062 H 
BRANCH  44  50
ATOM     50  O   LIG d   1      10.344  11.377   0.116  0.00  0.00    -0.507 OA
ATOM     51  H   LIG d   1       9.498  11.681   0.471  0.00  0.00     0.292 HD
ENDBRANCH  44  50
ENDBRANCH   1  40
TORSDOF 10
ENDMDL
