MODEL 1
REMARK VINA RESULT:      -6.1      0.000      0.000
REMARK  8 active torsions:
REMARK  status: ('A' for Active; 'I' for Inactive)
REMARK    1  A    between atoms: C_4  and  C_7 
REMARK    2  A    between atoms: C_7  and  C_8 
REMARK    3  A    between atoms: C_8  and  C_9 
REMARK    4  A    between atoms: C_10  and  O_19 
REMARK    5  A    between atoms: C_11  and  C_17 
REMARK    6  A    between atoms: CA_13  and  C_15 
REMARK    7  A    between atoms: C_15  and  O_16 
REMARK    8  A    between atoms: C_17  and  O_18 
ROOT
ATOM      1  C   LIG d   1       5.850  -1.933  -5.958  0.00  0.00     0.084 A 
ATOM      2  C   LIG d   1       5.452  -0.809  -6.665  0.00  0.00     0.143 A 
ATOM      3  C   LIG d   1       4.500  -0.946  -7.671  0.00  0.00     0.023 A 
ATOM      4  C   LIG d   1       3.989  -2.208  -7.926  0.00  0.00    -0.029 A 
ATOM      5  CA  LIG d   1       4.436  -3.281  -7.178  0.00  0.00     0.067 A 
ATOM      6  N   LIG d   1       5.342  -3.118  -6.235  0.00  0.00    -0.251 NA
ATOM      7  H   LIG d   1       3.248  -2.352  -8.699  0.00  0.00     0.064 H 
ENDROOT
BRANCH   1   8
ATOM      8  C   LIG d   1       6.881  -1.801  -4.865  0.00  0.00    -0.003 C 
ATOM      9  H   LIG d   1       7.247  -0.775  -4.834  0.00  0.00     0.033 H 
ATOM     10  H   LIG d   1       7.712  -2.478  -5.065  0.00  0.00     0.033 H 
BRANCH   8  11
ATOM     11  C   LIG d   1       6.245  -2.157  -3.519  0.00  0.00    -0.022 C 
ATOM     12  H   LIG d   1       7.026  -2.265  -2.766  0.00  0.00     0.032 H 
ATOM     13  H   LIG d   1       5.698  -3.095  -3.613  0.00  0.00     0.032 H 
BRANCH  11  14
ATOM     14  C   LIG d   1       5.297  -1.061  -3.107  0.00  0.00    -0.047 A 
ATOM     15  C   LIG d   1       3.944  -1.324  -2.992  0.00  0.00    -0.059 A 
ATOM     16  C   LIG d   1       3.075  -0.319  -2.612  0.00  0.00    -0.061 A 
ATOM     17  H   LIG d   1       3.568  -2.315  -3.198  0.00  0.00     0.062 H 
ATOM     18  C   LIG d   1       3.558   0.949  -2.348  0.00  0.00    -0.062 A 
ATOM     19  H   LIG d   1       2.019  -0.524  -2.523  0.00  0.00     0.062 H 
ATOM     20  C   LIG d   1       4.910   1.212  -2.462  0.00  0.00    -0.061 A 
ATOM     21  H   LIG d   1       2.878   1.735  -2.055  0.00  0.00     0.062 H 
ATOM     22  C   LIG d   1       5.779   0.207  -2.843  0.00  0.00    -0.059 A 
ATOM     23  H   LIG d   1       5.287   2.203  -2.255  0.00  0.00     0.062 H 
ATOM     24  H   LIG d   1       6.836   0.412  -2.932  0.00  0.00     0.062 H 
ENDBRANCH  11  14
ENDBRANCH   8  11
ENDBRANCH   1   8
BRANCH   2  25
ATOM     25  O   LIG d   1       5.982   0.409  -6.379  0.00  0.00    -0.505 OA
ATOM     26  H   LIG d   1       6.931   0.392  -6.197  0.00  0.00     0.292 HD
ENDBRANCH   2  25
BRANCH   3  27
ATOM     27  C   LIG d   1       4.037   0.249  -8.463  0.00  0.00     0.073 C 
ATOM     28  H   LIG d   1       4.884   0.686  -8.991  0.00  0.00     0.061 H 
ATOM     29  H   LIG d   1       3.282  -0.063  -9.184  0.00  0.00     0.061 H 
BRANCH  27  30
ATOM     30  O   LIG d   1       3.476   1.220  -7.576  0.00  0.00    -0.390 OA
ATOM     31  H   LIG d   1       2.792   1.773  -7.979  0.00  0.00     0.210 HD
ENDBRANCH  27  30
ENDBRANCH   3  27
BRANCH   5  32
ATOM     32  C   LIG d   1       3.885  -4.657  -7.448  0.00  0.00     0.086 C 
ATOM     33  H1  LIG d   1       3.230  -4.622  -8.320  0.00  0.00     0.062 H 
ATOM     34  H2  LIG d   1       4.706  -5.347  -7.639  0.00  0.00     0.062 H 
BRANCH  32  35
ATOM     35  O   LIG d   1       3.140  -5.104  -6.313  0.00  0.00    -0.389 OA
ATOM     36  H   LIG d   1       2.266  -4.697  -6.231  0.00  0.00     0.210 HD
ENDBRANCH  32  35
ENDBRANCH   5  32
TORSDOF 8
ENDMDL
MODEL 2
REMARK VINA RESULT:      -6.0      1.993      2.807
REMARK  8 active torsions:
REMARK  status: ('A' for Active; 'I' for Inactive)
REMARK    1  A    between atoms: C_4  and  C_7 
REMARK    2  A    between atoms: C_7  and  C_8 
REMARK    3  A    between atoms: C_8  and  C_9 
REMARK    4  A    between atoms: C_10  and  O_19 
REMARK    5  A    between atoms: C_11  and  C_17 
REMARK    6  A    between atoms: CA_13  and  C_15 
REMARK    7  A    between atoms: C_15  and  O_16 
REMARK    8  A    between atoms: C_17  and  O_18 
ROOT
ATOM      1  C   LIG d   1       3.480  -0.845  -7.513  0.00  0.00     0.084 A 
ATOM      2  C   LIG d   1       2.835  -0.527  -8.699  0.00  0.00     0.143 A 
ATOM      3  C   LIG d   1       2.583  -1.537  -9.623  0.00  0.00     0.023 A 
ATOM      4  C   LIG d   1       2.990  -2.826  -9.317  0.00  0.00    -0.029 A 
ATOM      5  CA  LIG d   1       3.628  -3.064  -8.113  0.00  0.00     0.067 A 
ATOM      6  N   LIG d   1       3.856  -2.083  -7.263  0.00  0.00    -0.251 NA
ATOM      7  H   LIG d   1       2.811  -3.635 -10.009  0.00  0.00     0.064 H 
ENDROOT
BRANCH   1   8
ATOM      8  C   LIG d   1       3.760   0.239  -6.503  0.00  0.00    -0.003 C 
ATOM      9  H   LIG d   1       3.782   1.206  -7.005  0.00  0.00     0.033 H 
ATOM     10  H   LIG d   1       4.724   0.054  -6.029  0.00  0.00     0.033 H 
BRANCH   8  11
ATOM     11  C   LIG d   1       2.660   0.241  -5.440  0.00  0.00    -0.022 C 
ATOM     12  H   LIG d   1       1.945  -0.554  -5.655  0.00  0.00     0.032 H 
ATOM     13  H   LIG d   1       2.148   1.203  -5.448  0.00  0.00     0.032 H 
BRANCH  11  14
ATOM     14  C   LIG d   1       3.274   0.011  -4.083  0.00  0.00    -0.047 A 
ATOM     15  C   LIG d   1       3.495  -1.278  -3.633  0.00  0.00    -0.059 A 
ATOM     16  C   LIG d   1       4.059  -1.489  -2.389  0.00  0.00    -0.061 A 
ATOM     17  H   LIG d   1       3.226  -2.119  -4.255  0.00  0.00     0.062 H 
ATOM     18  C   LIG d   1       4.403  -0.410  -1.594  0.00  0.00    -0.062 A 
ATOM     19  H   LIG d   1       4.231  -2.494  -2.038  0.00  0.00     0.062 H 
ATOM     20  C   LIG d   1       4.183   0.878  -2.044  0.00  0.00    -0.061 A 
ATOM     21  H   LIG d   1       4.840  -0.575  -0.621  0.00  0.00     0.062 H 
ATOM     22  C   LIG d   1       3.618   1.089  -3.288  0.00  0.00    -0.059 A 
ATOM     23  H   LIG d   1       4.452   1.720  -1.424  0.00  0.00     0.062 H 
ATOM     24  H   LIG d   1       3.446   2.096  -3.640  0.00  0.00     0.062 H 
ENDBRANCH  11  14
ENDBRANCH   8  11
ENDBRANCH   1   8
BRANCH   2  25
ATOM     25  O   LIG d   1       2.453   0.752  -8.956  0.00  0.00    -0.505 OA
ATOM     26  H   LIG d   1       1.670   1.034  -8.464  0.00  0.00     0.292 HD
ENDBRANCH   2  25
BRANCH   3  27
ATOM     27  C   LIG d   1       1.883  -1.237 -10.923  0.00  0.00     0.073 C 
ATOM     28  H   LIG d   1       2.419  -0.449 -11.451  0.00  0.00     0.061 H 
ATOM     29  H   LIG d   1       1.861  -2.136 -11.539  0.00  0.00     0.061 H 
BRANCH  27  30
ATOM     30  O   LIG d   1       0.546  -0.809 -10.657  0.00  0.00    -0.390 OA
ATOM     31  H   LIG d   1       0.473  -0.169  -9.935  0.00  0.00     0.210 HD
ENDBRANCH  27  30
ENDBRANCH   3  27
BRANCH   5  32
ATOM     32  C   LIG d   1       4.074  -4.462  -7.772  0.00  0.00     0.086 C 
ATOM     33  H1  LIG d   1       3.994  -5.095  -8.656  0.00  0.00     0.062 H 
ATOM     34  H2  LIG d   1       5.110  -4.441  -7.433  0.00  0.00     0.062 H 
BRANCH  32  35
ATOM     35  O   LIG d   1       3.244  -4.987  -6.735  0.00  0.00    -0.389 OA
ATOM     36  H   LIG d   1       2.306  -5.030  -6.966  0.00  0.00     0.210 HD
ENDBRANCH  32  35
ENDBRANCH   5  32
TORSDOF 8
ENDMDL
MODEL 3
REMARK VINA RESULT:      -5.9      2.419      4.234
REMARK  8 active torsions:
REMARK  status: ('A' for Active; 'I' for Inactive)
REMARK    1  A    between atoms: C_4  and  C_7 
REMARK    2  A    between atoms: C_7  and  C_8 
REMARK    3  A    between atoms: C_8  and  C_9 
REMARK    4  A    between atoms: C_10  and  O_19 
REMARK    5  A    between atoms: C_11  and  C_17 
REMARK    6  A    between atoms: CA_13  and  C_15 
REMARK    7  A    between atoms: C_15  and  O_16 
REMARK    8  A    between atoms: C_17  and  O_18 
ROOT
ATOM      1  C   LIG d   1       3.291   0.034  -6.922  0.00  0.00     0.084 A 
ATOM      2  C   LIG d   1       4.076  -1.087  -7.147  0.00  0.00     0.143 A 
ATOM      3  C   LIG d   1       5.061  -1.036  -8.128  0.00  0.00     0.023 A 
ATOM      4  C   LIG d   1       5.217   0.140  -8.845  0.00  0.00    -0.029 A 
ATOM      5  CA  LIG d   1       4.395   1.216  -8.563  0.00  0.00     0.067 A 
ATOM      6  N   LIG d   1       3.468   1.132  -7.630  0.00  0.00    -0.251 NA
ATOM      7  H   LIG d   1       5.972   0.216  -9.613  0.00  0.00     0.064 H 
ENDROOT
BRANCH   1   8
ATOM      8  C   LIG d   1       2.219  -0.006  -5.863  0.00  0.00    -0.003 C 
ATOM      9  H   LIG d   1       2.216  -0.985  -5.386  0.00  0.00     0.033 H 
ATOM     10  H   LIG d   1       1.248   0.178  -6.322  0.00  0.00     0.033 H 
BRANCH   8  11
ATOM     11  C   LIG d   1       2.500   1.072  -4.813  0.00  0.00    -0.022 C 
ATOM     12  H   LIG d   1       1.558   1.501  -4.472  0.00  0.00     0.032 H 
ATOM     13  H   LIG d   1       3.119   1.854  -5.252  0.00  0.00     0.032 H 
BRANCH  11  14
ATOM     14  C   LIG d   1       3.224   0.456  -3.643  0.00  0.00    -0.047 A 
ATOM     15  C   LIG d   1       3.981   1.250  -2.803  0.00  0.00    -0.059 A 
ATOM     16  C   LIG d   1       4.644   0.685  -1.729  0.00  0.00    -0.061 A 
ATOM     17  H   LIG d   1       4.054   2.311  -2.985  0.00  0.00     0.062 H 
ATOM     18  C   LIG d   1       4.549  -0.675  -1.496  0.00  0.00    -0.062 A 
ATOM     19  H   LIG d   1       5.235   1.304  -1.073  0.00  0.00     0.062 H 
ATOM     20  C   LIG d   1       3.791  -1.469  -2.337  0.00  0.00    -0.061 A 
ATOM     21  H   LIG d   1       5.070  -1.117  -0.661  0.00  0.00     0.062 H 
ATOM     22  C   LIG d   1       3.129  -0.904  -3.411  0.00  0.00    -0.059 A 
ATOM     23  H   LIG d   1       3.716  -2.531  -2.155  0.00  0.00     0.062 H 
ATOM     24  H   LIG d   1       2.537  -1.524  -4.067  0.00  0.00     0.062 H 
ENDBRANCH  11  14
ENDBRANCH   8  11
ENDBRANCH   1   8
BRANCH   2  25
ATOM     25  O   LIG d   1       3.887  -2.218  -6.418  0.00  0.00    -0.505 OA
ATOM     26  H   LIG d   1       3.532  -2.959  -6.928  0.00  0.00     0.292 HD
ENDBRANCH   2  25
BRANCH   3  27
ATOM     27  C   LIG d   1       5.938  -2.230  -8.404  0.00  0.00     0.073 C 
ATOM     28  H   LIG d   1       5.320  -3.069  -8.722  0.00  0.00     0.061 H 
ATOM     29  H   LIG d   1       6.649  -1.984  -9.192  0.00  0.00     0.061 H 
BRANCH  27  30
ATOM     30  O   LIG d   1       6.648  -2.584  -7.215  0.00  0.00    -0.390 OA
ATOM     31  H   LIG d   1       7.455  -2.069  -7.070  0.00  0.00     0.210 HD
ENDBRANCH  27  30
ENDBRANCH   3  27
BRANCH   5  32
ATOM     32  C   LIG d   1       4.558   2.498  -9.337  0.00  0.00     0.086 C 
ATOM     33  H1  LIG d   1       4.251   2.340 -10.371  0.00  0.00     0.062 H 
ATOM     34  H2  LIG d   1       3.940   3.275  -8.888  0.00  0.00     0.062 H 
BRANCH  32  35
ATOM     35  O   LIG d   1       5.929   2.903  -9.305  0.00  0.00    -0.389 OA
ATOM     36  H   LIG d   1       6.493   2.336  -8.762  0.00  0.00     0.210 HD
ENDBRANCH  32  35
ENDBRANCH   5  32
TORSDOF 8
ENDMDL
MODEL 4
REMARK VINA RESULT:      -5.9      2.988      4.690
REMARK  8 active torsions:
REMARK  status: ('A' for Active; 'I' for Inactive)
REMARK    1  A    between atoms: C_4  and  C_7 
REMARK    2  A    between atoms: C_7  and  C_8 
REMARK    3  A    between atoms: C_8  and  C_9 
REMARK    4  A    between atoms: C_10  and  O_19 
REMARK    5  A    between atoms: C_11  and  C_17 
REMARK    6  A    between atoms: CA_13  and  C_15 
REMARK    7  A    between atoms: C_15  and  O_16 
REMARK    8  A    between atoms: C_17  and  O_18 
ROOT
ATOM      1  C   LIG d   1       5.378  -4.052  -5.170  0.00  0.00     0.084 A 
ATOM      2  C   LIG d   1       4.769  -5.201  -5.652  0.00  0.00     0.143 A 
ATOM      3  C   LIG d   1       5.549  -6.329  -5.890  0.00  0.00     0.023 A 
ATOM      4  C   LIG d   1       6.909  -6.255  -5.634  0.00  0.00    -0.029 A 
ATOM      5  CA  LIG d   1       7.442  -5.073  -5.154  0.00  0.00     0.067 A 
ATOM      6  N   LIG d   1       6.676  -4.021  -4.945  0.00  0.00    -0.251 NA
ATOM      7  H   LIG d   1       7.544  -7.111  -5.806  0.00  0.00     0.064 H 
ENDROOT
BRANCH   1   8
ATOM      8  C   LIG d   1       4.546  -2.821  -4.909  0.00  0.00    -0.003 C 
ATOM      9  H   LIG d   1       3.591  -2.912  -5.425  0.00  0.00     0.033 H 
ATOM     10  H   LIG d   1       5.075  -1.941  -5.274  0.00  0.00     0.033 H 
BRANCH   8  11
ATOM     11  C   LIG d   1       4.301  -2.682  -3.404  0.00  0.00    -0.022 C 
ATOM     12  H   LIG d   1       5.165  -3.062  -2.859  0.00  0.00     0.032 H 
ATOM     13  H   LIG d   1       3.415  -3.253  -3.127  0.00  0.00     0.032 H 
BRANCH  11  14
ATOM     14  C   LIG d   1       4.091  -1.230  -3.063  0.00  0.00    -0.047 A 
ATOM     15  C   LIG d   1       4.677  -0.693  -1.932  0.00  0.00    -0.059 A 
ATOM     16  C   LIG d   1       4.485   0.640  -1.620  0.00  0.00    -0.061 A 
ATOM     17  H   LIG d   1       5.286  -1.315  -1.294  0.00  0.00     0.062 H 
ATOM     18  C   LIG d   1       3.706   1.436  -2.439  0.00  0.00    -0.062 A 
ATOM     19  H   LIG d   1       4.943   1.059  -0.737  0.00  0.00     0.062 H 
ATOM     20  C   LIG d   1       3.120   0.900  -3.570  0.00  0.00    -0.061 A 
ATOM     21  H   LIG d   1       3.552   2.476  -2.192  0.00  0.00     0.062 H 
ATOM     22  C   LIG d   1       3.311  -0.433  -3.882  0.00  0.00    -0.059 A 
ATOM     23  H   LIG d   1       2.511   1.522  -4.209  0.00  0.00     0.062 H 
ATOM     24  H   LIG d   1       2.853  -0.853  -4.765  0.00  0.00     0.062 H 
ENDBRANCH  11  14
ENDBRANCH   8  11
ENDBRANCH   1   8
BRANCH   2  25
ATOM     25  O   LIG d   1       3.431  -5.226  -5.888  0.00  0.00    -0.505 OA
ATOM     26  H   LIG d   1       2.890  -5.169  -5.089  0.00  0.00     0.292 HD
ENDBRANCH   2  25
BRANCH   3  27
ATOM     27  C   LIG d   1       4.929  -7.599  -6.411  0.00  0.00     0.073 C 
ATOM     28  H   LIG d   1       4.195  -7.357  -7.179  0.00  0.00     0.061 H 
ATOM     29  H   LIG d   1       5.706  -8.233  -6.839  0.00  0.00     0.061 H 
BRANCH  27  30
ATOM     30  O   LIG d   1       4.287  -8.291  -5.338  0.00  0.00    -0.390 OA
ATOM     31  H   LIG d   1       4.145  -7.750  -4.549  0.00  0.00     0.210 HD
ENDBRANCH  27  30
ENDBRANCH   3  27
BRANCH   5  32
ATOM     32  C   LIG d   1       8.920  -4.985  -4.873  0.00  0.00     0.086 C 
ATOM     33  H1  LIG d   1       9.441  -5.772  -5.418  0.00  0.00     0.062 H 
ATOM     34  H2  LIG d   1       9.293  -4.012  -5.193  0.00  0.00     0.062 H 
BRANCH  32  35
ATOM     35  O   LIG d   1       9.148  -5.146  -3.471  0.00  0.00    -0.389 OA
ATOM     36  H   LIG d   1       9.426  -6.037  -3.218  0.00  0.00     0.210 HD
ENDBRANCH  32  35
ENDBRANCH   5  32
TORSDOF 8
ENDMDL
MODEL 5
REMARK VINA RESULT:      -5.7      2.638      4.089
REMARK  8 active torsions:
REMARK  status: ('A' for Active; 'I' for Inactive)
REMARK    1  A    between atoms: C_4  and  C_7 
REMARK    2  A    between atoms: C_7  and  C_8 
REMARK    3  A    between atoms: C_8  and  C_9 
REMARK    4  A    between atoms: C_10  and  O_19 
REMARK    5  A    between atoms: C_11  and  C_17 
REMARK    6  A    between atoms: CA_13  and  C_15 
REMARK    7  A    between atoms: C_15  and  O_16 
REMARK    8  A    between atoms: C_17  and  O_18 
ROOT
ATOM      1  C   LIG d   1       4.142   0.098  -7.433  0.00  0.00     0.084 A 
ATOM      2  C   LIG d   1       3.593   0.403  -8.670  0.00  0.00     0.143 A 
ATOM      3  C   LIG d   1       4.376   1.063  -9.612  0.00  0.00     0.023 A 
ATOM      4  C   LIG d   1       5.679   1.391  -9.272  0.00  0.00    -0.029 A 
ATOM      5  CA  LIG d   1       6.154   1.053  -8.018  0.00  0.00     0.067 A 
ATOM      6  N   LIG d   1       5.384   0.432  -7.147  0.00  0.00    -0.251 NA
ATOM      7  H   LIG d   1       6.316   1.903  -9.978  0.00  0.00     0.064 H 
ENDROOT
BRANCH   1   8
ATOM      8  C   LIG d   1       3.305  -0.616  -6.402  0.00  0.00    -0.003 C 
ATOM      9  H   LIG d   1       3.911  -1.371  -5.903  0.00  0.00     0.033 H 
ATOM     10  H   LIG d   1       2.457  -1.095  -6.891  0.00  0.00     0.033 H 
BRANCH   8  11
ATOM     11  C   LIG d   1       2.796   0.394  -5.371  0.00  0.00    -0.022 C 
ATOM     12  H   LIG d   1       1.708   0.349  -5.325  0.00  0.00     0.032 H 
ATOM     13  H   LIG d   1       3.108   1.397  -5.661  0.00  0.00     0.032 H 
BRANCH  11  14
ATOM     14  C   LIG d   1       3.371   0.061  -4.018  0.00  0.00    -0.047 A 
ATOM     15  C   LIG d   1       3.822   1.072  -3.190  0.00  0.00    -0.059 A 
ATOM     16  C   LIG d   1       4.347   0.767  -1.949  0.00  0.00    -0.061 A 
ATOM     17  H   LIG d   1       3.763   2.101  -3.514  0.00  0.00     0.062 H 
ATOM     18  C   LIG d   1       4.421  -0.550  -1.534  0.00  0.00    -0.062 A 
ATOM     19  H   LIG d   1       4.700   1.557  -1.303  0.00  0.00     0.062 H 
ATOM     20  C   LIG d   1       3.969  -1.561  -2.361  0.00  0.00    -0.061 A 
ATOM     21  H   LIG d   1       4.836  -0.789  -0.567  0.00  0.00     0.062 H 
ATOM     22  C   LIG d   1       3.445  -1.256  -3.603  0.00  0.00    -0.059 A 
ATOM     23  H   LIG d   1       4.027  -2.590  -2.038  0.00  0.00     0.062 H 
ATOM     24  H   LIG d   1       3.092  -2.046  -4.250  0.00  0.00     0.062 H 
ENDBRANCH  11  14
ENDBRANCH   8  11
ENDBRANCH   1   8
BRANCH   2  25
ATOM     25  O   LIG d   1       2.310   0.061  -8.959  0.00  0.00    -0.505 OA
ATOM     26  H   LIG d   1       1.657   0.717  -8.682  0.00  0.00     0.292 HD
ENDBRANCH   2  25
BRANCH   3  27
ATOM     27  C   LIG d   1       3.821   1.412 -10.969  0.00  0.00     0.073 C 
ATOM     28  H   LIG d   1       2.736   1.317 -10.954  0.00  0.00     0.061 H 
ATOM     29  H   LIG d   1       4.093   2.437 -11.219  0.00  0.00     0.061 H 
BRANCH  27  30
ATOM     30  O   LIG d   1       4.364   0.523 -11.948  0.00  0.00    -0.390 OA
ATOM     31  H   LIG d   1       5.258   0.752 -12.236  0.00  0.00     0.210 HD
ENDBRANCH  27  30
ENDBRANCH   3  27
BRANCH   5  32
ATOM     32  C   LIG d   1       7.570   1.406  -7.640  0.00  0.00     0.086 C 
ATOM     33  H1  LIG d   1       8.232   0.579  -7.898  0.00  0.00     0.062 H 
ATOM     34  H2  LIG d   1       7.878   2.301  -8.181  0.00  0.00     0.062 H 
BRANCH  32  35
ATOM     35  O   LIG d   1       7.641   1.650  -6.234  0.00  0.00    -0.389 OA
ATOM     36  H   LIG d   1       7.368   0.899  -5.690  0.00  0.00     0.210 HD
ENDBRANCH  32  35
ENDBRANCH   5  32
TORSDOF 8
ENDMDL
MODEL 6
REMARK VINA RESULT:      -5.6      2.350      5.579
REMARK  8 active torsions:
REMARK  status: ('A' for Active; 'I' for Inactive)
REMARK    1  A    between atoms: C_4  and  C_7 
REMARK    2  A    between atoms: C_7  and  C_8 
REMARK    3  A    between atoms: C_8  and  C_9 
REMARK    4  A    between atoms: C_10  and  O_19 
REMARK    5  A    between atoms: C_11  and  C_17 
REMARK    6  A    between atoms: CA_13  and  C_15 
REMARK    7  A    between atoms: C_15  and  O_16 
REMARK    8  A    between atoms: C_17  and  O_18 
ROOT
ATOM      1  C   LIG d   1       3.592  -0.204  -5.286  0.00  0.00     0.084 A 
ATOM      2  C   LIG d   1       3.722   0.322  -4.010  0.00  0.00     0.143 A 
ATOM      3  C   LIG d   1       4.285  -0.464  -3.010  0.00  0.00     0.023 A 
ATOM      4  C   LIG d   1       4.694  -1.748  -3.333  0.00  0.00    -0.029 A 
ATOM      5  CA  LIG d   1       4.530  -2.201  -4.629  0.00  0.00     0.067 A 
ATOM      6  N   LIG d   1       3.988  -1.432  -5.552  0.00  0.00    -0.251 NA
ATOM      7  H   LIG d   1       5.136  -2.386  -2.582  0.00  0.00     0.064 H 
ENDROOT
BRANCH   1   8
ATOM      8  C   LIG d   1       2.982   0.636  -6.381  0.00  0.00    -0.003 C 
ATOM      9  H   LIG d   1       3.739   1.306  -6.788  0.00  0.00     0.033 H 
ATOM     10  H   LIG d   1       2.159   1.222  -5.973  0.00  0.00     0.033 H 
BRANCH   8  11
ATOM     11  C   LIG d   1       2.459  -0.277  -7.492  0.00  0.00    -0.022 C 
ATOM     12  H   LIG d   1       1.368  -0.260  -7.492  0.00  0.00     0.032 H 
ATOM     13  H   LIG d   1       2.807  -1.295  -7.319  0.00  0.00     0.032 H 
BRANCH  11  14
ATOM     14  C   LIG d   1       2.970   0.210  -8.823  0.00  0.00    -0.047 A 
ATOM     15  C   LIG d   1       2.969  -0.637  -9.916  0.00  0.00    -0.059 A 
ATOM     16  C   LIG d   1       3.436  -0.191 -11.137  0.00  0.00    -0.061 A 
ATOM     17  H   LIG d   1       2.603  -1.648  -9.814  0.00  0.00     0.062 H 
ATOM     18  C   LIG d   1       3.904   1.104 -11.266  0.00  0.00    -0.062 A 
ATOM     19  H   LIG d   1       3.437  -0.852 -11.990  0.00  0.00     0.062 H 
ATOM     20  C   LIG d   1       3.904   1.952 -10.174  0.00  0.00    -0.061 A 
ATOM     21  H   LIG d   1       4.273   1.452 -12.220  0.00  0.00     0.062 H 
ATOM     22  C   LIG d   1       3.438   1.505  -8.953  0.00  0.00    -0.059 A 
ATOM     23  H   LIG d   1       4.269   2.963 -10.276  0.00  0.00     0.062 H 
ATOM     24  H   LIG d   1       3.437   2.167  -8.099  0.00  0.00     0.062 H 
ENDBRANCH  11  14
ENDBRANCH   8  11
ENDBRANCH   1   8
BRANCH   2  25
ATOM     25  O   LIG d   1       3.307   1.588  -3.740  0.00  0.00    -0.505 OA
ATOM     26  H   LIG d   1       2.358   1.725  -3.865  0.00  0.00     0.292 HD
ENDBRANCH   2  25
BRANCH   3  27
ATOM     27  C   LIG d   1       4.447   0.068  -1.609  0.00  0.00     0.073 C 
ATOM     28  H   LIG d   1       3.466   0.214  -1.159  0.00  0.00     0.061 H 
ATOM     29  H   LIG d   1       5.017  -0.645  -1.014  0.00  0.00     0.061 H 
BRANCH  27  30
ATOM     30  O   LIG d   1       5.143   1.316  -1.652  0.00  0.00    -0.390 OA
ATOM     31  H   LIG d   1       5.406   1.591  -2.541  0.00  0.00     0.210 HD
ENDBRANCH  27  30
ENDBRANCH   3  27
BRANCH   5  32
ATOM     32  C   LIG d   1       4.973  -3.596  -4.989  0.00  0.00     0.086 C 
ATOM     33  H1  LIG d   1       5.897  -3.547  -5.565  0.00  0.00     0.062 H 
ATOM     34  H2  LIG d   1       5.142  -4.170  -4.079  0.00  0.00     0.062 H 
BRANCH  32  35
ATOM     35  O   LIG d   1       3.958  -4.230  -5.772  0.00  0.00    -0.389 OA
ATOM     36  H   LIG d   1       4.266  -4.548  -6.632  0.00  0.00     0.210 HD
ENDBRANCH  32  35
ENDBRANCH   5  32
TORSDOF 8
ENDMDL
MODEL 7
REMARK VINA RESULT:      -5.6      4.314      6.351
REMARK  8 active torsions:
REMARK  status: ('A' for Active; 'I' for Inactive)
REMARK    1  A    between atoms: C_4  and  C_7 
REMARK    2  A    between atoms: C_7  and  C_8 
REMARK    3  A    between atoms: C_8  and  C_9 
REMARK    4  A    between atoms: C_10  and  O_19 
REMARK    5  A    between atoms: C_11  and  C_17 
REMARK    6  A    between atoms: CA_13  and  C_15 
REMARK    7  A    between atoms: C_15  and  O_16 
REMARK    8  A    between atoms: C_17  and  O_18 
ROOT
ATOM      1  C   LIG d   1       8.274   2.010  -4.196  0.00  0.00     0.084 A 
ATOM      2  C   LIG d   1       8.436   2.323  -5.537  0.00  0.00     0.143 A 
ATOM      3  C   LIG d   1       9.285   3.368  -5.889  0.00  0.00     0.023 A 
ATOM      4  C   LIG d   1       9.936   4.057  -4.878  0.00  0.00    -0.029 A 
ATOM      5  CA  LIG d   1       9.723   3.685  -3.563  0.00  0.00     0.067 A 
ATOM      6  N   LIG d   1       8.908   2.693  -3.264  0.00  0.00    -0.251 NA
ATOM      7  H   LIG d   1      10.603   4.873  -5.114  0.00  0.00     0.064 H 
ENDROOT
BRANCH   1   8
ATOM      8  C   LIG d   1       7.357   0.881  -3.799  0.00  0.00    -0.003 C 
ATOM      9  H   LIG d   1       7.880   0.211  -3.117  0.00  0.00     0.033 H 
ATOM     10  H   LIG d   1       7.054   0.329  -4.689  0.00  0.00     0.033 H 
BRANCH   8  11
ATOM     11  C   LIG d   1       6.119   1.451  -3.104  0.00  0.00    -0.022 C 
ATOM     12  H   LIG d   1       5.703   2.258  -3.707  0.00  0.00     0.032 H 
ATOM     13  H   LIG d   1       6.398   1.835  -2.123  0.00  0.00     0.032 H 
BRANCH  11  14
ATOM     14  C   LIG d   1       5.089   0.362  -2.943  0.00  0.00    -0.047 A 
ATOM     15  C   LIG d   1       3.743   0.676  -2.961  0.00  0.00    -0.059 A 
ATOM     16  C   LIG d   1       2.798  -0.322  -2.814  0.00  0.00    -0.061 A 
ATOM     17  H   LIG d   1       3.430   1.701  -3.090  0.00  0.00     0.062 H 
ATOM     18  C   LIG d   1       3.200  -1.635  -2.650  0.00  0.00    -0.062 A 
ATOM     19  H   LIG d   1       1.747  -0.077  -2.828  0.00  0.00     0.062 H 
ATOM     20  C   LIG d   1       4.546  -1.949  -2.633  0.00  0.00    -0.061 A 
ATOM     21  H   LIG d   1       2.462  -2.414  -2.532  0.00  0.00     0.062 H 
ATOM     22  C   LIG d   1       5.491  -0.951  -2.779  0.00  0.00    -0.059 A 
ATOM     23  H   LIG d   1       4.860  -2.975  -2.505  0.00  0.00     0.062 H 
ATOM     24  H   LIG d   1       6.543  -1.196  -2.765  0.00  0.00     0.062 H 
ENDBRANCH  11  14
ENDBRANCH   8  11
ENDBRANCH   1   8
BRANCH   2  25
ATOM     25  O   LIG d   1       7.777   1.619  -6.494  0.00  0.00    -0.505 OA
ATOM     26  H   LIG d   1       7.077   2.118  -6.937  0.00  0.00     0.292 HD
ENDBRANCH   2  25
BRANCH   3  27
ATOM     27  C   LIG d   1       9.492   3.741  -7.334  0.00  0.00     0.073 C 
ATOM     28  H   LIG d   1       8.548   4.074  -7.763  0.00  0.00     0.061 H 
ATOM     29  H   LIG d   1      10.224   4.546  -7.400  0.00  0.00     0.061 H 
BRANCH  27  30
ATOM     30  O   LIG d   1       9.969   2.603  -8.056  0.00  0.00    -0.390 OA
ATOM     31  H   LIG d   1       9.918   1.773  -7.561  0.00  0.00     0.210 HD
ENDBRANCH  27  30
ENDBRANCH   3  27
BRANCH   5  32
ATOM     32  C   LIG d   1      10.427   4.428  -2.457  0.00  0.00     0.086 C 
ATOM     33  H1  LIG d   1      11.148   5.123  -2.888  0.00  0.00     0.062 H 
ATOM     34  H2  LIG d   1       9.696   4.981  -1.868  0.00  0.00     0.062 H 
BRANCH  32  35
ATOM     35  O   LIG d   1      11.110   3.496  -1.616  0.00  0.00    -0.389 OA
ATOM     36  H   LIG d   1      11.810   3.891  -1.078  0.00  0.00     0.210 HD
ENDBRANCH  32  35
ENDBRANCH   5  32
TORSDOF 8
ENDMDL
MODEL 8
REMARK VINA RESULT:      -5.5      2.304      3.946
REMARK  8 active torsions:
REMARK  status: ('A' for Active; 'I' for Inactive)
REMARK    1  A    between atoms: C_4  and  C_7 
REMARK    2  A    between atoms: C_7  and  C_8 
REMARK    3  A    between atoms: C_8  and  C_9 
REMARK    4  A    between atoms: C_10  and  O_19 
REMARK    5  A    between atoms: C_11  and  C_17 
REMARK    6  A    between atoms: CA_13  and  C_15 
REMARK    7  A    between atoms: C_15  and  O_16 
REMARK    8  A    between atoms: C_17  and  O_18 
ROOT
ATOM      1  C   LIG d   1       3.904  -0.770  -7.690  0.00  0.00     0.084 A 
ATOM      2  C   LIG d   1       3.192  -1.499  -8.630  0.00  0.00     0.143 A 
ATOM      3  C   LIG d   1       2.762  -0.866  -9.792  0.00  0.00     0.023 A 
ATOM      4  C   LIG d   1       3.065   0.476  -9.961  0.00  0.00    -0.029 A 
ATOM      5  CA  LIG d   1       3.780   1.135  -8.978  0.00  0.00     0.067 A 
ATOM      6  N   LIG d   1       4.168   0.506  -7.886  0.00  0.00    -0.251 NA
ATOM      7  H   LIG d   1       2.749   1.000 -10.851  0.00  0.00     0.064 H 
ENDROOT
BRANCH   1   8
ATOM      8  C   LIG d   1       4.376  -1.443  -6.425  0.00  0.00    -0.003 C 
ATOM      9  H   LIG d   1       4.817  -2.409  -6.670  0.00  0.00     0.033 H 
ATOM     10  H   LIG d   1       3.529  -1.590  -5.754  0.00  0.00     0.033 H 
BRANCH   8  11
ATOM     11  C   LIG d   1       5.423  -0.563  -5.740  0.00  0.00    -0.022 C 
ATOM     12  H   LIG d   1       5.630   0.308  -6.363  0.00  0.00     0.032 H 
ATOM     13  H   LIG d   1       6.340  -1.134  -5.597  0.00  0.00     0.032 H 
BRANCH  11  14
ATOM     14  C   LIG d   1       4.900  -0.110  -4.401  0.00  0.00    -0.047 A 
ATOM     15  C   LIG d   1       3.588  -0.367  -4.049  0.00  0.00    -0.059 A 
ATOM     16  C   LIG d   1       3.109   0.047  -2.820  0.00  0.00    -0.061 A 
ATOM     17  H   LIG d   1       2.939  -0.893  -4.733  0.00  0.00     0.062 H 
ATOM     18  C   LIG d   1       3.941   0.720  -1.944  0.00  0.00    -0.062 A 
ATOM     19  H   LIG d   1       2.085  -0.153  -2.545  0.00  0.00     0.062 H 
ATOM     20  C   LIG d   1       5.253   0.976  -2.297  0.00  0.00    -0.061 A 
ATOM     21  H   LIG d   1       3.566   1.047  -0.987  0.00  0.00     0.062 H 
ATOM     22  C   LIG d   1       5.732   0.563  -3.526  0.00  0.00    -0.059 A 
ATOM     23  H   LIG d   1       5.903   1.501  -1.613  0.00  0.00     0.062 H 
ATOM     24  H   LIG d   1       6.757   0.763  -3.801  0.00  0.00     0.062 H 
ENDBRANCH  11  14
ENDBRANCH   8  11
ENDBRANCH   1   8
BRANCH   2  25
ATOM     25  O   LIG d   1       2.918  -2.814  -8.421  0.00  0.00    -0.505 OA
ATOM     26  H   LIG d   1       1.980  -3.037  -8.497  0.00  0.00     0.292 HD
ENDBRANCH   2  25
BRANCH   3  27
ATOM     27  C   LIG d   1       1.987  -1.620 -10.841  0.00  0.00     0.073 C 
ATOM     28  H   LIG d   1       1.729  -0.947 -11.657  0.00  0.00     0.061 H 
ATOM     29  H   LIG d   1       2.596  -2.439 -11.224  0.00  0.00     0.061 H 
BRANCH  27  30
ATOM     30  O   LIG d   1       0.791  -2.147 -10.261  0.00  0.00    -0.390 OA
ATOM     31  H   LIG d   1       0.178  -1.471  -9.940  0.00  0.00     0.210 HD
ENDBRANCH  27  30
ENDBRANCH   3  27
BRANCH   5  32
ATOM     32  C   LIG d   1       4.115   2.594  -9.154  0.00  0.00     0.086 C 
ATOM     33  H1  LIG d   1       3.606   2.979 -10.038  0.00  0.00     0.062 H 
ATOM     34  H2  LIG d   1       3.789   3.150  -8.276  0.00  0.00     0.062 H 
BRANCH  32  35
ATOM     35  O   LIG d   1       5.527   2.742  -9.315  0.00  0.00    -0.389 OA
ATOM     36  H   LIG d   1       5.869   3.595  -9.013  0.00  0.00     0.210 HD
ENDBRANCH  32  35
ENDBRANCH   5  32
TORSDOF 8
ENDMDL
MODEL 9
REMARK VINA RESULT:      -5.4      1.914      3.407
REMARK  8 active torsions:
REMARK  status: ('A' for Active; 'I' for Inactive)
REMARK    1  A    between atoms: C_4  and  C_7 
REMARK    2  A    between atoms: C_7  and  C_8 
REMARK    3  A    between atoms: C_8  and  C_9 
REMARK    4  A    between atoms: C_10  and  O_19 
REMARK    5  A    between atoms: C_11  and  C_17 
REMARK    6  A    between atoms: CA_13  and  C_15 
REMARK    7  A    between atoms: C_15  and  O_16 
REMARK    8  A    between atoms: C_17  and  O_18 
ROOT
ATOM      1  C   LIG d   1       6.285  -1.129  -6.327  0.00  0.00     0.084 A 
ATOM      2  C   LIG d   1       4.925  -1.152  -6.596  0.00  0.00     0.143 A 
ATOM      3  C   LIG d   1       4.408  -0.274  -7.544  0.00  0.00     0.023 A 
ATOM      4  C   LIG d   1       5.280   0.593  -8.182  0.00  0.00    -0.029 A 
ATOM      5  CA  LIG d   1       6.624   0.557  -7.860  0.00  0.00     0.067 A 
ATOM      6  N   LIG d   1       7.080  -0.284  -6.953  0.00  0.00    -0.251 NA
ATOM      7  H   LIG d   1       4.915   1.288  -8.924  0.00  0.00     0.064 H 
ENDROOT
BRANCH   1   8
ATOM      8  C   LIG d   1       6.860  -2.074  -5.302  0.00  0.00    -0.003 C 
ATOM      9  H   LIG d   1       7.660  -2.658  -5.755  0.00  0.00     0.033 H 
ATOM     10  H   LIG d   1       6.077  -2.745  -4.948  0.00  0.00     0.033 H 
BRANCH   8  11
ATOM     11  C   LIG d   1       7.416  -1.271  -4.125  0.00  0.00    -0.022 C 
ATOM     12  H   LIG d   1       8.039  -0.459  -4.501  0.00  0.00     0.032 H 
ATOM     13  H   LIG d   1       8.014  -1.924  -3.490  0.00  0.00     0.032 H 
BRANCH  11  14
ATOM     14  C   LIG d   1       6.275  -0.699  -3.323  0.00  0.00    -0.047 A 
ATOM     15  C   LIG d   1       6.133   0.670  -3.201  0.00  0.00    -0.059 A 
ATOM     16  C   LIG d   1       5.086   1.194  -2.467  0.00  0.00    -0.061 A 
ATOM     17  H   LIG d   1       6.841   1.330  -3.681  0.00  0.00     0.062 H 
ATOM     18  C   LIG d   1       4.180   0.348  -1.855  0.00  0.00    -0.062 A 
ATOM     19  H   LIG d   1       4.975   2.263  -2.372  0.00  0.00     0.062 H 
ATOM     20  C   LIG d   1       4.321  -1.022  -1.977  0.00  0.00    -0.061 A 
ATOM     21  H   LIG d   1       3.364   0.757  -1.278  0.00  0.00     0.062 H 
ATOM     22  C   LIG d   1       5.369  -1.546  -2.710  0.00  0.00    -0.059 A 
ATOM     23  H   LIG d   1       3.614  -1.683  -1.499  0.00  0.00     0.062 H 
ATOM     24  H   LIG d   1       5.480  -2.616  -2.806  0.00  0.00     0.062 H 
ENDBRANCH  11  14
ENDBRANCH   8  11
ENDBRANCH   1   8
BRANCH   2  25
ATOM     25  O   LIG d   1       4.108  -2.021  -5.944  0.00  0.00    -0.505 OA
ATOM     26  H   LIG d   1       3.738  -1.672  -5.122  0.00  0.00     0.292 HD
ENDBRANCH   2  25
BRANCH   3  27
ATOM     27  C   LIG d   1       2.937  -0.267  -7.868  0.00  0.00     0.073 C 
ATOM     28  H   LIG d   1       2.715   0.563  -8.537  0.00  0.00     0.061 H 
ATOM     29  H   LIG d   1       2.667  -1.205  -8.352  0.00  0.00     0.061 H 
BRANCH  27  30
ATOM     30  O   LIG d   1       2.184  -0.120  -6.661  0.00  0.00    -0.390 OA
ATOM     31  H   LIG d   1       1.750   0.739  -6.570  0.00  0.00     0.210 HD
ENDBRANCH  27  30
ENDBRANCH   3  27
BRANCH   5  32
ATOM     32  C   LIG d   1       7.579   1.496  -8.550  0.00  0.00     0.086 C 
ATOM     33  H1  LIG d   1       8.235   1.956  -7.810  0.00  0.00     0.062 H 
ATOM     34  H2  LIG d   1       8.178   0.941  -9.272  0.00  0.00     0.062 H 
BRANCH  32  35
ATOM     35  O   LIG d   1       6.840   2.514  -9.227  0.00  0.00    -0.389 OA
ATOM     36  H   LIG d   1       6.050   2.809  -8.752  0.00  0.00     0.210 HD
ENDBRANCH  32  35
ENDBRANCH   5  32
TORSDOF 8
ENDMDL
MODEL 10
REMARK VINA RESULT:      -5.4      2.492      3.759
REMARK  8 active torsions:
REMARK  status: ('A' for Active; 'I' for Inactive)
REMARK    1  A    between atoms: C_4  and  C_7 
REMARK    2  A    between atoms: C_7  and  C_8 
REMARK    3  A    between atoms: C_8  and  C_9 
REMARK    4  A    between atoms: C_10  and  O_19 
REMARK    5  A    between atoms: C_11  and  C_17 
REMARK    6  A    between atoms: CA_13  and  C_15 
REMARK    7  A    between atoms: C_15  and  O_16 
REMARK    8  A    between atoms: C_17  and  O_18 
ROOT
ATOM      1  C   LIG d   1       6.219  -2.581  -4.799  0.00  0.00     0.084 A 
ATOM      2  C   LIG d   1       6.680  -1.483  -5.510  0.00  0.00     0.143 A 
ATOM      3  C   LIG d   1       8.050  -1.250  -5.579  0.00  0.00     0.023 A 
ATOM      4  C   LIG d   1       8.901  -2.130  -4.930  0.00  0.00    -0.029 A 
ATOM      5  CA  LIG d   1       8.365  -3.202  -4.241  0.00  0.00     0.067 A 
ATOM      6  N   LIG d   1       7.062  -3.391  -4.191  0.00  0.00    -0.251 NA
ATOM      7  H   LIG d   1       9.970  -1.981  -4.963  0.00  0.00     0.064 H 
ENDROOT
BRANCH   1   8
ATOM      8  C   LIG d   1       4.737  -2.846  -4.715  0.00  0.00    -0.003 C 
ATOM      9  H   LIG d   1       4.532  -3.867  -5.034  0.00  0.00     0.033 H 
ATOM     10  H   LIG d   1       4.206  -2.148  -5.362  0.00  0.00     0.033 H 
BRANCH   8  11
ATOM     11  C   LIG d   1       4.268  -2.659  -3.270  0.00  0.00    -0.022 C 
ATOM     12  H   LIG d   1       5.024  -3.052  -2.589  0.00  0.00     0.032 H 
ATOM     13  H   LIG d   1       3.331  -3.194  -3.121  0.00  0.00     0.032 H 
BRANCH  11  14
ATOM     14  C   LIG d   1       4.058  -1.192  -2.996  0.00  0.00    -0.047 A 
ATOM     15  C   LIG d   1       3.252  -0.442  -3.831  0.00  0.00    -0.059 A 
ATOM     16  C   LIG d   1       3.058   0.903  -3.579  0.00  0.00    -0.061 A 
ATOM     17  H   LIG d   1       2.773  -0.907  -4.680  0.00  0.00     0.062 H 
ATOM     18  C   LIG d   1       3.671   1.498  -2.491  0.00  0.00    -0.062 A 
ATOM     19  H   LIG d   1       2.429   1.490  -4.231  0.00  0.00     0.062 H 
ATOM     20  C   LIG d   1       4.476   0.747  -1.656  0.00  0.00    -0.061 A 
ATOM     21  H   LIG d   1       3.523   2.550  -2.297  0.00  0.00     0.062 H 
ATOM     22  C   LIG d   1       4.671  -0.598  -1.908  0.00  0.00    -0.059 A 
ATOM     23  H   LIG d   1       4.955   1.212  -0.806  0.00  0.00     0.062 H 
ATOM     24  H   LIG d   1       5.300  -1.184  -1.256  0.00  0.00     0.062 H 
ENDBRANCH  11  14
ENDBRANCH   8  11
ENDBRANCH   1   8
BRANCH   2  25
ATOM     25  O   LIG d   1       5.807  -0.647  -6.131  0.00  0.00    -0.505 OA
ATOM     26  H   LIG d   1       5.003  -1.082  -6.445  0.00  0.00     0.292 HD
ENDBRANCH   2  25
BRANCH   3  27
ATOM     27  C   LIG d   1       8.595  -0.070  -6.342  0.00  0.00     0.073 C 
ATOM     28  H   LIG d   1       8.201   0.852  -5.916  0.00  0.00     0.061 H 
ATOM     29  H   LIG d   1       9.683  -0.065  -6.275  0.00  0.00     0.061 H 
BRANCH  27  30
ATOM     30  O   LIG d   1       8.202  -0.167  -7.713  0.00  0.00    -0.390 OA
ATOM     31  H   LIG d   1       8.895   0.085  -8.340  0.00  0.00     0.210 HD
ENDBRANCH  27  30
ENDBRANCH   3  27
BRANCH   5  32
ATOM     32  C   LIG d   1       9.284  -4.164  -3.533  0.00  0.00     0.086 C 
ATOM     33  H1  LIG d   1       8.717  -4.735  -2.798  0.00  0.00     0.062 H 
ATOM     34  H2  LIG d   1       9.727  -4.846  -4.259  0.00  0.00     0.062 H 
BRANCH  32  35
ATOM     35  O   LIG d   1      10.320  -3.434  -2.871  0.00  0.00    -0.389 OA
ATOM     36  H   LIG d   1      10.006  -2.655  -2.391  0.00  0.00     0.210 HD
ENDBRANCH  32  35
ENDBRANCH   5  32
TORSDOF 8
ENDMDL
