MODEL 1
REMARK VINA RESULT:      -6.7      0.000      0.000
REMARK  4 active torsions:
REMARK  status: ('A' for Active; 'I' for Inactive)
REMARK    1  A    between atoms: C_1  and  C_2 
REMARK    2  A    between atoms: C_2  and  C_3 
REMARK    3  A    between atoms: C_8  and  O_9 
REMARK    4  A    between atoms: C_12  and  C_15 
ROOT
ATOM      1  C   LIG d   1       5.797  -2.075  -3.986  0.00  0.00    -0.005 A 
ATOM      2  C   LIG d   1       6.021  -0.751  -3.732  0.00  0.00    -0.041 A 
ATOM      3  C   LIG d   1       7.234  -0.170  -4.103  0.00  0.00     0.065 A 
ATOM      4  C   LIG d   1       8.226  -0.939  -4.737  0.00  0.00     0.142 A 
ATOM      5  C   LIG d   1       7.982  -2.283  -4.988  0.00  0.00     0.023 A 
ATOM      6  C   LIG d   1       6.773  -2.845  -4.614  0.00  0.00     0.123 A 
ATOM      7  O   LIG d   1       9.397  -0.377  -5.096  0.00  0.00    -0.462 OA
ATOM      8  C   LIG d   1       9.688   0.908  -4.888  0.00  0.00     0.105 A 
ATOM      9  C   LIG d   1       8.823   1.764  -4.279  0.00  0.00     0.082 A 
ATOM     10  C   LIG d   1       7.510   1.255  -3.846  0.00  0.00     0.202 A 
ATOM     11  O   LIG d   1       6.693   1.976  -3.301  0.00  0.00    -0.286 OA
ATOM     12  H   LIG d   1       5.262  -0.156  -3.246  0.00  0.00     0.063 H 
ATOM     13  H   LIG d   1       8.734  -2.888  -5.473  0.00  0.00     0.069 H 
ATOM     14  H   LIG d   1      10.648   1.282  -5.209  0.00  0.00     0.104 H 
ENDROOT
BRANCH   9  15
ATOM     15  C   LIG d   1       9.191   3.182  -4.063  0.00  0.00     0.078 A 
ATOM     16  N   LIG d   1       9.660   3.555  -2.887  0.00  0.00    -0.246 NA
ATOM     17  C   LIG d   1      10.004   4.824  -2.649  0.00  0.00     0.072 A 
ATOM     18  C   LIG d   1       9.869   5.798  -3.670  0.00  0.00     0.000 A 
ATOM     19  C   LIG d   1      10.502   5.215  -1.394  0.00  0.00    -0.036 A 
ATOM     20  C   LIG d   1       9.368   5.407  -4.930  0.00  0.00    -0.051 A 
ATOM     21  C   LIG d   1      10.232   7.128  -3.412  0.00  0.00    -0.053 A 
ATOM     22  C   LIG d   1       9.033   4.100  -5.115  0.00  0.00    -0.035 A 
ATOM     23  H   LIG d   1       9.253   6.128  -5.727  0.00  0.00     0.062 H 
ATOM     24  H   LIG d   1       8.649   3.770  -6.069  0.00  0.00     0.064 H 
ATOM     25  C   LIG d   1      10.711   7.470  -2.183  0.00  0.00    -0.061 A 
ATOM     26  H   LIG d   1      10.132   7.878  -4.183  0.00  0.00     0.062 H 
ATOM     27  C   LIG d   1      10.851   6.514  -1.180  0.00  0.00    -0.060 A 
ATOM     28  H   LIG d   1      10.990   8.494  -1.986  0.00  0.00     0.062 H 
ATOM     29  H   LIG d   1      11.238   6.808  -0.216  0.00  0.00     0.062 H 
ATOM     30  H   LIG d   1      10.613   4.487  -0.603  0.00  0.00     0.064 H 
ENDBRANCH   9  15
BRANCH   1  31
ATOM     31  C   LIG d   1       4.487  -2.704  -3.586  0.00  0.00    -0.027 C 
ATOM     32  H   LIG d   1       3.777  -2.615  -4.408  0.00  0.00     0.031 H 
ATOM     33  H   LIG d   1       4.647  -3.759  -3.357  0.00  0.00     0.031 H 
BRANCH  31  34
ATOM     34  C   LIG d   1       3.933  -1.991  -2.352  0.00  0.00    -0.061 C 
ATOM     35  H   LIG d   1       4.559  -2.219  -1.489  0.00  0.00     0.023 H 
ATOM     36  H   LIG d   1       3.929  -0.915  -2.525  0.00  0.00     0.023 H 
ATOM     37  H   LIG d   1       2.915  -2.332  -2.161  0.00  0.00     0.023 H 
ENDBRANCH  31  34
ENDBRANCH   1  31
BRANCH   6  38
ATOM     38  O   LIG d   1       6.537  -4.158  -4.860  0.00  0.00    -0.506 OA
ATOM     39  H   LIG d   1       5.601  -4.403  -4.832  0.00  0.00     0.292 HD
ENDBRANCH   6  38
TORSDOF 4
ENDMDL
MODEL 2
REMARK VINA RESULT:      -6.7      2.780      7.728
REMARK  4 active torsions:
REMARK  status: ('A' for Active; 'I' for Inactive)
REMARK    1  A    between atoms: C_1  and  C_2 
REMARK    2  A    between atoms: C_2  and  C_3 
REMARK    3  A    between atoms: C_8  and  O_9 
REMARK    4  A    between atoms: C_12  and  C_15 
ROOT
ATOM      1  C   LIG d   1      10.569   4.695  -7.615  0.00  0.00    -0.005 A 
ATOM      2  C   LIG d   1       9.607   3.756  -7.370  0.00  0.00    -0.041 A 
ATOM      3  C   LIG d   1       9.445   3.250  -6.080  0.00  0.00     0.065 A 
ATOM      4  C   LIG d   1      10.266   3.702  -5.031  0.00  0.00     0.142 A 
ATOM      5  C   LIG d   1      11.238   4.657  -5.298  0.00  0.00     0.023 A 
ATOM      6  C   LIG d   1      11.387   5.149  -6.584  0.00  0.00     0.123 A 
ATOM      7  O   LIG d   1      10.109   3.213  -3.786  0.00  0.00    -0.462 OA
ATOM      8  C   LIG d   1       9.189   2.300  -3.467  0.00  0.00     0.105 A 
ATOM      9  C   LIG d   1       8.334   1.772  -4.383  0.00  0.00     0.082 A 
ATOM     10  C   LIG d   1       8.418   2.237  -5.780  0.00  0.00     0.202 A 
ATOM     11  O   LIG d   1       7.675   1.804  -6.643  0.00  0.00    -0.286 OA
ATOM     12  H   LIG d   1       8.974   3.406  -8.173  0.00  0.00     0.063 H 
ATOM     13  H   LIG d   1      11.878   5.013  -4.504  0.00  0.00     0.069 H 
ATOM     14  H   LIG d   1       9.125   1.963  -2.443  0.00  0.00     0.104 H 
ENDROOT
BRANCH   9  15
ATOM     15  C   LIG d   1       7.333   0.756  -3.985  0.00  0.00     0.078 A 
ATOM     16  N   LIG d   1       6.105   1.140  -3.693  0.00  0.00    -0.246 NA
ATOM     17  C   LIG d   1       5.170   0.257  -3.328  0.00  0.00     0.072 A 
ATOM     18  C   LIG d   1       5.492  -1.121  -3.251  0.00  0.00     0.000 A 
ATOM     19  C   LIG d   1       3.864   0.673  -3.018  0.00  0.00    -0.036 A 
ATOM     20  C   LIG d   1       6.802  -1.540  -3.562  0.00  0.00    -0.051 A 
ATOM     21  C   LIG d   1       4.505  -2.043  -2.868  0.00  0.00    -0.053 A 
ATOM     22  C   LIG d   1       7.713  -0.595  -3.926  0.00  0.00    -0.035 A 
ATOM     23  H   LIG d   1       7.076  -2.584  -3.511  0.00  0.00     0.062 H 
ATOM     24  H   LIG d   1       8.724  -0.885  -4.171  0.00  0.00     0.064 H 
ATOM     25  C   LIG d   1       3.250  -1.602  -2.574  0.00  0.00    -0.061 A 
ATOM     26  H   LIG d   1       4.740  -3.095  -2.805  0.00  0.00     0.062 H 
ATOM     27  C   LIG d   1       2.930  -0.248  -2.656  0.00  0.00    -0.060 A 
ATOM     28  H   LIG d   1       2.492  -2.313  -2.280  0.00  0.00     0.062 H 
ATOM     29  H   LIG d   1       1.927   0.075  -2.423  0.00  0.00     0.062 H 
ATOM     30  H   LIG d   1       3.601   1.719  -3.071  0.00  0.00     0.064 H 
ENDBRANCH   9  15
BRANCH   1  31
ATOM     31  C   LIG d   1      10.745   5.243  -9.008  0.00  0.00    -0.027 C 
ATOM     32  H   LIG d   1      11.567   5.959  -9.015  0.00  0.00     0.031 H 
ATOM     33  H   LIG d   1      10.970   4.425  -9.694  0.00  0.00     0.031 H 
BRANCH  31  34
ATOM     34  C   LIG d   1       9.457   5.940  -9.449  0.00  0.00    -0.061 C 
ATOM     35  H   LIG d   1       8.982   5.359 -10.240  0.00  0.00     0.023 H 
ATOM     36  H   LIG d   1       8.779   6.022  -8.600  0.00  0.00     0.023 H 
ATOM     37  H   LIG d   1       9.693   6.937  -9.823  0.00  0.00     0.023 H 
ENDBRANCH  31  34
ENDBRANCH   1  31
BRANCH   6  38
ATOM     38  O   LIG d   1      12.338   6.082  -6.840  0.00  0.00    -0.506 OA
ATOM     39  H   LIG d   1      12.051   6.992  -6.677  0.00  0.00     0.292 HD
ENDBRANCH   6  38
TORSDOF 4
ENDMDL
MODEL 3
REMARK VINA RESULT:      -6.5      6.697      8.791
REMARK  4 active torsions:
REMARK  status: ('A' for Active; 'I' for Inactive)
REMARK    1  A    between atoms: C_1  and  C_2 
REMARK    2  A    between atoms: C_2  and  C_3 
REMARK    3  A    between atoms: C_8  and  O_9 
REMARK    4  A    between atoms: C_12  and  C_15 
ROOT
ATOM      1  C   LIG d   1       2.787  -1.549 -12.977  0.00  0.00    -0.005 A 
ATOM      2  C   LIG d   1       2.511  -1.639 -11.642  0.00  0.00    -0.041 A 
ATOM      3  C   LIG d   1       3.294  -0.939 -10.724  0.00  0.00     0.065 A 
ATOM      4  C   LIG d   1       4.364  -0.140 -11.166  0.00  0.00     0.142 A 
ATOM      5  C   LIG d   1       4.630  -0.060 -12.526  0.00  0.00     0.023 A 
ATOM      6  C   LIG d   1       3.844  -0.761 -13.425  0.00  0.00     0.123 A 
ATOM      7  O   LIG d   1       5.120   0.536 -10.278  0.00  0.00    -0.462 OA
ATOM      8  C   LIG d   1       4.910   0.503  -8.961  0.00  0.00     0.105 A 
ATOM      9  C   LIG d   1       3.914  -0.233  -8.397  0.00  0.00     0.082 A 
ATOM     10  C   LIG d   1       3.025  -1.013  -9.277  0.00  0.00     0.202 A 
ATOM     11  O   LIG d   1       2.114  -1.686  -8.829  0.00  0.00    -0.286 OA
ATOM     12  H   LIG d   1       1.690  -2.251 -11.298  0.00  0.00     0.063 H 
ATOM     13  H   LIG d   1       5.449   0.548 -12.882  0.00  0.00     0.069 H 
ATOM     14  H   LIG d   1       5.559   1.078  -8.317  0.00  0.00     0.104 H 
ENDROOT
BRANCH   9  15
ATOM     15  C   LIG d   1       3.722  -0.244  -6.929  0.00  0.00     0.078 A 
ATOM     16  N   LIG d   1       4.540  -0.957  -6.177  0.00  0.00    -0.246 NA
ATOM     17  C   LIG d   1       4.403  -0.996  -4.848  0.00  0.00     0.072 A 
ATOM     18  C   LIG d   1       3.365  -0.261  -4.222  0.00  0.00     0.000 A 
ATOM     19  C   LIG d   1       5.277  -1.757  -4.053  0.00  0.00    -0.036 A 
ATOM     20  C   LIG d   1       2.487   0.503  -5.018  0.00  0.00    -0.051 A 
ATOM     21  C   LIG d   1       3.228  -0.307  -2.826  0.00  0.00    -0.053 A 
ATOM     22  C   LIG d   1       2.674   0.504  -6.367  0.00  0.00    -0.035 A 
ATOM     23  H   LIG d   1       1.686   1.072  -4.569  0.00  0.00     0.062 H 
ATOM     24  H   LIG d   1       2.019   1.081  -7.004  0.00  0.00     0.064 H 
ATOM     25  C   LIG d   1       4.094  -1.057  -2.089  0.00  0.00    -0.061 A 
ATOM     26  H   LIG d   1       2.440   0.248  -2.339  0.00  0.00     0.062 H 
ATOM     27  C   LIG d   1       5.119  -1.775  -2.701  0.00  0.00    -0.060 A 
ATOM     28  H   LIG d   1       3.987  -1.091  -1.014  0.00  0.00     0.062 H 
ATOM     29  H   LIG d   1       5.795  -2.357  -2.094  0.00  0.00     0.062 H 
ATOM     30  H   LIG d   1       6.074  -2.323  -4.512  0.00  0.00     0.064 H 
ENDBRANCH   9  15
BRANCH   1  31
ATOM     31  C   LIG d   1       1.942  -2.305 -13.971  0.00  0.00    -0.027 C 
ATOM     32  H   LIG d   1       2.024  -1.832 -14.949  0.00  0.00     0.031 H 
ATOM     33  H   LIG d   1       2.292  -3.336 -14.035  0.00  0.00     0.031 H 
BRANCH  31  34
ATOM     34  C   LIG d   1       0.482  -2.288 -13.515  0.00  0.00    -0.061 C 
ATOM     35  H   LIG d   1      -0.163  -2.088 -14.371  0.00  0.00     0.023 H 
ATOM     36  H   LIG d   1       0.225  -3.256 -13.085  0.00  0.00     0.023 H 
ATOM     37  H   LIG d   1       0.344  -1.508 -12.766  0.00  0.00     0.023 H 
ENDBRANCH  31  34
ENDBRANCH   1  31
BRANCH   6  38
ATOM     38  O   LIG d   1       4.107  -0.680 -14.754  0.00  0.00    -0.506 OA
ATOM     39  H   LIG d   1       4.838  -1.242 -15.046  0.00  0.00     0.292 HD
ENDBRANCH   6  38
TORSDOF 4
ENDMDL
MODEL 4
REMARK VINA RESULT:      -6.4      2.502      7.776
REMARK  4 active torsions:
REMARK  status: ('A' for Active; 'I' for Inactive)
REMARK    1  A    between atoms: C_1  and  C_2 
REMARK    2  A    between atoms: C_2  and  C_3 
REMARK    3  A    between atoms: C_8  and  O_9 
REMARK    4  A    between atoms: C_12  and  C_15 
ROOT
ATOM      1  C   LIG d   1      10.858   5.429  -5.523  0.00  0.00    -0.005 A 
ATOM      2  C   LIG d   1      10.117   4.568  -4.764  0.00  0.00    -0.041 A 
ATOM      3  C   LIG d   1       9.435   3.516  -5.377  0.00  0.00     0.065 A 
ATOM      4  C   LIG d   1       9.508   3.337  -6.770  0.00  0.00     0.142 A 
ATOM      5  C   LIG d   1      10.267   4.222  -7.525  0.00  0.00     0.023 A 
ATOM      6  C   LIG d   1      10.937   5.261  -6.903  0.00  0.00     0.123 A 
ATOM      7  O   LIG d   1       8.850   2.320  -7.361  0.00  0.00    -0.462 OA
ATOM      8  C   LIG d   1       8.112   1.436  -6.689  0.00  0.00     0.105 A 
ATOM      9  C   LIG d   1       7.949   1.494  -5.339  0.00  0.00     0.082 A 
ATOM     10  C   LIG d   1       8.626   2.567  -4.590  0.00  0.00     0.202 A 
ATOM     11  O   LIG d   1       8.522   2.666  -3.380  0.00  0.00    -0.286 OA
ATOM     12  H   LIG d   1      10.057   4.701  -3.694  0.00  0.00     0.063 H 
ATOM     13  H   LIG d   1      10.332   4.099  -8.597  0.00  0.00     0.069 H 
ATOM     14  H   LIG d   1       7.619   0.647  -7.237  0.00  0.00     0.104 H 
ENDROOT
BRANCH   9  15
ATOM     15  C   LIG d   1       7.114   0.493  -4.636  0.00  0.00     0.078 A 
ATOM     16  N   LIG d   1       5.853   0.779  -4.367  0.00  0.00    -0.246 NA
ATOM     17  C   LIG d   1       5.065  -0.094  -3.734  0.00  0.00     0.072 A 
ATOM     18  C   LIG d   1       5.579  -1.354  -3.339  0.00  0.00     0.000 A 
ATOM     19  C   LIG d   1       3.723   0.217  -3.451  0.00  0.00    -0.036 A 
ATOM     20  C   LIG d   1       6.924  -1.667  -3.622  0.00  0.00    -0.051 A 
ATOM     21  C   LIG d   1       4.744  -2.266  -2.674  0.00  0.00    -0.053 A 
ATOM     22  C   LIG d   1       7.681  -0.738  -4.269  0.00  0.00    -0.035 A 
ATOM     23  H   LIG d   1       7.344  -2.620  -3.332  0.00  0.00     0.062 H 
ATOM     24  H   LIG d   1       8.715  -0.949  -4.501  0.00  0.00     0.064 H 
ATOM     25  C   LIG d   1       3.449  -1.929  -2.416  0.00  0.00    -0.061 A 
ATOM     26  H   LIG d   1       5.126  -3.228  -2.368  0.00  0.00     0.062 H 
ATOM     27  C   LIG d   1       2.940  -0.693  -2.810  0.00  0.00    -0.060 A 
ATOM     28  H   LIG d   1       2.808  -2.632  -1.905  0.00  0.00     0.062 H 
ATOM     29  H   LIG d   1       1.909  -0.452  -2.598  0.00  0.00     0.062 H 
ATOM     30  H   LIG d   1       3.314   1.173  -3.744  0.00  0.00     0.064 H 
ENDBRANCH   9  15
BRANCH   1  31
ATOM     31  C   LIG d   1      11.595   6.566  -4.862  0.00  0.00    -0.027 C 
ATOM     32  H   LIG d   1      12.315   6.987  -5.564  0.00  0.00     0.031 H 
ATOM     33  H   LIG d   1      10.883   7.337  -4.567  0.00  0.00     0.031 H 
BRANCH  31  34
ATOM     34  C   LIG d   1      12.329   6.048  -3.625  0.00  0.00    -0.061 C 
ATOM     35  H   LIG d   1      11.609   5.848  -2.832  0.00  0.00     0.023 H 
ATOM     36  H   LIG d   1      12.860   5.130  -3.875  0.00  0.00     0.023 H 
ATOM     37  H   LIG d   1      13.043   6.799  -3.285  0.00  0.00     0.023 H 
ENDBRANCH  31  34
ENDBRANCH   1  31
BRANCH   6  38
ATOM     38  O   LIG d   1      11.678   6.123  -7.644  0.00  0.00    -0.506 OA
ATOM     39  H   LIG d   1      12.287   6.665  -7.124  0.00  0.00     0.292 HD
ENDBRANCH   6  38
TORSDOF 4
ENDMDL
MODEL 5
REMARK VINA RESULT:      -6.3      6.318      8.310
REMARK  4 active torsions:
REMARK  status: ('A' for Active; 'I' for Inactive)
REMARK    1  A    between atoms: C_1  and  C_2 
REMARK    2  A    between atoms: C_2  and  C_3 
REMARK    3  A    between atoms: C_8  and  O_9 
REMARK    4  A    between atoms: C_12  and  C_15 
ROOT
ATOM      1  C   LIG d   1       1.875  -3.420 -11.676  0.00  0.00    -0.005 A 
ATOM      2  C   LIG d   1       2.502  -3.338 -10.465  0.00  0.00    -0.041 A 
ATOM      3  C   LIG d   1       2.637  -2.100  -9.837  0.00  0.00     0.065 A 
ATOM      4  C   LIG d   1       2.130  -0.936 -10.444  0.00  0.00     0.142 A 
ATOM      5  C   LIG d   1       1.495  -1.038 -11.675  0.00  0.00     0.023 A 
ATOM      6  C   LIG d   1       1.369  -2.274 -12.285  0.00  0.00     0.123 A 
ATOM      7  O   LIG d   1       2.261   0.260  -9.836  0.00  0.00    -0.462 OA
ATOM      8  C   LIG d   1       2.854   0.420  -8.652  0.00  0.00     0.105 A 
ATOM      9  C   LIG d   1       3.394  -0.618  -7.958  0.00  0.00     0.082 A 
ATOM     10  C   LIG d   1       3.307  -1.974  -8.530  0.00  0.00     0.202 A 
ATOM     11  O   LIG d   1       3.767  -2.942  -7.952  0.00  0.00    -0.286 OA
ATOM     12  H   LIG d   1       2.892  -4.229  -9.995  0.00  0.00     0.063 H 
ATOM     13  H   LIG d   1       1.102  -0.154 -12.154  0.00  0.00     0.069 H 
ATOM     14  H   LIG d   1       2.914   1.413  -8.232  0.00  0.00     0.104 H 
ENDROOT
BRANCH   9  15
ATOM     15  C   LIG d   1       4.049  -0.392  -6.650  0.00  0.00     0.078 A 
ATOM     16  N   LIG d   1       3.325   0.030  -5.630  0.00  0.00    -0.246 NA
ATOM     17  C   LIG d   1       3.876   0.248  -4.432  0.00  0.00     0.072 A 
ATOM     18  C   LIG d   1       5.262   0.023  -4.239  0.00  0.00     0.000 A 
ATOM     19  C   LIG d   1       3.099   0.697  -3.350  0.00  0.00    -0.036 A 
ATOM     20  C   LIG d   1       6.043  -0.428  -5.324  0.00  0.00    -0.051 A 
ATOM     21  C   LIG d   1       5.833   0.254  -2.978  0.00  0.00    -0.053 A 
ATOM     22  C   LIG d   1       5.428  -0.631  -6.522  0.00  0.00    -0.035 A 
ATOM     23  H   LIG d   1       7.102  -0.606  -5.207  0.00  0.00     0.062 H 
ATOM     24  H   LIG d   1       5.998  -0.977  -7.371  0.00  0.00     0.064 H 
ATOM     25  C   LIG d   1       5.048   0.690  -1.953  0.00  0.00    -0.061 A 
ATOM     26  H   LIG d   1       6.888   0.087  -2.821  0.00  0.00     0.062 H 
ATOM     27  C   LIG d   1       3.684   0.905  -2.138  0.00  0.00    -0.060 A 
ATOM     28  H   LIG d   1       5.489   0.867  -0.983  0.00  0.00     0.062 H 
ATOM     29  H   LIG d   1       3.083   1.246  -1.309  0.00  0.00     0.062 H 
ATOM     30  H   LIG d   1       2.041   0.874  -3.478  0.00  0.00     0.064 H 
ENDBRANCH   9  15
BRANCH   1  31
ATOM     31  C   LIG d   1       1.727  -4.757 -12.355  0.00  0.00    -0.027 C 
ATOM     32  H   LIG d   1       1.523  -4.605 -13.415  0.00  0.00     0.031 H 
ATOM     33  H   LIG d   1       2.652  -5.326 -12.242  0.00  0.00     0.031 H 
BRANCH  31  34
ATOM     34  C   LIG d   1       0.571  -5.530 -11.718  0.00  0.00    -0.061 C 
ATOM     35  H   LIG d   1       0.111  -6.176 -12.464  0.00  0.00     0.023 H 
ATOM     36  H   LIG d   1       0.949  -6.135 -10.894  0.00  0.00     0.023 H 
ATOM     37  H   LIG d   1      -0.171  -4.825 -11.340  0.00  0.00     0.023 H 
ENDBRANCH  31  34
ENDBRANCH   1  31
BRANCH   6  38
ATOM     38  O   LIG d   1       0.748  -2.370 -13.487  0.00  0.00    -0.506 OA
ATOM     39  H   LIG d   1       0.422  -1.526 -13.830  0.00  0.00     0.292 HD
ENDBRANCH   6  38
TORSDOF 4
ENDMDL
MODEL 6
REMARK VINA RESULT:      -6.2      5.974      8.464
REMARK  4 active torsions:
REMARK  status: ('A' for Active; 'I' for Inactive)
REMARK    1  A    between atoms: C_1  and  C_2 
REMARK    2  A    between atoms: C_2  and  C_3 
REMARK    3  A    between atoms: C_8  and  O_9 
REMARK    4  A    between atoms: C_12  and  C_15 
ROOT
ATOM      1  C   LIG d   1       5.558  -0.839 -12.498  0.00  0.00    -0.005 A 
ATOM      2  C   LIG d   1       5.859  -0.950 -11.170  0.00  0.00    -0.041 A 
ATOM      3  C   LIG d   1       4.837  -0.897 -10.222  0.00  0.00     0.065 A 
ATOM      4  C   LIG d   1       3.500  -0.730 -10.626  0.00  0.00     0.142 A 
ATOM      5  C   LIG d   1       3.213  -0.619 -11.980  0.00  0.00     0.023 A 
ATOM      6  C   LIG d   1       4.238  -0.674 -12.909  0.00  0.00     0.123 A 
ATOM      7  O   LIG d   1       2.514  -0.679  -9.709  0.00  0.00    -0.462 OA
ATOM      8  C   LIG d   1       2.727  -0.785  -8.396  0.00  0.00     0.105 A 
ATOM      9  C   LIG d   1       3.970  -0.944  -7.868  0.00  0.00     0.082 A 
ATOM     10  C   LIG d   1       5.124  -1.014  -8.781  0.00  0.00     0.202 A 
ATOM     11  O   LIG d   1       6.260  -1.160  -8.365  0.00  0.00    -0.286 OA
ATOM     12  H   LIG d   1       6.884  -1.079 -10.855  0.00  0.00     0.063 H 
ATOM     13  H   LIG d   1       2.191  -0.489 -12.307  0.00  0.00     0.069 H 
ATOM     14  H   LIG d   1       1.880  -0.739  -7.728  0.00  0.00     0.104 H 
ENDROOT
BRANCH   9  15
ATOM     15  C   LIG d   1       4.159  -1.051  -6.403  0.00  0.00     0.078 A 
ATOM     16  N   LIG d   1       3.907  -0.004  -5.641  0.00  0.00    -0.246 NA
ATOM     17  C   LIG d   1       4.064  -0.056  -4.315  0.00  0.00     0.072 A 
ATOM     18  C   LIG d   1       4.509  -1.255  -3.703  0.00  0.00     0.000 A 
ATOM     19  C   LIG d   1       3.794   1.063  -3.509  0.00  0.00    -0.036 A 
ATOM     20  C   LIG d   1       4.781  -2.380  -4.510  0.00  0.00    -0.051 A 
ATOM     21  C   LIG d   1       4.672  -1.303  -2.310  0.00  0.00    -0.053 A 
ATOM     22  C   LIG d   1       4.603  -2.267  -5.855  0.00  0.00    -0.035 A 
ATOM     23  H   LIG d   1       5.122  -3.306  -4.071  0.00  0.00     0.062 H 
ATOM     24  H   LIG d   1       4.802  -3.111  -6.500  0.00  0.00     0.064 H 
ATOM     25  C   LIG d   1       4.401  -0.197  -1.562  0.00  0.00    -0.061 A 
ATOM     26  H   LIG d   1       5.011  -2.211  -1.833  0.00  0.00     0.062 H 
ATOM     27  C   LIG d   1       3.957   0.980  -2.160  0.00  0.00    -0.060 A 
ATOM     28  H   LIG d   1       4.527  -0.236  -0.489  0.00  0.00     0.062 H 
ATOM     29  H   LIG d   1       3.744   1.841  -1.545  0.00  0.00     0.062 H 
ATOM     30  H   LIG d   1       3.454   1.985  -3.958  0.00  0.00     0.064 H 
ENDBRANCH   9  15
BRANCH   1  31
ATOM     31  C   LIG d   1       6.661  -0.897 -13.525  0.00  0.00    -0.027 C 
ATOM     32  H   LIG d   1       6.320  -0.432 -14.450  0.00  0.00     0.031 H 
ATOM     33  H   LIG d   1       7.534  -0.362 -13.150  0.00  0.00     0.031 H 
BRANCH  31  34
ATOM     34  C   LIG d   1       7.032  -2.356 -13.793  0.00  0.00    -0.061 C 
ATOM     35  H   LIG d   1       6.441  -2.734 -14.627  0.00  0.00     0.023 H 
ATOM     36  H   LIG d   1       8.092  -2.422 -14.037  0.00  0.00     0.023 H 
ATOM     37  H   LIG d   1       6.826  -2.953 -12.903  0.00  0.00     0.023 H 
ENDBRANCH  31  34
ENDBRANCH   1  31
BRANCH   6  38
ATOM     38  O   LIG d   1       3.953  -0.565 -14.231  0.00  0.00    -0.506 OA
ATOM     39  H   LIG d   1       4.311  -1.284 -14.771  0.00  0.00     0.292 HD
ENDBRANCH   6  38
TORSDOF 4
ENDMDL
MODEL 7
REMARK VINA RESULT:      -6.0      6.729      8.536
REMARK  4 active torsions:
REMARK  status: ('A' for Active; 'I' for Inactive)
REMARK    1  A    between atoms: C_1  and  C_2 
REMARK    2  A    between atoms: C_2  and  C_3 
REMARK    3  A    between atoms: C_8  and  O_9 
REMARK    4  A    between atoms: C_12  and  C_15 
ROOT
ATOM      1  C   LIG d   1       5.469  -8.819  -4.932  0.00  0.00    -0.005 A 
ATOM      2  C   LIG d   1       4.746  -7.726  -5.319  0.00  0.00    -0.041 A 
ATOM      3  C   LIG d   1       5.393  -6.510  -5.536  0.00  0.00     0.065 A 
ATOM      4  C   LIG d   1       6.785  -6.403  -5.361  0.00  0.00     0.142 A 
ATOM      5  C   LIG d   1       7.504  -7.524  -4.968  0.00  0.00     0.023 A 
ATOM      6  C   LIG d   1       6.848  -8.725  -4.757  0.00  0.00     0.123 A 
ATOM      7  O   LIG d   1       7.408  -5.227  -5.571  0.00  0.00    -0.462 OA
ATOM      8  C   LIG d   1       6.773  -4.118  -5.955  0.00  0.00     0.105 A 
ATOM      9  C   LIG d   1       5.429  -4.078  -6.155  0.00  0.00     0.082 A 
ATOM     10  C   LIG d   1       4.645  -5.310  -5.953  0.00  0.00     0.202 A 
ATOM     11  O   LIG d   1       3.439  -5.335  -6.122  0.00  0.00    -0.286 OA
ATOM     12  H   LIG d   1       3.677  -7.804  -5.455  0.00  0.00     0.063 H 
ATOM     13  H   LIG d   1       8.573  -7.459  -4.828  0.00  0.00     0.069 H 
ATOM     14  H   LIG d   1       7.348  -3.217  -6.106  0.00  0.00     0.104 H 
ENDROOT
BRANCH   9  15
ATOM     15  C   LIG d   1       4.765  -2.822  -6.574  0.00  0.00     0.078 A 
ATOM     16  N   LIG d   1       4.278  -2.727  -7.797  0.00  0.00    -0.246 NA
ATOM     17  C   LIG d   1       3.673  -1.612  -8.218  0.00  0.00     0.072 A 
ATOM     18  C   LIG d   1       3.543  -0.505  -7.342  0.00  0.00     0.000 A 
ATOM     19  C   LIG d   1       3.157  -1.517  -9.522  0.00  0.00    -0.036 A 
ATOM     20  C   LIG d   1       4.059  -0.599  -6.033  0.00  0.00    -0.051 A 
ATOM     21  C   LIG d   1       2.905   0.662  -7.790  0.00  0.00    -0.053 A 
ATOM     22  C   LIG d   1       4.668  -1.759  -5.661  0.00  0.00    -0.035 A 
ATOM     23  H   LIG d   1       3.976   0.230  -5.345  0.00  0.00     0.062 H 
ATOM     24  H   LIG d   1       5.073  -1.862  -4.664  0.00  0.00     0.064 H 
ATOM     25  C   LIG d   1       2.418   0.717  -9.062  0.00  0.00    -0.061 A 
ATOM     26  H   LIG d   1       2.801   1.512  -7.132  0.00  0.00     0.062 H 
ATOM     27  C   LIG d   1       2.539  -0.372  -9.922  0.00  0.00    -0.060 A 
ATOM     28  H   LIG d   1       1.927   1.616  -9.405  0.00  0.00     0.062 H 
ATOM     29  H   LIG d   1       2.141  -0.305 -10.923  0.00  0.00     0.062 H 
ATOM     30  H   LIG d   1       3.247  -2.351 -10.203  0.00  0.00     0.064 H 
ENDBRANCH   9  15
BRANCH   1  31
ATOM     31  C   LIG d   1       4.773 -10.135  -4.698  0.00  0.00    -0.027 C 
ATOM     32  H   LIG d   1       4.137 -10.367  -5.552  0.00  0.00     0.031 H 
ATOM     33  H   LIG d   1       5.517 -10.923  -4.575  0.00  0.00     0.031 H 
BRANCH  31  34
ATOM     34  C   LIG d   1       3.916 -10.041  -3.434  0.00  0.00    -0.061 C 
ATOM     35  H   LIG d   1       4.247 -10.790  -2.714  0.00  0.00     0.023 H 
ATOM     36  H   LIG d   1       4.018  -9.048  -2.999  0.00  0.00     0.023 H 
ATOM     37  H   LIG d   1       2.871 -10.221  -3.690  0.00  0.00     0.023 H 
ENDBRANCH  31  34
ENDBRANCH   1  31
BRANCH   6  38
ATOM     38  O   LIG d   1       7.554  -9.818  -4.374  0.00  0.00    -0.506 OA
ATOM     39  H   LIG d   1       7.178 -10.283  -3.613  0.00  0.00     0.292 HD
ENDBRANCH   6  38
TORSDOF 4
ENDMDL
MODEL 8
REMARK VINA RESULT:      -5.9      5.338      8.250
REMARK  4 active torsions:
REMARK  status: ('A' for Active; 'I' for Inactive)
REMARK    1  A    between atoms: C_1  and  C_2 
REMARK    2  A    between atoms: C_2  and  C_3 
REMARK    3  A    between atoms: C_8  and  O_9 
REMARK    4  A    between atoms: C_12  and  C_15 
ROOT
ATOM      1  C   LIG d   1       6.441  -9.350  -6.907  0.00  0.00    -0.005 A 
ATOM      2  C   LIG d   1       6.698  -8.157  -6.293  0.00  0.00    -0.041 A 
ATOM      3  C   LIG d   1       5.780  -7.112  -6.399  0.00  0.00     0.065 A 
ATOM      4  C   LIG d   1       4.592  -7.280  -7.134  0.00  0.00     0.142 A 
ATOM      5  C   LIG d   1       4.347  -8.499  -7.751  0.00  0.00     0.023 A 
ATOM      6  C   LIG d   1       5.268  -9.528  -7.637  0.00  0.00     0.123 A 
ATOM      7  O   LIG d   1       3.707  -6.269  -7.235  0.00  0.00    -0.462 OA
ATOM      8  C   LIG d   1       3.883  -5.078  -6.660  0.00  0.00     0.105 A 
ATOM      9  C   LIG d   1       4.988  -4.777  -5.927  0.00  0.00     0.082 A 
ATOM     10  C   LIG d   1       6.024  -5.811  -5.750  0.00  0.00     0.202 A 
ATOM     11  O   LIG d   1       7.032  -5.601  -5.099  0.00  0.00    -0.286 OA
ATOM     12  H   LIG d   1       7.608  -8.023  -5.727  0.00  0.00     0.063 H 
ATOM     13  H   LIG d   1       3.441  -8.644  -8.320  0.00  0.00     0.069 H 
ATOM     14  H   LIG d   1       3.122  -4.323  -6.787  0.00  0.00     0.104 H 
ENDROOT
BRANCH   9  15
ATOM     15  C   LIG d   1       5.145  -3.439  -5.312  0.00  0.00     0.078 A 
ATOM     16  N   LIG d   1       4.624  -3.212  -4.121  0.00  0.00    -0.246 NA
ATOM     17  C   LIG d   1       4.741  -2.019  -3.529  0.00  0.00     0.072 A 
ATOM     18  C   LIG d   1       5.437  -0.971  -4.183  0.00  0.00     0.000 A 
ATOM     19  C   LIG d   1       4.184  -1.783  -2.260  0.00  0.00    -0.036 A 
ATOM     20  C   LIG d   1       5.996  -1.206  -5.456  0.00  0.00    -0.051 A 
ATOM     21  C   LIG d   1       5.556   0.278  -3.555  0.00  0.00    -0.053 A 
ATOM     22  C   LIG d   1       5.845  -2.440  -6.010  0.00  0.00    -0.035 A 
ATOM     23  H   LIG d   1       6.530  -0.425  -5.978  0.00  0.00     0.062 H 
ATOM     24  H   LIG d   1       6.263  -2.652  -6.983  0.00  0.00     0.064 H 
ATOM     25  C   LIG d   1       5.002   0.470  -2.325  0.00  0.00    -0.061 A 
ATOM     26  H   LIG d   1       6.083   1.085  -4.044  0.00  0.00     0.062 H 
ATOM     27  C   LIG d   1       4.324  -0.561  -1.678  0.00  0.00    -0.060 A 
ATOM     28  H   LIG d   1       5.094   1.432  -1.843  0.00  0.00     0.062 H 
ATOM     29  H   LIG d   1       3.898  -0.385  -0.702  0.00  0.00     0.062 H 
ATOM     30  H   LIG d   1       3.651  -2.570  -1.747  0.00  0.00     0.064 H 
ENDBRANCH   9  15
BRANCH   1  31
ATOM     31  C   LIG d   1       7.430 -10.481  -6.793  0.00  0.00    -0.027 C 
ATOM     32  H   LIG d   1       7.243 -11.208  -7.583  0.00  0.00     0.031 H 
ATOM     33  H   LIG d   1       8.443 -10.088  -6.894  0.00  0.00     0.031 H 
BRANCH  31  34
ATOM     34  C   LIG d   1       7.278 -11.157  -5.429  0.00  0.00    -0.061 C 
ATOM     35  H   LIG d   1       6.966 -12.192  -5.570  0.00  0.00     0.023 H 
ATOM     36  H   LIG d   1       8.232 -11.132  -4.904  0.00  0.00     0.023 H 
ATOM     37  H   LIG d   1       6.526 -10.627  -4.844  0.00  0.00     0.023 H 
ENDBRANCH  31  34
ENDBRANCH   1  31
BRANCH   6  38
ATOM     38  O   LIG d   1       5.025 -10.718  -8.241  0.00  0.00    -0.506 OA
ATOM     39  H   LIG d   1       5.815 -11.146  -8.598  0.00  0.00     0.292 HD
ENDBRANCH   6  38
TORSDOF 4
ENDMDL
MODEL 9
REMARK VINA RESULT:      -5.8      6.753      9.728
REMARK  4 active torsions:
REMARK  status: ('A' for Active; 'I' for Inactive)
REMARK    1  A    between atoms: C_1  and  C_2 
REMARK    2  A    between atoms: C_2  and  C_3 
REMARK    3  A    between atoms: C_8  and  O_9 
REMARK    4  A    between atoms: C_12  and  C_15 
ROOT
ATOM      1  C   LIG d   1       4.283  -1.098  -4.004  0.00  0.00    -0.005 A 
ATOM      2  C   LIG d   1       4.436  -1.449  -5.316  0.00  0.00    -0.041 A 
ATOM      3  C   LIG d   1       3.857  -0.665  -6.314  0.00  0.00     0.065 A 
ATOM      4  C   LIG d   1       3.118   0.484  -5.978  0.00  0.00     0.142 A 
ATOM      5  C   LIG d   1       2.974   0.825  -4.640  0.00  0.00     0.023 A 
ATOM      6  C   LIG d   1       3.554   0.038  -3.660  0.00  0.00     0.123 A 
ATOM      7  O   LIG d   1       2.560   1.240  -6.943  0.00  0.00    -0.462 OA
ATOM      8  C   LIG d   1       2.669   0.967  -8.244  0.00  0.00     0.105 A 
ATOM      9  C   LIG d   1       3.348  -0.116  -8.710  0.00  0.00     0.082 A 
ATOM     10  C   LIG d   1       4.001  -1.013  -7.739  0.00  0.00     0.202 A 
ATOM     11  O   LIG d   1       4.627  -1.994  -8.098  0.00  0.00    -0.286 OA
ATOM     12  H   LIG d   1       5.002  -2.330  -5.579  0.00  0.00     0.063 H 
ATOM     13  H   LIG d   1       2.409   1.704  -4.364  0.00  0.00     0.069 H 
ATOM     14  H   LIG d   1       2.194   1.627  -8.955  0.00  0.00     0.104 H 
ENDROOT
BRANCH   9  15
ATOM     15  C   LIG d   1       3.438  -0.383 -10.164  0.00  0.00     0.078 A 
ATOM     16  N   LIG d   1       2.514  -1.130 -10.740  0.00  0.00    -0.246 NA
ATOM     17  C   LIG d   1       2.557  -1.398 -12.048  0.00  0.00     0.072 A 
ATOM     18  C   LIG d   1       3.606  -0.874 -12.844  0.00  0.00     0.000 A 
ATOM     19  C   LIG d   1       1.571  -2.195 -12.656  0.00  0.00    -0.036 A 
ATOM     20  C   LIG d   1       4.596  -0.074 -12.236  0.00  0.00    -0.051 A 
ATOM     21  C   LIG d   1       3.643  -1.158 -14.217  0.00  0.00    -0.053 A 
ATOM     22  C   LIG d   1       4.503   0.164 -10.898  0.00  0.00    -0.035 A 
ATOM     23  H   LIG d   1       5.408   0.338 -12.817  0.00  0.00     0.062 H 
ATOM     24  H   LIG d   1       5.245   0.773 -10.404  0.00  0.00     0.064 H 
ATOM     25  C   LIG d   1       2.670  -1.935 -14.771  0.00  0.00    -0.061 A 
ATOM     26  H   LIG d   1       4.439  -0.765 -14.833  0.00  0.00     0.062 H 
ATOM     27  C   LIG d   1       1.634  -2.446 -13.992  0.00  0.00    -0.060 A 
ATOM     28  H   LIG d   1       2.701  -2.153 -15.828  0.00  0.00     0.062 H 
ATOM     29  H   LIG d   1       0.872  -3.055 -14.456  0.00  0.00     0.062 H 
ATOM     30  H   LIG d   1       0.763  -2.602 -12.066  0.00  0.00     0.064 H 
ENDBRANCH   9  15
BRANCH   1  31
ATOM     31  C   LIG d   1       4.908  -1.943  -2.924  0.00  0.00    -0.027 C 
ATOM     32  H   LIG d   1       4.627  -1.550  -1.947  0.00  0.00     0.031 H 
ATOM     33  H   LIG d   1       4.555  -2.971  -3.017  0.00  0.00     0.031 H 
BRANCH  31  34
ATOM     34  C   LIG d   1       6.431  -1.912  -3.069  0.00  0.00    -0.061 C 
ATOM     35  H   LIG d   1       6.776  -0.878  -3.058  0.00  0.00     0.023 H 
ATOM     36  H   LIG d   1       6.885  -2.456  -2.242  0.00  0.00     0.023 H 
ATOM     37  H   LIG d   1       6.716  -2.380  -4.012  0.00  0.00     0.023 H 
ENDBRANCH  31  34
ENDBRANCH   1  31
BRANCH   6  38
ATOM     38  O   LIG d   1       3.411   0.375  -2.354  0.00  0.00    -0.506 OA
ATOM     39  H   LIG d   1       3.467  -0.375  -1.745  0.00  0.00     0.292 HD
ENDBRANCH   6  38
TORSDOF 4
ENDMDL
