MODEL 1
REMARK VINA RESULT:      -5.7      0.000      0.000
REMARK  18 active torsions:
REMARK  status: ('A' for Active; 'I' for Inactive)
REMARK    1  A    between atoms: C_1  and  C_2 
REMARK    2  A    between atoms: C_2  and  C_3 
REMARK    3  A    between atoms: C_3  and  C_4 
REMARK    4  A    between atoms: C_5  and  C_6 
REMARK    5  A    between atoms: C_7  and  C_8 
REMARK    6  A    between atoms: C_8  and  C_9 
REMARK    7  A    between atoms: C_9  and  C_10 
REMARK    8  A    between atoms: C_12  and  O_37 
REMARK    9  A    between atoms: C_13  and  C_21 
REMARK   10  A    between atoms: C_14  and  O_20 
REMARK   11  A    between atoms: C_15  and  C_16 
REMARK   12  A    between atoms: C_16  and  O_18 
REMARK   13  A    between atoms: O_18  and  C_19 
REMARK   14  A    between atoms: C_23  and  O_36 
REMARK   15  A    between atoms: C_25  and  O_35 
REMARK   16  A    between atoms: C_27  and  O_34 
REMARK   17  A    between atoms: C_29  and  C_32 
REMARK   18  A    between atoms: C_32  and  O_33 
ROOT
ATOM      1  C   LIG d   1       5.640  -2.098  -4.430  0.00  0.00    -0.026 A 
ATOM      2  C   LIG d   1       4.733  -3.088  -4.727  0.00  0.00    -0.016 A 
ATOM      3  C   LIG d   1       4.403  -3.361  -6.051  0.00  0.00     0.126 A 
ATOM      4  C   LIG d   1       4.985  -2.637  -7.081  0.00  0.00     0.067 A 
ATOM      5  C   LIG d   1       5.900  -1.639  -6.796  0.00  0.00     0.140 A 
ATOM      6  C   LIG d   1       6.231  -1.359  -5.461  0.00  0.00     0.104 A 
ATOM      7  H   LIG d   1       4.275  -3.655  -3.931  0.00  0.00     0.066 H 
ENDROOT
BRANCH   1   8
ATOM      8  C   LIG d   1       5.995  -1.807  -2.995  0.00  0.00    -0.023 C 
ATOM      9  H   LIG d   1       6.628  -0.909  -2.948  0.00  0.00     0.032 H 
ATOM     10  H   LIG d   1       6.542  -2.663  -2.571  0.00  0.00     0.032 H 
BRANCH   8  11
ATOM     11  C   LIG d   1       4.715  -1.572  -2.191  0.00  0.00    -0.030 C 
ATOM     12  H   LIG d   1       4.824  -2.012  -1.190  0.00  0.00     0.031 H 
ATOM     13  H   LIG d   1       3.866  -2.044  -2.708  0.00  0.00     0.031 H 
BRANCH  11  14
ATOM     14  C   LIG d   1       4.465  -0.091  -2.065  0.00  0.00    -0.084 C 
ATOM     15  C   LIG d   1       3.379   0.448  -2.610  0.00  0.00    -0.066 C 
ATOM     16  H   LIG d   1       3.250   1.540  -2.610  0.00  0.00     0.061 H 
ATOM     17  H   LIG d   1       5.181   0.543  -1.522  0.00  0.00     0.057 H 
BRANCH  15  18
ATOM     18  C   LIG d   1       2.353  -0.415  -3.214  0.00  0.00    -0.066 C 
ATOM     19  C   LIG d   1       2.130  -0.367  -4.523  0.00  0.00    -0.084 C 
ATOM     20  H   LIG d   1       1.419  -1.067  -4.986  0.00  0.00     0.057 H 
ATOM     21  H   LIG d   1       1.769  -1.100  -2.580  0.00  0.00     0.061 H 
BRANCH  19  22
ATOM     22  C   LIG d   1       2.850   0.648  -5.372  0.00  0.00    -0.035 C 
ATOM     23  H   LIG d   1       3.891   0.738  -5.033  0.00  0.00     0.031 H 
ATOM     24  H   LIG d   1       2.349   1.624  -5.282  0.00  0.00     0.031 H 
BRANCH  22  25
ATOM     25  C   LIG d   1       2.827   0.198  -6.834  0.00  0.00    -0.052 C 
ATOM     26  H   LIG d   1       1.882  -0.324  -7.043  0.00  0.00     0.027 H 
ATOM     27  H   LIG d   1       3.670  -0.485  -7.019  0.00  0.00     0.027 H 
BRANCH  25  28
ATOM     28  C   LIG d   1       2.948   1.419  -7.747  0.00  0.00    -0.065 C 
ATOM     29  H   LIG d   1       3.873   1.965  -7.508  0.00  0.00     0.023 H 
ATOM     30  H   LIG d   1       2.083   2.079  -7.593  0.00  0.00     0.023 H 
ATOM     31  H   LIG d   1       2.978   1.091  -8.797  0.00  0.00     0.023 H 
ENDBRANCH  25  28
ENDBRANCH  22  25
ENDBRANCH  19  22
ENDBRANCH  15  18
ENDBRANCH  11  14
ENDBRANCH   8  11
ENDBRANCH   1   8
BRANCH   6  32
ATOM     32  C   LIG d   1       7.197  -0.295  -5.146  0.00  0.00     0.343 C 
ATOM     33  O   LIG d   1       8.390  -0.506  -5.255  0.00  0.00    -0.245 OA
BRANCH  32  34
ATOM     34  O   LIG d   1       6.762   0.914  -4.740  0.00  0.00    -0.464 OA
BRANCH  34  35
ATOM     35  C   LIG d   1       7.629   1.662  -3.849  0.00  0.00     0.082 C 
ATOM     36  H   LIG d   1       7.928   1.022  -3.005  0.00  0.00     0.066 H 
ATOM     37  H   LIG d   1       7.093   2.543  -3.468  0.00  0.00     0.066 H 
ATOM     38  H   LIG d   1       8.526   1.988  -4.397  0.00  0.00     0.066 H 
ENDBRANCH  34  35
ENDBRANCH  32  34
ENDBRANCH   6  32
BRANCH   5  39
ATOM     39  O   LIG d   1       6.471  -0.931  -7.802  0.00  0.00    -0.505 OA
ATOM     40  H   LIG d   1       7.563  -0.954  -7.940  0.00  0.00     0.292 HD
ENDBRANCH   5  39
BRANCH   3  41
ATOM     41  O   LIG d   1       3.506  -4.339  -6.336  0.00  0.00    -0.506 OA
ATOM     42  H   LIG d   1       2.429  -4.155  -6.201  0.00  0.00     0.292 HD
ENDBRANCH   3  41
BRANCH   4  43
ATOM     43  C   LIG d   1       4.622  -2.939  -8.513  0.00  0.00     0.119 C 
ATOM     44  H   LIG d   1       5.194  -2.295  -9.198  0.00  0.00     0.068 H 
ATOM     45  O   LIG d   1       3.244  -2.629  -8.730  0.00  0.00    -0.361 OA
ATOM     46  C   LIG d   1       2.798  -2.854 -10.070  0.00  0.00     0.111 C 
ATOM     47  C   LIG d   1       2.965  -4.336 -10.418  0.00  0.00     0.112 C 
ATOM     48  H   LIG d   1       3.432  -2.220 -10.707  0.00  0.00     0.065 H 
ATOM     49  C   LIG d   1       4.432  -4.734 -10.237  0.00  0.00     0.112 C 
ATOM     50  H   LIG d   1       2.298  -4.969  -9.813  0.00  0.00     0.065 H 
ATOM     51  C   LIG d   1       4.861  -4.423  -8.799  0.00  0.00     0.114 C 
ATOM     52  H   LIG d   1       5.081  -4.231 -10.968  0.00  0.00     0.065 H 
ATOM     53  H   LIG d   1       4.333  -5.062  -8.075  0.00  0.00     0.065 H 
BRANCH  46  54
ATOM     54  C   LIG d   1       1.325  -2.463 -10.191  0.00  0.00     0.073 C 
ATOM     55  H   LIG d   1       1.064  -1.759  -9.387  0.00  0.00     0.058 H 
ATOM     56  H   LIG d   1       1.151  -1.987 -11.167  0.00  0.00     0.058 H 
BRANCH  54  57
ATOM     57  O   LIG d   1       0.511  -3.633 -10.081  0.00  0.00    -0.392 OA
ATOM     58  H   LIG d   1      -0.353  -3.640  -9.401  0.00  0.00     0.209 HD
ENDBRANCH  54  57
ENDBRANCH  46  54
BRANCH  47  59
ATOM     59  O   LIG d   1       2.575  -4.554 -11.776  0.00  0.00    -0.387 OA
ATOM     60  H   LIG d   1       2.825  -5.502 -12.275  0.00  0.00     0.210 HD
ENDBRANCH  47  59
BRANCH  49  61
ATOM     61  O   LIG d   1       4.584  -6.132 -10.491  0.00  0.00    -0.387 OA
ATOM     62  H   LIG d   1       3.706  -6.744 -10.741  0.00  0.00     0.210 HD
ENDBRANCH  49  61
BRANCH  51  63
ATOM     63  O   LIG d   1       6.248  -4.723  -8.638  0.00  0.00    -0.386 OA
ATOM     64  H   LIG d   1       6.627  -5.724  -8.892  0.00  0.00     0.210 HD
ENDBRANCH  51  63
ENDBRANCH   4  43
TORSDOF 18
ENDMDL
MODEL 2
REMARK VINA RESULT:      -5.3      2.192      4.212
REMARK  18 active torsions:
REMARK  status: ('A' for Active; 'I' for Inactive)
REMARK    1  A    between atoms: C_1  and  C_2 
REMARK    2  A    between atoms: C_2  and  C_3 
REMARK    3  A    between atoms: C_3  and  C_4 
REMARK    4  A    between atoms: C_5  and  C_6 
REMARK    5  A    between atoms: C_7  and  C_8 
REMARK    6  A    between atoms: C_8  and  C_9 
REMARK    7  A    between atoms: C_9  and  C_10 
REMARK    8  A    between atoms: C_12  and  O_37 
REMARK    9  A    between atoms: C_13  and  C_21 
REMARK   10  A    between atoms: C_14  and  O_20 
REMARK   11  A    between atoms: C_15  and  C_16 
REMARK   12  A    between atoms: C_16  and  O_18 
REMARK   13  A    between atoms: O_18  and  C_19 
REMARK   14  A    between atoms: C_23  and  O_36 
REMARK   15  A    between atoms: C_25  and  O_35 
REMARK   16  A    between atoms: C_27  and  O_34 
REMARK   17  A    between atoms: C_29  and  C_32 
REMARK   18  A    between atoms: C_32  and  O_33 
ROOT
ATOM      1  C   LIG d   1       4.313  -1.603  -7.769  0.00  0.00    -0.026 A 
ATOM      2  C   LIG d   1       4.177  -2.918  -8.150  0.00  0.00    -0.016 A 
ATOM      3  C   LIG d   1       3.196  -3.284  -9.067  0.00  0.00     0.126 A 
ATOM      4  C   LIG d   1       2.347  -2.326  -9.603  0.00  0.00     0.067 A 
ATOM      5  C   LIG d   1       2.473  -1.000  -9.228  0.00  0.00     0.140 A 
ATOM      6  C   LIG d   1       3.459  -0.630  -8.300  0.00  0.00     0.104 A 
ATOM      7  H   LIG d   1       4.834  -3.669  -7.737  0.00  0.00     0.066 H 
ENDROOT
BRANCH   1   8
ATOM      8  C   LIG d   1       5.377  -1.212  -6.777  0.00  0.00    -0.023 C 
ATOM      9  H   LIG d   1       5.399  -0.117  -6.674  0.00  0.00     0.032 H 
ATOM     10  H   LIG d   1       6.357  -1.566  -7.131  0.00  0.00     0.032 H 
BRANCH   8  11
ATOM     11  C   LIG d   1       5.067  -1.846  -5.420  0.00  0.00    -0.030 C 
ATOM     12  H   LIG d   1       4.861  -2.918  -5.554  0.00  0.00     0.031 H 
ATOM     13  H   LIG d   1       4.186  -1.356  -4.979  0.00  0.00     0.031 H 
BRANCH  11  14
ATOM     14  C   LIG d   1       6.249  -1.672  -4.502  0.00  0.00    -0.084 C 
ATOM     15  C   LIG d   1       6.075  -1.683  -3.184  0.00  0.00    -0.066 C 
ATOM     16  H   LIG d   1       6.918  -1.451  -2.517  0.00  0.00     0.061 H 
ATOM     17  H   LIG d   1       7.256  -1.536  -4.922  0.00  0.00     0.057 H 
BRANCH  15  18
ATOM     18  C   LIG d   1       4.756  -2.003  -2.619  0.00  0.00    -0.066 C 
ATOM     19  C   LIG d   1       4.050  -1.060  -2.004  0.00  0.00    -0.084 C 
ATOM     20  H   LIG d   1       3.030  -1.279  -1.651  0.00  0.00     0.057 H 
ATOM     21  H   LIG d   1       4.353  -3.024  -2.705  0.00  0.00     0.061 H 
BRANCH  19  22
ATOM     22  C   LIG d   1       4.645   0.306  -1.788  0.00  0.00    -0.035 C 
ATOM     23  H   LIG d   1       5.606   0.375  -2.317  0.00  0.00     0.031 H 
ATOM     24  H   LIG d   1       4.808   0.470  -0.712  0.00  0.00     0.031 H 
BRANCH  22  25
ATOM     25  C   LIG d   1       3.688   1.371  -2.327  0.00  0.00    -0.052 C 
ATOM     26  H   LIG d   1       4.225   2.325  -2.436  0.00  0.00     0.027 H 
ATOM     27  H   LIG d   1       2.852   1.500  -1.624  0.00  0.00     0.027 H 
BRANCH  25  28
ATOM     28  C   LIG d   1       3.148   0.931  -3.688  0.00  0.00    -0.065 C 
ATOM     29  H   LIG d   1       3.605   1.542  -4.479  0.00  0.00     0.023 H 
ATOM     30  H   LIG d   1       2.057   1.061  -3.709  0.00  0.00     0.023 H 
ATOM     31  H   LIG d   1       3.394  -0.129  -3.855  0.00  0.00     0.023 H 
ENDBRANCH  25  28
ENDBRANCH  22  25
ENDBRANCH  19  22
ENDBRANCH  15  18
ENDBRANCH  11  14
ENDBRANCH   8  11
ENDBRANCH   1   8
BRANCH   6  32
ATOM     32  C   LIG d   1       3.597   0.776  -7.889  0.00  0.00     0.343 C 
ATOM     33  O   LIG d   1       2.846   1.241  -7.053  0.00  0.00    -0.245 OA
BRANCH  32  34
ATOM     34  O   LIG d   1       4.557   1.548  -8.437  0.00  0.00    -0.464 OA
BRANCH  34  35
ATOM     35  C   LIG d   1       4.123   2.588  -9.352  0.00  0.00     0.082 C 
ATOM     36  H   LIG d   1       4.698   3.507  -9.161  0.00  0.00     0.066 H 
ATOM     37  H   LIG d   1       3.053   2.789  -9.199  0.00  0.00     0.066 H 
ATOM     38  H   LIG d   1       4.290   2.260 -10.388  0.00  0.00     0.066 H 
ENDBRANCH  34  35
ENDBRANCH  32  34
ENDBRANCH   6  32
BRANCH   5  39
ATOM     39  O   LIG d   1       1.644  -0.063  -9.752  0.00  0.00    -0.505 OA
ATOM     40  H   LIG d   1       1.863   0.376 -10.737  0.00  0.00     0.292 HD
ENDBRANCH   5  39
BRANCH   3  41
ATOM     41  O   LIG d   1       3.069  -4.583  -9.437  0.00  0.00    -0.506 OA
ATOM     42  H   LIG d   1       2.282  -5.209  -8.990  0.00  0.00     0.292 HD
ENDBRANCH   3  41
BRANCH   4  43
ATOM     43  C   LIG d   1       1.287  -2.731 -10.595  0.00  0.00     0.119 C 
ATOM     44  H   LIG d   1       0.457  -2.009 -10.585  0.00  0.00     0.068 H 
ATOM     45  O   LIG d   1       0.727  -3.988 -10.208  0.00  0.00    -0.361 OA
ATOM     46  C   LIG d   1      -0.312  -4.455 -11.070  0.00  0.00     0.111 C 
ATOM     47  C   LIG d   1       0.248  -4.651 -12.482  0.00  0.00     0.112 C 
ATOM     48  H   LIG d   1      -1.089  -3.676 -11.054  0.00  0.00     0.065 H 
ATOM     49  C   LIG d   1       0.840  -3.329 -12.977  0.00  0.00     0.112 C 
ATOM     50  H   LIG d   1       0.992  -5.461 -12.510  0.00  0.00     0.065 H 
ATOM     51  C   LIG d   1       1.911  -2.858 -11.986  0.00  0.00     0.114 C 
ATOM     52  H   LIG d   1       0.061  -2.566 -13.121  0.00  0.00     0.065 H 
ATOM     53  H   LIG d   1       2.777  -3.537 -11.978  0.00  0.00     0.065 H 
BRANCH  46  54
ATOM     54  C   LIG d   1      -0.852  -5.787 -10.546  0.00  0.00     0.073 C 
ATOM     55  H   LIG d   1      -1.878  -5.937 -10.913  0.00  0.00     0.058 H 
ATOM     56  H   LIG d   1      -0.211  -6.607 -10.900  0.00  0.00     0.058 H 
BRANCH  54  57
ATOM     57  O   LIG d   1      -0.856  -5.769  -9.116  0.00  0.00    -0.392 OA
ATOM     58  H   LIG d   1      -0.159  -6.409  -8.557  0.00  0.00     0.209 HD
ENDBRANCH  54  57
ENDBRANCH  46  54
BRANCH  47  59
ATOM     59  O   LIG d   1      -0.802  -5.062 -13.360  0.00  0.00    -0.387 OA
ATOM     60  H   LIG d   1      -0.605  -5.183 -14.435  0.00  0.00     0.210 HD
ENDBRANCH  47  59
BRANCH  49  61
ATOM     61  O   LIG d   1       1.429  -3.520 -14.264  0.00  0.00    -0.387 OA
ATOM     62  H   LIG d   1       1.337  -2.739 -15.033  0.00  0.00     0.210 HD
ENDBRANCH  49  61
BRANCH  51  63
ATOM     63  O   LIG d   1       2.420  -1.589 -12.399  0.00  0.00    -0.386 OA
ATOM     64  H   LIG d   1       2.482  -1.344 -13.470  0.00  0.00     0.210 HD
ENDBRANCH  51  63
ENDBRANCH   4  43
TORSDOF 18
ENDMDL
MODEL 3
REMARK VINA RESULT:      -5.2      2.472      7.217
REMARK  18 active torsions:
REMARK  status: ('A' for Active; 'I' for Inactive)
REMARK    1  A    between atoms: C_1  and  C_2 
REMARK    2  A    between atoms: C_2  and  C_3 
REMARK    3  A    between atoms: C_3  and  C_4 
REMARK    4  A    between atoms: C_5  and  C_6 
REMARK    5  A    between atoms: C_7  and  C_8 
REMARK    6  A    between atoms: C_8  and  C_9 
REMARK    7  A    between atoms: C_9  and  C_10 
REMARK    8  A    between atoms: C_12  and  O_37 
REMARK    9  A    between atoms: C_13  and  C_21 
REMARK   10  A    between atoms: C_14  and  O_20 
REMARK   11  A    between atoms: C_15  and  C_16 
REMARK   12  A    between atoms: C_16  and  O_18 
REMARK   13  A    between atoms: O_18  and  C_19 
REMARK   14  A    between atoms: C_23  and  O_36 
REMARK   15  A    between atoms: C_25  and  O_35 
REMARK   16  A    between atoms: C_27  and  O_34 
REMARK   17  A    between atoms: C_29  and  C_32 
REMARK   18  A    between atoms: C_32  and  O_33 
ROOT
ATOM      1  C   LIG d   1       2.348  -1.625  -9.295  0.00  0.00    -0.026 A 
ATOM      2  C   LIG d   1       2.221  -0.441  -8.608  0.00  0.00    -0.016 A 
ATOM      3  C   LIG d   1       3.042  -0.173  -7.516  0.00  0.00     0.126 A 
ATOM      4  C   LIG d   1       3.992  -1.099  -7.111  0.00  0.00     0.067 A 
ATOM      5  C   LIG d   1       4.129  -2.295  -7.794  0.00  0.00     0.140 A 
ATOM      6  C   LIG d   1       3.299  -2.569  -8.893  0.00  0.00     0.104 A 
ATOM      7  H   LIG d   1       1.484   0.285  -8.917  0.00  0.00     0.066 H 
ENDROOT
BRANCH   1   8
ATOM      8  C   LIG d   1       1.458  -1.910 -10.477  0.00  0.00    -0.023 C 
ATOM      9  H   LIG d   1       0.405  -1.860 -10.165  0.00  0.00     0.032 H 
ATOM     10  H   LIG d   1       1.677  -2.914 -10.869  0.00  0.00     0.032 H 
BRANCH   8  11
ATOM     11  C   LIG d   1       1.716  -0.870 -11.570  0.00  0.00    -0.030 C 
ATOM     12  H   LIG d   1       1.807   0.126 -11.115  0.00  0.00     0.031 H 
ATOM     13  H   LIG d   1       0.878  -0.873 -12.283  0.00  0.00     0.031 H 
BRANCH  11  14
ATOM     14  C   LIG d   1       2.992  -1.211 -12.296  0.00  0.00    -0.084 C 
ATOM     15  C   LIG d   1       4.011  -0.357 -12.285  0.00  0.00    -0.066 C 
ATOM     16  H   LIG d   1       4.901  -0.556 -12.899  0.00  0.00     0.061 H 
ATOM     17  H   LIG d   1       3.080  -2.166 -12.833  0.00  0.00     0.057 H 
BRANCH  15  18
ATOM     18  C   LIG d   1       3.947   0.854 -11.453  0.00  0.00    -0.066 C 
ATOM     19  C   LIG d   1       4.833   1.039 -10.479  0.00  0.00    -0.084 C 
ATOM     20  H   LIG d   1       4.834   1.980  -9.909  0.00  0.00     0.057 H 
ATOM     21  H   LIG d   1       3.165   1.606 -11.636  0.00  0.00     0.061 H 
BRANCH  19  22
ATOM     22  C   LIG d   1       5.833  -0.040 -10.156  0.00  0.00    -0.035 C 
ATOM     23  H   LIG d   1       6.088  -0.591 -11.073  0.00  0.00     0.031 H 
ATOM     24  H   LIG d   1       5.400  -0.735  -9.421  0.00  0.00     0.031 H 
BRANCH  22  25
ATOM     25  C   LIG d   1       7.097   0.594  -9.574  0.00  0.00    -0.052 C 
ATOM     26  H   LIG d   1       7.559   1.251 -10.326  0.00  0.00     0.027 H 
ATOM     27  H   LIG d   1       7.808  -0.198  -9.295  0.00  0.00     0.027 H 
BRANCH  25  28
ATOM     28  C   LIG d   1       6.734   1.413  -8.335  0.00  0.00    -0.065 C 
ATOM     29  H   LIG d   1       7.361   2.316  -8.295  0.00  0.00     0.023 H 
ATOM     30  H   LIG d   1       6.904   0.809  -7.432  0.00  0.00     0.023 H 
ATOM     31  H   LIG d   1       5.674   1.706  -8.386  0.00  0.00     0.023 H 
ENDBRANCH  25  28
ENDBRANCH  22  25
ENDBRANCH  19  22
ENDBRANCH  15  18
ENDBRANCH  11  14
ENDBRANCH   8  11
ENDBRANCH   1   8
BRANCH   6  32
ATOM     32  C   LIG d   1       3.433  -3.840  -9.621  0.00  0.00     0.343 C 
ATOM     33  O   LIG d   1       4.274  -3.956 -10.491  0.00  0.00    -0.245 OA
BRANCH  32  34
ATOM     34  O   LIG d   1       2.624  -4.876  -9.323  0.00  0.00    -0.464 OA
BRANCH  34  35
ATOM     35  C   LIG d   1       2.030  -5.590 -10.438  0.00  0.00     0.082 C 
ATOM     36  H   LIG d   1       2.425  -5.188 -11.383  0.00  0.00     0.066 H 
ATOM     37  H   LIG d   1       0.938  -5.463 -10.414  0.00  0.00     0.066 H 
ATOM     38  H   LIG d   1       2.277  -6.660 -10.364  0.00  0.00     0.066 H 
ENDBRANCH  34  35
ENDBRANCH  32  34
ENDBRANCH   6  32
BRANCH   5  39
ATOM     39  O   LIG d   1       5.058  -3.201  -7.399  0.00  0.00    -0.505 OA
ATOM     40  H   LIG d   1       6.081  -3.152  -7.803  0.00  0.00     0.292 HD
ENDBRANCH   5  39
BRANCH   3  41
ATOM     41  O   LIG d   1       2.910   0.998  -6.843  0.00  0.00    -0.506 OA
ATOM     42  H   LIG d   1       2.910   1.005  -5.743  0.00  0.00     0.292 HD
ENDBRANCH   3  41
BRANCH   4  43
ATOM     43  C   LIG d   1       4.876  -0.802  -5.927  0.00  0.00     0.119 C 
ATOM     44  H   LIG d   1       4.971   0.284  -5.782  0.00  0.00     0.068 H 
ATOM     45  O   LIG d   1       6.196  -1.288  -6.183  0.00  0.00    -0.361 OA
ATOM     46  C   LIG d   1       7.127  -1.034  -5.129  0.00  0.00     0.111 C 
ATOM     47  C   LIG d   1       6.653  -1.733  -3.852  0.00  0.00     0.112 C 
ATOM     48  H   LIG d   1       7.146   0.059  -5.003  0.00  0.00     0.065 H 
ATOM     49  C   LIG d   1       5.249  -1.236  -3.497  0.00  0.00     0.112 C 
ATOM     50  H   LIG d   1       6.677  -2.828  -3.962  0.00  0.00     0.065 H 
ATOM     51  C   LIG d   1       4.313  -1.493  -4.683  0.00  0.00     0.114 C 
ATOM     52  H   LIG d   1       5.257  -0.174  -3.212  0.00  0.00     0.065 H 
ATOM     53  H   LIG d   1       4.165  -2.570  -4.852  0.00  0.00     0.065 H 
BRANCH  46  54
ATOM     54  C   LIG d   1       8.504  -1.569  -5.524  0.00  0.00     0.073 C 
ATOM     55  H   LIG d   1       8.561  -2.643  -5.292  0.00  0.00     0.058 H 
ATOM     56  H   LIG d   1       8.660  -1.418  -6.603  0.00  0.00     0.058 H 
BRANCH  54  57
ATOM     57  O   LIG d   1       9.515  -0.869  -4.795  0.00  0.00    -0.392 OA
ATOM     58  H   LIG d   1      10.439  -0.554  -5.300  0.00  0.00     0.209 HD
ENDBRANCH  54  57
ENDBRANCH  46  54
BRANCH  47  59
ATOM     59  O   LIG d   1       7.551  -1.433  -2.782  0.00  0.00    -0.387 OA
ATOM     60  H   LIG d   1       7.708  -2.163  -1.974  0.00  0.00     0.210 HD
ENDBRANCH  47  59
BRANCH  49  61
ATOM     61  O   LIG d   1       4.770  -1.936  -2.347  0.00  0.00    -0.387 OA
ATOM     62  H   LIG d   1       5.102  -1.637  -1.343  0.00  0.00     0.210 HD
ENDBRANCH  49  61
BRANCH  51  63
ATOM     63  O   LIG d   1       3.017  -0.967  -4.390  0.00  0.00    -0.386 OA
ATOM     64  H   LIG d   1       2.207  -1.059  -5.129  0.00  0.00     0.210 HD
ENDBRANCH  51  63
ENDBRANCH   4  43
TORSDOF 18
ENDMDL
MODEL 4
REMARK VINA RESULT:      -5.2      2.854      4.672
REMARK  18 active torsions:
REMARK  status: ('A' for Active; 'I' for Inactive)
REMARK    1  A    between atoms: C_1  and  C_2 
REMARK    2  A    between atoms: C_2  and  C_3 
REMARK    3  A    between atoms: C_3  and  C_4 
REMARK    4  A    between atoms: C_5  and  C_6 
REMARK    5  A    between atoms: C_7  and  C_8 
REMARK    6  A    between atoms: C_8  and  C_9 
REMARK    7  A    between atoms: C_9  and  C_10 
REMARK    8  A    between atoms: C_12  and  O_37 
REMARK    9  A    between atoms: C_13  and  C_21 
REMARK   10  A    between atoms: C_14  and  O_20 
REMARK   11  A    between atoms: C_15  and  C_16 
REMARK   12  A    between atoms: C_16  and  O_18 
REMARK   13  A    between atoms: O_18  and  C_19 
REMARK   14  A    between atoms: C_23  and  O_36 
REMARK   15  A    between atoms: C_25  and  O_35 
REMARK   16  A    between atoms: C_27  and  O_34 
REMARK   17  A    between atoms: C_29  and  C_32 
REMARK   18  A    between atoms: C_32  and  O_33 
ROOT
ATOM      1  C   LIG d   1       2.888   0.453  -8.493  0.00  0.00    -0.026 A 
ATOM      2  C   LIG d   1       2.017  -0.599  -8.654  0.00  0.00    -0.016 A 
ATOM      3  C   LIG d   1       1.871  -1.204  -9.899  0.00  0.00     0.126 A 
ATOM      4  C   LIG d   1       2.601  -0.749 -10.988  0.00  0.00     0.067 A 
ATOM      5  C   LIG d   1       3.480   0.309 -10.839  0.00  0.00     0.140 A 
ATOM      6  C   LIG d   1       3.626   0.923  -9.585  0.00  0.00     0.104 A 
ATOM      7  H   LIG d   1       1.445  -0.959  -7.811  0.00  0.00     0.066 H 
ENDROOT
BRANCH   1   8
ATOM      8  C   LIG d   1       3.043   1.103  -7.143  0.00  0.00    -0.023 C 
ATOM      9  H   LIG d   1       2.160   1.723  -6.930  0.00  0.00     0.032 H 
ATOM     10  H   LIG d   1       3.944   1.736  -7.141  0.00  0.00     0.032 H 
BRANCH   8  11
ATOM     11  C   LIG d   1       3.180   0.021  -6.069  0.00  0.00    -0.030 C 
ATOM     12  H   LIG d   1       4.220  -0.014  -5.714  0.00  0.00     0.031 H 
ATOM     13  H   LIG d   1       2.904  -0.955  -6.496  0.00  0.00     0.031 H 
BRANCH  11  14
ATOM     14  C   LIG d   1       2.265   0.341  -4.915  0.00  0.00    -0.084 C 
ATOM     15  C   LIG d   1       2.379  -0.327  -3.771  0.00  0.00    -0.066 C 
ATOM     16  H   LIG d   1       1.646  -0.168  -2.967  0.00  0.00     0.061 H 
ATOM     17  H   LIG d   1       1.503   1.127  -5.019  0.00  0.00     0.057 H 
BRANCH  15  18
ATOM     18  C   LIG d   1       3.485  -1.278  -3.583  0.00  0.00    -0.066 C 
ATOM     19  C   LIG d   1       4.412  -1.044  -2.660  0.00  0.00    -0.084 C 
ATOM     20  H   LIG d   1       5.195  -1.793  -2.464  0.00  0.00     0.057 H 
ATOM     21  H   LIG d   1       3.545  -2.183  -4.206  0.00  0.00     0.061 H 
BRANCH  19  22
ATOM     22  C   LIG d   1       4.394   0.247  -1.884  0.00  0.00    -0.035 C 
ATOM     23  H   LIG d   1       4.823   0.081  -0.886  0.00  0.00     0.031 H 
ATOM     24  H   LIG d   1       3.356   0.599  -1.782  0.00  0.00     0.031 H 
BRANCH  22  25
ATOM     25  C   LIG d   1       5.218   1.300  -2.626  0.00  0.00    -0.052 C 
ATOM     26  H   LIG d   1       5.588   2.049  -1.909  0.00  0.00     0.027 H 
ATOM     27  H   LIG d   1       4.587   1.796  -3.379  0.00  0.00     0.027 H 
BRANCH  25  28
ATOM     28  C   LIG d   1       6.404   0.627  -3.317  0.00  0.00    -0.065 C 
ATOM     29  H   LIG d   1       6.748   1.255  -4.152  0.00  0.00     0.023 H 
ATOM     30  H   LIG d   1       6.095  -0.356  -3.701  0.00  0.00     0.023 H 
ATOM     31  H   LIG d   1       7.225   0.497  -2.596  0.00  0.00     0.023 H 
ENDBRANCH  25  28
ENDBRANCH  22  25
ENDBRANCH  19  22
ENDBRANCH  15  18
ENDBRANCH  11  14
ENDBRANCH   8  11
ENDBRANCH   1   8
BRANCH   6  32
ATOM     32  C   LIG d   1       4.553   2.053  -9.418  0.00  0.00     0.343 C 
ATOM     33  O   LIG d   1       4.119   3.166  -9.193  0.00  0.00    -0.245 OA
BRANCH  32  34
ATOM     34  O   LIG d   1       5.883   1.854  -9.512  0.00  0.00    -0.464 OA
BRANCH  34  35
ATOM     35  C   LIG d   1       6.523   1.156  -8.412  0.00  0.00     0.082 C 
ATOM     36  H   LIG d   1       5.832   0.403  -8.004  0.00  0.00     0.066 H 
ATOM     37  H   LIG d   1       6.787   1.876  -7.624  0.00  0.00     0.066 H 
ATOM     38  H   LIG d   1       7.435   0.658  -8.774  0.00  0.00     0.066 H 
ENDBRANCH  34  35
ENDBRANCH  32  34
ENDBRANCH   6  32
BRANCH   5  39
ATOM     39  O   LIG d   1       4.196   0.754 -11.903  0.00  0.00    -0.505 OA
ATOM     40  H   LIG d   1       3.735   1.445 -12.624  0.00  0.00     0.292 HD
ENDBRANCH   5  39
BRANCH   3  41
ATOM     41  O   LIG d   1       1.009  -2.241 -10.049  0.00  0.00    -0.506 OA
ATOM     42  H   LIG d   1       0.575  -2.458 -11.037  0.00  0.00     0.292 HD
ENDBRANCH   3  41
BRANCH   4  43
ATOM     43  C   LIG d   1       2.437  -1.409 -12.333  0.00  0.00     0.119 C 
ATOM     44  H   LIG d   1       2.740  -0.721 -13.137  0.00  0.00     0.068 H 
ATOM     45  O   LIG d   1       1.055  -1.699 -12.556  0.00  0.00    -0.361 OA
ATOM     46  C   LIG d   1       0.782  -2.306 -13.821  0.00  0.00     0.111 C 
ATOM     47  C   LIG d   1       1.522  -3.643 -13.913  0.00  0.00     0.112 C 
ATOM     48  H   LIG d   1       1.144  -1.595 -14.578  0.00  0.00     0.065 H 
ATOM     49  C   LIG d   1       3.021  -3.404 -13.714  0.00  0.00     0.112 C 
ATOM     50  H   LIG d   1       1.129  -4.371 -13.187  0.00  0.00     0.065 H 
ATOM     51  C   LIG d   1       3.241  -2.710 -12.366  0.00  0.00     0.114 C 
ATOM     52  H   LIG d   1       3.451  -2.823 -14.542  0.00  0.00     0.065 H 
ATOM     53  H   LIG d   1       2.976  -3.369 -11.526  0.00  0.00     0.065 H 
BRANCH  46  54
ATOM     54  C   LIG d   1      -0.723  -2.543 -13.959  0.00  0.00     0.073 C 
ATOM     55  H   LIG d   1      -0.907  -3.602 -14.196  0.00  0.00     0.058 H 
ATOM     56  H   LIG d   1      -1.223  -2.285 -13.014  0.00  0.00     0.058 H 
BRANCH  54  57
ATOM     57  O   LIG d   1      -1.240  -1.723 -15.010  0.00  0.00    -0.392 OA
ATOM     58  H   LIG d   1      -1.738  -2.186 -15.873  0.00  0.00     0.209 HD
ENDBRANCH  54  57
ENDBRANCH  46  54
BRANCH  47  59
ATOM     59  O   LIG d   1       1.298  -4.224 -15.200  0.00  0.00    -0.387 OA
ATOM     60  H   LIG d   1       0.278  -4.279 -15.609  0.00  0.00     0.210 HD
ENDBRANCH  47  59
BRANCH  49  61
ATOM     61  O   LIG d   1       3.711  -4.655 -13.728  0.00  0.00    -0.387 OA
ATOM     62  H   LIG d   1       4.085  -5.088 -12.789  0.00  0.00     0.210 HD
ENDBRANCH  49  61
BRANCH  51  63
ATOM     63  O   LIG d   1       4.630  -2.417 -12.201  0.00  0.00    -0.386 OA
ATOM     64  H   LIG d   1       4.974  -1.865 -11.313  0.00  0.00     0.210 HD
ENDBRANCH  51  63
ENDBRANCH   4  43
TORSDOF 18
ENDMDL
MODEL 5
REMARK VINA RESULT:      -5.1      1.747      2.659
REMARK  18 active torsions:
REMARK  status: ('A' for Active; 'I' for Inactive)
REMARK    1  A    between atoms: C_1  and  C_2 
REMARK    2  A    between atoms: C_2  and  C_3 
REMARK    3  A    between atoms: C_3  and  C_4 
REMARK    4  A    between atoms: C_5  and  C_6 
REMARK    5  A    between atoms: C_7  and  C_8 
REMARK    6  A    between atoms: C_8  and  C_9 
REMARK    7  A    between atoms: C_9  and  C_10 
REMARK    8  A    between atoms: C_12  and  O_37 
REMARK    9  A    between atoms: C_13  and  C_21 
REMARK   10  A    between atoms: C_14  and  O_20 
REMARK   11  A    between atoms: C_15  and  C_16 
REMARK   12  A    between atoms: C_16  and  O_18 
REMARK   13  A    between atoms: O_18  and  C_19 
REMARK   14  A    between atoms: C_23  and  O_36 
REMARK   15  A    between atoms: C_25  and  O_35 
REMARK   16  A    between atoms: C_27  and  O_34 
REMARK   17  A    between atoms: C_29  and  C_32 
REMARK   18  A    between atoms: C_32  and  O_33 
ROOT
ATOM      1  C   LIG d   1       6.212  -1.166  -4.873  0.00  0.00    -0.026 A 
ATOM      2  C   LIG d   1       5.681  -2.304  -4.311  0.00  0.00    -0.016 A 
ATOM      3  C   LIG d   1       5.403  -3.412  -5.105  0.00  0.00     0.126 A 
ATOM      4  C   LIG d   1       5.659  -3.379  -6.468  0.00  0.00     0.067 A 
ATOM      5  C   LIG d   1       6.194  -2.240  -7.045  0.00  0.00     0.140 A 
ATOM      6  C   LIG d   1       6.470  -1.119  -6.247  0.00  0.00     0.104 A 
ATOM      7  H   LIG d   1       5.478  -2.337  -3.251  0.00  0.00     0.066 H 
ENDROOT
BRANCH   1   8
ATOM      8  C   LIG d   1       6.512   0.031  -4.008  0.00  0.00    -0.023 C 
ATOM      9  H   LIG d   1       6.170   0.945  -4.515  0.00  0.00     0.032 H 
ATOM     10  H   LIG d   1       7.597   0.094  -3.832  0.00  0.00     0.032 H 
BRANCH   8  11
ATOM     11  C   LIG d   1       5.787  -0.112  -2.669  0.00  0.00    -0.030 C 
ATOM     12  H   LIG d   1       6.524  -0.248  -1.865  0.00  0.00     0.031 H 
ATOM     13  H   LIG d   1       5.119  -0.986  -2.706  0.00  0.00     0.031 H 
BRANCH  11  14
ATOM     14  C   LIG d   1       4.974   1.128  -2.402  0.00  0.00    -0.084 C 
ATOM     15  C   LIG d   1       3.648   1.088  -2.496  0.00  0.00    -0.066 C 
ATOM     16  H   LIG d   1       3.063   2.014  -2.405  0.00  0.00     0.061 H 
ATOM     17  H   LIG d   1       5.477   2.067  -2.130  0.00  0.00     0.057 H 
BRANCH  15  18
ATOM     18  C   LIG d   1       2.966  -0.196  -2.721  0.00  0.00    -0.066 C 
ATOM     19  C   LIG d   1       2.431  -0.464  -3.908  0.00  0.00    -0.084 C 
ATOM     20  H   LIG d   1       1.991  -1.454  -4.101  0.00  0.00     0.057 H 
ATOM     21  H   LIG d   1       2.898  -0.933  -1.907  0.00  0.00     0.061 H 
BRANCH  19  22
ATOM     22  C   LIG d   1       2.426   0.587  -4.987  0.00  0.00    -0.035 C 
ATOM     23  H   LIG d   1       2.983   1.470  -4.642  0.00  0.00     0.031 H 
ATOM     24  H   LIG d   1       1.389   0.875  -5.215  0.00  0.00     0.031 H 
BRANCH  22  25
ATOM     25  C   LIG d   1       3.087   0.027  -6.248  0.00  0.00    -0.052 C 
ATOM     26  H   LIG d   1       2.690  -0.977  -6.456  0.00  0.00     0.027 H 
ATOM     27  H   LIG d   1       4.175  -0.035  -6.093  0.00  0.00     0.027 H 
BRANCH  25  28
ATOM     28  C   LIG d   1       2.792   0.949  -7.431  0.00  0.00    -0.065 C 
ATOM     29  H   LIG d   1       3.736   1.350  -7.829  0.00  0.00     0.023 H 
ATOM     30  H   LIG d   1       2.153   1.780  -7.099  0.00  0.00     0.023 H 
ATOM     31  H   LIG d   1       2.274   0.381  -8.219  0.00  0.00     0.023 H 
ENDBRANCH  25  28
ENDBRANCH  22  25
ENDBRANCH  19  22
ENDBRANCH  15  18
ENDBRANCH  11  14
ENDBRANCH   8  11
ENDBRANCH   1   8
BRANCH   6  32
ATOM     32  C   LIG d   1       7.032   0.098  -6.851  0.00  0.00     0.343 C 
ATOM     33  O   LIG d   1       6.307   0.872  -7.446  0.00  0.00    -0.245 OA
BRANCH  32  34
ATOM     34  O   LIG d   1       8.351   0.358  -6.745  0.00  0.00    -0.464 OA
BRANCH  34  35
ATOM     35  C   LIG d   1       8.773   1.726  -6.978  0.00  0.00     0.082 C 
ATOM     36  H   LIG d   1       8.816   2.266  -6.020  0.00  0.00     0.066 H 
ATOM     37  H   LIG d   1       8.055   2.224  -7.646  0.00  0.00     0.066 H 
ATOM     38  H   LIG d   1       9.770   1.729  -7.445  0.00  0.00     0.066 H 
ENDBRANCH  34  35
ENDBRANCH  32  34
ENDBRANCH   6  32
BRANCH   5  39
ATOM     39  O   LIG d   1       6.445  -2.207  -8.378  0.00  0.00    -0.505 OA
ATOM     40  H   LIG d   1       7.268  -2.805  -8.797  0.00  0.00     0.292 HD
ENDBRANCH   5  39
BRANCH   3  41
ATOM     41  O   LIG d   1       4.878  -4.531  -4.543  0.00  0.00    -0.506 OA
ATOM     42  H   LIG d   1       5.194  -4.841  -3.536  0.00  0.00     0.292 HD
ENDBRANCH   3  41
BRANCH   4  43
ATOM     43  C   LIG d   1       5.355  -4.584  -7.321  0.00  0.00     0.119 C 
ATOM     44  H   LIG d   1       5.623  -5.508  -6.788  0.00  0.00     0.068 H 
ATOM     45  O   LIG d   1       6.165  -4.551  -8.498  0.00  0.00    -0.361 OA
ATOM     46  C   LIG d   1       5.974  -5.668  -9.370  0.00  0.00     0.111 C 
ATOM     47  C   LIG d   1       4.520  -5.696  -9.850  0.00  0.00     0.112 C 
ATOM     48  H   LIG d   1       6.214  -6.560  -8.772  0.00  0.00     0.065 H 
ATOM     49  C   LIG d   1       3.590  -5.762  -8.636  0.00  0.00     0.112 C 
ATOM     50  H   LIG d   1       4.291  -4.828 -10.487  0.00  0.00     0.065 H 
ATOM     51  C   LIG d   1       3.877  -4.568  -7.720  0.00  0.00     0.114 C 
ATOM     52  H   LIG d   1       3.694  -6.716  -8.099  0.00  0.00     0.065 H 
ATOM     53  H   LIG d   1       3.600  -3.617  -8.200  0.00  0.00     0.065 H 
BRANCH  46  54
ATOM     54  C   LIG d   1       6.908  -5.542 -10.574  0.00  0.00     0.073 C 
ATOM     55  H   LIG d   1       7.771  -6.210 -10.442  0.00  0.00     0.058 H 
ATOM     56  H   LIG d   1       6.365  -5.820 -11.490  0.00  0.00     0.058 H 
BRANCH  54  57
ATOM     57  O   LIG d   1       7.364  -4.191 -10.684  0.00  0.00    -0.392 OA
ATOM     58  H   LIG d   1       7.638  -3.629  -9.780  0.00  0.00     0.209 HD
ENDBRANCH  54  57
ENDBRANCH  46  54
BRANCH  47  59
ATOM     59  O   LIG d   1       4.312  -6.844 -10.675  0.00  0.00    -0.387 OA
ATOM     60  H   LIG d   1       3.439  -6.890 -11.344  0.00  0.00     0.210 HD
ENDBRANCH  47  59
BRANCH  49  61
ATOM     61  O   LIG d   1       2.230  -5.716  -9.072  0.00  0.00    -0.387 OA
ATOM     62  H   LIG d   1       1.779  -6.592  -9.560  0.00  0.00     0.210 HD
ENDBRANCH  49  61
BRANCH  51  63
ATOM     63  O   LIG d   1       3.065  -4.658  -6.548  0.00  0.00    -0.386 OA
ATOM     64  H   LIG d   1       2.252  -3.936  -6.386  0.00  0.00     0.210 HD
ENDBRANCH  51  63
ENDBRANCH   4  43
TORSDOF 18
ENDMDL
MODEL 6
REMARK VINA RESULT:      -5.1      3.066      6.556
REMARK  18 active torsions:
REMARK  status: ('A' for Active; 'I' for Inactive)
REMARK    1  A    between atoms: C_1  and  C_2 
REMARK    2  A    between atoms: C_2  and  C_3 
REMARK    3  A    between atoms: C_3  and  C_4 
REMARK    4  A    between atoms: C_5  and  C_6 
REMARK    5  A    between atoms: C_7  and  C_8 
REMARK    6  A    between atoms: C_8  and  C_9 
REMARK    7  A    between atoms: C_9  and  C_10 
REMARK    8  A    between atoms: C_12  and  O_37 
REMARK    9  A    between atoms: C_13  and  C_21 
REMARK   10  A    between atoms: C_14  and  O_20 
REMARK   11  A    between atoms: C_15  and  C_16 
REMARK   12  A    between atoms: C_16  and  O_18 
REMARK   13  A    between atoms: O_18  and  C_19 
REMARK   14  A    between atoms: C_23  and  O_36 
REMARK   15  A    between atoms: C_25  and  O_35 
REMARK   16  A    between atoms: C_27  and  O_34 
REMARK   17  A    between atoms: C_29  and  C_32 
REMARK   18  A    between atoms: C_32  and  O_33 
ROOT
ATOM      1  C   LIG d   1       6.571  -1.121  -4.311  0.00  0.00    -0.026 A 
ATOM      2  C   LIG d   1       6.836   0.010  -3.575  0.00  0.00    -0.016 A 
ATOM      3  C   LIG d   1       7.589   1.043  -4.125  0.00  0.00     0.126 A 
ATOM      4  C   LIG d   1       8.078   0.940  -5.419  0.00  0.00     0.067 A 
ATOM      5  C   LIG d   1       7.818  -0.192  -6.170  0.00  0.00     0.140 A 
ATOM      6  C   LIG d   1       7.063  -1.238  -5.616  0.00  0.00     0.104 A 
ATOM      7  H   LIG d   1       6.459   0.097  -2.567  0.00  0.00     0.066 H 
ENDROOT
BRANCH   1   8
ATOM      8  C   LIG d   1       5.754  -2.236  -3.712  0.00  0.00    -0.023 C 
ATOM      9  H   LIG d   1       6.413  -3.080  -3.462  0.00  0.00     0.032 H 
ATOM     10  H   LIG d   1       4.995  -2.566  -4.437  0.00  0.00     0.032 H 
BRANCH   8  11
ATOM     11  C   LIG d   1       5.062  -1.735  -2.442  0.00  0.00    -0.030 C 
ATOM     12  H   LIG d   1       5.259  -0.661  -2.316  0.00  0.00     0.031 H 
ATOM     13  H   LIG d   1       5.451  -2.285  -1.572  0.00  0.00     0.031 H 
BRANCH  11  14
ATOM     14  C   LIG d   1       3.577  -1.964  -2.557  0.00  0.00    -0.084 C 
ATOM     15  C   LIG d   1       2.750  -0.927  -2.646  0.00  0.00    -0.066 C 
ATOM     16  H   LIG d   1       1.662  -1.088  -2.624  0.00  0.00     0.061 H 
ATOM     17  H   LIG d   1       3.177  -2.988  -2.568  0.00  0.00     0.057 H 
BRANCH  15  18
ATOM     18  C   LIG d   1       3.289   0.435  -2.773  0.00  0.00    -0.066 C 
ATOM     19  C   LIG d   1       3.103   1.122  -3.896  0.00  0.00    -0.084 C 
ATOM     20  H   LIG d   1       3.437   2.168  -3.963  0.00  0.00     0.057 H 
ATOM     21  H   LIG d   1       3.848   0.886  -1.939  0.00  0.00     0.061 H 
BRANCH  19  22
ATOM     22  C   LIG d   1       2.436   0.467  -5.077  0.00  0.00    -0.035 C 
ATOM     23  H   LIG d   1       1.780   1.193  -5.577  0.00  0.00     0.031 H 
ATOM     24  H   LIG d   1       1.838  -0.391  -4.733  0.00  0.00     0.031 H 
BRANCH  22  25
ATOM     25  C   LIG d   1       3.502  -0.019  -6.061  0.00  0.00    -0.052 C 
ATOM     26  H   LIG d   1       3.821  -1.035  -5.784  0.00  0.00     0.027 H 
ATOM     27  H   LIG d   1       4.368   0.659  -6.025  0.00  0.00     0.027 H 
BRANCH  25  28
ATOM     28  C   LIG d   1       2.923  -0.033  -7.476  0.00  0.00    -0.065 C 
ATOM     29  H   LIG d   1       2.178  -0.838  -7.559  0.00  0.00     0.023 H 
ATOM     30  H   LIG d   1       3.731  -0.206  -8.201  0.00  0.00     0.023 H 
ATOM     31  H   LIG d   1       2.443   0.934  -7.686  0.00  0.00     0.023 H 
ENDBRANCH  25  28
ENDBRANCH  22  25
ENDBRANCH  19  22
ENDBRANCH  15  18
ENDBRANCH  11  14
ENDBRANCH   8  11
ENDBRANCH   1   8
BRANCH   6  32
ATOM     32  C   LIG d   1       6.787  -2.449  -6.404  0.00  0.00     0.343 C 
ATOM     33  O   LIG d   1       7.635  -3.313  -6.506  0.00  0.00    -0.245 OA
BRANCH  32  34
ATOM     34  O   LIG d   1       5.593  -2.602  -7.009  0.00  0.00    -0.464 OA
BRANCH  34  35
ATOM     35  C   LIG d   1       5.608  -2.924  -8.424  0.00  0.00     0.082 C 
ATOM     36  H   LIG d   1       6.648  -3.064  -8.757  0.00  0.00     0.066 H 
ATOM     37  H   LIG d   1       5.150  -2.103  -8.993  0.00  0.00     0.066 H 
ATOM     38  H   LIG d   1       5.041  -3.851  -8.597  0.00  0.00     0.066 H 
ENDBRANCH  34  35
ENDBRANCH  32  34
ENDBRANCH   6  32
BRANCH   5  39
ATOM     39  O   LIG d   1       8.295  -0.294  -7.436  0.00  0.00    -0.505 OA
ATOM     40  H   LIG d   1       7.610  -0.525  -8.265  0.00  0.00     0.292 HD
ENDBRANCH   5  39
BRANCH   3  41
ATOM     41  O   LIG d   1       7.847   2.155  -3.392  0.00  0.00    -0.506 OA
ATOM     42  H   LIG d   1       8.113   3.097  -3.894  0.00  0.00     0.292 HD
ENDBRANCH   3  41
BRANCH   4  43
ATOM     43  C   LIG d   1       8.893   2.064  -6.007  0.00  0.00     0.119 C 
ATOM     44  H   LIG d   1       8.668   3.011  -5.494  0.00  0.00     0.068 H 
ATOM     45  O   LIG d   1       8.526   2.253  -7.376  0.00  0.00    -0.361 OA
ATOM     46  C   LIG d   1       9.224   3.318  -8.025  0.00  0.00     0.111 C 
ATOM     47  C   LIG d   1      10.726   3.018  -8.022  0.00  0.00     0.112 C 
ATOM     48  H   LIG d   1       8.996   4.224  -7.445  0.00  0.00     0.065 H 
ATOM     49  C   LIG d   1      11.198   2.833  -6.578  0.00  0.00     0.112 C 
ATOM     50  H   LIG d   1      10.961   2.139  -8.639  0.00  0.00     0.065 H 
ATOM     51  C   LIG d   1      10.381   1.714  -5.924  0.00  0.00     0.114 C 
ATOM     52  H   LIG d   1      11.129   3.770  -6.006  0.00  0.00     0.065 H 
ATOM     53  H   LIG d   1      10.591   0.738  -6.387  0.00  0.00     0.065 H 
BRANCH  46  54
ATOM     54  C   LIG d   1       8.731   3.446  -9.468  0.00  0.00     0.073 C 
ATOM     55  H   LIG d   1       9.445   2.952 -10.144  0.00  0.00     0.058 H 
ATOM     56  H   LIG d   1       7.745   2.968  -9.562  0.00  0.00     0.058 H 
BRANCH  54  57
ATOM     57  O   LIG d   1       8.625   4.829  -9.814  0.00  0.00    -0.392 OA
ATOM     58  H   LIG d   1       7.686   5.221 -10.229  0.00  0.00     0.209 HD
ENDBRANCH  54  57
ENDBRANCH  46  54
BRANCH  47  59
ATOM     59  O   LIG d   1      11.431   4.108  -8.619  0.00  0.00    -0.387 OA
ATOM     60  H   LIG d   1      10.912   4.784  -9.316  0.00  0.00     0.210 HD
ENDBRANCH  47  59
BRANCH  49  61
ATOM     61  O   LIG d   1      12.583   2.482  -6.569  0.00  0.00    -0.387 OA
ATOM     62  H   LIG d   1      13.159   2.491  -7.505  0.00  0.00     0.210 HD
ENDBRANCH  49  61
BRANCH  51  63
ATOM     63  O   LIG d   1      10.764   1.580  -4.554  0.00  0.00    -0.386 OA
ATOM     64  H   LIG d   1      11.104   0.607  -4.170  0.00  0.00     0.210 HD
ENDBRANCH  51  63
ENDBRANCH   4  43
TORSDOF 18
ENDMDL
MODEL 7
REMARK VINA RESULT:      -5.1      4.979     10.142
REMARK  18 active torsions:
REMARK  status: ('A' for Active; 'I' for Inactive)
REMARK    1  A    between atoms: C_1  and  C_2 
REMARK    2  A    between atoms: C_2  and  C_3 
REMARK    3  A    between atoms: C_3  and  C_4 
REMARK    4  A    between atoms: C_5  and  C_6 
REMARK    5  A    between atoms: C_7  and  C_8 
REMARK    6  A    between atoms: C_8  and  C_9 
REMARK    7  A    between atoms: C_9  and  C_10 
REMARK    8  A    between atoms: C_12  and  O_37 
REMARK    9  A    between atoms: C_13  and  C_21 
REMARK   10  A    between atoms: C_14  and  O_20 
REMARK   11  A    between atoms: C_15  and  C_16 
REMARK   12  A    between atoms: C_16  and  O_18 
REMARK   13  A    between atoms: O_18  and  C_19 
REMARK   14  A    between atoms: C_23  and  O_36 
REMARK   15  A    between atoms: C_25  and  O_35 
REMARK   16  A    between atoms: C_27  and  O_34 
REMARK   17  A    between atoms: C_29  and  C_32 
REMARK   18  A    between atoms: C_32  and  O_33 
ROOT
ATOM      1  C   LIG d   1       8.701   1.828  -4.516  0.00  0.00    -0.026 A 
ATOM      2  C   LIG d   1       9.138   2.396  -3.342  0.00  0.00    -0.016 A 
ATOM      3  C   LIG d   1       9.764   3.639  -3.355  0.00  0.00     0.126 A 
ATOM      4  C   LIG d   1       9.952   4.315  -4.551  0.00  0.00     0.067 A 
ATOM      5  C   LIG d   1       9.517   3.755  -5.739  0.00  0.00     0.140 A 
ATOM      6  C   LIG d   1       8.890   2.499  -5.729  0.00  0.00     0.104 A 
ATOM      7  H   LIG d   1       8.996   1.875  -2.406  0.00  0.00     0.066 H 
ENDROOT
BRANCH   1   8
ATOM      8  C   LIG d   1       8.024   0.483  -4.496  0.00  0.00    -0.023 C 
ATOM      9  H   LIG d   1       8.684  -0.254  -4.018  0.00  0.00     0.032 H 
ATOM     10  H   LIG d   1       7.807   0.166  -5.528  0.00  0.00     0.032 H 
BRANCH   8  11
ATOM     11  C   LIG d   1       6.715   0.583  -3.709  0.00  0.00    -0.030 C 
ATOM     12  H   LIG d   1       5.946   1.059  -4.334  0.00  0.00     0.031 H 
ATOM     13  H   LIG d   1       6.878   1.186  -2.803  0.00  0.00     0.031 H 
BRANCH  11  14
ATOM     14  C   LIG d   1       6.259  -0.799  -3.317  0.00  0.00    -0.084 C 
ATOM     15  C   LIG d   1       5.265  -0.948  -2.446  0.00  0.00    -0.066 C 
ATOM     16  H   LIG d   1       5.002  -1.951  -2.080  0.00  0.00     0.061 H 
ATOM     17  H   LIG d   1       6.747  -1.683  -3.751  0.00  0.00     0.057 H 
BRANCH  15  18
ATOM     18  C   LIG d   1       4.520   0.227  -1.971  0.00  0.00    -0.066 C 
ATOM     19  C   LIG d   1       3.282   0.446  -2.401  0.00  0.00    -0.084 C 
ATOM     20  H   LIG d   1       2.695   1.281  -1.986  0.00  0.00     0.057 H 
ATOM     21  H   LIG d   1       4.988   0.926  -1.261  0.00  0.00     0.061 H 
BRANCH  19  22
ATOM     22  C   LIG d   1       2.681  -0.446  -3.455  0.00  0.00    -0.035 C 
ATOM     23  H   LIG d   1       1.719  -0.840  -3.098  0.00  0.00     0.031 H 
ATOM     24  H   LIG d   1       3.366  -1.283  -3.662  0.00  0.00     0.031 H 
BRANCH  22  25
ATOM     25  C   LIG d   1       2.459   0.358  -4.737  0.00  0.00    -0.052 C 
ATOM     26  H   LIG d   1       2.594   1.429  -4.527  0.00  0.00     0.027 H 
ATOM     27  H   LIG d   1       1.436   0.184  -5.105  0.00  0.00     0.027 H 
BRANCH  25  28
ATOM     28  C   LIG d   1       3.465  -0.086  -5.800  0.00  0.00    -0.065 C 
ATOM     29  H   LIG d   1       4.166  -0.811  -5.361  0.00  0.00     0.023 H 
ATOM     30  H   LIG d   1       4.024   0.789  -6.163  0.00  0.00     0.023 H 
ATOM     31  H   LIG d   1       2.931  -0.554  -6.640  0.00  0.00     0.023 H 
ENDBRANCH  25  28
ENDBRANCH  22  25
ENDBRANCH  19  22
ENDBRANCH  15  18
ENDBRANCH  11  14
ENDBRANCH   8  11
ENDBRANCH   1   8
BRANCH   6  32
ATOM     32  C   LIG d   1       8.430   1.892  -6.987  0.00  0.00     0.343 C 
ATOM     33  O   LIG d   1       9.240   1.527  -7.818  0.00  0.00    -0.245 OA
BRANCH  32  34
ATOM     34  O   LIG d   1       7.111   1.738  -7.220  0.00  0.00    -0.464 OA
BRANCH  34  35
ATOM     35  C   LIG d   1       6.730   0.780  -8.241  0.00  0.00     0.082 C 
ATOM     36  H   LIG d   1       6.443  -0.170  -7.763  0.00  0.00     0.066 H 
ATOM     37  H   LIG d   1       7.579   0.607  -8.918  0.00  0.00     0.066 H 
ATOM     38  H   LIG d   1       5.877   1.172  -8.814  0.00  0.00     0.066 H 
ENDBRANCH  34  35
ENDBRANCH  32  34
ENDBRANCH   6  32
BRANCH   5  39
ATOM     39  O   LIG d   1       9.700   4.416  -6.910  0.00  0.00    -0.505 OA
ATOM     40  H   LIG d   1       9.629   5.513  -6.939  0.00  0.00     0.292 HD
ENDBRANCH   5  39
BRANCH   3  41
ATOM     41  O   LIG d   1      10.192   4.191  -2.192  0.00  0.00    -0.506 OA
ATOM     42  H   LIG d   1      10.278   3.572  -1.286  0.00  0.00     0.292 HD
ENDBRANCH   3  41
BRANCH   4  43
ATOM     43  C   LIG d   1      10.631   5.661  -4.557  0.00  0.00     0.119 C 
ATOM     44  H   LIG d   1      10.888   5.956  -5.585  0.00  0.00     0.068 H 
ATOM     45  O   LIG d   1      11.867   5.574  -3.845  0.00  0.00    -0.361 OA
ATOM     46  C   LIG d   1      12.609   6.795  -3.811  0.00  0.00     0.111 C 
ATOM     47  C   LIG d   1      11.782   7.873  -3.105  0.00  0.00     0.112 C 
ATOM     48  H   LIG d   1      12.797   7.061  -4.862  0.00  0.00     0.065 H 
ATOM     49  C   LIG d   1      10.448   8.043  -3.836  0.00  0.00     0.112 C 
ATOM     50  H   LIG d   1      11.632   7.631  -2.042  0.00  0.00     0.065 H 
ATOM     51  C   LIG d   1       9.726   6.692  -3.880  0.00  0.00     0.114 C 
ATOM     52  H   LIG d   1      10.589   8.458  -4.844  0.00  0.00     0.065 H 
ATOM     53  H   LIG d   1       9.424   6.365  -2.874  0.00  0.00     0.065 H 
BRANCH  46  54
ATOM     54  C   LIG d   1      13.919   6.576  -3.053  0.00  0.00     0.073 C 
ATOM     55  H   LIG d   1      13.754   6.746  -1.978  0.00  0.00     0.058 H 
ATOM     56  H   LIG d   1      14.267   5.545  -3.212  0.00  0.00     0.058 H 
BRANCH  54  57
ATOM     57  O   LIG d   1      14.907   7.492  -3.533  0.00  0.00    -0.392 OA
ATOM     58  H   LIG d   1      15.256   7.427  -4.573  0.00  0.00     0.209 HD
ENDBRANCH  54  57
ENDBRANCH  46  54
BRANCH  47  59
ATOM     59  O   LIG d   1      12.497   9.110  -3.121  0.00  0.00    -0.387 OA
ATOM     60  H   LIG d   1      12.047  10.000  -3.585  0.00  0.00     0.210 HD
ENDBRANCH  47  59
BRANCH  49  61
ATOM     61  O   LIG d   1       9.641   8.996  -3.141  0.00  0.00    -0.387 OA
ATOM     62  H   LIG d   1       8.918   8.658  -2.385  0.00  0.00     0.210 HD
ENDBRANCH  49  61
BRANCH  51  63
ATOM     63  O   LIG d   1       8.512   6.823  -4.622  0.00  0.00    -0.386 OA
ATOM     64  H   LIG d   1       7.627   6.236  -4.337  0.00  0.00     0.210 HD
ENDBRANCH  51  63
ENDBRANCH   4  43
TORSDOF 18
ENDMDL
MODEL 8
REMARK VINA RESULT:      -5.1      5.802     10.636
REMARK  18 active torsions:
REMARK  status: ('A' for Active; 'I' for Inactive)
REMARK    1  A    between atoms: C_1  and  C_2 
REMARK    2  A    between atoms: C_2  and  C_3 
REMARK    3  A    between atoms: C_3  and  C_4 
REMARK    4  A    between atoms: C_5  and  C_6 
REMARK    5  A    between atoms: C_7  and  C_8 
REMARK    6  A    between atoms: C_8  and  C_9 
REMARK    7  A    between atoms: C_9  and  C_10 
REMARK    8  A    between atoms: C_12  and  O_37 
REMARK    9  A    between atoms: C_13  and  C_21 
REMARK   10  A    between atoms: C_14  and  O_20 
REMARK   11  A    between atoms: C_15  and  C_16 
REMARK   12  A    between atoms: C_16  and  O_18 
REMARK   13  A    between atoms: O_18  and  C_19 
REMARK   14  A    between atoms: C_23  and  O_36 
REMARK   15  A    between atoms: C_25  and  O_35 
REMARK   16  A    between atoms: C_27  and  O_34 
REMARK   17  A    between atoms: C_29  and  C_32 
REMARK   18  A    between atoms: C_32  and  O_33 
ROOT
ATOM      1  C   LIG d   1       9.706   1.974  -5.186  0.00  0.00    -0.026 A 
ATOM      2  C   LIG d   1       9.868   2.160  -3.833  0.00  0.00    -0.016 A 
ATOM      3  C   LIG d   1      10.271   3.397  -3.340  0.00  0.00     0.126 A 
ATOM      4  C   LIG d   1      10.513   4.452  -4.208  0.00  0.00     0.067 A 
ATOM      5  C   LIG d   1      10.353   4.277  -5.572  0.00  0.00     0.140 A 
ATOM      6  C   LIG d   1       9.951   3.029  -6.072  0.00  0.00     0.104 A 
ATOM      7  H   LIG d   1       9.682   1.344  -3.151  0.00  0.00     0.066 H 
ENDROOT
BRANCH   1   8
ATOM      8  C   LIG d   1       9.269   0.632  -5.715  0.00  0.00    -0.023 C 
ATOM      9  H   LIG d   1       9.821  -0.165  -5.197  0.00  0.00     0.032 H 
ATOM     10  H   LIG d   1       9.474   0.579  -6.795  0.00  0.00     0.032 H 
BRANCH   8  11
ATOM     11  C   LIG d   1       7.768   0.454  -5.473  0.00  0.00    -0.030 C 
ATOM     12  H   LIG d   1       7.291   0.073  -6.388  0.00  0.00     0.031 H 
ATOM     13  H   LIG d   1       7.323   1.423  -5.203  0.00  0.00     0.031 H 
BRANCH  11  14
ATOM     14  C   LIG d   1       7.554  -0.527  -4.349  0.00  0.00    -0.084 C 
ATOM     15  C   LIG d   1       6.812  -0.184  -3.300  0.00  0.00    -0.066 C 
ATOM     16  H   LIG d   1       6.742  -0.857  -2.433  0.00  0.00     0.061 H 
ATOM     17  H   LIG d   1       8.011  -1.526  -4.396  0.00  0.00     0.057 H 
BRANCH  15  18
ATOM     18  C   LIG d   1       6.087   1.095  -3.299  0.00  0.00    -0.066 C 
ATOM     19  C   LIG d   1       5.027   1.257  -2.514  0.00  0.00    -0.084 C 
ATOM     20  H   LIG d   1       4.532   2.238  -2.454  0.00  0.00     0.057 H 
ATOM     21  H   LIG d   1       6.422   1.918  -3.948  0.00  0.00     0.061 H 
BRANCH  19  22
ATOM     22  C   LIG d   1       4.502   0.097  -1.709  0.00  0.00    -0.035 C 
ATOM     23  H   LIG d   1       4.036   0.472  -0.787  0.00  0.00     0.031 H 
ATOM     24  H   LIG d   1       5.332  -0.578  -1.453  0.00  0.00     0.031 H 
BRANCH  22  25
ATOM     25  C   LIG d   1       3.461  -0.665  -2.532  0.00  0.00    -0.052 C 
ATOM     26  H   LIG d   1       3.478  -0.303  -3.571  0.00  0.00     0.027 H 
ATOM     27  H   LIG d   1       2.462  -0.500  -2.102  0.00  0.00     0.027 H 
BRANCH  25  28
ATOM     28  C   LIG d   1       3.786  -2.159  -2.508  0.00  0.00    -0.065 C 
ATOM     29  H   LIG d   1       3.184  -2.679  -3.267  0.00  0.00     0.023 H 
ATOM     30  H   LIG d   1       3.556  -2.569  -1.514  0.00  0.00     0.023 H 
ATOM     31  H   LIG d   1       4.855  -2.307  -2.725  0.00  0.00     0.023 H 
ENDBRANCH  25  28
ENDBRANCH  22  25
ENDBRANCH  19  22
ENDBRANCH  15  18
ENDBRANCH  11  14
ENDBRANCH   8  11
ENDBRANCH   1   8
BRANCH   6  32
ATOM     32  C   LIG d   1       9.785   2.831  -7.520  0.00  0.00     0.343 C 
ATOM     33  O   LIG d   1      10.659   2.280  -8.162  0.00  0.00    -0.245 OA
BRANCH  32  34
ATOM     34  O   LIG d   1       8.665   3.257  -8.135  0.00  0.00    -0.464 OA
BRANCH  34  35
ATOM     35  C   LIG d   1       7.877   2.259  -8.835  0.00  0.00     0.082 C 
ATOM     36  H   LIG d   1       8.269   1.256  -8.606  0.00  0.00     0.066 H 
ATOM     37  H   LIG d   1       7.937   2.437  -9.918  0.00  0.00     0.066 H 
ATOM     38  H   LIG d   1       6.828   2.325  -8.510  0.00  0.00     0.066 H 
ENDBRANCH  34  35
ENDBRANCH  32  34
ENDBRANCH   6  32
BRANCH   5  39
ATOM     39  O   LIG d   1      10.589   5.308  -6.422  0.00  0.00    -0.505 OA
ATOM     40  H   LIG d   1      10.585   5.136  -7.509  0.00  0.00     0.292 HD
ENDBRANCH   5  39
BRANCH   3  41
ATOM     41  O   LIG d   1      10.429   3.573  -2.004  0.00  0.00    -0.506 OA
ATOM     42  H   LIG d   1       9.760   4.252  -1.454  0.00  0.00     0.292 HD
ENDBRANCH   3  41
BRANCH   4  43
ATOM     43  C   LIG d   1      10.950   5.789  -3.666  0.00  0.00     0.119 C 
ATOM     44  H   LIG d   1      11.475   6.364  -4.443  0.00  0.00     0.068 H 
ATOM     45  O   LIG d   1      11.891   5.590  -2.609  0.00  0.00    -0.361 OA
ATOM     46  C   LIG d   1      12.393   6.801  -2.039  0.00  0.00     0.111 C 
ATOM     47  C   LIG d   1      11.233   7.597  -1.435  0.00  0.00     0.112 C 
ATOM     48  H   LIG d   1      12.866   7.349  -2.867  0.00  0.00     0.065 H 
ATOM     49  C   LIG d   1      10.193   7.875  -2.523  0.00  0.00     0.112 C 
ATOM     50  H   LIG d   1      10.788   7.070  -0.577  0.00  0.00     0.065 H 
ATOM     51  C   LIG d   1       9.733   6.544  -3.127  0.00  0.00     0.114 C 
ATOM     52  H   LIG d   1      10.586   8.553  -3.295  0.00  0.00     0.065 H 
ATOM     53  H   LIG d   1       9.177   5.940  -2.394  0.00  0.00     0.065 H 
BRANCH  46  54
ATOM     54  C   LIG d   1      13.409   6.467  -0.944  0.00  0.00     0.073 C 
ATOM     55  H   LIG d   1      13.928   5.531  -1.198  0.00  0.00     0.058 H 
ATOM     56  H   LIG d   1      14.141   7.284  -0.863  0.00  0.00     0.058 H 
BRANCH  54  57
ATOM     57  O   LIG d   1      12.729   6.311   0.304  0.00  0.00    -0.392 OA
ATOM     58  H   LIG d   1      13.295   6.046   1.208  0.00  0.00     0.209 HD
ENDBRANCH  54  57
ENDBRANCH  46  54
BRANCH  47  59
ATOM     59  O   LIG d   1      11.723   8.835  -0.915  0.00  0.00    -0.387 OA
ATOM     60  H   LIG d   1      11.958   9.664  -1.599  0.00  0.00     0.210 HD
ENDBRANCH  47  59
BRANCH  49  61
ATOM     61  O   LIG d   1       9.074   8.555  -1.953  0.00  0.00    -0.387 OA
ATOM     62  H   LIG d   1       9.201   9.159  -1.043  0.00  0.00     0.210 HD
ENDBRANCH  49  61
BRANCH  51  63
ATOM     63  O   LIG d   1       8.815   6.794  -4.193  0.00  0.00    -0.386 OA
ATOM     64  H   LIG d   1       9.184   7.174  -5.158  0.00  0.00     0.210 HD
ENDBRANCH  51  63
ENDBRANCH   4  43
TORSDOF 18
ENDMDL
MODEL 9
REMARK VINA RESULT:      -5.0      3.146      6.097
REMARK  18 active torsions:
REMARK  status: ('A' for Active; 'I' for Inactive)
REMARK    1  A    between atoms: C_1  and  C_2 
REMARK    2  A    between atoms: C_2  and  C_3 
REMARK    3  A    between atoms: C_3  and  C_4 
REMARK    4  A    between atoms: C_5  and  C_6 
REMARK    5  A    between atoms: C_7  and  C_8 
REMARK    6  A    between atoms: C_8  and  C_9 
REMARK    7  A    between atoms: C_9  and  C_10 
REMARK    8  A    between atoms: C_12  and  O_37 
REMARK    9  A    between atoms: C_13  and  C_21 
REMARK   10  A    between atoms: C_14  and  O_20 
REMARK   11  A    between atoms: C_15  and  C_16 
REMARK   12  A    between atoms: C_16  and  O_18 
REMARK   13  A    between atoms: O_18  and  C_19 
REMARK   14  A    between atoms: C_23  and  O_36 
REMARK   15  A    between atoms: C_25  and  O_35 
REMARK   16  A    between atoms: C_27  and  O_34 
REMARK   17  A    between atoms: C_29  and  C_32 
REMARK   18  A    between atoms: C_32  and  O_33 
ROOT
ATOM      1  C   LIG d   1       3.144  -3.743  -9.364  0.00  0.00    -0.026 A 
ATOM      2  C   LIG d   1       3.013  -5.107  -9.240  0.00  0.00    -0.016 A 
ATOM      3  C   LIG d   1       1.880  -5.749  -9.731  0.00  0.00     0.126 A 
ATOM      4  C   LIG d   1       0.874  -5.019 -10.348  0.00  0.00     0.067 A 
ATOM      5  C   LIG d   1       0.994  -3.647 -10.479  0.00  0.00     0.140 A 
ATOM      6  C   LIG d   1       2.134  -2.997  -9.980  0.00  0.00     0.104 A 
ATOM      7  H   LIG d   1       3.791  -5.682  -8.761  0.00  0.00     0.066 H 
ENDROOT
BRANCH   1   8
ATOM      8  C   LIG d   1       4.373  -3.053  -8.833  0.00  0.00    -0.023 C 
ATOM      9  H   LIG d   1       4.382  -2.007  -9.169  0.00  0.00     0.032 H 
ATOM     10  H   LIG d   1       5.273  -3.566  -9.206  0.00  0.00     0.032 H 
BRANCH   8  11
ATOM     11  C   LIG d   1       4.361  -3.098  -7.303  0.00  0.00    -0.030 C 
ATOM     12  H   LIG d   1       5.215  -3.691  -6.946  0.00  0.00     0.031 H 
ATOM     13  H   LIG d   1       3.424  -3.558  -6.957  0.00  0.00     0.031 H 
BRANCH  11  14
ATOM     14  C   LIG d   1       4.461  -1.696  -6.759  0.00  0.00    -0.084 C 
ATOM     15  C   LIG d   1       4.567  -1.497  -5.449  0.00  0.00    -0.066 C 
ATOM     16  H   LIG d   1       4.534  -0.475  -5.044  0.00  0.00     0.061 H 
ATOM     17  H   LIG d   1       4.448  -0.837  -7.446  0.00  0.00     0.057 H 
BRANCH  15  18
ATOM     18  C   LIG d   1       4.726  -2.643  -4.541  0.00  0.00    -0.066 C 
ATOM     19  C   LIG d   1       4.207  -2.600  -3.319  0.00  0.00    -0.084 C 
ATOM     20  H   LIG d   1       4.257  -3.486  -2.668  0.00  0.00     0.057 H 
ATOM     21  H   LIG d   1       5.275  -3.537  -4.875  0.00  0.00     0.061 H 
BRANCH  19  22
ATOM     22  C   LIG d   1       3.553  -1.337  -2.823  0.00  0.00    -0.035 C 
ATOM     23  H   LIG d   1       2.594  -1.584  -2.345  0.00  0.00     0.031 H 
ATOM     24  H   LIG d   1       3.376  -0.658  -3.670  0.00  0.00     0.031 H 
BRANCH  22  25
ATOM     25  C   LIG d   1       4.468  -0.654  -1.805  0.00  0.00    -0.052 C 
ATOM     26  H   LIG d   1       5.516  -0.908  -2.025  0.00  0.00     0.027 H 
ATOM     27  H   LIG d   1       4.212  -0.999  -0.793  0.00  0.00     0.027 H 
BRANCH  25  28
ATOM     28  C   LIG d   1       4.283   0.862  -1.889  0.00  0.00    -0.065 C 
ATOM     29  H   LIG d   1       4.757   1.240  -2.807  0.00  0.00     0.023 H 
ATOM     30  H   LIG d   1       4.748   1.338  -1.014  0.00  0.00     0.023 H 
ATOM     31  H   LIG d   1       3.209   1.100  -1.908  0.00  0.00     0.023 H 
ENDBRANCH  25  28
ENDBRANCH  22  25
ENDBRANCH  19  22
ENDBRANCH  15  18
ENDBRANCH  11  14
ENDBRANCH   8  11
ENDBRANCH   1   8
BRANCH   6  32
ATOM     32  C   LIG d   1       2.268  -1.537 -10.108  0.00  0.00     0.343 C 
ATOM     33  O   LIG d   1       2.655  -1.052 -11.154  0.00  0.00    -0.245 OA
BRANCH  32  34
ATOM     34  O   LIG d   1       1.960  -0.738  -9.068  0.00  0.00    -0.464 OA
BRANCH  34  35
ATOM     35  C   LIG d   1       2.547   0.590  -9.062  0.00  0.00     0.082 C 
ATOM     36  H   LIG d   1       1.827   1.311  -9.478  0.00  0.00     0.066 H 
ATOM     37  H   LIG d   1       3.460   0.591  -9.674  0.00  0.00     0.066 H 
ATOM     38  H   LIG d   1       2.797   0.877  -8.029  0.00  0.00     0.066 H 
ENDBRANCH  34  35
ENDBRANCH  32  34
ENDBRANCH   6  32
BRANCH   5  39
ATOM     39  O   LIG d   1       0.011  -2.932 -11.082  0.00  0.00    -0.505 OA
ATOM     40  H   LIG d   1      -0.460  -3.312 -12.000  0.00  0.00     0.292 HD
ENDBRANCH   5  39
BRANCH   3  41
ATOM     41  O   LIG d   1       1.758  -7.094  -9.604  0.00  0.00    -0.506 OA
ATOM     42  H   LIG d   1       0.959  -7.518  -8.977  0.00  0.00     0.292 HD
ENDBRANCH   3  41
BRANCH   4  43
ATOM     43  C   LIG d   1      -0.351  -5.722 -10.876  0.00  0.00     0.119 C 
ATOM     44  H   LIG d   1      -0.150  -6.796 -11.006  0.00  0.00     0.068 H 
ATOM     45  O   LIG d   1      -0.669  -5.214 -12.173  0.00  0.00    -0.361 OA
ATOM     46  C   LIG d   1      -1.805  -5.835 -12.781  0.00  0.00     0.111 C 
ATOM     47  C   LIG d   1      -3.041  -5.593 -11.911  0.00  0.00     0.112 C 
ATOM     48  H   LIG d   1      -1.563  -6.906 -12.844  0.00  0.00     0.065 H 
ATOM     49  C   LIG d   1      -2.783  -6.142 -10.505  0.00  0.00     0.112 C 
ATOM     50  H   LIG d   1      -3.312  -4.527 -11.884  0.00  0.00     0.065 H 
ATOM     51  C   LIG d   1      -1.529  -5.476  -9.931  0.00  0.00     0.114 C 
ATOM     52  H   LIG d   1      -2.691  -7.238 -10.510  0.00  0.00     0.065 H 
ATOM     53  H   LIG d   1      -1.688  -4.401  -9.758  0.00  0.00     0.065 H 
BRANCH  46  54
ATOM     54  C   LIG d   1      -2.032  -5.235 -14.170  0.00  0.00     0.073 C 
ATOM     55  H   LIG d   1      -1.087  -4.818 -14.549  0.00  0.00     0.058 H 
ATOM     56  H   LIG d   1      -2.386  -6.021 -14.854  0.00  0.00     0.058 H 
BRANCH  54  57
ATOM     57  O   LIG d   1      -3.012  -4.199 -14.087  0.00  0.00    -0.392 OA
ATOM     58  H   LIG d   1      -3.053  -3.418 -14.859  0.00  0.00     0.209 HD
ENDBRANCH  54  57
ENDBRANCH  46  54
BRANCH  47  59
ATOM     59  O   LIG d   1      -4.167  -6.261 -12.485  0.00  0.00    -0.387 OA
ATOM     60  H   LIG d   1      -4.588  -5.908 -13.438  0.00  0.00     0.210 HD
ENDBRANCH  47  59
BRANCH  49  61
ATOM     61  O   LIG d   1      -3.905  -5.858  -9.667  0.00  0.00    -0.387 OA
ATOM     62  H   LIG d   1      -4.156  -4.816  -9.419  0.00  0.00     0.210 HD
ENDBRANCH  49  61
BRANCH  51  63
ATOM     63  O   LIG d   1      -1.236  -6.032  -8.648  0.00  0.00    -0.386 OA
ATOM     64  H   LIG d   1      -0.192  -6.193  -8.343  0.00  0.00     0.210 HD
ENDBRANCH  51  63
ENDBRANCH   4  43
TORSDOF 18
ENDMDL
