MODEL 1
REMARK VINA RESULT:      -6.3      0.000      0.000
REMARK  9 active torsions:
REMARK  status: ('A' for Active; 'I' for Inactive)
REMARK    1  A    between atoms: C_1  and  C_2 
REMARK    2  A    between atoms: C_2  and  C_3 
REMARK    3  A    between atoms: C_6  and  C_9 
REMARK    4  A    between atoms: C_16  and  O_20 
REMARK    5  A    between atoms: O_20  and  C_21 
REMARK       I    between atoms: C_21  and  N_23 
REMARK    6  A    between atoms: N_23  and  C_24 
REMARK    7  A    between atoms: N_23  and  C_26 
REMARK    8  A    between atoms: C_24  and  C_25 
REMARK    9  A    between atoms: C_26  and  C_27 
ROOT
ATOM      1  C   LIG d   1       3.767   0.400  -8.191  0.00  0.00    -0.008 C 
ATOM      2  C   LIG d   1       3.159  -0.330  -9.158  0.00  0.00     0.176 A 
ATOM      3  C   LIG d   1       3.174  -0.047 -10.602  0.00  0.00     0.232 A 
ATOM      4  O   LIG d   1       3.725   0.876 -11.175  0.00  0.00    -0.283 OA
ATOM      5  C   LIG d   1       2.368  -1.128 -11.200  0.00  0.00     0.068 A 
ATOM      6  C   LIG d   1       2.009  -1.437 -12.511  0.00  0.00    -0.044 A 
ATOM      7  C   LIG d   1       1.241  -2.537 -12.766  0.00  0.00    -0.018 A 
ATOM      8  C   LIG d   1       0.820  -3.354 -11.720  0.00  0.00     0.137 A 
ATOM      9  C   LIG d   1       1.173  -3.062 -10.412  0.00  0.00     0.024 A 
ATOM     10  C   LIG d   1       1.955  -1.946 -10.137  0.00  0.00     0.143 A 
ATOM     11  O   LIG d   1       2.428  -1.454  -8.971  0.00  0.00    -0.451 OA
ATOM     12  H   LIG d   1       4.398   1.234  -8.461  0.00  0.00     0.066 H 
ATOM     13  H   LIG d   1       2.336  -0.805 -13.325  0.00  0.00     0.063 H 
ATOM     14  H   LIG d   1       0.958  -2.774 -13.782  0.00  0.00     0.065 H 
ATOM     15  H   LIG d   1       0.841  -3.702  -9.608  0.00  0.00     0.069 H 
ENDROOT
BRANCH   1  16
ATOM     16  C   LIG d   1       3.568   0.056  -6.776  0.00  0.00    -0.021 A 
ATOM     17  C   LIG d   1       4.425  -0.850  -6.144  0.00  0.00    -0.054 A 
ATOM     18  C   LIG d   1       4.231  -1.167  -4.816  0.00  0.00    -0.058 A 
ATOM     19  H   LIG d   1       5.238  -1.301  -6.695  0.00  0.00     0.062 H 
ATOM     20  C   LIG d   1       3.190  -0.591  -4.108  0.00  0.00    -0.048 A 
ATOM     21  H   LIG d   1       4.892  -1.867  -4.327  0.00  0.00     0.062 H 
ATOM     22  C   LIG d   1       2.336   0.307  -4.727  0.00  0.00    -0.058 A 
ATOM     23  C   LIG d   1       2.522   0.639  -6.052  0.00  0.00    -0.054 A 
ATOM     24  H   LIG d   1       1.527   0.751  -4.167  0.00  0.00     0.062 H 
ATOM     25  H   LIG d   1       1.858   1.343  -6.531  0.00  0.00     0.062 H 
BRANCH  20  26
ATOM     26  C   LIG d   1       2.985  -0.944  -2.658  0.00  0.00    -0.030 C 
ATOM     27  H   LIG d   1       3.214  -0.078  -2.038  0.00  0.00     0.031 H 
ATOM     28  H   LIG d   1       1.948  -1.241  -2.499  0.00  0.00     0.031 H 
BRANCH  26  29
ATOM     29  C   LIG d   1       3.911  -2.101  -2.279  0.00  0.00    -0.061 C 
ATOM     30  H   LIG d   1       4.757  -1.718  -1.708  0.00  0.00     0.023 H 
ATOM     31  H   LIG d   1       3.362  -2.823  -1.675  0.00  0.00     0.023 H 
ATOM     32  H   LIG d   1       4.275  -2.588  -3.184  0.00  0.00     0.023 H 
ENDBRANCH  26  29
ENDBRANCH  20  26
ENDBRANCH   1  16
BRANCH   8  33
ATOM     33  O   LIG d   1       0.055  -4.444 -11.983  0.00  0.00    -0.411 OA
BRANCH  33  34
ATOM     34  C   LIG d   1      -1.280  -4.267 -11.995  0.00  0.00     0.408 C 
ATOM     35  O   LIG d   1      -1.796  -3.591 -12.863  0.00  0.00    -0.226 OA
ATOM     36  N   LIG d   1      -2.044  -4.841 -11.044  0.00  0.00    -0.268 N 
BRANCH  36  37
ATOM     37  C   LIG d   1      -3.497  -4.648 -11.057  0.00  0.00     0.015 C 
ATOM     38  H   LIG d   1      -3.732  -3.682 -11.502  0.00  0.00     0.046 H 
ATOM     39  H   LIG d   1      -3.963  -5.441 -11.643  0.00  0.00     0.046 H 
BRANCH  37  40
ATOM     40  C   LIG d   1      -4.029  -4.694  -9.623  0.00  0.00    -0.049 C 
ATOM     41  H   LIG d   1      -3.916  -3.712  -9.162  0.00  0.00     0.025 H 
ATOM     42  H   LIG d   1      -5.084  -4.970  -9.636  0.00  0.00     0.025 H 
ATOM     43  H   LIG d   1      -3.468  -5.431  -9.050  0.00  0.00     0.025 H 
ENDBRANCH  37  40
ENDBRANCH  36  37
BRANCH  36  44
ATOM     44  C   LIG d   1      -1.423  -5.655  -9.997  0.00  0.00     0.015 C 
ATOM     45  H   LIG d   1      -0.398  -5.323  -9.839  0.00  0.00     0.046 H 
ATOM     46  H   LIG d   1      -1.987  -5.548  -9.070  0.00  0.00     0.046 H 
BRANCH  44  47
ATOM     47  C   LIG d   1      -1.423  -7.123 -10.426  0.00  0.00    -0.049 C 
ATOM     48  H   LIG d   1      -1.147  -7.195 -11.478  0.00  0.00     0.025 H 
ATOM     49  H   LIG d   1      -0.702  -7.678  -9.823  0.00  0.00     0.025 H 
ATOM     50  H   LIG d   1      -2.417  -7.545 -10.281  0.00  0.00     0.025 H 
ENDBRANCH  44  47
ENDBRANCH  36  44
ENDBRANCH  33  34
ENDBRANCH   8  33
TORSDOF 9
ENDMDL
MODEL 2
REMARK VINA RESULT:      -6.3      6.095      9.208
REMARK  9 active torsions:
REMARK  status: ('A' for Active; 'I' for Inactive)
REMARK    1  A    between atoms: C_1  and  C_2 
REMARK    2  A    between atoms: C_2  and  C_3 
REMARK    3  A    between atoms: C_6  and  C_9 
REMARK    4  A    between atoms: C_16  and  O_20 
REMARK    5  A    between atoms: O_20  and  C_21 
REMARK       I    between atoms: C_21  and  N_23 
REMARK    6  A    between atoms: N_23  and  C_24 
REMARK    7  A    between atoms: N_23  and  C_26 
REMARK    8  A    between atoms: C_24  and  C_25 
REMARK    9  A    between atoms: C_26  and  C_27 
ROOT
ATOM      1  C   LIG d   1       4.675  -8.540  -5.838  0.00  0.00    -0.008 C 
ATOM      2  C   LIG d   1       4.731  -7.203  -6.061  0.00  0.00     0.176 A 
ATOM      3  C   LIG d   1       4.257  -6.501  -7.265  0.00  0.00     0.232 A 
ATOM      4  O   LIG d   1       3.741  -6.985  -8.256  0.00  0.00    -0.283 OA
ATOM      5  C   LIG d   1       4.553  -5.080  -7.004  0.00  0.00     0.068 A 
ATOM      6  C   LIG d   1       4.346  -3.912  -7.737  0.00  0.00    -0.044 A 
ATOM      7  C   LIG d   1       4.727  -2.706  -7.221  0.00  0.00    -0.018 A 
ATOM      8  C   LIG d   1       5.317  -2.640  -5.961  0.00  0.00     0.137 A 
ATOM      9  C   LIG d   1       5.525  -3.792  -5.219  0.00  0.00     0.024 A 
ATOM     10  C   LIG d   1       5.142  -5.026  -5.731  0.00  0.00     0.143 A 
ATOM     11  O   LIG d   1       5.232  -6.272  -5.216  0.00  0.00    -0.451 OA
ATOM     12  H   LIG d   1       4.176  -9.184  -6.546  0.00  0.00     0.066 H 
ATOM     13  H   LIG d   1       3.887  -3.961  -8.714  0.00  0.00     0.063 H 
ATOM     14  H   LIG d   1       4.571  -1.801  -7.790  0.00  0.00     0.065 H 
ATOM     15  H   LIG d   1       5.984  -3.729  -4.244  0.00  0.00     0.069 H 
ENDROOT
BRANCH   1  16
ATOM     16  C   LIG d   1       5.293  -9.110  -4.633  0.00  0.00    -0.021 A 
ATOM     17  C   LIG d   1       4.519  -9.832  -3.719  0.00  0.00    -0.054 A 
ATOM     18  C   LIG d   1       5.108 -10.362  -2.590  0.00  0.00    -0.058 A 
ATOM     19  H   LIG d   1       3.463  -9.972  -3.896  0.00  0.00     0.062 H 
ATOM     20  C   LIG d   1       6.461 -10.183  -2.361  0.00  0.00    -0.048 A 
ATOM     21  H   LIG d   1       4.511 -10.920  -1.884  0.00  0.00     0.062 H 
ATOM     22  C   LIG d   1       7.234  -9.469  -3.261  0.00  0.00    -0.058 A 
ATOM     23  C   LIG d   1       6.662  -8.938  -4.397  0.00  0.00    -0.054 A 
ATOM     24  H   LIG d   1       8.289  -9.334  -3.074  0.00  0.00     0.062 H 
ATOM     25  H   LIG d   1       7.268  -8.386  -5.100  0.00  0.00     0.062 H 
BRANCH  20  26
ATOM     26  C   LIG d   1       7.095 -10.767  -1.125  0.00  0.00    -0.030 C 
ATOM     27  H   LIG d   1       8.124 -11.051  -1.344  0.00  0.00     0.031 H 
ATOM     28  H   LIG d   1       7.086 -10.025  -0.326  0.00  0.00     0.031 H 
BRANCH  26  29
ATOM     29  C   LIG d   1       6.307 -12.002  -0.683  0.00  0.00    -0.061 C 
ATOM     30  H   LIG d   1       6.963 -12.670  -0.123  0.00  0.00     0.023 H 
ATOM     31  H   LIG d   1       5.476 -11.695  -0.050  0.00  0.00     0.023 H 
ATOM     32  H   LIG d   1       5.924 -12.522  -1.561  0.00  0.00     0.023 H 
ENDBRANCH  26  29
ENDBRANCH  20  26
ENDBRANCH   1  16
BRANCH   8  33
ATOM     33  O   LIG d   1       5.694  -1.437  -5.457  0.00  0.00    -0.411 OA
BRANCH  33  34
ATOM     34  C   LIG d   1       4.716  -0.551  -5.191  0.00  0.00     0.408 C 
ATOM     35  O   LIG d   1       4.219   0.096  -6.092  0.00  0.00    -0.226 OA
ATOM     36  N   LIG d   1       4.286  -0.381  -3.924  0.00  0.00    -0.268 N 
BRANCH  36  37
ATOM     37  C   LIG d   1       3.222   0.583  -3.634  0.00  0.00     0.015 C 
ATOM     38  H   LIG d   1       3.078   1.235  -4.495  0.00  0.00     0.046 H 
ATOM     39  H   LIG d   1       2.295   0.048  -3.425  0.00  0.00     0.046 H 
BRANCH  37  40
ATOM     40  C   LIG d   1       3.612   1.422  -2.416  0.00  0.00    -0.049 C 
ATOM     41  H   LIG d   1       2.719   1.663  -1.840  0.00  0.00     0.025 H 
ATOM     42  H   LIG d   1       4.306   0.857  -1.793  0.00  0.00     0.025 H 
ATOM     43  H   LIG d   1       4.090   2.343  -2.748  0.00  0.00     0.025 H 
ENDBRANCH  37  40
ENDBRANCH  36  37
BRANCH  36  44
ATOM     44  C   LIG d   1       4.884  -1.160  -2.837  0.00  0.00     0.015 C 
ATOM     45  H   LIG d   1       5.774  -1.671  -3.204  0.00  0.00     0.046 H 
ATOM     46  H   LIG d   1       5.159  -0.492  -2.020  0.00  0.00     0.046 H 
BRANCH  44  47
ATOM     47  C   LIG d   1       3.874  -2.192  -2.333  0.00  0.00    -0.049 C 
ATOM     48  H   LIG d   1       2.882  -1.944  -2.711  0.00  0.00     0.025 H 
ATOM     49  H   LIG d   1       4.160  -3.183  -2.687  0.00  0.00     0.025 H 
ATOM     50  H   LIG d   1       3.860  -2.185  -1.244  0.00  0.00     0.025 H 
ENDBRANCH  44  47
ENDBRANCH  36  44
ENDBRANCH  33  34
ENDBRANCH   8  33
TORSDOF 9
ENDMDL
MODEL 3
REMARK VINA RESULT:      -6.2      1.044      2.009
REMARK  9 active torsions:
REMARK  status: ('A' for Active; 'I' for Inactive)
REMARK    1  A    between atoms: C_1  and  C_2 
REMARK    2  A    between atoms: C_2  and  C_3 
REMARK    3  A    between atoms: C_6  and  C_9 
REMARK    4  A    between atoms: C_16  and  O_20 
REMARK    5  A    between atoms: O_20  and  C_21 
REMARK       I    between atoms: C_21  and  N_23 
REMARK    6  A    between atoms: N_23  and  C_24 
REMARK    7  A    between atoms: N_23  and  C_26 
REMARK    8  A    between atoms: C_24  and  C_25 
REMARK    9  A    between atoms: C_26  and  C_27 
ROOT
ATOM      1  C   LIG d   1       3.800   0.394  -8.199  0.00  0.00    -0.008 C 
ATOM      2  C   LIG d   1       3.169  -0.323  -9.163  0.00  0.00     0.176 A 
ATOM      3  C   LIG d   1       3.184  -0.042 -10.607  0.00  0.00     0.232 A 
ATOM      4  O   LIG d   1       3.754   0.868 -11.184  0.00  0.00    -0.283 OA
ATOM      5  C   LIG d   1       2.351  -1.104 -11.199  0.00  0.00     0.068 A 
ATOM      6  C   LIG d   1       1.978  -1.406 -12.509  0.00  0.00    -0.044 A 
ATOM      7  C   LIG d   1       1.183  -2.488 -12.759  0.00  0.00    -0.018 A 
ATOM      8  C   LIG d   1       0.748  -3.294 -11.710  0.00  0.00     0.137 A 
ATOM      9  C   LIG d   1       1.115  -3.009 -10.404  0.00  0.00     0.024 A 
ATOM     10  C   LIG d   1       1.924  -1.912 -10.134  0.00  0.00     0.143 A 
ATOM     11  O   LIG d   1       2.413  -1.429  -8.970  0.00  0.00    -0.451 OA
ATOM     12  H   LIG d   1       4.448   1.213  -8.473  0.00  0.00     0.066 H 
ATOM     13  H   LIG d   1       2.316  -0.783 -13.325  0.00  0.00     0.063 H 
ATOM     14  H   LIG d   1       0.890  -2.720 -13.773  0.00  0.00     0.065 H 
ATOM     15  H   LIG d   1       0.772  -3.640  -9.598  0.00  0.00     0.069 H 
ENDROOT
BRANCH   1  16
ATOM     16  C   LIG d   1       3.599   0.056  -6.783  0.00  0.00    -0.021 A 
ATOM     17  C   LIG d   1       2.537   0.619  -6.068  0.00  0.00    -0.054 A 
ATOM     18  C   LIG d   1       2.357   0.297  -4.740  0.00  0.00    -0.058 A 
ATOM     19  H   LIG d   1       1.859   1.305  -6.556  0.00  0.00     0.062 H 
ATOM     20  C   LIG d   1       3.223  -0.582  -4.113  0.00  0.00    -0.048 A 
ATOM     21  H   LIG d   1       1.536   0.730  -4.187  0.00  0.00     0.062 H 
ATOM     22  C   LIG d   1       4.278  -1.142  -4.813  0.00  0.00    -0.058 A 
ATOM     23  C   LIG d   1       4.468  -0.835  -6.143  0.00  0.00    -0.054 A 
ATOM     24  H   LIG d   1       4.950  -1.827  -4.316  0.00  0.00     0.062 H 
ATOM     25  H   LIG d   1       5.288  -1.278  -6.689  0.00  0.00     0.062 H 
BRANCH  20  26
ATOM     26  C   LIG d   1       3.019  -0.928  -2.661  0.00  0.00    -0.030 C 
ATOM     27  H   LIG d   1       3.315  -0.083  -2.041  0.00  0.00     0.031 H 
ATOM     28  H   LIG d   1       1.967  -1.156  -2.486  0.00  0.00     0.031 H 
BRANCH  26  29
ATOM     29  C   LIG d   1       3.871  -2.147  -2.302  0.00  0.00    -0.061 C 
ATOM     30  H   LIG d   1       3.523  -3.013  -2.866  0.00  0.00     0.023 H 
ATOM     31  H   LIG d   1       4.913  -1.947  -2.550  0.00  0.00     0.023 H 
ATOM     32  H   LIG d   1       3.784  -2.350  -1.235  0.00  0.00     0.023 H 
ENDBRANCH  26  29
ENDBRANCH  20  26
ENDBRANCH   1  16
BRANCH   8  33
ATOM     33  O   LIG d   1      -0.043  -4.366 -11.968  0.00  0.00    -0.411 OA
BRANCH  33  34
ATOM     34  C   LIG d   1       0.412  -5.571 -11.575  0.00  0.00     0.408 C 
ATOM     35  O   LIG d   1       1.492  -5.970 -11.966  0.00  0.00    -0.226 OA
ATOM     36  N   LIG d   1      -0.330  -6.335 -10.748  0.00  0.00    -0.268 N 
BRANCH  36  37
ATOM     37  C   LIG d   1       0.165  -7.646 -10.321  0.00  0.00     0.015 C 
ATOM     38  H   LIG d   1       1.255  -7.643 -10.325  0.00  0.00     0.046 H 
ATOM     39  H   LIG d   1      -0.194  -7.859  -9.313  0.00  0.00     0.046 H 
BRANCH  37  40
ATOM     40  C   LIG d   1      -0.346  -8.722 -11.282  0.00  0.00    -0.049 C 
ATOM     41  H   LIG d   1      -1.303  -9.103 -10.925  0.00  0.00     0.025 H 
ATOM     42  H   LIG d   1      -0.474  -8.290 -12.275  0.00  0.00     0.025 H 
ATOM     43  H   LIG d   1       0.374  -9.538 -11.331  0.00  0.00     0.025 H 
ENDBRANCH  37  40
ENDBRANCH  36  37
BRANCH  36  44
ATOM     44  C   LIG d   1      -1.631  -5.855 -10.278  0.00  0.00     0.015 C 
ATOM     45  H   LIG d   1      -1.580  -4.781 -10.102  0.00  0.00     0.046 H 
ATOM     46  H   LIG d   1      -2.390  -6.064 -11.032  0.00  0.00     0.046 H 
BRANCH  44  47
ATOM     47  C   LIG d   1      -1.997  -6.569  -8.975  0.00  0.00    -0.049 C 
ATOM     48  H   LIG d   1      -2.695  -7.379  -9.188  0.00  0.00     0.025 H 
ATOM     49  H   LIG d   1      -1.095  -6.977  -8.518  0.00  0.00     0.025 H 
ATOM     50  H   LIG d   1      -2.463  -5.860  -8.291  0.00  0.00     0.025 H 
ENDBRANCH  44  47
ENDBRANCH  36  44
ENDBRANCH  33  34
ENDBRANCH   8  33
TORSDOF 9
ENDMDL
MODEL 4
REMARK VINA RESULT:      -6.0      7.739     10.422
REMARK  9 active torsions:
REMARK  status: ('A' for Active; 'I' for Inactive)
REMARK    1  A    between atoms: C_1  and  C_2 
REMARK    2  A    between atoms: C_2  and  C_3 
REMARK    3  A    between atoms: C_6  and  C_9 
REMARK    4  A    between atoms: C_16  and  O_20 
REMARK    5  A    between atoms: O_20  and  C_21 
REMARK       I    between atoms: C_21  and  N_23 
REMARK    6  A    between atoms: N_23  and  C_24 
REMARK    7  A    between atoms: N_23  and  C_26 
REMARK    8  A    between atoms: C_24  and  C_25 
REMARK    9  A    between atoms: C_26  and  C_27 
ROOT
ATOM      1  C   LIG d   1      10.957   5.339  -4.345  0.00  0.00    -0.008 C 
ATOM      2  C   LIG d   1      10.189   4.305  -4.770  0.00  0.00     0.176 A 
ATOM      3  C   LIG d   1       9.987   3.888  -6.167  0.00  0.00     0.232 A 
ATOM      4  O   LIG d   1      10.464   4.387  -7.171  0.00  0.00    -0.283 OA
ATOM      5  C   LIG d   1       9.073   2.734  -6.080  0.00  0.00     0.068 A 
ATOM      6  C   LIG d   1       8.507   1.891  -7.035  0.00  0.00    -0.044 A 
ATOM      7  C   LIG d   1       7.682   0.874  -6.645  0.00  0.00    -0.018 A 
ATOM      8  C   LIG d   1       7.410   0.675  -5.294  0.00  0.00     0.137 A 
ATOM      9  C   LIG d   1       7.968   1.502  -4.333  0.00  0.00     0.024 A 
ATOM     10  C   LIG d   1       8.810   2.540  -4.715  0.00  0.00     0.143 A 
ATOM     11  O   LIG d   1       9.469   3.468  -3.987  0.00  0.00    -0.451 OA
ATOM     12  H   LIG d   1      11.558   5.891  -5.052  0.00  0.00     0.066 H 
ATOM     13  H   LIG d   1       8.719   2.042  -8.084  0.00  0.00     0.063 H 
ATOM     14  H   LIG d   1       7.240   0.223  -7.385  0.00  0.00     0.065 H 
ATOM     15  H   LIG d   1       7.750   1.339  -3.288  0.00  0.00     0.069 H 
ENDROOT
BRANCH   1  16
ATOM     16  C   LIG d   1      10.972   5.706  -2.922  0.00  0.00    -0.021 A 
ATOM     17  C   LIG d   1      10.018   6.594  -2.414  0.00  0.00    -0.054 A 
ATOM     18  C   LIG d   1      10.040   6.934  -1.078  0.00  0.00    -0.058 A 
ATOM     19  H   LIG d   1       9.267   7.014  -3.068  0.00  0.00     0.062 H 
ATOM     20  C   LIG d   1      11.001   6.397  -0.239  0.00  0.00    -0.048 A 
ATOM     21  H   LIG d   1       9.304   7.620  -0.685  0.00  0.00     0.062 H 
ATOM     22  C   LIG d   1      11.949   5.518  -0.734  0.00  0.00    -0.058 A 
ATOM     23  C   LIG d   1      11.937   5.164  -2.066  0.00  0.00    -0.054 A 
ATOM     24  H   LIG d   1      12.696   5.104  -0.072  0.00  0.00     0.062 H 
ATOM     25  H   LIG d   1      12.674   4.473  -2.449  0.00  0.00     0.062 H 
BRANCH  20  26
ATOM     26  C   LIG d   1      11.017   6.774   1.220  0.00  0.00    -0.030 C 
ATOM     27  H   LIG d   1      11.950   7.287   1.453  0.00  0.00     0.031 H 
ATOM     28  H   LIG d   1      10.176   7.434   1.434  0.00  0.00     0.031 H 
BRANCH  26  29
ATOM     29  C   LIG d   1      10.904   5.509   2.074  0.00  0.00    -0.061 C 
ATOM     30  H   LIG d   1      10.552   4.683   1.456  0.00  0.00     0.023 H 
ATOM     31  H   LIG d   1      11.881   5.262   2.488  0.00  0.00     0.023 H 
ATOM     32  H   LIG d   1      10.197   5.681   2.886  0.00  0.00     0.023 H 
ENDBRANCH  26  29
ENDBRANCH  20  26
ENDBRANCH   1  16
BRANCH   8  33
ATOM     33  O   LIG d   1       6.588  -0.337  -4.915  0.00  0.00    -0.411 OA
BRANCH  33  34
ATOM     34  C   LIG d   1       5.263  -0.098  -4.957  0.00  0.00     0.408 C 
ATOM     35  O   LIG d   1       4.695  -0.015  -6.029  0.00  0.00    -0.226 OA
ATOM     36  N   LIG d   1       4.567   0.047  -3.812  0.00  0.00    -0.268 N 
BRANCH  36  37
ATOM     37  C   LIG d   1       3.126   0.307  -3.858  0.00  0.00     0.015 C 
ATOM     38  H   LIG d   1       2.901   1.211  -3.293  0.00  0.00     0.046 H 
ATOM     39  H   LIG d   1       2.814   0.440  -4.895  0.00  0.00     0.046 H 
BRANCH  37  40
ATOM     40  C   LIG d   1       2.375  -0.878  -3.248  0.00  0.00    -0.049 C 
ATOM     41  H   LIG d   1       3.077  -1.513  -2.706  0.00  0.00     0.025 H 
ATOM     42  H   LIG d   1       1.613  -0.510  -2.560  0.00  0.00     0.025 H 
ATOM     43  H   LIG d   1       1.901  -1.455  -4.041  0.00  0.00     0.025 H 
ENDBRANCH  37  40
ENDBRANCH  36  37
BRANCH  36  44
ATOM     44  C   LIG d   1       5.252  -0.053  -2.521  0.00  0.00     0.015 C 
ATOM     45  H   LIG d   1       5.118  -1.055  -2.116  0.00  0.00     0.046 H 
ATOM     46  H   LIG d   1       6.315   0.146  -2.658  0.00  0.00     0.046 H 
BRANCH  44  47
ATOM     47  C   LIG d   1       4.663   0.972  -1.550  0.00  0.00    -0.049 C 
ATOM     48  H   LIG d   1       4.441   1.895  -2.086  0.00  0.00     0.025 H 
ATOM     49  H   LIG d   1       3.745   0.575  -1.116  0.00  0.00     0.025 H 
ATOM     50  H   LIG d   1       5.381   1.176  -0.757  0.00  0.00     0.025 H 
ENDBRANCH  44  47
ENDBRANCH  36  44
ENDBRANCH  33  34
ENDBRANCH   8  33
TORSDOF 9
ENDMDL
MODEL 5
REMARK VINA RESULT:      -6.0      7.628     10.455
REMARK  9 active torsions:
REMARK  status: ('A' for Active; 'I' for Inactive)
REMARK    1  A    between atoms: C_1  and  C_2 
REMARK    2  A    between atoms: C_2  and  C_3 
REMARK    3  A    between atoms: C_6  and  C_9 
REMARK    4  A    between atoms: C_16  and  O_20 
REMARK    5  A    between atoms: O_20  and  C_21 
REMARK       I    between atoms: C_21  and  N_23 
REMARK    6  A    between atoms: N_23  and  C_24 
REMARK    7  A    between atoms: N_23  and  C_26 
REMARK    8  A    between atoms: C_24  and  C_25 
REMARK    9  A    between atoms: C_26  and  C_27 
ROOT
ATOM      1  C   LIG d   1      11.335   4.054  -3.670  0.00  0.00    -0.008 C 
ATOM      2  C   LIG d   1      10.576   2.965  -3.949  0.00  0.00     0.176 A 
ATOM      3  C   LIG d   1      10.983   1.805  -4.758  0.00  0.00     0.232 A 
ATOM      4  O   LIG d   1      12.053   1.619  -5.311  0.00  0.00    -0.283 OA
ATOM      5  C   LIG d   1       9.804   0.919  -4.755  0.00  0.00     0.068 A 
ATOM      6  C   LIG d   1       9.545  -0.327  -5.323  0.00  0.00    -0.044 A 
ATOM      7  C   LIG d   1       8.329  -0.923  -5.136  0.00  0.00    -0.018 A 
ATOM      8  C   LIG d   1       7.350  -0.290  -4.375  0.00  0.00     0.137 A 
ATOM      9  C   LIG d   1       7.595   0.947  -3.800  0.00  0.00     0.024 A 
ATOM     10  C   LIG d   1       8.827   1.565  -3.981  0.00  0.00     0.143 A 
ATOM     11  O   LIG d   1       9.306   2.747  -3.533  0.00  0.00    -0.451 OA
ATOM     12  H   LIG d   1      12.367   4.087  -3.984  0.00  0.00     0.066 H 
ATOM     13  H   LIG d   1      10.304  -0.821  -5.913  0.00  0.00     0.063 H 
ATOM     14  H   LIG d   1       8.127  -1.886  -5.580  0.00  0.00     0.065 H 
ATOM     15  H   LIG d   1       6.829   1.430  -3.212  0.00  0.00     0.069 H 
ENDROOT
BRANCH   1  16
ATOM     16  C   LIG d   1      10.750   5.189  -2.941  0.00  0.00    -0.021 A 
ATOM     17  C   LIG d   1      10.856   5.260  -1.549  0.00  0.00    -0.054 A 
ATOM     18  C   LIG d   1      10.304   6.328  -0.873  0.00  0.00    -0.058 A 
ATOM     19  H   LIG d   1      11.367   4.480  -1.003  0.00  0.00     0.062 H 
ATOM     20  C   LIG d   1       9.648   7.328  -1.569  0.00  0.00    -0.048 A 
ATOM     21  H   LIG d   1      10.385   6.384   0.203  0.00  0.00     0.062 H 
ATOM     22  C   LIG d   1       9.539   7.265  -2.948  0.00  0.00    -0.058 A 
ATOM     23  C   LIG d   1      10.090   6.207  -3.638  0.00  0.00    -0.054 A 
ATOM     24  H   LIG d   1       9.025   8.050  -3.483  0.00  0.00     0.062 H 
ATOM     25  H   LIG d   1      10.009   6.162  -4.715  0.00  0.00     0.062 H 
BRANCH  20  26
ATOM     26  C   LIG d   1       9.048   8.492  -0.822  0.00  0.00    -0.030 C 
ATOM     27  H   LIG d   1       7.961   8.438  -0.878  0.00  0.00     0.031 H 
ATOM     28  H   LIG d   1       9.361   8.454   0.221  0.00  0.00     0.031 H 
BRANCH  26  29
ATOM     29  C   LIG d   1       9.526   9.802  -1.451  0.00  0.00    -0.061 C 
ATOM     30  H   LIG d   1       8.774  10.164  -2.153  0.00  0.00     0.023 H 
ATOM     31  H   LIG d   1       9.680  10.545  -0.669  0.00  0.00     0.023 H 
ATOM     32  H   LIG d   1      10.464   9.631  -1.980  0.00  0.00     0.023 H 
ENDBRANCH  26  29
ENDBRANCH  20  26
ENDBRANCH   1  16
BRANCH   8  33
ATOM     33  O   LIG d   1       6.145  -0.888  -4.196  0.00  0.00    -0.411 OA
BRANCH  33  34
ATOM     34  C   LIG d   1       5.065  -0.246  -4.680  0.00  0.00     0.408 C 
ATOM     35  O   LIG d   1       5.002   0.033  -5.862  0.00  0.00    -0.226 OA
ATOM     36  N   LIG d   1       4.053   0.087  -3.855  0.00  0.00    -0.268 N 
BRANCH  36  37
ATOM     37  C   LIG d   1       2.877   0.786  -4.382  0.00  0.00     0.015 C 
ATOM     38  H   LIG d   1       2.556   1.546  -3.669  0.00  0.00     0.046 H 
ATOM     39  H   LIG d   1       3.132   1.261  -5.330  0.00  0.00     0.046 H 
BRANCH  37  40
ATOM     40  C   LIG d   1       1.744  -0.218  -4.602  0.00  0.00    -0.049 C 
ATOM     41  H   LIG d   1       0.889   0.292  -5.047  0.00  0.00     0.025 H 
ATOM     42  H   LIG d   1       2.084  -1.008  -5.272  0.00  0.00     0.025 H 
ATOM     43  H   LIG d   1       1.452  -0.652  -3.647  0.00  0.00     0.025 H 
ENDBRANCH  37  40
ENDBRANCH  36  37
BRANCH  36  44
ATOM     44  C   LIG d   1       4.128  -0.248  -2.431  0.00  0.00     0.015 C 
ATOM     45  H   LIG d   1       3.153  -0.595  -2.088  0.00  0.00     0.046 H 
ATOM     46  H   LIG d   1       4.867  -1.036  -2.282  0.00  0.00     0.046 H 
BRANCH  44  47
ATOM     47  C   LIG d   1       4.537   0.992  -1.636  0.00  0.00    -0.049 C 
ATOM     48  H   LIG d   1       4.895   1.762  -2.320  0.00  0.00     0.025 H 
ATOM     49  H   LIG d   1       3.676   1.370  -1.083  0.00  0.00     0.025 H 
ATOM     50  H   LIG d   1       5.331   0.730  -0.936  0.00  0.00     0.025 H 
ENDBRANCH  44  47
ENDBRANCH  36  44
ENDBRANCH  33  34
ENDBRANCH   8  33
TORSDOF 9
ENDMDL
MODEL 6
REMARK VINA RESULT:      -5.9      9.689     14.097
REMARK  9 active torsions:
REMARK  status: ('A' for Active; 'I' for Inactive)
REMARK    1  A    between atoms: C_1  and  C_2 
REMARK    2  A    between atoms: C_2  and  C_3 
REMARK    3  A    between atoms: C_6  and  C_9 
REMARK    4  A    between atoms: C_16  and  O_20 
REMARK    5  A    between atoms: O_20  and  C_21 
REMARK       I    between atoms: C_21  and  N_23 
REMARK    6  A    between atoms: N_23  and  C_24 
REMARK    7  A    between atoms: N_23  and  C_26 
REMARK    8  A    between atoms: C_24  and  C_25 
REMARK    9  A    between atoms: C_26  and  C_27 
ROOT
ATOM      1  C   LIG d   1       8.511   1.292  -5.024  0.00  0.00    -0.008 C 
ATOM      2  C   LIG d   1       9.215   2.338  -4.523  0.00  0.00     0.176 A 
ATOM      3  C   LIG d   1      10.349   3.015  -5.172  0.00  0.00     0.232 A 
ATOM      4  O   LIG d   1      10.847   2.763  -6.255  0.00  0.00    -0.283 OA
ATOM      5  C   LIG d   1      10.749   4.064  -4.217  0.00  0.00     0.068 A 
ATOM      6  C   LIG d   1      11.741   5.045  -4.237  0.00  0.00    -0.044 A 
ATOM      7  C   LIG d   1      11.871   5.905  -3.183  0.00  0.00    -0.018 A 
ATOM      8  C   LIG d   1      11.012   5.807  -2.091  0.00  0.00     0.137 A 
ATOM      9  C   LIG d   1      10.019   4.841  -2.060  0.00  0.00     0.024 A 
ATOM     10  C   LIG d   1       9.874   3.959  -3.124  0.00  0.00     0.143 A 
ATOM     11  O   LIG d   1       9.002   2.949  -3.334  0.00  0.00    -0.451 OA
ATOM     12  H   LIG d   1       8.713   0.936  -6.023  0.00  0.00     0.066 H 
ATOM     13  H   LIG d   1      12.407   5.123  -5.084  0.00  0.00     0.063 H 
ATOM     14  H   LIG d   1      12.641   6.661  -3.195  0.00  0.00     0.065 H 
ATOM     15  H   LIG d   1       9.359   4.773  -1.208  0.00  0.00     0.069 H 
ENDROOT
BRANCH   1  16
ATOM     16  C   LIG d   1       7.474   0.646  -4.207  0.00  0.00    -0.021 A 
ATOM     17  C   LIG d   1       7.458  -0.745  -4.062  0.00  0.00    -0.054 A 
ATOM     18  C   LIG d   1       6.481  -1.343  -3.295  0.00  0.00    -0.058 A 
ATOM     19  H   LIG d   1       8.207  -1.350  -4.552  0.00  0.00     0.062 H 
ATOM     20  C   LIG d   1       5.519  -0.571  -2.667  0.00  0.00    -0.048 A 
ATOM     21  H   LIG d   1       6.467  -2.417  -3.182  0.00  0.00     0.062 H 
ATOM     22  C   LIG d   1       5.528   0.807  -2.805  0.00  0.00    -0.058 A 
ATOM     23  C   LIG d   1       6.502   1.420  -3.565  0.00  0.00    -0.054 A 
ATOM     24  H   LIG d   1       4.774   1.402  -2.312  0.00  0.00     0.062 H 
ATOM     25  H   LIG d   1       6.510   2.496  -3.667  0.00  0.00     0.062 H 
BRANCH  20  26
ATOM     26  C   LIG d   1       4.456  -1.233  -1.830  0.00  0.00    -0.030 C 
ATOM     27  H   LIG d   1       4.814  -2.204  -1.490  0.00  0.00     0.031 H 
ATOM     28  H   LIG d   1       4.230  -0.607  -0.967  0.00  0.00     0.031 H 
BRANCH  26  29
ATOM     29  C   LIG d   1       3.190  -1.422  -2.669  0.00  0.00    -0.061 C 
ATOM     30  H   LIG d   1       3.445  -1.919  -3.605  0.00  0.00     0.023 H 
ATOM     31  H   LIG d   1       2.476  -2.031  -2.116  0.00  0.00     0.023 H 
ATOM     32  H   LIG d   1       2.748  -0.449  -2.883  0.00  0.00     0.023 H 
ENDBRANCH  26  29
ENDBRANCH  20  26
ENDBRANCH   1  16
BRANCH   8  33
ATOM     33  O   LIG d   1      11.149   6.664  -1.047  0.00  0.00    -0.411 OA
BRANCH  33  34
ATOM     34  C   LIG d   1      10.298   7.705  -0.994  0.00  0.00     0.408 C 
ATOM     35  O   LIG d   1       9.108   7.510  -0.833  0.00  0.00    -0.226 OA
ATOM     36  N   LIG d   1      10.763   8.964  -1.118  0.00  0.00    -0.268 N 
BRANCH  36  37
ATOM     37  C   LIG d   1       9.836  10.097  -1.060  0.00  0.00     0.015 C 
ATOM     38  H   LIG d   1      10.059  10.792  -1.869  0.00  0.00     0.046 H 
ATOM     39  H   LIG d   1       8.812   9.735  -1.164  0.00  0.00     0.046 H 
BRANCH  37  40
ATOM     40  C   LIG d   1       9.989  10.813   0.284  0.00  0.00    -0.049 C 
ATOM     41  H   LIG d   1      10.815  10.367   0.840  0.00  0.00     0.025 H 
ATOM     42  H   LIG d   1      10.195  11.869   0.111  0.00  0.00     0.025 H 
ATOM     43  H   LIG d   1       9.069  10.711   0.857  0.00  0.00     0.025 H 
ENDBRANCH  37  40
ENDBRANCH  36  37
BRANCH  36  44
ATOM     44  C   LIG d   1      12.195   9.200  -1.313  0.00  0.00     0.015 C 
ATOM     45  H   LIG d   1      12.527   9.993  -0.643  0.00  0.00     0.046 H 
ATOM     46  H   LIG d   1      12.747   8.285  -1.094  0.00  0.00     0.046 H 
BRANCH  44  47
ATOM     47  C   LIG d   1      12.452   9.615  -2.762  0.00  0.00    -0.049 C 
ATOM     48  H   LIG d   1      12.816  10.643  -2.787  0.00  0.00     0.025 H 
ATOM     49  H   LIG d   1      13.199   8.955  -3.203  0.00  0.00     0.025 H 
ATOM     50  H   LIG d   1      11.524   9.545  -3.330  0.00  0.00     0.025 H 
ENDBRANCH  44  47
ENDBRANCH  36  44
ENDBRANCH  33  34
ENDBRANCH   8  33
TORSDOF 9
ENDMDL
MODEL 7
REMARK VINA RESULT:      -5.6      1.521      2.044
REMARK  9 active torsions:
REMARK  status: ('A' for Active; 'I' for Inactive)
REMARK    1  A    between atoms: C_1  and  C_2 
REMARK    2  A    between atoms: C_2  and  C_3 
REMARK    3  A    between atoms: C_6  and  C_9 
REMARK    4  A    between atoms: C_16  and  O_20 
REMARK    5  A    between atoms: O_20  and  C_21 
REMARK       I    between atoms: C_21  and  N_23 
REMARK    6  A    between atoms: N_23  and  C_24 
REMARK    7  A    between atoms: N_23  and  C_26 
REMARK    8  A    between atoms: C_24  and  C_25 
REMARK    9  A    between atoms: C_26  and  C_27 
ROOT
ATOM      1  C   LIG d   1       3.688   0.451  -7.999  0.00  0.00    -0.008 C 
ATOM      2  C   LIG d   1       3.165  -0.294  -9.004  0.00  0.00     0.176 A 
ATOM      3  C   LIG d   1       3.134   0.067 -10.430  0.00  0.00     0.232 A 
ATOM      4  O   LIG d   1       3.565   1.080 -10.952  0.00  0.00    -0.283 OA
ATOM      5  C   LIG d   1       2.460  -1.069 -11.085  0.00  0.00     0.068 A 
ATOM      6  C   LIG d   1       2.130  -1.348 -12.411  0.00  0.00    -0.044 A 
ATOM      7  C   LIG d   1       1.499  -2.518 -12.725  0.00  0.00    -0.018 A 
ATOM      8  C   LIG d   1       1.188  -3.435 -11.725  0.00  0.00     0.137 A 
ATOM      9  C   LIG d   1       1.514  -3.174 -10.403  0.00  0.00     0.024 A 
ATOM     10  C   LIG d   1       2.157  -1.989 -10.068  0.00  0.00     0.143 A 
ATOM     11  O   LIG d   1       2.576  -1.507  -8.877  0.00  0.00    -0.451 OA
ATOM     12  H   LIG d   1       4.211   1.368  -8.223  0.00  0.00     0.066 H 
ATOM     13  H   LIG d   1       2.372  -0.638 -13.189  0.00  0.00     0.063 H 
ATOM     14  H   LIG d   1       1.239  -2.732 -13.751  0.00  0.00     0.065 H 
ATOM     15  H   LIG d   1       1.268  -3.892  -9.635  0.00  0.00     0.069 H 
ENDROOT
BRANCH   1  16
ATOM     16  C   LIG d   1       3.543   0.009  -6.604  0.00  0.00    -0.021 A 
ATOM     17  C   LIG d   1       4.426  -0.934  -6.069  0.00  0.00    -0.054 A 
ATOM     18  C   LIG d   1       4.282  -1.343  -4.761  0.00  0.00    -0.058 A 
ATOM     19  H   LIG d   1       5.219  -1.342  -6.680  0.00  0.00     0.062 H 
ATOM     20  C   LIG d   1       3.268  -0.823  -3.976  0.00  0.00    -0.048 A 
ATOM     21  H   LIG d   1       4.964  -2.072  -4.346  0.00  0.00     0.062 H 
ATOM     22  C   LIG d   1       2.389   0.111  -4.498  0.00  0.00    -0.058 A 
ATOM     23  C   LIG d   1       2.524   0.535  -5.803  0.00  0.00    -0.054 A 
ATOM     24  H   LIG d   1       1.600   0.512  -3.879  0.00  0.00     0.062 H 
ATOM     25  H   LIG d   1       1.840   1.268  -6.207  0.00  0.00     0.062 H 
BRANCH  20  26
ATOM     26  C   LIG d   1       3.118  -1.276  -2.547  0.00  0.00    -0.030 C 
ATOM     27  H   LIG d   1       2.560  -0.527  -1.985  0.00  0.00     0.031 H 
ATOM     28  H   LIG d   1       2.582  -2.225  -2.520  0.00  0.00     0.031 H 
BRANCH  26  29
ATOM     29  C   LIG d   1       4.503  -1.455  -1.921  0.00  0.00    -0.061 C 
ATOM     30  H   LIG d   1       5.030  -2.263  -2.429  0.00  0.00     0.023 H 
ATOM     31  H   LIG d   1       5.070  -0.530  -2.024  0.00  0.00     0.023 H 
ATOM     32  H   LIG d   1       4.396  -1.699  -0.864  0.00  0.00     0.023 H 
ENDBRANCH  26  29
ENDBRANCH  20  26
ENDBRANCH   1  16
BRANCH   8  33
ATOM     33  O   LIG d   1       0.558  -4.594 -12.046  0.00  0.00    -0.411 OA
BRANCH  33  34
ATOM     34  C   LIG d   1      -0.698  -4.497 -12.520  0.00  0.00     0.408 C 
ATOM     35  O   LIG d   1      -1.580  -4.041 -11.817  0.00  0.00    -0.226 OA
ATOM     36  N   LIG d   1      -0.980  -4.905 -13.773  0.00  0.00    -0.268 N 
BRANCH  36  37
ATOM     37  C   LIG d   1      -2.347  -4.800 -14.289  0.00  0.00     0.015 C 
ATOM     38  H   LIG d   1      -2.936  -4.163 -13.630  0.00  0.00     0.046 H 
ATOM     39  H   LIG d   1      -2.325  -4.366 -15.289  0.00  0.00     0.046 H 
BRANCH  37  40
ATOM     40  C   LIG d   1      -2.977  -6.193 -14.351  0.00  0.00    -0.049 C 
ATOM     41  H   LIG d   1      -2.198  -6.949 -14.241  0.00  0.00     0.025 H 
ATOM     42  H   LIG d   1      -3.703  -6.299 -13.545  0.00  0.00     0.025 H 
ATOM     43  H   LIG d   1      -3.477  -6.323 -15.310  0.00  0.00     0.025 H 
ENDBRANCH  37  40
ENDBRANCH  36  37
BRANCH  36  44
ATOM     44  C   LIG d   1       0.082  -5.455 -14.620  0.00  0.00     0.015 C 
ATOM     45  H   LIG d   1       0.975  -5.623 -14.019  0.00  0.00     0.046 H 
ATOM     46  H   LIG d   1      -0.250  -6.401 -15.050  0.00  0.00     0.046 H 
BRANCH  44  47
ATOM     47  C   LIG d   1       0.400  -4.469 -15.744  0.00  0.00    -0.049 C 
ATOM     48  H   LIG d   1       1.479  -4.429 -15.899  0.00  0.00     0.025 H 
ATOM     49  H   LIG d   1      -0.087  -4.796 -16.663  0.00  0.00     0.025 H 
ATOM     50  H   LIG d   1       0.036  -3.478 -15.473  0.00  0.00     0.025 H 
ENDBRANCH  44  47
ENDBRANCH  36  44
ENDBRANCH  33  34
ENDBRANCH   8  33
TORSDOF 9
ENDMDL
MODEL 8
REMARK VINA RESULT:      -5.5      4.602      9.476
REMARK  9 active torsions:
REMARK  status: ('A' for Active; 'I' for Inactive)
REMARK    1  A    between atoms: C_1  and  C_2 
REMARK    2  A    between atoms: C_2  and  C_3 
REMARK    3  A    between atoms: C_6  and  C_9 
REMARK    4  A    between atoms: C_16  and  O_20 
REMARK    5  A    between atoms: O_20  and  C_21 
REMARK       I    between atoms: C_21  and  N_23 
REMARK    6  A    between atoms: N_23  and  C_24 
REMARK    7  A    between atoms: N_23  and  C_26 
REMARK    8  A    between atoms: C_24  and  C_25 
REMARK    9  A    between atoms: C_26  and  C_27 
ROOT
ATOM      1  C   LIG d   1       2.418   0.419  -7.869  0.00  0.00    -0.008 C 
ATOM      2  C   LIG d   1       3.202  -0.102  -6.892  0.00  0.00     0.176 A 
ATOM      3  C   LIG d   1       3.204   0.292  -5.474  0.00  0.00     0.232 A 
ATOM      4  O   LIG d   1       2.515   1.139  -4.935  0.00  0.00    -0.283 OA
ATOM      5  C   LIG d   1       4.230  -0.566  -4.853  0.00  0.00     0.068 A 
ATOM      6  C   LIG d   1       4.706  -0.692  -3.548  0.00  0.00    -0.044 A 
ATOM      7  C   LIG d   1       5.683  -1.604  -3.264  0.00  0.00    -0.018 A 
ATOM      8  C   LIG d   1       6.201  -2.411  -4.274  0.00  0.00     0.137 A 
ATOM      9  C   LIG d   1       5.734  -2.300  -5.574  0.00  0.00     0.024 A 
ATOM     10  C   LIG d   1       4.740  -1.377  -5.879  0.00  0.00     0.143 A 
ATOM     11  O   LIG d   1       4.125  -1.080  -7.045  0.00  0.00    -0.451 OA
ATOM     12  H   LIG d   1       1.654   1.139  -7.620  0.00  0.00     0.066 H 
ATOM     13  H   LIG d   1       4.304  -0.068  -2.763  0.00  0.00     0.063 H 
ATOM     14  H   LIG d   1       6.055  -1.699  -2.255  0.00  0.00     0.065 H 
ATOM     15  H   LIG d   1       6.143  -2.930  -6.350  0.00  0.00     0.069 H 
ENDROOT
BRANCH   1  16
ATOM     16  C   LIG d   1       2.611   0.003  -9.265  0.00  0.00    -0.021 A 
ATOM     17  C   LIG d   1       3.598   0.606 -10.050  0.00  0.00    -0.054 A 
ATOM     18  C   LIG d   1       3.770   0.210 -11.359  0.00  0.00    -0.058 A 
ATOM     19  H   LIG d   1       4.223   1.382  -9.633  0.00  0.00     0.062 H 
ATOM     20  C   LIG d   1       2.971  -0.784 -11.897  0.00  0.00    -0.048 A 
ATOM     21  H   LIG d   1       4.533   0.676 -11.967  0.00  0.00     0.062 H 
ATOM     22  C   LIG d   1       1.991  -1.386 -11.127  0.00  0.00    -0.058 A 
ATOM     23  C   LIG d   1       1.810  -1.005  -9.815  0.00  0.00    -0.054 A 
ATOM     24  H   LIG d   1       1.371  -2.160 -11.555  0.00  0.00     0.062 H 
ATOM     25  H   LIG d   1       1.048  -1.480  -9.213  0.00  0.00     0.062 H 
BRANCH  20  26
ATOM     26  C   LIG d   1       3.167  -1.210 -13.329  0.00  0.00    -0.030 C 
ATOM     27  H   LIG d   1       3.037  -2.290 -13.407  0.00  0.00     0.031 H 
ATOM     28  H   LIG d   1       2.435  -0.709 -13.962  0.00  0.00     0.031 H 
BRANCH  26  29
ATOM     29  C   LIG d   1       4.578  -0.833 -13.785  0.00  0.00    -0.061 C 
ATOM     30  H   LIG d   1       4.596   0.216 -14.082  0.00  0.00     0.023 H 
ATOM     31  H   LIG d   1       5.279  -0.990 -12.965  0.00  0.00     0.023 H 
ATOM     32  H   LIG d   1       4.865  -1.455 -14.632  0.00  0.00     0.023 H 
ENDBRANCH  26  29
ENDBRANCH  20  26
ENDBRANCH   1  16
BRANCH   8  33
ATOM     33  O   LIG d   1       7.173  -3.313  -3.983  0.00  0.00    -0.411 OA
BRANCH  33  34
ATOM     34  C   LIG d   1       8.446  -2.931  -4.196  0.00  0.00     0.408 C 
ATOM     35  O   LIG d   1       8.684  -1.815  -4.616  0.00  0.00    -0.226 OA
ATOM     36  N   LIG d   1       9.458  -3.785  -3.942  0.00  0.00    -0.268 N 
BRANCH  36  37
ATOM     37  C   LIG d   1      10.843  -3.370  -4.174  0.00  0.00     0.015 C 
ATOM     38  H   LIG d   1      10.885  -2.286  -4.282  0.00  0.00     0.046 H 
ATOM     39  H   LIG d   1      11.460  -3.674  -3.327  0.00  0.00     0.046 H 
BRANCH  37  40
ATOM     40  C   LIG d   1      11.367  -4.032  -5.450  0.00  0.00    -0.049 C 
ATOM     41  H   LIG d   1      10.596  -4.681  -5.865  0.00  0.00     0.025 H 
ATOM     42  H   LIG d   1      11.627  -3.263  -6.178  0.00  0.00     0.025 H 
ATOM     43  H   LIG d   1      12.252  -4.623  -5.215  0.00  0.00     0.025 H 
ENDBRANCH  37  40
ENDBRANCH  36  37
BRANCH  36  44
ATOM     44  C   LIG d   1       9.171  -5.130  -3.437  0.00  0.00     0.015 C 
ATOM     45  H   LIG d   1       8.100  -5.235  -3.271  0.00  0.00     0.046 H 
ATOM     46  H   LIG d   1       9.500  -5.870  -4.167  0.00  0.00     0.046 H 
BRANCH  44  47
ATOM     47  C   LIG d   1       9.915  -5.349  -2.118  0.00  0.00    -0.049 C 
ATOM     48  H   LIG d   1      10.554  -6.229  -2.203  0.00  0.00     0.025 H 
ATOM     49  H   LIG d   1      10.529  -4.474  -1.898  0.00  0.00     0.025 H 
ATOM     50  H   LIG d   1       9.195  -5.499  -1.315  0.00  0.00     0.025 H 
ENDBRANCH  44  47
ENDBRANCH  36  44
ENDBRANCH  33  34
ENDBRANCH   8  33
TORSDOF 9
ENDMDL
MODEL 9
REMARK VINA RESULT:      -5.4      3.975      7.947
REMARK  9 active torsions:
REMARK  status: ('A' for Active; 'I' for Inactive)
REMARK    1  A    between atoms: C_1  and  C_2 
REMARK    2  A    between atoms: C_2  and  C_3 
REMARK    3  A    between atoms: C_6  and  C_9 
REMARK    4  A    between atoms: C_16  and  O_20 
REMARK    5  A    between atoms: O_20  and  C_21 
REMARK       I    between atoms: C_21  and  N_23 
REMARK    6  A    between atoms: N_23  and  C_24 
REMARK    7  A    between atoms: N_23  and  C_26 
REMARK    8  A    between atoms: C_24  and  C_25 
REMARK    9  A    between atoms: C_26  and  C_27 
ROOT
ATOM      1  C   LIG d   1       2.707   0.422  -9.572  0.00  0.00    -0.008 C 
ATOM      2  C   LIG d   1       3.195  -0.222  -8.483  0.00  0.00     0.176 A 
ATOM      3  C   LIG d   1       3.209   0.290  -7.103  0.00  0.00     0.232 A 
ATOM      4  O   LIG d   1       2.793   1.361  -6.701  0.00  0.00    -0.283 OA
ATOM      5  C   LIG d   1       3.846  -0.784  -6.317  0.00  0.00     0.068 A 
ATOM      6  C   LIG d   1       4.146  -0.925  -4.963  0.00  0.00    -0.044 A 
ATOM      7  C   LIG d   1       4.745  -2.068  -4.513  0.00  0.00    -0.018 A 
ATOM      8  C   LIG d   1       5.052  -3.093  -5.403  0.00  0.00     0.137 A 
ATOM      9  C   LIG d   1       4.755  -2.969  -6.751  0.00  0.00     0.024 A 
ATOM     10  C   LIG d   1       4.145  -1.813  -7.224  0.00  0.00     0.143 A 
ATOM     11  O   LIG d   1       3.758  -1.453  -8.467  0.00  0.00    -0.451 OA
ATOM     12  H   LIG d   1       2.201   1.369  -9.457  0.00  0.00     0.066 H 
ATOM     13  H   LIG d   1       3.907  -0.131  -4.270  0.00  0.00     0.063 H 
ATOM     14  H   LIG d   1       4.982  -2.176  -3.465  0.00  0.00     0.065 H 
ATOM     15  H   LIG d   1       4.998  -3.770  -7.433  0.00  0.00     0.069 H 
ENDROOT
BRANCH   1  16
ATOM     16  C   LIG d   1       2.866  -0.170 -10.908  0.00  0.00    -0.021 A 
ATOM     17  C   LIG d   1       1.891  -1.034 -11.416  0.00  0.00    -0.054 A 
ATOM     18  C   LIG d   1       2.048  -1.585 -12.670  0.00  0.00    -0.058 A 
ATOM     19  H   LIG d   1       1.016  -1.270 -10.827  0.00  0.00     0.062 H 
ATOM     20  C   LIG d   1       3.168  -1.285 -13.426  0.00  0.00    -0.048 A 
ATOM     21  H   LIG d   1       1.296  -2.253 -13.063  0.00  0.00     0.062 H 
ATOM     22  C   LIG d   1       4.138  -0.431 -12.931  0.00  0.00    -0.058 A 
ATOM     23  C   LIG d   1       3.992   0.133 -11.681  0.00  0.00    -0.054 A 
ATOM     24  H   LIG d   1       5.009  -0.202 -13.527  0.00  0.00     0.062 H 
ATOM     25  H   LIG d   1       4.748   0.803 -11.298  0.00  0.00     0.062 H 
BRANCH  20  26
ATOM     26  C   LIG d   1       3.332  -1.892 -14.796  0.00  0.00    -0.030 C 
ATOM     27  H   LIG d   1       4.027  -2.729 -14.741  0.00  0.00     0.031 H 
ATOM     28  H   LIG d   1       2.365  -2.245 -15.155  0.00  0.00     0.031 H 
BRANCH  26  29
ATOM     29  C   LIG d   1       3.879  -0.836 -15.759  0.00  0.00    -0.061 C 
ATOM     30  H   LIG d   1       3.067  -0.188 -16.088  0.00  0.00     0.023 H 
ATOM     31  H   LIG d   1       4.638  -0.241 -15.252  0.00  0.00     0.023 H 
ATOM     32  H   LIG d   1       4.323  -1.329 -16.624  0.00  0.00     0.023 H 
ENDBRANCH  26  29
ENDBRANCH  20  26
ENDBRANCH   1  16
BRANCH   8  33
ATOM     33  O   LIG d   1       5.649  -4.224  -4.948  0.00  0.00    -0.411 OA
BRANCH  33  34
ATOM     34  C   LIG d   1       5.067  -5.395  -5.268  0.00  0.00     0.408 C 
ATOM     35  O   LIG d   1       3.918  -5.614  -4.937  0.00  0.00    -0.226 OA
ATOM     36  N   LIG d   1       5.759  -6.326  -5.955  0.00  0.00    -0.268 N 
BRANCH  36  37
ATOM     37  C   LIG d   1       5.126  -7.600  -6.304  0.00  0.00     0.015 C 
ATOM     38  H   LIG d   1       4.042  -7.486  -6.282  0.00  0.00     0.046 H 
ATOM     39  H   LIG d   1       5.439  -7.900  -7.305  0.00  0.00     0.046 H 
BRANCH  37  40
ATOM     40  C   LIG d   1       5.547  -8.671  -5.296  0.00  0.00    -0.049 C 
ATOM     41  H   LIG d   1       4.688  -8.954  -4.686  0.00  0.00     0.025 H 
ATOM     42  H   LIG d   1       5.918  -9.546  -5.829  0.00  0.00     0.025 H 
ATOM     43  H   LIG d   1       6.333  -8.276  -4.653  0.00  0.00     0.025 H 
ENDBRANCH  37  40
ENDBRANCH  36  37
BRANCH  36  44
ATOM     44  C   LIG d   1       7.144  -6.064  -6.354  0.00  0.00     0.015 C 
ATOM     45  H   LIG d   1       7.525  -5.208  -5.798  0.00  0.00     0.046 H 
ATOM     46  H   LIG d   1       7.756  -6.940  -6.138  0.00  0.00     0.046 H 
BRANCH  44  47
ATOM     47  C   LIG d   1       7.195  -5.763  -7.852  0.00  0.00    -0.049 C 
ATOM     48  H   LIG d   1       7.244  -4.685  -8.006  0.00  0.00     0.025 H 
ATOM     49  H   LIG d   1       8.079  -6.232  -8.287  0.00  0.00     0.025 H 
ATOM     50  H   LIG d   1       6.301  -6.158  -8.334  0.00  0.00     0.025 H 
ENDBRANCH  44  47
ENDBRANCH  36  44
ENDBRANCH  33  34
ENDBRANCH   8  33
TORSDOF 9
ENDMDL
MODEL 10
REMARK VINA RESULT:      -5.4      2.755      3.257
REMARK  9 active torsions:
REMARK  status: ('A' for Active; 'I' for Inactive)
REMARK    1  A    between atoms: C_1  and  C_2 
REMARK    2  A    between atoms: C_2  and  C_3 
REMARK    3  A    between atoms: C_6  and  C_9 
REMARK    4  A    between atoms: C_16  and  O_20 
REMARK    5  A    between atoms: O_20  and  C_21 
REMARK       I    between atoms: C_21  and  N_23 
REMARK    6  A    between atoms: N_23  and  C_24 
REMARK    7  A    between atoms: N_23  and  C_26 
REMARK    8  A    between atoms: C_24  and  C_25 
REMARK    9  A    between atoms: C_26  and  C_27 
ROOT
ATOM      1  C   LIG d   1       3.330   0.047  -7.884  0.00  0.00    -0.008 C 
ATOM      2  C   LIG d   1       3.190  -1.071  -8.640  0.00  0.00     0.176 A 
ATOM      3  C   LIG d   1       2.882  -1.115 -10.079  0.00  0.00     0.232 A 
ATOM      4  O   LIG d   1       2.702  -0.175 -10.832  0.00  0.00    -0.283 OA
ATOM      5  C   LIG d   1       2.835  -2.553 -10.403  0.00  0.00     0.068 A 
ATOM      6  C   LIG d   1       2.602  -3.258 -11.583  0.00  0.00    -0.044 A 
ATOM      7  C   LIG d   1       2.632  -4.624 -11.578  0.00  0.00    -0.018 A 
ATOM      8  C   LIG d   1       2.900  -5.313 -10.399  0.00  0.00     0.137 A 
ATOM      9  C   LIG d   1       3.139  -4.626  -9.219  0.00  0.00     0.024 A 
ATOM     10  C   LIG d   1       3.112  -3.236  -9.208  0.00  0.00     0.143 A 
ATOM     11  O   LIG d   1       3.309  -2.348  -8.209  0.00  0.00    -0.451 OA
ATOM     12  H   LIG d   1       3.298   1.020  -8.349  0.00  0.00     0.066 H 
ATOM     13  H   LIG d   1       2.396  -2.724 -12.500  0.00  0.00     0.063 H 
ATOM     14  H   LIG d   1       2.447  -5.170 -12.491  0.00  0.00     0.065 H 
ATOM     15  H   LIG d   1       3.345  -5.170  -8.310  0.00  0.00     0.069 H 
ENDROOT
BRANCH   1  16
ATOM     16  C   LIG d   1       3.526  -0.069  -6.432  0.00  0.00    -0.021 A 
ATOM     17  C   LIG d   1       4.739  -0.542  -5.921  0.00  0.00    -0.054 A 
ATOM     18  C   LIG d   1       4.914  -0.648  -4.557  0.00  0.00    -0.058 A 
ATOM     19  H   LIG d   1       5.537  -0.825  -6.593  0.00  0.00     0.062 H 
ATOM     20  C   LIG d   1       3.894  -0.287  -3.694  0.00  0.00    -0.048 A 
ATOM     21  H   LIG d   1       5.850  -1.013  -4.162  0.00  0.00     0.062 H 
ATOM     22  C   LIG d   1       2.690   0.181  -4.192  0.00  0.00    -0.058 A 
ATOM     23  C   LIG d   1       2.502   0.299  -5.553  0.00  0.00    -0.054 A 
ATOM     24  H   LIG d   1       1.899   0.460  -3.512  0.00  0.00     0.062 H 
ATOM     25  H   LIG d   1       1.563   0.670  -5.939  0.00  0.00     0.062 H 
BRANCH  20  26
ATOM     26  C   LIG d   1       4.094  -0.406  -2.206  0.00  0.00    -0.030 C 
ATOM     27  H   LIG d   1       3.153  -0.687  -1.734  0.00  0.00     0.031 H 
ATOM     28  H   LIG d   1       4.846  -1.168  -2.000  0.00  0.00     0.031 H 
BRANCH  26  29
ATOM     29  C   LIG d   1       4.564   0.938  -1.645  0.00  0.00    -0.061 C 
ATOM     30  H   LIG d   1       5.404   1.305  -2.236  0.00  0.00     0.023 H 
ATOM     31  H   LIG d   1       3.746   1.657  -1.692  0.00  0.00     0.023 H 
ATOM     32  H   LIG d   1       4.877   0.810  -0.609  0.00  0.00     0.023 H 
ENDBRANCH  26  29
ENDBRANCH  20  26
ENDBRANCH   1  16
BRANCH   8  33
ATOM     33  O   LIG d   1       2.926  -6.670 -10.403  0.00  0.00    -0.411 OA
BRANCH  33  34
ATOM     34  C   LIG d   1       1.741  -7.305 -10.471  0.00  0.00     0.408 C 
ATOM     35  O   LIG d   1       0.898  -7.112  -9.617  0.00  0.00    -0.226 OA
ATOM     36  N   LIG d   1       1.489  -8.155 -11.487  0.00  0.00    -0.268 N 
BRANCH  36  37
ATOM     37  C   LIG d   1       0.199  -8.846 -11.561  0.00  0.00     0.015 C 
ATOM     38  H   LIG d   1      -0.521  -8.343 -10.915  0.00  0.00     0.046 H 
ATOM     39  H   LIG d   1      -0.163  -8.830 -12.590  0.00  0.00     0.046 H 
BRANCH  37  40
ATOM     40  C   LIG d   1       0.371 -10.296 -11.103  0.00  0.00    -0.049 C 
ATOM     41  H   LIG d   1       1.433 -10.520 -10.997  0.00  0.00     0.025 H 
ATOM     42  H   LIG d   1      -0.129 -10.436 -10.144  0.00  0.00     0.025 H 
ATOM     43  H   LIG d   1      -0.069 -10.965 -11.843  0.00  0.00     0.025 H 
ENDBRANCH  37  40
ENDBRANCH  36  37
BRANCH  36  44
ATOM     44  C   LIG d   1       2.505  -8.389 -12.516  0.00  0.00     0.015 C 
ATOM     45  H   LIG d   1       3.467  -8.015 -12.168  0.00  0.00     0.046 H 
ATOM     46  H   LIG d   1       2.581  -9.459 -12.714  0.00  0.00     0.046 H 
BRANCH  44  47
ATOM     47  C   LIG d   1       2.108  -7.660 -13.800  0.00  0.00    -0.049 C 
ATOM     48  H   LIG d   1       1.893  -6.615 -13.574  0.00  0.00     0.025 H 
ATOM     49  H   LIG d   1       2.927  -7.716 -14.518  0.00  0.00     0.025 H 
ATOM     50  H   LIG d   1       1.220  -8.129 -14.225  0.00  0.00     0.025 H 
ENDBRANCH  44  47
ENDBRANCH  36  44
ENDBRANCH  33  34
ENDBRANCH   8  33
TORSDOF 9
ENDMDL
