MODEL 1
REMARK VINA RESULT:      -8.9      0.000      0.000
REMARK  2 active torsions:
REMARK  status: ('A' for Active; 'I' for Inactive)
REMARK    1  A    between atoms: C_3  and  C_20 
REMARK    2  A    between atoms: C_5  and  C_7 
ROOT
ATOM      1  C   LIG d   1       9.654   4.876  -3.734  0.00  0.00     0.275 A 
ATOM      2  N   LIG d   1      10.207   4.730  -2.562  0.00  0.00    -0.160 N 
ATOM      3  C   LIG d   1      10.315   5.909  -1.873  0.00  0.00     0.232 A 
ATOM      4  C   LIG d   1      10.826   6.198  -0.614  0.00  0.00     0.029 A 
ATOM      5  C   LIG d   1      10.815   7.517  -0.141  0.00  0.00     0.058 A 
ATOM      6  C   LIG d   1      10.293   8.541  -0.926  0.00  0.00    -0.043 A 
ATOM      7  C   LIG d   1       9.781   8.257  -2.185  0.00  0.00    -0.043 A 
ATOM      8  C   LIG d   1       9.791   6.958  -2.655  0.00  0.00     0.101 A 
ATOM      9  C   LIG d   1       9.335   6.320  -3.921  0.00  0.00     0.265 A 
ATOM     10  O   LIG d   1       8.818   6.852  -4.881  0.00  0.00    -0.280 OA
ATOM     11  C   LIG d   1      11.344   7.812   1.158  0.00  0.00     0.099 C 
ATOM     12  N   LIG d   1      11.762   8.047   2.188  0.00  0.00    -0.191 NA
ATOM     13  O   LIG d   1      10.643   3.483  -2.053  0.00  0.00    -0.619 OA
ATOM     14  H   LIG d   1      11.232   5.407  -0.000  0.00  0.00     0.070 H 
ATOM     15  H   LIG d   1      10.287   9.556  -0.557  0.00  0.00     0.063 H 
ATOM     16  H   LIG d   1       9.376   9.050  -2.796  0.00  0.00     0.063 H 
ENDROOT
BRANCH   1  17
ATOM     17  C   LIG d   1       9.393   3.797  -4.710  0.00  0.00     0.052 A 
ATOM     18  C   LIG d   1       8.546   2.741  -4.374  0.00  0.00    -0.035 A 
ATOM     19  C   LIG d   1       8.305   1.728  -5.299  0.00  0.00     0.052 A 
ATOM     20  H   LIG d   1       8.079   2.710  -3.400  0.00  0.00     0.063 H 
ATOM     21  C   LIG d   1       8.914   1.776  -6.558  0.00  0.00    -0.048 A 
ATOM     22  C   LIG d   1       9.751   2.824  -6.883  0.00  0.00    -0.060 A 
ATOM     23  H   LIG d   1       8.728   0.991  -7.276  0.00  0.00     0.063 H 
ATOM     24  C   LIG d   1       9.990   3.835  -5.974  0.00  0.00    -0.048 A 
ATOM     25  H   LIG d   1      10.218   2.856  -7.857  0.00  0.00     0.062 H 
ATOM     26  H   LIG d   1      10.643   4.654  -6.237  0.00  0.00     0.063 H 
BRANCH  19  27
ATOM     27  C   LIG d   1       7.409   0.606  -4.953  0.00  0.00     0.275 A 
ATOM     28  C   LIG d   1       6.472   0.561  -3.795  0.00  0.00     0.265 A 
ATOM     29  C   LIG d   1       5.821  -0.773  -3.908  0.00  0.00     0.101 A 
ATOM     30  O   LIG d   1       6.283   1.415  -2.954  0.00  0.00    -0.280 OA
ATOM     31  C   LIG d   1       6.388  -1.373  -5.050  0.00  0.00     0.232 A 
ATOM     32  C   LIG d   1       4.865  -1.434  -3.160  0.00  0.00    -0.043 A 
ATOM     33  N   LIG d   1       7.297  -0.515  -5.610  0.00  0.00    -0.160 N 
ATOM     34  C   LIG d   1       5.973  -2.646  -5.419  0.00  0.00     0.029 A 
ATOM     35  O   LIG d   1       8.041  -0.816  -6.777  0.00  0.00    -0.619 OA
ATOM     36  C   LIG d   1       5.002  -3.314  -4.658  0.00  0.00     0.058 A 
ATOM     37  H   LIG d   1       6.396  -3.122  -6.292  0.00  0.00     0.070 H 
ATOM     38  C   LIG d   1       4.451  -2.706  -3.533  0.00  0.00    -0.043 A 
ATOM     39  C   LIG d   1       4.576  -4.626  -5.041  0.00  0.00     0.099 C 
ATOM     40  H   LIG d   1       3.704  -3.225  -2.951  0.00  0.00     0.063 H 
ATOM     41  N   LIG d   1       4.237  -5.666  -5.345  0.00  0.00    -0.191 NA
ATOM     42  H   LIG d   1       4.440  -0.962  -2.287  0.00  0.00     0.063 H 
ENDBRANCH  19  27
ENDBRANCH   1  17
TORSDOF 2
ENDMDL
MODEL 2
REMARK VINA RESULT:      -8.8      0.045      9.650
REMARK  2 active torsions:
REMARK  status: ('A' for Active; 'I' for Inactive)
REMARK    1  A    between atoms: C_3  and  C_20 
REMARK    2  A    between atoms: C_5  and  C_7 
ROOT
ATOM      1  C   LIG d   1       7.432   0.603  -4.924  0.00  0.00     0.275 A 
ATOM      2  N   LIG d   1       7.336  -0.530  -5.563  0.00  0.00    -0.160 N 
ATOM      3  C   LIG d   1       6.406  -1.374  -5.014  0.00  0.00     0.232 A 
ATOM      4  C   LIG d   1       5.992  -2.650  -5.376  0.00  0.00     0.029 A 
ATOM      5  C   LIG d   1       5.004  -3.303  -4.626  0.00  0.00     0.058 A 
ATOM      6  C   LIG d   1       4.435  -2.679  -3.519  0.00  0.00    -0.043 A 
ATOM      7  C   LIG d   1       4.846  -1.404  -3.154  0.00  0.00    -0.043 A 
ATOM      8  C   LIG d   1       5.820  -0.758  -3.890  0.00  0.00     0.101 A 
ATOM      9  C   LIG d   1       6.476   0.574  -3.780  0.00  0.00     0.265 A 
ATOM     10  O   LIG d   1       6.275   1.440  -2.954  0.00  0.00    -0.280 OA
ATOM     11  C   LIG d   1       4.579  -4.618  -5.002  0.00  0.00     0.099 C 
ATOM     12  N   LIG d   1       4.240  -5.661  -5.299  0.00  0.00    -0.191 NA
ATOM     13  O   LIG d   1       8.105  -0.851  -6.707  0.00  0.00    -0.619 OA
ATOM     14  H   LIG d   1       6.430  -3.138  -6.234  0.00  0.00     0.070 H 
ATOM     15  H   LIG d   1       3.673  -3.187  -2.945  0.00  0.00     0.063 H 
ATOM     16  H   LIG d   1       4.406  -0.919  -2.296  0.00  0.00     0.063 H 
ENDROOT
BRANCH   1  17
ATOM     17  C   LIG d   1       8.335   1.720  -5.271  0.00  0.00     0.052 A 
ATOM     18  C   LIG d   1       8.568   2.742  -4.352  0.00  0.00    -0.035 A 
ATOM     19  C   LIG d   1       9.422   3.791  -4.687  0.00  0.00     0.052 A 
ATOM     20  H   LIG d   1       8.089   2.720  -3.384  0.00  0.00     0.063 H 
ATOM     21  C   LIG d   1      10.038   3.812  -5.943  0.00  0.00    -0.048 A 
ATOM     22  C   LIG d   1       9.802   2.797  -6.848  0.00  0.00    -0.060 A 
ATOM     23  H   LIG d   1      10.700   4.625  -6.204  0.00  0.00     0.063 H 
ATOM     24  C   LIG d   1       8.963   1.751  -6.520  0.00  0.00    -0.048 A 
ATOM     25  H   LIG d   1      10.281   2.818  -7.816  0.00  0.00     0.062 H 
ATOM     26  H   LIG d   1       8.787   0.958  -7.232  0.00  0.00     0.063 H 
BRANCH  19  27
ATOM     27  C   LIG d   1       9.675   4.878  -3.720  0.00  0.00     0.275 A 
ATOM     28  C   LIG d   1       9.346   6.318  -3.917  0.00  0.00     0.265 A 
ATOM     29  C   LIG d   1       9.803   6.969  -2.659  0.00  0.00     0.101 A 
ATOM     30  O   LIG d   1       8.825   6.839  -4.881  0.00  0.00    -0.280 OA
ATOM     31  C   LIG d   1      10.333   5.930  -1.868  0.00  0.00     0.232 A 
ATOM     32  C   LIG d   1       9.791   8.273  -2.201  0.00  0.00    -0.043 A 
ATOM     33  N   LIG d   1      10.221   4.744  -2.543  0.00  0.00    -0.160 N 
ATOM     34  C   LIG d   1      10.847   6.232  -0.613  0.00  0.00     0.029 A 
ATOM     35  O   LIG d   1      10.657   3.501  -2.020  0.00  0.00    -0.619 OA
ATOM     36  C   LIG d   1      10.833   7.557  -0.152  0.00  0.00     0.058 A 
ATOM     37  H   LIG d   1      11.257   5.449   0.007  0.00  0.00     0.070 H 
ATOM     38  C   LIG d   1      10.305   8.571  -0.946  0.00  0.00    -0.043 A 
ATOM     39  C   LIG d   1      11.364   7.866   1.141  0.00  0.00     0.099 C 
ATOM     40  H   LIG d   1      10.297   9.590  -0.586  0.00  0.00     0.063 H 
ATOM     41  N   LIG d   1      11.784   8.111   2.167  0.00  0.00    -0.191 NA
ATOM     42  H   LIG d   1       9.382   9.059  -2.818  0.00  0.00     0.063 H 
ENDBRANCH  19  27
ENDBRANCH   1  17
TORSDOF 2
ENDMDL
MODEL 3
REMARK VINA RESULT:      -8.6      3.981      5.928
REMARK  2 active torsions:
REMARK  status: ('A' for Active; 'I' for Inactive)
REMARK    1  A    between atoms: C_3  and  C_20 
REMARK    2  A    between atoms: C_5  and  C_7 
ROOT
ATOM      1  C   LIG d   1       7.897   0.368  -4.443  0.00  0.00     0.275 A 
ATOM      2  N   LIG d   1       7.866   1.526  -3.845  0.00  0.00    -0.160 N 
ATOM      3  C   LIG d   1       9.074   2.174  -3.875  0.00  0.00     0.232 A 
ATOM      4  C   LIG d   1       9.472   3.406  -3.373  0.00  0.00     0.029 A 
ATOM      5  C   LIG d   1      10.794   3.836  -3.545  0.00  0.00     0.058 A 
ATOM      6  C   LIG d   1      11.713   3.035  -4.219  0.00  0.00    -0.043 A 
ATOM      7  C   LIG d   1      11.319   1.803  -4.722  0.00  0.00    -0.043 A 
ATOM      8  C   LIG d   1      10.016   1.375  -4.554  0.00  0.00     0.101 A 
ATOM      9  C   LIG d   1       9.279   0.145  -4.955  0.00  0.00     0.265 A 
ATOM     10  O   LIG d   1       9.704  -0.815  -5.563  0.00  0.00    -0.280 OA
ATOM     11  C   LIG d   1      11.203   5.108  -3.026  0.00  0.00     0.099 C 
ATOM     12  N   LIG d   1      11.527   6.116  -2.615  0.00  0.00    -0.191 NA
ATOM     13  O   LIG d   1       6.707   2.061  -3.235  0.00  0.00    -0.619 OA
ATOM     14  H   LIG d   1       8.764   4.032  -2.850  0.00  0.00     0.070 H 
ATOM     15  H   LIG d   1      12.731   3.372  -4.349  0.00  0.00     0.063 H 
ATOM     16  H   LIG d   1      12.029   1.180  -5.244  0.00  0.00     0.063 H 
ENDROOT
BRANCH   1  17
ATOM     17  C   LIG d   1       6.759  -0.564  -4.586  0.00  0.00     0.052 A 
ATOM     18  C   LIG d   1       5.976  -0.540  -5.740  0.00  0.00    -0.035 A 
ATOM     19  C   LIG d   1       4.905  -1.422  -5.866  0.00  0.00     0.052 A 
ATOM     20  H   LIG d   1       6.200   0.160  -6.532  0.00  0.00     0.063 H 
ATOM     21  C   LIG d   1       4.621  -2.325  -4.835  0.00  0.00    -0.048 A 
ATOM     22  C   LIG d   1       5.401  -2.342  -3.696  0.00  0.00    -0.060 A 
ATOM     23  H   LIG d   1       3.791  -3.008  -4.932  0.00  0.00     0.063 H 
ATOM     24  C   LIG d   1       6.467  -1.476  -3.567  0.00  0.00    -0.048 A 
ATOM     25  H   LIG d   1       5.177  -3.042  -2.904  0.00  0.00     0.062 H 
ATOM     26  H   LIG d   1       7.075  -1.499  -2.674  0.00  0.00     0.063 H 
BRANCH  19  27
ATOM     27  C   LIG d   1       4.070  -1.404  -7.085  0.00  0.00     0.275 A 
ATOM     28  C   LIG d   1       3.195  -0.282  -7.528  0.00  0.00     0.265 A 
ATOM     29  C   LIG d   1       2.589  -0.775  -8.796  0.00  0.00     0.101 A 
ATOM     30  O   LIG d   1       3.017   0.787  -6.982  0.00  0.00    -0.280 OA
ATOM     31  C   LIG d   1       3.119  -2.067  -8.988  0.00  0.00     0.232 A 
ATOM     32  C   LIG d   1       1.697  -0.232  -9.701  0.00  0.00    -0.043 A 
ATOM     33  N   LIG d   1       3.975  -2.364  -7.962  0.00  0.00    -0.160 N 
ATOM     34  C   LIG d   1       2.733  -2.794 -10.107  0.00  0.00     0.029 A 
ATOM     35  O   LIG d   1       4.680  -3.590  -7.860  0.00  0.00    -0.619 OA
ATOM     36  C   LIG d   1       1.828  -2.240 -11.024  0.00  0.00     0.058 A 
ATOM     37  H   LIG d   1       3.130  -3.785 -10.272  0.00  0.00     0.070 H 
ATOM     38  C   LIG d   1       1.315  -0.962 -10.819  0.00  0.00    -0.043 A 
ATOM     39  C   LIG d   1       1.432  -2.991 -12.177  0.00  0.00     0.099 C 
ATOM     40  H   LIG d   1       0.618  -0.540 -11.528  0.00  0.00     0.063 H 
ATOM     41  N   LIG d   1       1.118  -3.586 -13.092  0.00  0.00    -0.191 NA
ATOM     42  H   LIG d   1       1.299   0.758  -9.540  0.00  0.00     0.063 H 
ENDBRANCH  19  27
ENDBRANCH   1  17
TORSDOF 2
ENDMDL
MODEL 4
REMARK VINA RESULT:      -8.6      3.985     10.644
REMARK  2 active torsions:
REMARK  status: ('A' for Active; 'I' for Inactive)
REMARK    1  A    between atoms: C_3  and  C_20 
REMARK    2  A    between atoms: C_5  and  C_7 
ROOT
ATOM      1  C   LIG d   1       4.074  -1.420  -7.081  0.00  0.00     0.275 A 
ATOM      2  N   LIG d   1       3.961  -2.383  -7.953  0.00  0.00    -0.160 N 
ATOM      3  C   LIG d   1       3.112  -2.072  -8.983  0.00  0.00     0.232 A 
ATOM      4  C   LIG d   1       2.719  -2.793 -10.104  0.00  0.00     0.029 A 
ATOM      5  C   LIG d   1       1.820  -2.228 -11.018  0.00  0.00     0.058 A 
ATOM      6  C   LIG d   1       1.318  -0.946 -10.810  0.00  0.00    -0.043 A 
ATOM      7  C   LIG d   1       1.708  -0.222  -9.692  0.00  0.00    -0.043 A 
ATOM      8  C   LIG d   1       2.594  -0.776  -8.787  0.00  0.00     0.101 A 
ATOM      9  C   LIG d   1       3.205  -0.291  -7.519  0.00  0.00     0.265 A 
ATOM     10  O   LIG d   1       3.038   0.779  -6.971  0.00  0.00    -0.280 OA
ATOM     11  C   LIG d   1       1.416  -2.974 -12.172  0.00  0.00     0.099 C 
ATOM     12  N   LIG d   1       1.095  -3.564 -13.089  0.00  0.00    -0.191 NA
ATOM     13  O   LIG d   1       4.648  -3.616  -7.851  0.00  0.00    -0.619 OA
ATOM     14  H   LIG d   1       3.106  -3.788 -10.270  0.00  0.00     0.070 H 
ATOM     15  H   LIG d   1       0.625  -0.515 -11.519  0.00  0.00     0.063 H 
ATOM     16  H   LIG d   1       1.320   0.772  -9.528  0.00  0.00     0.063 H 
ENDROOT
BRANCH   1  17
ATOM     17  C   LIG d   1       4.915  -1.446  -5.866  0.00  0.00     0.052 A 
ATOM     18  C   LIG d   1       5.992  -0.569  -5.743  0.00  0.00    -0.035 A 
ATOM     19  C   LIG d   1       6.780  -0.600  -4.595  0.00  0.00     0.052 A 
ATOM     20  H   LIG d   1       6.215   0.131  -6.536  0.00  0.00     0.063 H 
ATOM     21  C   LIG d   1       6.486  -1.509  -3.573  0.00  0.00    -0.048 A 
ATOM     22  C   LIG d   1       5.418  -2.374  -3.702  0.00  0.00    -0.060 A 
ATOM     23  H   LIG d   1       7.096  -1.534  -2.682  0.00  0.00     0.063 H 
ATOM     24  C   LIG d   1       4.629  -2.345  -4.835  0.00  0.00    -0.048 A 
ATOM     25  H   LIG d   1       5.196  -3.074  -2.910  0.00  0.00     0.062 H 
ATOM     26  H   LIG d   1       3.793  -3.022  -4.926  0.00  0.00     0.063 H 
BRANCH  19  27
ATOM     27  C   LIG d   1       7.924   0.326  -4.455  0.00  0.00     0.275 A 
ATOM     28  C   LIG d   1       9.301   0.097  -4.975  0.00  0.00     0.265 A 
ATOM     29  C   LIG d   1      10.049   1.319  -4.568  0.00  0.00     0.101 A 
ATOM     30  O   LIG d   1       9.718  -0.863  -5.589  0.00  0.00    -0.280 OA
ATOM     31  C   LIG d   1       9.114   2.121  -3.883  0.00  0.00     0.232 A 
ATOM     32  C   LIG d   1      11.355   1.738  -4.735  0.00  0.00    -0.043 A 
ATOM     33  N   LIG d   1       7.901   1.486  -3.860  0.00  0.00    -0.160 N 
ATOM     34  C   LIG d   1       9.523   3.347  -3.374  0.00  0.00     0.029 A 
ATOM     35  O   LIG d   1       6.744   2.030  -3.250  0.00  0.00    -0.619 OA
ATOM     36  C   LIG d   1      10.849   3.769  -3.546  0.00  0.00     0.058 A 
ATOM     37  H   LIG d   1       8.820   3.976  -2.846  0.00  0.00     0.070 H 
ATOM     38  C   LIG d   1      11.760   2.964  -4.226  0.00  0.00    -0.043 A 
ATOM     39  C   LIG d   1      11.268   5.033  -3.020  0.00  0.00     0.099 C 
ATOM     40  H   LIG d   1      12.780   3.294  -4.356  0.00  0.00     0.063 H 
ATOM     41  N   LIG d   1      11.601   6.036  -2.604  0.00  0.00    -0.191 NA
ATOM     42  H   LIG d   1      12.060   1.112  -5.262  0.00  0.00     0.063 H 
ENDBRANCH  19  27
ENDBRANCH   1  17
TORSDOF 2
ENDMDL
MODEL 5
REMARK VINA RESULT:      -8.5      2.718      9.689
REMARK  2 active torsions:
REMARK  status: ('A' for Active; 'I' for Inactive)
REMARK    1  A    between atoms: C_3  and  C_20 
REMARK    2  A    between atoms: C_5  and  C_7 
ROOT
ATOM      1  C   LIG d   1       7.435   1.134  -7.210  0.00  0.00     0.275 A 
ATOM      2  N   LIG d   1       6.612   1.390  -8.189  0.00  0.00    -0.160 N 
ATOM      3  C   LIG d   1       5.535   0.544  -8.215  0.00  0.00     0.232 A 
ATOM      4  C   LIG d   1       4.440   0.470  -9.068  0.00  0.00     0.029 A 
ATOM      5  C   LIG d   1       3.463  -0.514  -8.868  0.00  0.00     0.058 A 
ATOM      6  C   LIG d   1       3.581  -1.419  -7.816  0.00  0.00    -0.043 A 
ATOM      7  C   LIG d   1       4.673  -1.348  -6.962  0.00  0.00    -0.043 A 
ATOM      8  C   LIG d   1       5.640  -0.381  -7.157  0.00  0.00     0.101 A 
ATOM      9  C   LIG d   1       6.902  -0.033  -6.449  0.00  0.00     0.265 A 
ATOM     10  O   LIG d   1       7.385  -0.570  -5.474  0.00  0.00    -0.280 OA
ATOM     11  C   LIG d   1       2.336  -0.587  -9.749  0.00  0.00     0.099 C 
ATOM     12  N   LIG d   1       1.441  -0.646 -10.447  0.00  0.00    -0.191 NA
ATOM     13  O   LIG d   1       6.807   2.437  -9.121  0.00  0.00    -0.619 OA
ATOM     14  H   LIG d   1       4.343   1.170  -9.886  0.00  0.00     0.070 H 
ATOM     15  H   LIG d   1       2.825  -2.175  -7.666  0.00  0.00     0.063 H 
ATOM     16  H   LIG d   1       4.767  -2.050  -6.146  0.00  0.00     0.063 H 
ENDROOT
BRANCH   1  17
ATOM     17  C   LIG d   1       8.680   1.870  -6.910  0.00  0.00     0.052 A 
ATOM     18  C   LIG d   1       8.745   2.710  -5.799  0.00  0.00    -0.035 A 
ATOM     19  C   LIG d   1       9.924   3.401  -5.523  0.00  0.00     0.052 A 
ATOM     20  H   LIG d   1       7.885   2.826  -5.155  0.00  0.00     0.063 H 
ATOM     21  C   LIG d   1      11.033   3.246  -6.361  0.00  0.00    -0.048 A 
ATOM     22  C   LIG d   1      10.961   2.412  -7.459  0.00  0.00    -0.060 A 
ATOM     23  H   LIG d   1      11.947   3.781  -6.149  0.00  0.00     0.063 H 
ATOM     24  C   LIG d   1       9.799   1.720  -7.735  0.00  0.00    -0.048 A 
ATOM     25  H   LIG d   1      11.821   2.296  -8.102  0.00  0.00     0.062 H 
ATOM     26  H   LIG d   1       9.752   1.066  -8.594  0.00  0.00     0.063 H 
BRANCH  19  27
ATOM     27  C   LIG d   1      10.002   4.293  -4.348  0.00  0.00     0.275 A 
ATOM     28  C   LIG d   1       9.571   5.719  -4.304  0.00  0.00     0.265 A 
ATOM     29  C   LIG d   1       9.863   6.142  -2.907  0.00  0.00     0.101 A 
ATOM     30  O   LIG d   1       9.091   6.382  -5.200  0.00  0.00    -0.280 OA
ATOM     31  C   LIG d   1      10.411   5.006  -2.277  0.00  0.00     0.232 A 
ATOM     32  C   LIG d   1       9.703   7.328  -2.216  0.00  0.00    -0.043 A 
ATOM     33  N   LIG d   1      10.456   3.969  -3.170  0.00  0.00    -0.160 N 
ATOM     34  C   LIG d   1      10.790   5.092  -0.943  0.00  0.00     0.029 A 
ATOM     35  O   LIG d   1      10.950   2.680  -2.849  0.00  0.00    -0.619 OA
ATOM     36  C   LIG d   1      10.625   6.298  -0.246  0.00  0.00     0.058 A 
ATOM     37  H   LIG d   1      11.210   4.232  -0.443  0.00  0.00     0.070 H 
ATOM     38  C   LIG d   1      10.082   7.410  -0.883  0.00  0.00    -0.043 A 
ATOM     39  C   LIG d   1      11.017   6.384   1.129  0.00  0.00     0.099 C 
ATOM     40  H   LIG d   1       9.958   8.336  -0.341  0.00  0.00     0.063 H 
ATOM     41  N   LIG d   1      11.326   6.452   2.220  0.00  0.00    -0.191 NA
ATOM     42  H   LIG d   1       9.283   8.190  -2.713  0.00  0.00     0.063 H 
ENDBRANCH  19  27
ENDBRANCH   1  17
TORSDOF 2
ENDMDL
MODEL 6
REMARK VINA RESULT:      -8.1      1.579      2.554
REMARK  2 active torsions:
REMARK  status: ('A' for Active; 'I' for Inactive)
REMARK    1  A    between atoms: C_3  and  C_20 
REMARK    2  A    between atoms: C_5  and  C_7 
ROOT
ATOM      1  C   LIG d   1       9.898   4.728  -4.089  0.00  0.00     0.275 A 
ATOM      2  N   LIG d   1       9.581   5.990  -3.991  0.00  0.00    -0.160 N 
ATOM      3  C   LIG d   1       9.819   6.504  -2.743  0.00  0.00     0.232 A 
ATOM      4  C   LIG d   1       9.634   7.777  -2.219  0.00  0.00     0.029 A 
ATOM      5  C   LIG d   1       9.965   8.038  -0.883  0.00  0.00     0.058 A 
ATOM      6  C   LIG d   1      10.481   7.027  -0.076  0.00  0.00    -0.043 A 
ATOM      7  C   LIG d   1      10.668   5.754  -0.596  0.00  0.00    -0.043 A 
ATOM      8  C   LIG d   1      10.342   5.492  -1.912  0.00  0.00     0.101 A 
ATOM      9  C   LIG d   1      10.413   4.274  -2.765  0.00  0.00     0.265 A 
ATOM     10  O   LIG d   1      10.804   3.168  -2.457  0.00  0.00    -0.280 OA
ATOM     11  C   LIG d   1       9.773   9.352  -0.345  0.00  0.00     0.099 C 
ATOM     12  N   LIG d   1       9.621  10.394   0.082  0.00  0.00    -0.191 NA
ATOM     13  O   LIG d   1       9.054   6.750  -5.062  0.00  0.00    -0.619 OA
ATOM     14  H   LIG d   1       9.234   8.565  -2.841  0.00  0.00     0.070 H 
ATOM     15  H   LIG d   1      10.736   7.234   0.954  0.00  0.00     0.063 H 
ATOM     16  H   LIG d   1      11.068   4.968   0.029  0.00  0.00     0.063 H 
ENDROOT
BRANCH   1  17
ATOM     17  C   LIG d   1       9.767   3.894  -5.301  0.00  0.00     0.052 A 
ATOM     18  C   LIG d   1       8.811   2.879  -5.350  0.00  0.00    -0.035 A 
ATOM     19  C   LIG d   1       8.693   2.097  -6.498  0.00  0.00     0.052 A 
ATOM     20  H   LIG d   1       8.166   2.701  -4.503  0.00  0.00     0.063 H 
ATOM     21  C   LIG d   1       9.533   2.335  -7.591  0.00  0.00    -0.048 A 
ATOM     22  C   LIG d   1      10.476   3.341  -7.535  0.00  0.00    -0.060 A 
ATOM     23  H   LIG d   1       9.443   1.729  -8.481  0.00  0.00     0.063 H 
ATOM     24  C   LIG d   1      10.595   4.124  -6.404  0.00  0.00    -0.048 A 
ATOM     25  H   LIG d   1      11.122   3.520  -8.382  0.00  0.00     0.062 H 
ATOM     26  H   LIG d   1      11.333   4.912  -6.369  0.00  0.00     0.063 H 
BRANCH  19  27
ATOM     27  C   LIG d   1       7.684   1.020  -6.559  0.00  0.00     0.275 A 
ATOM     28  C   LIG d   1       6.510   0.974  -7.476  0.00  0.00     0.265 A 
ATOM     29  C   LIG d   1       5.831  -0.305  -7.129  0.00  0.00     0.101 A 
ATOM     30  O   LIG d   1       6.184   1.790  -8.312  0.00  0.00    -0.280 OA
ATOM     31  C   LIG d   1       6.607  -0.876  -6.101  0.00  0.00     0.232 A 
ATOM     32  C   LIG d   1       4.698  -0.941  -7.600  0.00  0.00    -0.043 A 
ATOM     33  N   LIG d   1       7.669  -0.057  -5.825  0.00  0.00    -0.160 N 
ATOM     34  C   LIG d   1       6.217  -2.096  -5.561  0.00  0.00     0.029 A 
ATOM     35  O   LIG d   1       8.646  -0.348  -4.840  0.00  0.00    -0.619 OA
ATOM     36  C   LIG d   1       5.067  -2.738  -6.042  0.00  0.00     0.058 A 
ATOM     37  H   LIG d   1       6.800  -2.550  -4.773  0.00  0.00     0.070 H 
ATOM     38  C   LIG d   1       4.313  -2.160  -7.059  0.00  0.00    -0.043 A 
ATOM     39  C   LIG d   1       4.668  -3.995  -5.484  0.00  0.00     0.099 C 
ATOM     40  H   LIG d   1       3.428  -2.659  -7.425  0.00  0.00     0.063 H 
ATOM     41  N   LIG d   1       4.352  -4.992  -5.042  0.00  0.00    -0.191 NA
ATOM     42  H   LIG d   1       4.113  -0.491  -8.388  0.00  0.00     0.063 H 
ENDBRANCH  19  27
ENDBRANCH   1  17
TORSDOF 2
ENDMDL
MODEL 7
REMARK VINA RESULT:      -8.0      2.814      3.534
REMARK  2 active torsions:
REMARK  status: ('A' for Active; 'I' for Inactive)
REMARK    1  A    between atoms: C_3  and  C_20 
REMARK    2  A    between atoms: C_5  and  C_7 
ROOT
ATOM      1  C   LIG d   1      10.025   4.214  -4.417  0.00  0.00     0.275 A 
ATOM      2  N   LIG d   1       9.711   5.476  -4.325  0.00  0.00    -0.160 N 
ATOM      3  C   LIG d   1       9.922   5.988  -3.071  0.00  0.00     0.232 A 
ATOM      4  C   LIG d   1       9.730   7.261  -2.550  0.00  0.00     0.029 A 
ATOM      5  C   LIG d   1      10.031   7.519  -1.206  0.00  0.00     0.058 A 
ATOM      6  C   LIG d   1      10.522   6.505  -0.388  0.00  0.00    -0.043 A 
ATOM      7  C   LIG d   1      10.715   5.231  -0.905  0.00  0.00    -0.043 A 
ATOM      8  C   LIG d   1      10.419   4.972  -2.229  0.00  0.00     0.101 A 
ATOM      9  C   LIG d   1      10.505   3.755  -3.082  0.00  0.00     0.265 A 
ATOM     10  O   LIG d   1      10.883   2.647  -2.766  0.00  0.00    -0.280 OA
ATOM     11  C   LIG d   1       9.832   8.833  -0.671  0.00  0.00     0.099 C 
ATOM     12  N   LIG d   1       9.675   9.875  -0.247  0.00  0.00    -0.191 NA
ATOM     13  O   LIG d   1       9.214   6.241  -5.407  0.00  0.00    -0.619 OA
ATOM     14  H   LIG d   1       9.350   8.052  -3.180  0.00  0.00     0.070 H 
ATOM     15  H   LIG d   1      10.753   6.709   0.647  0.00  0.00     0.063 H 
ATOM     16  H   LIG d   1      11.096   4.443  -0.272  0.00  0.00     0.063 H 
ENDROOT
BRANCH   1  17
ATOM     17  C   LIG d   1       9.918   3.382  -5.634  0.00  0.00     0.052 A 
ATOM     18  C   LIG d   1       8.748   2.667  -5.891  0.00  0.00    -0.035 A 
ATOM     19  C   LIG d   1       8.656   1.885  -7.040  0.00  0.00     0.052 A 
ATOM     20  H   LIG d   1       7.918   2.720  -5.201  0.00  0.00     0.063 H 
ATOM     21  C   LIG d   1       9.735   1.821  -7.927  0.00  0.00    -0.048 A 
ATOM     22  C   LIG d   1      10.890   2.532  -7.666  0.00  0.00    -0.060 A 
ATOM     23  H   LIG d   1       9.665   1.215  -8.818  0.00  0.00     0.063 H 
ATOM     24  C   LIG d   1      10.987   3.313  -6.533  0.00  0.00    -0.048 A 
ATOM     25  H   LIG d   1      11.720   2.479  -8.355  0.00  0.00     0.062 H 
ATOM     26  H   LIG d   1      11.892   3.870  -6.337  0.00  0.00     0.063 H 
BRANCH  19  27
ATOM     27  C   LIG d   1       7.421   1.124  -7.321  0.00  0.00     0.275 A 
ATOM     28  C   LIG d   1       6.970  -0.106  -6.610  0.00  0.00     0.265 A 
ATOM     29  C   LIG d   1       5.687  -0.459  -7.275  0.00  0.00     0.101 A 
ATOM     30  O   LIG d   1       7.522  -0.684  -5.697  0.00  0.00    -0.280 OA
ATOM     31  C   LIG d   1       5.493   0.526  -8.265  0.00  0.00     0.232 A 
ATOM     32  C   LIG d   1       4.769  -1.477  -7.098  0.00  0.00    -0.043 A 
ATOM     33  N   LIG d   1       6.533   1.415  -8.231  0.00  0.00    -0.160 N 
ATOM     34  C   LIG d   1       4.359   0.462  -9.066  0.00  0.00     0.029 A 
ATOM     35  O   LIG d   1       6.638   2.531  -9.098  0.00  0.00    -0.619 OA
ATOM     36  C   LIG d   1       3.430  -0.572  -8.882  0.00  0.00     0.058 A 
ATOM     37  H   LIG d   1       4.193   1.208  -9.829  0.00  0.00     0.070 H 
ATOM     38  C   LIG d   1       3.637  -1.536  -7.899  0.00  0.00    -0.043 A 
ATOM     39  C   LIG d   1       2.263  -0.635  -9.709  0.00  0.00     0.099 C 
ATOM     40  H   LIG d   1       2.918  -2.330  -7.762  0.00  0.00     0.063 H 
ATOM     41  N   LIG d   1       1.336  -0.685 -10.364  0.00  0.00    -0.191 NA
ATOM     42  H   LIG d   1       4.931  -2.224  -6.336  0.00  0.00     0.063 H 
ENDBRANCH  19  27
ENDBRANCH   1  17
TORSDOF 2
ENDMDL
MODEL 8
REMARK VINA RESULT:      -7.9      2.122      9.609
REMARK  2 active torsions:
REMARK  status: ('A' for Active; 'I' for Inactive)
REMARK    1  A    between atoms: C_3  and  C_20 
REMARK    2  A    between atoms: C_5  and  C_7 
ROOT
ATOM      1  C   LIG d   1       7.541   0.676  -5.029  0.00  0.00     0.275 A 
ATOM      2  N   LIG d   1       7.448  -0.484  -5.617  0.00  0.00    -0.160 N 
ATOM      3  C   LIG d   1       6.500  -1.295  -5.051  0.00  0.00     0.232 A 
ATOM      4  C   LIG d   1       6.082  -2.583  -5.363  0.00  0.00     0.029 A 
ATOM      5  C   LIG d   1       5.074  -3.193  -4.605  0.00  0.00     0.058 A 
ATOM      6  C   LIG d   1       4.486  -2.515  -3.540  0.00  0.00    -0.043 A 
ATOM      7  C   LIG d   1       4.901  -1.228  -3.225  0.00  0.00    -0.043 A 
ATOM      8  C   LIG d   1       5.896  -0.624  -3.969  0.00  0.00     0.101 A 
ATOM      9  C   LIG d   1       6.561   0.707  -3.906  0.00  0.00     0.265 A 
ATOM     10  O   LIG d   1       6.350   1.611  -3.125  0.00  0.00    -0.280 OA
ATOM     11  C   LIG d   1       4.645  -4.521  -4.929  0.00  0.00     0.099 C 
ATOM     12  N   LIG d   1       4.303  -5.574  -5.185  0.00  0.00    -0.191 NA
ATOM     13  O   LIG d   1       8.238  -0.863  -6.729  0.00  0.00    -0.619 OA
ATOM     14  H   LIG d   1       6.534  -3.114  -6.188  0.00  0.00     0.070 H 
ATOM     15  H   LIG d   1       3.708  -2.990  -2.960  0.00  0.00     0.063 H 
ATOM     16  H   LIG d   1       4.447  -0.701  -2.400  0.00  0.00     0.063 H 
ENDROOT
BRANCH   1  17
ATOM     17  C   LIG d   1       8.461   1.768  -5.408  0.00  0.00     0.052 A 
ATOM     18  C   LIG d   1       9.284   2.353  -4.446  0.00  0.00    -0.035 A 
ATOM     19  C   LIG d   1      10.149   3.383  -4.812  0.00  0.00     0.052 A 
ATOM     20  H   LIG d   1       9.251   2.010  -3.422  0.00  0.00     0.063 H 
ATOM     21  C   LIG d   1      10.186   3.822  -6.139  0.00  0.00    -0.048 A 
ATOM     22  C   LIG d   1       9.368   3.238  -7.086  0.00  0.00    -0.060 A 
ATOM     23  H   LIG d   1      10.855   4.621  -6.424  0.00  0.00     0.063 H 
ATOM     24  C   LIG d   1       8.513   2.214  -6.732  0.00  0.00    -0.048 A 
ATOM     25  H   LIG d   1       9.401   3.582  -8.109  0.00  0.00     0.062 H 
ATOM     26  H   LIG d   1       7.879   1.759  -7.479  0.00  0.00     0.063 H 
BRANCH  19  27
ATOM     27  C   LIG d   1      11.025   4.009  -3.800  0.00  0.00     0.275 A 
ATOM     28  C   LIG d   1      10.610   5.027  -2.794  0.00  0.00     0.265 A 
ATOM     29  C   LIG d   1      11.858   5.316  -2.036  0.00  0.00     0.101 A 
ATOM     30  O   LIG d   1       9.509   5.510  -2.632  0.00  0.00    -0.280 OA
ATOM     31  C   LIG d   1      12.849   4.498  -2.616  0.00  0.00     0.232 A 
ATOM     32  C   LIG d   1      12.160   6.156  -0.981  0.00  0.00    -0.043 A 
ATOM     33  N   LIG d   1      12.294   3.763  -3.629  0.00  0.00    -0.160 N 
ATOM     34  C   LIG d   1      14.142   4.546  -2.112  0.00  0.00     0.029 A 
ATOM     35  O   LIG d   1      13.024   2.835  -4.414  0.00  0.00    -0.619 OA
ATOM     36  C   LIG d   1      14.445   5.400  -1.042  0.00  0.00     0.058 A 
ATOM     37  H   LIG d   1      14.915   3.926  -2.544  0.00  0.00     0.070 H 
ATOM     38  C   LIG d   1      13.454   6.201  -0.480  0.00  0.00    -0.043 A 
ATOM     39  C   LIG d   1      15.780   5.448  -0.525  0.00  0.00     0.099 C 
ATOM     40  H   LIG d   1      13.693   6.857   0.344  0.00  0.00     0.063 H 
ATOM     41  N   LIG d   1      16.838   5.486  -0.114  0.00  0.00    -0.191 NA
ATOM     42  H   LIG d   1      11.391   6.777  -0.547  0.00  0.00     0.063 H 
ENDBRANCH  19  27
ENDBRANCH   1  17
TORSDOF 2
ENDMDL
MODEL 9
REMARK VINA RESULT:      -7.7      3.078      9.954
REMARK  2 active torsions:
REMARK  status: ('A' for Active; 'I' for Inactive)
REMARK    1  A    between atoms: C_3  and  C_20 
REMARK    2  A    between atoms: C_5  and  C_7 
ROOT
ATOM      1  C   LIG d   1       7.305   0.813  -7.355  0.00  0.00     0.275 A 
ATOM      2  N   LIG d   1       6.709   0.999  -8.500  0.00  0.00    -0.160 N 
ATOM      3  C   LIG d   1       5.510   0.341  -8.590  0.00  0.00     0.232 A 
ATOM      4  C   LIG d   1       4.569   0.273  -9.609  0.00  0.00     0.029 A 
ATOM      5  C   LIG d   1       3.407  -0.490  -9.438  0.00  0.00     0.058 A 
ATOM      6  C   LIG d   1       3.188  -1.182  -8.250  0.00  0.00    -0.043 A 
ATOM      7  C   LIG d   1       4.127  -1.118  -7.229  0.00  0.00    -0.043 A 
ATOM      8  C   LIG d   1       5.274  -0.367  -7.394  0.00  0.00     0.101 A 
ATOM      9  C   LIG d   1       6.453  -0.089  -6.528  0.00  0.00     0.265 A 
ATOM     10  O   LIG d   1       6.668  -0.495  -5.405  0.00  0.00    -0.280 OA
ATOM     11  C   LIG d   1       2.438  -0.557 -10.491  0.00  0.00     0.099 C 
ATOM     12  N   LIG d   1       1.669  -0.611 -11.326  0.00  0.00    -0.191 NA
ATOM     13  O   LIG d   1       7.239   1.803  -9.537  0.00  0.00    -0.619 OA
ATOM     14  H   LIG d   1       4.733   0.809 -10.533  0.00  0.00     0.070 H 
ATOM     15  H   LIG d   1       2.290  -1.769  -8.123  0.00  0.00     0.063 H 
ATOM     16  H   LIG d   1       3.959  -1.654  -6.307  0.00  0.00     0.063 H 
ENDROOT
BRANCH   1  17
ATOM     17  C   LIG d   1       8.604   1.391  -6.950  0.00  0.00     0.052 A 
ATOM     18  C   LIG d   1       8.649   2.401  -5.990  0.00  0.00    -0.035 A 
ATOM     19  C   LIG d   1       9.878   2.941  -5.614  0.00  0.00     0.052 A 
ATOM     20  H   LIG d   1       7.737   2.764  -5.540  0.00  0.00     0.063 H 
ATOM     21  C   LIG d   1      11.055   2.466  -6.202  0.00  0.00    -0.048 A 
ATOM     22  C   LIG d   1      11.002   1.466  -7.152  0.00  0.00    -0.060 A 
ATOM     23  H   LIG d   1      12.008   2.884  -5.912  0.00  0.00     0.063 H 
ATOM     24  C   LIG d   1       9.789   0.922  -7.525  0.00  0.00    -0.048 A 
ATOM     25  H   LIG d   1      11.914   1.104  -7.602  0.00  0.00     0.062 H 
ATOM     26  H   LIG d   1       9.755   0.137  -8.265  0.00  0.00     0.063 H 
BRANCH  19  27
ATOM     27  C   LIG d   1       9.937   4.012  -4.598  0.00  0.00     0.275 A 
ATOM     28  C   LIG d   1      10.174   3.820  -3.139  0.00  0.00     0.265 A 
ATOM     29  C   LIG d   1      10.136   5.200  -2.582  0.00  0.00     0.101 A 
ATOM     30  O   LIG d   1      10.357   2.779  -2.544  0.00  0.00    -0.280 OA
ATOM     31  C   LIG d   1       9.894   6.044  -3.684  0.00  0.00     0.232 A 
ATOM     32  C   LIG d   1      10.282   5.719  -1.309  0.00  0.00    -0.043 A 
ATOM     33  N   LIG d   1       9.795   5.288  -4.822  0.00  0.00    -0.160 N 
ATOM     34  C   LIG d   1       9.803   7.415  -3.476  0.00  0.00     0.029 A 
ATOM     35  O   LIG d   1       9.558   5.836  -6.107  0.00  0.00    -0.619 OA
ATOM     36  C   LIG d   1       9.953   7.937  -2.184  0.00  0.00     0.058 A 
ATOM     37  H   LIG d   1       9.619   8.077  -4.309  0.00  0.00     0.070 H 
ATOM     38  C   LIG d   1      10.192   7.089  -1.106  0.00  0.00    -0.043 A 
ATOM     39  C   LIG d   1       9.859   9.350  -1.972  0.00  0.00     0.099 C 
ATOM     40  H   LIG d   1      10.307   7.497  -0.113  0.00  0.00     0.063 H 
ATOM     41  N   LIG d   1       9.785  10.471  -1.804  0.00  0.00    -0.191 NA
ATOM     42  H   LIG d   1      10.467   5.059  -0.475  0.00  0.00     0.063 H 
ENDBRANCH  19  27
ENDBRANCH   1  17
TORSDOF 2
ENDMDL
MODEL 10
REMARK VINA RESULT:      -7.7      6.817     10.389
REMARK  2 active torsions:
REMARK  status: ('A' for Active; 'I' for Inactive)
REMARK    1  A    between atoms: C_3  and  C_20 
REMARK    2  A    between atoms: C_5  and  C_7 
ROOT
ATOM      1  C   LIG d   1       4.427  -2.462  -7.036  0.00  0.00     0.275 A 
ATOM      2  N   LIG d   1       4.428  -1.253  -6.546  0.00  0.00    -0.160 N 
ATOM      3  C   LIG d   1       4.489  -1.233  -5.177  0.00  0.00     0.232 A 
ATOM      4  C   LIG d   1       4.516  -0.180  -4.270  0.00  0.00     0.029 A 
ATOM      5  C   LIG d   1       4.579  -0.444  -2.895  0.00  0.00     0.058 A 
ATOM      6  C   LIG d   1       4.615  -1.756  -2.431  0.00  0.00    -0.043 A 
ATOM      7  C   LIG d   1       4.588  -2.811  -3.334  0.00  0.00    -0.043 A 
ATOM      8  C   LIG d   1       4.525  -2.555  -4.690  0.00  0.00     0.101 A 
ATOM      9  C   LIG d   1       4.483  -3.424  -5.898  0.00  0.00     0.265 A 
ATOM     10  O   LIG d   1       4.496  -4.636  -5.947  0.00  0.00    -0.280 OA
ATOM     11  C   LIG d   1       4.606   0.643  -1.963  0.00  0.00     0.099 C 
ATOM     12  N   LIG d   1       4.629   1.505  -1.222  0.00  0.00    -0.191 NA
ATOM     13  O   LIG d   1       4.379  -0.085  -7.343  0.00  0.00    -0.619 OA
ATOM     14  H   LIG d   1       4.488   0.840  -4.625  0.00  0.00     0.070 H 
ATOM     15  H   LIG d   1       4.665  -1.954  -1.371  0.00  0.00     0.063 H 
ATOM     16  H   LIG d   1       4.617  -3.829  -2.977  0.00  0.00     0.063 H 
ENDROOT
BRANCH   1  17
ATOM     17  C   LIG d   1       4.376  -2.815  -8.470  0.00  0.00     0.052 A 
ATOM     18  C   LIG d   1       3.152  -2.854  -9.136  0.00  0.00    -0.035 A 
ATOM     19  C   LIG d   1       3.113  -3.188 -10.489  0.00  0.00     0.052 A 
ATOM     20  H   LIG d   1       2.239  -2.626  -8.607  0.00  0.00     0.063 H 
ATOM     21  C   LIG d   1       4.300  -3.482 -11.167  0.00  0.00    -0.048 A 
ATOM     22  C   LIG d   1       5.508  -3.441 -10.500  0.00  0.00    -0.060 A 
ATOM     23  H   LIG d   1       4.271  -3.741 -12.216  0.00  0.00     0.063 H 
ATOM     24  C   LIG d   1       5.556  -3.105  -9.162  0.00  0.00    -0.048 A 
ATOM     25  H   LIG d   1       6.422  -3.669 -11.030  0.00  0.00     0.062 H 
ATOM     26  H   LIG d   1       6.505  -3.071  -8.648  0.00  0.00     0.063 H 
BRANCH  19  27
ATOM     27  C   LIG d   1       1.821  -3.231 -11.204  0.00  0.00     0.275 A 
ATOM     28  C   LIG d   1       0.818  -4.331 -11.130  0.00  0.00     0.265 A 
ATOM     29  C   LIG d   1      -0.281  -3.879 -12.027  0.00  0.00     0.101 A 
ATOM     30  O   LIG d   1       0.882  -5.358 -10.487  0.00  0.00    -0.280 OA
ATOM     31  C   LIG d   1       0.133  -2.629 -12.529  0.00  0.00     0.232 A 
ATOM     32  C   LIG d   1      -1.494  -4.426 -12.400  0.00  0.00    -0.043 A 
ATOM     33  N   LIG d   1       1.358  -2.313 -12.005  0.00  0.00    -0.160 N 
ATOM     34  C   LIG d   1      -0.698  -1.947 -13.409  0.00  0.00     0.029 A 
ATOM     35  O   LIG d   1       2.053  -1.115 -12.306  0.00  0.00    -0.619 OA
ATOM     36  C   LIG d   1      -1.928  -2.505 -13.784  0.00  0.00     0.058 A 
ATOM     37  H   LIG d   1      -0.397  -0.987 -13.803  0.00  0.00     0.070 H 
ATOM     38  C   LIG d   1      -2.322  -3.741 -13.278  0.00  0.00    -0.043 A 
ATOM     39  C   LIG d   1      -2.783  -1.800 -14.691  0.00  0.00     0.099 C 
ATOM     40  H   LIG d   1      -3.271  -4.167 -13.571  0.00  0.00     0.063 H 
ATOM     41  N   LIG d   1      -3.461  -1.241 -15.410  0.00  0.00    -0.191 NA
ATOM     42  H   LIG d   1      -1.797  -5.385 -12.008  0.00  0.00     0.063 H 
ENDBRANCH  19  27
ENDBRANCH   1  17
TORSDOF 2
ENDMDL
