MODEL 1
REMARK VINA RESULT:      -6.9      0.000      0.000
REMARK  4 active torsions:
REMARK  status: ('A' for Active; 'I' for Inactive)
REMARK    1  A    between atoms: C_1  and  C_2 
REMARK    2  A    between atoms: C_23  and  C_25 
REMARK    3  A    between atoms: C_25  and  O_27 
REMARK    4  A    between atoms: O_27  and  C_28 
ROOT
ATOM      1  C   LIG d   1       3.746  -1.167 -11.634  0.00  0.00    -0.083 C 
ATOM      2  C   LIG d   1       4.318  -1.341 -10.475  0.00  0.00    -0.025 C 
ATOM      3  C   LIG d   1       5.750  -1.863 -10.295  0.00  0.00    -0.011 C 
ATOM      4  C   LIG d   1       5.054  -2.590  -8.021  0.00  0.00    -0.004 C 
ATOM      5  H   LIG d   1       5.120  -3.499  -7.371  0.00  0.00     0.086 H 
ATOM      6  C   LIG d   1       5.466  -1.397  -7.196  0.00  0.00     0.019 C 
ATOM      7  C   LIG d   1       4.346  -0.845  -6.335  0.00  0.00    -0.006 A 
ATOM      8  C   LIG d   1       4.206  -1.278  -4.989  0.00  0.00     0.004 A 
ATOM      9  C   LIG d   1       4.915  -2.235  -4.248  0.00  0.00    -0.052 A 
ATOM     10  C   LIG d   1       4.539  -2.399  -2.938  0.00  0.00    -0.061 A 
ATOM     11  C   LIG d   1       3.510  -1.665  -2.367  0.00  0.00    -0.060 A 
ATOM     12  C   LIG d   1       2.785  -0.727  -3.080  0.00  0.00    -0.038 A 
ATOM     13  C   LIG d   1       3.140  -0.543  -4.418  0.00  0.00     0.047 A 
ATOM     14  N   LIG d   1       2.650   0.264  -5.391  0.00  0.00    -0.352 N 
ATOM     15  H   LIG d   1       1.923   0.899  -5.309  0.00  0.00     0.166 HD
ATOM     16  C   LIG d   1       3.380   0.037  -6.573  0.00  0.00     0.087 A 
ATOM     17  C   LIG d   1       2.957   0.774  -7.793  0.00  0.00     0.180 C 
ATOM     18  O   LIG d   1       2.920   1.998  -7.829  0.00  0.00    -0.290 OA
ATOM     19  C   LIG d   1       2.573  -0.078  -8.990  0.00  0.00     0.020 C 
ATOM     20  C   LIG d   1       3.685  -1.045  -9.132  0.00  0.00     0.010 C 
ATOM     21  H   LIG d   1       4.491  -0.510  -8.630  0.00  0.00     0.036 H 
ATOM     22  C   LIG d   1       3.568  -2.384  -8.433  0.00  0.00     0.106 C 
ATOM     23  H   LIG d   1       2.913  -2.313  -7.548  0.00  0.00     0.048 H 
ATOM     24  H   LIG d   1       4.310  -1.316 -12.544  0.00  0.00     0.057 H 
ATOM     25  H   LIG d   1       6.071  -2.333 -11.224  0.00  0.00     0.086 H 
ATOM     26  H   LIG d   1       6.406  -1.017 -10.084  0.00  0.00     0.086 H 
ATOM     27  H   LIG d   1       6.268  -1.721  -6.510  0.00  0.00     0.037 H 
ATOM     28  H   LIG d   1       5.892  -0.613  -7.811  0.00  0.00     0.037 H 
ATOM     29  H   LIG d   1       5.714  -2.813  -4.684  0.00  0.00     0.062 H 
ATOM     30  H   LIG d   1       5.065  -3.121  -2.332  0.00  0.00     0.062 H 
ATOM     31  H   LIG d   1       3.266  -1.832  -1.328  0.00  0.00     0.062 H 
ATOM     32  H   LIG d   1       1.986  -0.162  -2.625  0.00  0.00     0.064 H 
ATOM     33  H   LIG d   1       2.472   0.506  -9.795  0.00  0.00     0.035 H 
ATOM     34  H   LIG d   1       1.636  -0.603  -8.804  0.00  0.00     0.035 H 
ATOM     35  N   LIG d   1       5.872  -2.882  -9.200  0.00  0.00     0.233 N 
ATOM     36  H   LIG d   1       6.856  -2.927  -8.908  0.00  0.00     0.202 HD
ATOM     37  H   LIG d   1       5.587  -3.795  -9.574  0.00  0.00     0.202 HD
ENDROOT
BRANCH  22  38
ATOM     38  C   LIG d   1       3.061  -3.483  -9.336  0.00  0.00     0.316 C 
ATOM     39  O   LIG d   1       3.737  -4.466  -9.530  0.00  0.00    -0.250 OA
BRANCH  38  40
ATOM     40  O   LIG d   1       1.859  -3.369  -9.923  0.00  0.00    -0.468 OA
BRANCH  40  41
ATOM     41  C   LIG d   1       1.504  -4.382 -10.901  0.00  0.00     0.082 C 
ATOM     42  H   LIG d   1       1.986  -5.324 -10.641  0.00  0.00     0.066 H 
ATOM     43  H   LIG d   1       0.422  -4.517 -10.907  0.00  0.00     0.066 H 
ATOM     44  H   LIG d   1       1.836  -4.065 -11.891  0.00  0.00     0.066 H 
ENDBRANCH  40  41
ENDBRANCH  38  40
ENDBRANCH  22  38
BRANCH   1  45
ATOM     45  C   LIG d   1       2.297  -0.758 -11.705  0.00  0.00    -0.046 C 
ATOM     46  H   LIG d   1       1.674  -1.553 -11.297  0.00  0.00     0.027 H 
ATOM     47  H   LIG d   1       2.149   0.154 -11.127  0.00  0.00     0.027 H 
ATOM     48  H   LIG d   1       2.021  -0.577 -12.745  0.00  0.00     0.027 H 
ENDBRANCH   1  45
TORSDOF 4
ENDMDL
MODEL 2
REMARK VINA RESULT:      -6.7      2.331      4.202
REMARK  4 active torsions:
REMARK  status: ('A' for Active; 'I' for Inactive)
REMARK    1  A    between atoms: C_1  and  C_2 
REMARK    2  A    between atoms: C_23  and  C_25 
REMARK    3  A    between atoms: C_25  and  O_27 
REMARK    4  A    between atoms: O_27  and  C_28 
ROOT
ATOM      1  C   LIG d   1       4.710  -0.636 -11.203  0.00  0.00    -0.083 C 
ATOM      2  C   LIG d   1       4.085  -0.368 -10.090  0.00  0.00    -0.025 C 
ATOM      3  C   LIG d   1       2.655   0.187 -10.022  0.00  0.00    -0.011 C 
ATOM      4  C   LIG d   1       3.251   1.068  -7.773  0.00  0.00    -0.004 C 
ATOM      5  H   LIG d   1       3.170   2.022  -7.195  0.00  0.00     0.086 H 
ATOM      6  C   LIG d   1       2.776  -0.056  -6.886  0.00  0.00     0.019 C 
ATOM      7  C   LIG d   1       3.842  -0.559  -5.931  0.00  0.00    -0.006 A 
ATOM      8  C   LIG d   1       3.923  -0.032  -4.616  0.00  0.00     0.004 A 
ATOM      9  C   LIG d   1       3.196   0.987  -3.983  0.00  0.00    -0.052 A 
ATOM     10  C   LIG d   1       3.509   1.242  -2.671  0.00  0.00    -0.061 A 
ATOM     11  C   LIG d   1       4.495   0.536  -1.997  0.00  0.00    -0.060 A 
ATOM     12  C   LIG d   1       5.236  -0.462  -2.602  0.00  0.00    -0.038 A 
ATOM     13  C   LIG d   1       4.945  -0.739  -3.939  0.00  0.00     0.047 A 
ATOM     14  N   LIG d   1       5.467  -1.622  -4.825  0.00  0.00    -0.352 N 
ATOM     15  H   LIG d   1       6.177  -2.260  -4.660  0.00  0.00     0.166 HD
ATOM     16  C   LIG d   1       4.801  -1.471  -6.055  0.00  0.00     0.087 A 
ATOM     17  C   LIG d   1       5.270  -2.302  -7.196  0.00  0.00     0.180 C 
ATOM     18  O   LIG d   1       5.286  -3.525  -7.141  0.00  0.00    -0.290 OA
ATOM     19  C   LIG d   1       5.730  -1.546  -8.431  0.00  0.00     0.020 C 
ATOM     20  C   LIG d   1       4.645  -0.575  -8.698  0.00  0.00     0.010 C 
ATOM     21  H   LIG d   1       3.804  -1.060  -8.201  0.00  0.00     0.036 H 
ATOM     22  C   LIG d   1       4.752   0.809  -8.094  0.00  0.00     0.106 C 
ATOM     23  H   LIG d   1       5.361   0.794  -7.173  0.00  0.00     0.048 H 
ATOM     24  H   LIG d   1       4.195  -0.545 -12.148  0.00  0.00     0.057 H 
ATOM     25  H   LIG d   1       2.389   0.592 -10.997  0.00  0.00     0.086 H 
ATOM     26  H   LIG d   1       1.974  -0.631  -9.784  0.00  0.00     0.086 H 
ATOM     27  H   LIG d   1       1.947   0.330  -6.267  0.00  0.00     0.037 H 
ATOM     28  H   LIG d   1       2.366  -0.876  -7.464  0.00  0.00     0.037 H 
ATOM     29  H   LIG d   1       2.430   1.544  -4.499  0.00  0.00     0.062 H 
ATOM     30  H   LIG d   1       2.967   2.014  -2.146  0.00  0.00     0.062 H 
ATOM     31  H   LIG d   1       4.689   0.775  -0.961  0.00  0.00     0.062 H 
ATOM     32  H   LIG d   1       6.001  -1.004  -2.066  0.00  0.00     0.064 H 
ATOM     33  H   LIG d   1       5.860  -2.189  -9.185  0.00  0.00     0.035 H 
ATOM     34  H   LIG d   1       6.666  -1.022  -8.235  0.00  0.00     0.035 H 
ATOM     35  N   LIG d   1       2.498   1.285  -9.011  0.00  0.00     0.233 N 
ATOM     36  H   LIG d   1       1.502   1.365  -8.773  0.00  0.00     0.202 HD
ATOM     37  H   LIG d   1       2.819   2.163  -9.435  0.00  0.00     0.202 HD
ENDROOT
BRANCH  22  38
ATOM     38  C   LIG d   1       5.324   1.832  -9.047  0.00  0.00     0.316 C 
ATOM     39  O   LIG d   1       4.652   2.774  -9.397  0.00  0.00    -0.250 OA
BRANCH  38  40
ATOM     40  O   LIG d   1       6.578   1.695  -9.505  0.00  0.00    -0.468 OA
BRANCH  40  41
ATOM     41  C   LIG d   1       7.646   1.740  -8.523  0.00  0.00     0.082 C 
ATOM     42  H   LIG d   1       8.015   2.762  -8.433  0.00  0.00     0.066 H 
ATOM     43  H   LIG d   1       7.266   1.405  -7.557  0.00  0.00     0.066 H 
ATOM     44  H   LIG d   1       8.460   1.087  -8.839  0.00  0.00     0.066 H 
ENDBRANCH  40  41
ENDBRANCH  38  40
ENDBRANCH  22  38
BRANCH   1  45
ATOM     45  C   LIG d   1       6.153  -1.071 -11.170  0.00  0.00    -0.046 C 
ATOM     46  H   LIG d   1       6.681  -0.520 -10.393  0.00  0.00     0.027 H 
ATOM     47  H   LIG d   1       6.205  -2.139 -10.959  0.00  0.00     0.027 H 
ATOM     48  H   LIG d   1       6.615  -0.869 -12.137  0.00  0.00     0.027 H 
ENDBRANCH   1  45
TORSDOF 4
ENDMDL
MODEL 3
REMARK VINA RESULT:      -6.3      3.127      4.832
REMARK  4 active torsions:
REMARK  status: ('A' for Active; 'I' for Inactive)
REMARK    1  A    between atoms: C_1  and  C_2 
REMARK    2  A    between atoms: C_23  and  C_25 
REMARK    3  A    between atoms: C_25  and  O_27 
REMARK    4  A    between atoms: O_27  and  C_28 
ROOT
ATOM      1  C   LIG d   1       7.244  -5.754  -7.525  0.00  0.00    -0.083 C 
ATOM      2  C   LIG d   1       6.386  -5.241  -6.687  0.00  0.00    -0.025 C 
ATOM      3  C   LIG d   1       5.045  -5.895  -6.324  0.00  0.00    -0.011 C 
ATOM      4  C   LIG d   1       4.260  -3.619  -5.700  0.00  0.00    -0.004 C 
ATOM      5  H   LIG d   1       3.376  -2.956  -5.878  0.00  0.00     0.086 H 
ATOM      6  C   LIG d   1       4.565  -3.602  -4.223  0.00  0.00     0.019 C 
ATOM      7  C   LIG d   1       5.394  -2.406  -3.794  0.00  0.00    -0.006 A 
ATOM      8  C   LIG d   1       4.753  -1.234  -3.313  0.00  0.00     0.004 A 
ATOM      9  C   LIG d   1       3.394  -0.905  -3.197  0.00  0.00    -0.052 A 
ATOM     10  C   LIG d   1       3.103   0.323  -2.658  0.00  0.00    -0.061 A 
ATOM     11  C   LIG d   1       4.093   1.203  -2.248  0.00  0.00    -0.060 A 
ATOM     12  C   LIG d   1       5.439   0.910  -2.365  0.00  0.00    -0.038 A 
ATOM     13  C   LIG d   1       5.767  -0.330  -2.918  0.00  0.00     0.047 A 
ATOM     14  N   LIG d   1       6.955  -0.927  -3.183  0.00  0.00    -0.352 N 
ATOM     15  H   LIG d   1       7.837  -0.567  -3.014  0.00  0.00     0.166 HD
ATOM     16  C   LIG d   1       6.705  -2.187  -3.757  0.00  0.00     0.087 A 
ATOM     17  C   LIG d   1       7.879  -2.988  -4.194  0.00  0.00     0.180 C 
ATOM     18  O   LIG d   1       8.768  -3.310  -3.416  0.00  0.00    -0.290 OA
ATOM     19  C   LIG d   1       7.914  -3.380  -5.661  0.00  0.00     0.020 C 
ATOM     20  C   LIG d   1       6.571  -3.944  -5.928  0.00  0.00     0.010 C 
ATOM     21  H   LIG d   1       6.267  -4.241  -4.923  0.00  0.00     0.036 H 
ATOM     22  C   LIG d   1       5.489  -3.015  -6.439  0.00  0.00     0.106 C 
ATOM     23  H   LIG d   1       5.676  -1.975  -6.121  0.00  0.00     0.048 H 
ATOM     24  H   LIG d   1       7.069  -6.732  -7.948  0.00  0.00     0.057 H 
ATOM     25  H   LIG d   1       4.808  -6.647  -7.075  0.00  0.00     0.086 H 
ATOM     26  H   LIG d   1       5.148  -6.385  -5.355  0.00  0.00     0.086 H 
ATOM     27  H   LIG d   1       3.605  -3.538  -3.681  0.00  0.00     0.037 H 
ATOM     28  H   LIG d   1       5.034  -4.523  -3.900  0.00  0.00     0.037 H 
ATOM     29  H   LIG d   1       2.616  -1.581  -3.517  0.00  0.00     0.062 H 
ATOM     30  H   LIG d   1       2.068   0.611  -2.545  0.00  0.00     0.062 H 
ATOM     31  H   LIG d   1       3.802   2.152  -1.821  0.00  0.00     0.062 H 
ATOM     32  H   LIG d   1       6.201   1.604  -2.043  0.00  0.00     0.064 H 
ATOM     33  H   LIG d   1       8.643  -4.048  -5.810  0.00  0.00     0.035 H 
ATOM     34  H   LIG d   1       8.088  -2.507  -6.290  0.00  0.00     0.035 H 
ATOM     35  N   LIG d   1       3.907  -4.918  -6.278  0.00  0.00     0.233 N 
ATOM     36  H   LIG d   1       3.152  -5.328  -5.716  0.00  0.00     0.202 HD
ATOM     37  H   LIG d   1       3.573  -4.765  -7.237  0.00  0.00     0.202 HD
ENDROOT
BRANCH  22  38
ATOM     38  C   LIG d   1       5.335  -3.053  -7.942  0.00  0.00     0.316 C 
ATOM     39  O   LIG d   1       6.247  -2.697  -8.651  0.00  0.00    -0.250 OA
BRANCH  38  40
ATOM     40  O   LIG d   1       4.186  -3.480  -8.488  0.00  0.00    -0.468 OA
BRANCH  40  41
ATOM     41  C   LIG d   1       3.319  -2.473  -9.073  0.00  0.00     0.082 C 
ATOM     42  H   LIG d   1       2.633  -2.947  -9.774  0.00  0.00     0.066 H 
ATOM     43  H   LIG d   1       2.749  -1.982  -8.283  0.00  0.00     0.066 H 
ATOM     44  H   LIG d   1       3.923  -1.733  -9.599  0.00  0.00     0.066 H 
ENDBRANCH  40  41
ENDBRANCH  38  40
ENDBRANCH  22  38
BRANCH   1  45
ATOM     45  C   LIG d   1       8.482  -4.981  -7.902  0.00  0.00    -0.046 C 
ATOM     46  H   LIG d   1       8.319  -3.920  -7.716  0.00  0.00     0.027 H 
ATOM     47  H   LIG d   1       9.325  -5.331  -7.306  0.00  0.00     0.027 H 
ATOM     48  H   LIG d   1       8.697  -5.135  -8.960  0.00  0.00     0.027 H 
ENDBRANCH   1  45
TORSDOF 4
ENDMDL
MODEL 4
REMARK VINA RESULT:      -6.3      4.324      6.254
REMARK  4 active torsions:
REMARK  status: ('A' for Active; 'I' for Inactive)
REMARK    1  A    between atoms: C_1  and  C_2 
REMARK    2  A    between atoms: C_23  and  C_25 
REMARK    3  A    between atoms: C_25  and  O_27 
REMARK    4  A    between atoms: O_27  and  C_28 
ROOT
ATOM      1  C   LIG d   1       8.849  -5.830  -6.450  0.00  0.00    -0.083 C 
ATOM      2  C   LIG d   1       8.508  -4.586  -6.252  0.00  0.00    -0.025 C 
ATOM      3  C   LIG d   1       9.250  -3.387  -6.859  0.00  0.00    -0.011 C 
ATOM      4  C   LIG d   1       8.315  -2.038  -4.990  0.00  0.00    -0.004 C 
ATOM      5  H   LIG d   1       8.668  -1.298  -4.228  0.00  0.00     0.086 H 
ATOM      6  C   LIG d   1       7.063  -1.489  -5.626  0.00  0.00     0.019 C 
ATOM      7  C   LIG d   1       5.810  -1.752  -4.812  0.00  0.00    -0.006 A 
ATOM      8  C   LIG d   1       5.343  -0.775  -3.893  0.00  0.00     0.004 A 
ATOM      9  C   LIG d   1       5.880   0.462  -3.507  0.00  0.00    -0.052 A 
ATOM     10  C   LIG d   1       5.155   1.190  -2.597  0.00  0.00    -0.061 A 
ATOM     11  C   LIG d   1       3.953   0.733  -2.076  0.00  0.00    -0.060 A 
ATOM     12  C   LIG d   1       3.411  -0.489  -2.427  0.00  0.00    -0.038 A 
ATOM     13  C   LIG d   1       4.130  -1.256  -3.346  0.00  0.00     0.047 A 
ATOM     14  N   LIG d   1       3.906  -2.476  -3.893  0.00  0.00    -0.352 N 
ATOM     15  H   LIG d   1       3.148  -3.056  -3.728  0.00  0.00     0.166 HD
ATOM     16  C   LIG d   1       4.969  -2.780  -4.763  0.00  0.00     0.087 A 
ATOM     17  C   LIG d   1       4.958  -4.114  -5.420  0.00  0.00     0.180 C 
ATOM     18  O   LIG d   1       4.028  -4.479  -6.127  0.00  0.00    -0.290 OA
ATOM     19  C   LIG d   1       6.166  -4.998  -5.161  0.00  0.00     0.020 C 
ATOM     20  C   LIG d   1       7.331  -4.122  -5.421  0.00  0.00     0.010 C 
ATOM     21  H   LIG d   1       6.887  -3.376  -6.080  0.00  0.00     0.036 H 
ATOM     22  C   LIG d   1       7.931  -3.357  -4.259  0.00  0.00     0.106 C 
ATOM     23  H   LIG d   1       7.177  -3.174  -3.474  0.00  0.00     0.048 H 
ATOM     24  H   LIG d   1       9.648  -6.070  -7.136  0.00  0.00     0.057 H 
ATOM     25  H   LIG d   1      10.231  -3.716  -7.198  0.00  0.00     0.086 H 
ATOM     26  H   LIG d   1       8.683  -3.026  -7.719  0.00  0.00     0.086 H 
ATOM     27  H   LIG d   1       7.174  -0.393  -5.700  0.00  0.00     0.037 H 
ATOM     28  H   LIG d   1       6.938  -1.850  -6.640  0.00  0.00     0.037 H 
ATOM     29  H   LIG d   1       6.816   0.824  -3.905  0.00  0.00     0.062 H 
ATOM     30  H   LIG d   1       5.530   2.151  -2.281  0.00  0.00     0.062 H 
ATOM     31  H   LIG d   1       3.423   1.356  -1.370  0.00  0.00     0.062 H 
ATOM     32  H   LIG d   1       2.475  -0.833  -2.014  0.00  0.00     0.064 H 
ATOM     33  H   LIG d   1       6.139  -5.787  -5.774  0.00  0.00     0.035 H 
ATOM     34  H   LIG d   1       6.177  -5.343  -4.126  0.00  0.00     0.035 H 
ATOM     35  N   LIG d   1       9.454  -2.266  -5.883  0.00  0.00     0.233 N 
ATOM     36  H   LIG d   1       9.628  -1.403  -6.413  0.00  0.00     0.202 HD
ATOM     37  H   LIG d   1      10.277  -2.484  -5.308  0.00  0.00     0.202 HD
ENDROOT
BRANCH  22  38
ATOM     38  C   LIG d   1       9.126  -4.047  -3.646  0.00  0.00     0.316 C 
ATOM     39  O   LIG d   1       9.001  -5.140  -3.145  0.00  0.00    -0.250 OA
BRANCH  38  40
ATOM     40  O   LIG d   1      10.326  -3.447  -3.657  0.00  0.00    -0.468 OA
BRANCH  40  41
ATOM     41  C   LIG d   1      11.492  -4.303  -3.530  0.00  0.00     0.082 C 
ATOM     42  H   LIG d   1      12.232  -4.024  -4.280  0.00  0.00     0.066 H 
ATOM     43  H   LIG d   1      11.922  -4.185  -2.534  0.00  0.00     0.066 H 
ATOM     44  H   LIG d   1      11.199  -5.343  -3.678  0.00  0.00     0.066 H 
ENDBRANCH  40  41
ENDBRANCH  38  40
ENDBRANCH  22  38
BRANCH   1  45
ATOM     45  C   LIG d   1       8.128  -6.934  -5.719  0.00  0.00    -0.046 C 
ATOM     46  H   LIG d   1       7.821  -6.579  -4.736  0.00  0.00     0.027 H 
ATOM     47  H   LIG d   1       7.249  -7.232  -6.289  0.00  0.00     0.027 H 
ATOM     48  H   LIG d   1       8.795  -7.789  -5.605  0.00  0.00     0.027 H 
ENDBRANCH   1  45
TORSDOF 4
ENDMDL
MODEL 5
REMARK VINA RESULT:      -6.3      3.978      5.358
REMARK  4 active torsions:
REMARK  status: ('A' for Active; 'I' for Inactive)
REMARK    1  A    between atoms: C_1  and  C_2 
REMARK    2  A    between atoms: C_23  and  C_25 
REMARK    3  A    between atoms: C_25  and  O_27 
REMARK    4  A    between atoms: O_27  and  C_28 
ROOT
ATOM      1  C   LIG d   1      10.092   2.040  -8.015  0.00  0.00    -0.083 C 
ATOM      2  C   LIG d   1       9.592   1.047  -7.333  0.00  0.00    -0.025 C 
ATOM      3  C   LIG d   1      10.041  -0.413  -7.491  0.00  0.00    -0.011 C 
ATOM      4  C   LIG d   1       7.815  -1.051  -6.583  0.00  0.00    -0.004 C 
ATOM      5  H   LIG d   1       6.977  -1.753  -6.825  0.00  0.00     0.086 H 
ATOM      6  C   LIG d   1       8.130  -1.193  -5.115  0.00  0.00     0.019 C 
ATOM      7  C   LIG d   1       7.211  -0.382  -4.222  0.00  0.00    -0.006 A 
ATOM      8  C   LIG d   1       6.051  -0.981  -3.666  0.00  0.00     0.004 A 
ATOM      9  C   LIG d   1       5.501  -2.261  -3.833  0.00  0.00    -0.052 A 
ATOM     10  C   LIG d   1       4.363  -2.539  -3.119  0.00  0.00    -0.061 A 
ATOM     11  C   LIG d   1       3.774  -1.609  -2.275  0.00  0.00    -0.060 A 
ATOM     12  C   LIG d   1       4.287  -0.336  -2.104  0.00  0.00    -0.038 A 
ATOM     13  C   LIG d   1       5.441  -0.021  -2.823  0.00  0.00     0.047 A 
ATOM     14  N   LIG d   1       6.190   1.106  -2.903  0.00  0.00    -0.352 N 
ATOM     15  H   LIG d   1       6.039   1.939  -2.433  0.00  0.00     0.166 HD
ATOM     16  C   LIG d   1       7.252   0.878  -3.797  0.00  0.00     0.087 A 
ATOM     17  C   LIG d   1       8.162   2.017  -4.088  0.00  0.00     0.180 C 
ATOM     18  O   LIG d   1       8.784   2.590  -3.202  0.00  0.00    -0.290 OA
ATOM     19  C   LIG d   1       8.274   2.430  -5.545  0.00  0.00     0.020 C 
ATOM     20  C   LIG d   1       8.517   1.164  -6.273  0.00  0.00     0.010 C 
ATOM     21  H   LIG d   1       8.934   0.544  -5.479  0.00  0.00     0.036 H 
ATOM     22  C   LIG d   1       7.325   0.406  -6.819  0.00  0.00     0.106 C 
ATOM     23  H   LIG d   1       6.415   0.622  -6.232  0.00  0.00     0.048 H 
ATOM     24  H   LIG d   1      10.924   1.874  -8.683  0.00  0.00     0.057 H 
ATOM     25  H   LIG d   1      10.583  -0.514  -8.431  0.00  0.00     0.086 H 
ATOM     26  H   LIG d   1      10.713  -0.662  -6.669  0.00  0.00     0.086 H 
ATOM     27  H   LIG d   1       7.990  -2.254  -4.840  0.00  0.00     0.037 H 
ATOM     28  H   LIG d   1       9.167  -0.960  -4.904  0.00  0.00     0.037 H 
ATOM     29  H   LIG d   1       5.949  -2.990  -4.491  0.00  0.00     0.062 H 
ATOM     30  H   LIG d   1       3.913  -3.516  -3.215  0.00  0.00     0.062 H 
ATOM     31  H   LIG d   1       2.884  -1.890  -1.731  0.00  0.00     0.062 H 
ATOM     32  H   LIG d   1       3.820   0.379  -1.444  0.00  0.00     0.064 H 
ATOM     33  H   LIG d   1       9.027   3.080  -5.650  0.00  0.00     0.035 H 
ATOM     34  H   LIG d   1       7.347   2.890  -5.888  0.00  0.00     0.035 H 
ATOM     35  N   LIG d   1       8.895  -1.381  -7.517  0.00  0.00     0.233 N 
ATOM     36  H   LIG d   1       9.254  -2.314  -7.280  0.00  0.00     0.202 HD
ATOM     37  H   LIG d   1       8.506  -1.398  -8.467  0.00  0.00     0.202 HD
ENDROOT
BRANCH  22  38
ATOM     38  C   LIG d   1       7.052   0.696  -8.276  0.00  0.00     0.316 C 
ATOM     39  O   LIG d   1       7.170  -0.182  -9.099  0.00  0.00    -0.250 OA
BRANCH  38  40
ATOM     40  O   LIG d   1       6.680   1.928  -8.657  0.00  0.00    -0.468 OA
BRANCH  40  41
ATOM     41  C   LIG d   1       5.321   2.084  -9.145  0.00  0.00     0.082 C 
ATOM     42  H   LIG d   1       5.249   1.680 -10.155  0.00  0.00     0.066 H 
ATOM     43  H   LIG d   1       4.636   1.546  -8.489  0.00  0.00     0.066 H 
ATOM     44  H   LIG d   1       5.057   3.142  -9.156  0.00  0.00     0.066 H 
ENDBRANCH  40  41
ENDBRANCH  38  40
ENDBRANCH  22  38
BRANCH   1  45
ATOM     45  C   LIG d   1       9.508   3.422  -7.870  0.00  0.00    -0.046 C 
ATOM     46  H   LIG d   1       9.168   3.777  -8.843  0.00  0.00     0.027 H 
ATOM     47  H   LIG d   1       8.664   3.389  -7.180  0.00  0.00     0.027 H 
ATOM     48  H   LIG d   1      10.269   4.099  -7.481  0.00  0.00     0.027 H 
ENDBRANCH   1  45
TORSDOF 4
ENDMDL
MODEL 6
REMARK VINA RESULT:      -6.1      1.987      2.462
REMARK  4 active torsions:
REMARK  status: ('A' for Active; 'I' for Inactive)
REMARK    1  A    between atoms: C_1  and  C_2 
REMARK    2  A    between atoms: C_23  and  C_25 
REMARK    3  A    between atoms: C_25  and  O_27 
REMARK    4  A    between atoms: O_27  and  C_28 
ROOT
ATOM      1  C   LIG d   1       5.328  -1.249 -11.027  0.00  0.00    -0.083 C 
ATOM      2  C   LIG d   1       5.280  -1.790  -9.841  0.00  0.00    -0.025 C 
ATOM      3  C   LIG d   1       5.223  -3.303  -9.590  0.00  0.00    -0.011 C 
ATOM      4  C   LIG d   1       4.197  -2.760  -7.390  0.00  0.00    -0.004 C 
ATOM      5  H   LIG d   1       3.323  -3.078  -6.768  0.00  0.00     0.086 H 
ATOM      6  C   LIG d   1       5.415  -2.735  -6.500  0.00  0.00     0.019 C 
ATOM      7  C   LIG d   1       5.543  -1.457  -5.693  0.00  0.00    -0.006 A 
ATOM      8  C   LIG d   1       5.019  -1.395  -4.374  0.00  0.00     0.004 A 
ATOM      9  C   LIG d   1       4.294  -2.332  -3.623  0.00  0.00    -0.052 A 
ATOM     10  C   LIG d   1       3.952  -1.964  -2.346  0.00  0.00    -0.061 A 
ATOM     11  C   LIG d   1       4.296  -0.729  -1.816  0.00  0.00    -0.060 A 
ATOM     12  C   LIG d   1       4.996   0.218  -2.541  0.00  0.00    -0.038 A 
ATOM     13  C   LIG d   1       5.353  -0.125  -3.847  0.00  0.00     0.047 A 
ATOM     14  N   LIG d   1       6.016   0.545  -4.820  0.00  0.00    -0.352 N 
ATOM     15  H   LIG d   1       6.386   1.438  -4.762  0.00  0.00     0.166 HD
ATOM     16  C   LIG d   1       6.090  -0.275  -5.960  0.00  0.00     0.087 A 
ATOM     17  C   LIG d   1       6.721   0.298  -7.179  0.00  0.00     0.180 C 
ATOM     18  O   LIG d   1       7.872   0.716  -7.175  0.00  0.00    -0.290 OA
ATOM     19  C   LIG d   1       5.856   0.335  -8.426  0.00  0.00     0.020 C 
ATOM     20  C   LIG d   1       5.293  -1.030  -8.531  0.00  0.00     0.010 C 
ATOM     21  H   LIG d   1       6.027  -1.602  -7.962  0.00  0.00     0.036 H 
ATOM     22  C   LIG d   1       3.950  -1.307  -7.888  0.00  0.00     0.106 C 
ATOM     23  H   LIG d   1       3.766  -0.621  -7.043  0.00  0.00     0.048 H 
ATOM     24  H   LIG d   1       5.410  -1.875 -11.904  0.00  0.00     0.057 H 
ATOM     25  H   LIG d   1       4.927  -3.801 -10.512  0.00  0.00     0.086 H 
ATOM     26  H   LIG d   1       6.220  -3.647  -9.309  0.00  0.00     0.086 H 
ATOM     27  H   LIG d   1       5.322  -3.564  -5.776  0.00  0.00     0.037 H 
ATOM     28  H   LIG d   1       6.324  -2.922  -7.060  0.00  0.00     0.037 H 
ATOM     29  H   LIG d   1       4.018  -3.294  -4.028  0.00  0.00     0.062 H 
ATOM     30  H   LIG d   1       3.400  -2.660  -1.733  0.00  0.00     0.062 H 
ATOM     31  H   LIG d   1       4.008  -0.500  -0.801  0.00  0.00     0.062 H 
ATOM     32  H   LIG d   1       5.259   1.176  -2.117  0.00  0.00     0.064 H 
ATOM     33  H   LIG d   1       6.420   0.576  -9.216  0.00  0.00     0.035 H 
ATOM     34  H   LIG d   1       5.054   1.066  -8.318  0.00  0.00     0.035 H 
ATOM     35  N   LIG d   1       4.239  -3.686  -8.525  0.00  0.00     0.233 N 
ATOM     36  H   LIG d   1       4.488  -4.618  -8.173  0.00  0.00     0.202 HD
ATOM     37  H   LIG d   1       3.303  -3.721  -8.947  0.00  0.00     0.202 HD
ENDROOT
BRANCH  22  38
ATOM     38  C   LIG d   1       2.796  -1.217  -8.858  0.00  0.00     0.316 C 
ATOM     39  O   LIG d   1       2.443  -0.141  -9.279  0.00  0.00    -0.250 OA
BRANCH  38  40
ATOM     40  O   LIG d   1       2.162  -2.333  -9.252  0.00  0.00    -0.468 OA
BRANCH  40  41
ATOM     41  C   LIG d   1       1.504  -2.295 -10.546  0.00  0.00     0.082 C 
ATOM     42  H   LIG d   1       1.005  -3.246 -10.728  0.00  0.00     0.066 H 
ATOM     43  H   LIG d   1       0.767  -1.491 -10.554  0.00  0.00     0.066 H 
ATOM     44  H   LIG d   1       2.244  -2.117 -11.326  0.00  0.00     0.066 H 
ENDBRANCH  40  41
ENDBRANCH  38  40
ENDBRANCH  22  38
BRANCH   1  45
ATOM     45  C   LIG d   1       5.267   0.249 -11.175  0.00  0.00    -0.046 C 
ATOM     46  H   LIG d   1       4.248   0.549 -11.420  0.00  0.00     0.027 H 
ATOM     47  H   LIG d   1       5.569   0.719 -10.239  0.00  0.00     0.027 H 
ATOM     48  H   LIG d   1       5.940   0.563 -11.973  0.00  0.00     0.027 H 
ENDBRANCH   1  45
TORSDOF 4
ENDMDL
MODEL 7
REMARK VINA RESULT:      -6.0     11.766     14.184
REMARK  4 active torsions:
REMARK  status: ('A' for Active; 'I' for Inactive)
REMARK    1  A    between atoms: C_1  and  C_2 
REMARK    2  A    between atoms: C_23  and  C_25 
REMARK    3  A    between atoms: C_25  and  O_27 
REMARK    4  A    between atoms: O_27  and  C_28 
ROOT
ATOM      1  C   LIG d   1      11.726   8.255   2.192  0.00  0.00    -0.083 C 
ATOM      2  C   LIG d   1      11.290   7.509   1.215  0.00  0.00    -0.025 C 
ATOM      3  C   LIG d   1      10.951   6.019   1.359  0.00  0.00    -0.011 C 
ATOM      4  C   LIG d   1      11.335   5.835  -1.092  0.00  0.00    -0.004 C 
ATOM      5  H   LIG d   1      11.888   5.179  -1.810  0.00  0.00     0.086 H 
ATOM      6  C   LIG d   1       9.935   6.025  -1.620  0.00  0.00     0.019 C 
ATOM      7  C   LIG d   1       9.831   7.113  -2.672  0.00  0.00    -0.006 A 
ATOM      8  C   LIG d   1       9.923   6.780  -4.049  0.00  0.00     0.004 A 
ATOM      9  C   LIG d   1      10.168   5.556  -4.689  0.00  0.00    -0.052 A 
ATOM     10  C   LIG d   1      10.167   5.569  -6.061  0.00  0.00    -0.061 A 
ATOM     11  C   LIG d   1       9.939   6.728  -6.789  0.00  0.00    -0.060 A 
ATOM     12  C   LIG d   1       9.711   7.949  -6.182  0.00  0.00    -0.038 A 
ATOM     13  C   LIG d   1       9.713   7.969  -4.786  0.00  0.00     0.047 A 
ATOM     14  N   LIG d   1       9.538   8.967  -3.885  0.00  0.00    -0.352 N 
ATOM     15  H   LIG d   1       9.362   9.899  -4.078  0.00  0.00     0.166 HD
ATOM     16  C   LIG d   1       9.652   8.428  -2.591  0.00  0.00     0.087 A 
ATOM     17  C   LIG d   1       9.563   9.371  -1.444  0.00  0.00     0.180 C 
ATOM     18  O   LIG d   1       8.581  10.080  -1.266  0.00  0.00    -0.290 OA
ATOM     19  C   LIG d   1      10.760   9.404  -0.510  0.00  0.00     0.020 C 
ATOM     20  C   LIG d   1      11.031   7.982  -0.200  0.00  0.00     0.010 C 
ATOM     21  H   LIG d   1      10.055   7.537  -0.397  0.00  0.00     0.036 H 
ATOM     22  C   LIG d   1      12.020   7.232  -1.067  0.00  0.00     0.106 C 
ATOM     23  H   LIG d   1      12.072   7.669  -2.080  0.00  0.00     0.048 H 
ATOM     24  H   LIG d   1      11.791   7.853   3.193  0.00  0.00     0.057 H 
ATOM     25  H   LIG d   1      11.408   5.642   2.273  0.00  0.00     0.086 H 
ATOM     26  H   LIG d   1       9.868   5.914   1.439  0.00  0.00     0.086 H 
ATOM     27  H   LIG d   1       9.625   5.081  -2.102  0.00  0.00     0.037 H 
ATOM     28  H   LIG d   1       9.226   6.203  -0.820  0.00  0.00     0.037 H 
ATOM     29  H   LIG d   1      10.350   4.649  -4.132  0.00  0.00     0.062 H 
ATOM     30  H   LIG d   1      10.344   4.645  -6.592  0.00  0.00     0.062 H 
ATOM     31  H   LIG d   1       9.940   6.673  -7.867  0.00  0.00     0.062 H 
ATOM     32  H   LIG d   1       9.535   8.845  -6.760  0.00  0.00     0.064 H 
ATOM     33  H   LIG d   1      10.531   9.935   0.306  0.00  0.00     0.035 H 
ATOM     34  H   LIG d   1      11.622   9.854  -1.004  0.00  0.00     0.035 H 
ATOM     35  N   LIG d   1      11.456   5.187   0.217  0.00  0.00     0.233 N 
ATOM     36  H   LIG d   1      10.921   4.310   0.194  0.00  0.00     0.202 HD
ATOM     37  H   LIG d   1      12.447   4.977   0.383  0.00  0.00     0.202 HD
ENDROOT
BRANCH  22  38
ATOM     38  C   LIG d   1      13.410   7.183  -0.478  0.00  0.00     0.316 C 
ATOM     39  O   LIG d   1      14.036   8.205  -0.321  0.00  0.00    -0.250 OA
BRANCH  38  40
ATOM     40  O   LIG d   1      13.950   6.005  -0.130  0.00  0.00    -0.468 OA
BRANCH  40  41
ATOM     41  C   LIG d   1      15.123   5.573  -0.869  0.00  0.00     0.082 C 
ATOM     42  H   LIG d   1      15.732   6.441  -1.123  0.00  0.00     0.066 H 
ATOM     43  H   LIG d   1      15.708   4.887  -0.254  0.00  0.00     0.066 H 
ATOM     44  H   LIG d   1      14.812   5.067  -1.783  0.00  0.00     0.066 H 
ENDBRANCH  40  41
ENDBRANCH  38  40
ENDBRANCH  22  38
BRANCH   1  45
ATOM     45  C   LIG d   1      12.140   9.680   1.925  0.00  0.00    -0.046 C 
ATOM     46  H   LIG d   1      11.887   9.946   0.899  0.00  0.00     0.027 H 
ATOM     47  H   LIG d   1      11.617  10.345   2.613  0.00  0.00     0.027 H 
ATOM     48  H   LIG d   1      13.216   9.779   2.072  0.00  0.00     0.027 H 
ENDBRANCH   1  45
TORSDOF 4
ENDMDL
MODEL 8
REMARK VINA RESULT:      -5.7      3.613      5.021
REMARK  4 active torsions:
REMARK  status: ('A' for Active; 'I' for Inactive)
REMARK    1  A    between atoms: C_1  and  C_2 
REMARK    2  A    between atoms: C_23  and  C_25 
REMARK    3  A    between atoms: C_25  and  O_27 
REMARK    4  A    between atoms: O_27  and  C_28 
ROOT
ATOM      1  C   LIG d   1       9.887  -3.457  -7.915  0.00  0.00    -0.083 C 
ATOM      2  C   LIG d   1       9.236  -3.400  -6.786  0.00  0.00    -0.025 C 
ATOM      3  C   LIG d   1       9.121  -4.573  -5.802  0.00  0.00    -0.011 C 
ATOM      4  C   LIG d   1       7.053  -3.481  -4.954  0.00  0.00    -0.004 C 
ATOM      5  H   LIG d   1       5.997  -3.756  -4.708  0.00  0.00     0.086 H 
ATOM      6  C   LIG d   1       7.602  -2.671  -3.806  0.00  0.00     0.019 C 
ATOM      7  C   LIG d   1       7.220  -1.204  -3.869  0.00  0.00    -0.006 A 
ATOM      8  C   LIG d   1       6.070  -0.740  -3.179  0.00  0.00     0.004 A 
ATOM      9  C   LIG d   1       5.098  -1.428  -2.436  0.00  0.00    -0.052 A 
ATOM     10  C   LIG d   1       4.109  -0.667  -1.865  0.00  0.00    -0.061 A 
ATOM     11  C   LIG d   1       4.060   0.712  -2.011  0.00  0.00    -0.060 A 
ATOM     12  C   LIG d   1       4.996   1.411  -2.750  0.00  0.00    -0.038 A 
ATOM     13  C   LIG d   1       6.011   0.663  -3.350  0.00  0.00     0.047 A 
ATOM     14  N   LIG d   1       7.062   1.010  -4.133  0.00  0.00    -0.352 N 
ATOM     15  H   LIG d   1       7.303   1.902  -4.421  0.00  0.00     0.166 HD
ATOM     16  C   LIG d   1       7.772  -0.156  -4.473  0.00  0.00     0.087 A 
ATOM     17  C   LIG d   1       8.931  -0.010  -5.393  0.00  0.00     0.180 C 
ATOM     18  O   LIG d   1       9.881   0.715  -5.127  0.00  0.00    -0.290 OA
ATOM     19  C   LIG d   1       8.868  -0.811  -6.682  0.00  0.00     0.020 C 
ATOM     20  C   LIG d   1       8.511  -2.182  -6.252  0.00  0.00     0.010 C 
ATOM     21  H   LIG d   1       8.850  -2.170  -5.216  0.00  0.00     0.036 H 
ATOM     22  C   LIG d   1       7.046  -2.566  -6.212  0.00  0.00     0.106 C 
ATOM     23  H   LIG d   1       6.408  -1.679  -6.059  0.00  0.00     0.048 H 
ATOM     24  H   LIG d   1      10.454  -4.340  -8.168  0.00  0.00     0.057 H 
ATOM     25  H   LIG d   1       9.387  -5.493  -6.320  0.00  0.00     0.086 H 
ATOM     26  H   LIG d   1       9.826  -4.413  -4.985  0.00  0.00     0.086 H 
ATOM     27  H   LIG d   1       7.173  -3.075  -2.872  0.00  0.00     0.037 H 
ATOM     28  H   LIG d   1       8.677  -2.779  -3.718  0.00  0.00     0.037 H 
ATOM     29  H   LIG d   1       5.125  -2.500  -2.320  0.00  0.00     0.062 H 
ATOM     30  H   LIG d   1       3.346  -1.157  -1.279  0.00  0.00     0.062 H 
ATOM     31  H   LIG d   1       3.263   1.258  -1.529  0.00  0.00     0.062 H 
ATOM     32  H   LIG d   1       4.948   2.485  -2.856  0.00  0.00     0.064 H 
ATOM     33  H   LIG d   1       9.756  -0.775  -7.140  0.00  0.00     0.035 H 
ATOM     34  H   LIG d   1       8.101  -0.412  -7.347  0.00  0.00     0.035 H 
ATOM     35  N   LIG d   1       7.737  -4.743  -5.248  0.00  0.00     0.233 N 
ATOM     36  H   LIG d   1       7.801  -5.286  -4.378  0.00  0.00     0.202 HD
ATOM     37  H   LIG d   1       7.176  -5.263  -5.933  0.00  0.00     0.202 HD
ENDROOT
BRANCH  22  38
ATOM     38  C   LIG d   1       6.588  -3.295  -7.454  0.00  0.00     0.316 C 
ATOM     39  O   LIG d   1       6.179  -4.429  -7.373  0.00  0.00    -0.250 OA
BRANCH  38  40
ATOM     40  O   LIG d   1       6.637  -2.682  -8.648  0.00  0.00    -0.468 OA
BRANCH  40  41
ATOM     41  C   LIG d   1       5.378  -2.212  -9.199  0.00  0.00     0.082 C 
ATOM     42  H   LIG d   1       4.668  -3.038  -9.238  0.00  0.00     0.066 H 
ATOM     43  H   LIG d   1       4.978  -1.419  -8.565  0.00  0.00     0.066 H 
ATOM     44  H   LIG d   1       5.542  -1.825 -10.204  0.00  0.00     0.066 H 
ENDBRANCH  40  41
ENDBRANCH  38  40
ENDBRANCH  22  38
BRANCH   1  45
ATOM     45  C   LIG d   1       9.847  -2.289  -8.866  0.00  0.00    -0.046 C 
ATOM     46  H   LIG d   1       8.813  -1.989  -9.031  0.00  0.00     0.027 H 
ATOM     47  H   LIG d   1      10.404  -1.454  -8.440  0.00  0.00     0.027 H 
ATOM     48  H   LIG d   1      10.297  -2.579  -9.816  0.00  0.00     0.027 H 
ENDBRANCH   1  45
TORSDOF 4
ENDMDL
MODEL 9
REMARK VINA RESULT:      -5.7      2.470      4.170
REMARK  4 active torsions:
REMARK  status: ('A' for Active; 'I' for Inactive)
REMARK    1  A    between atoms: C_1  and  C_2 
REMARK    2  A    between atoms: C_23  and  C_25 
REMARK    3  A    between atoms: C_25  and  O_27 
REMARK    4  A    between atoms: O_27  and  C_28 
ROOT
ATOM      1  C   LIG d   1       5.951  -2.899 -10.030  0.00  0.00    -0.083 C 
ATOM      2  C   LIG d   1       5.306  -2.117  -9.208  0.00  0.00    -0.025 C 
ATOM      3  C   LIG d   1       4.346  -1.007  -9.657  0.00  0.00    -0.011 C 
ATOM      4  C   LIG d   1       4.786   0.073  -7.460  0.00  0.00    -0.004 C 
ATOM      5  H   LIG d   1       5.051   1.083  -7.057  0.00  0.00     0.086 H 
ATOM      6  C   LIG d   1       3.648  -0.474  -6.634  0.00  0.00     0.019 C 
ATOM      7  C   LIG d   1       4.102  -1.124  -5.341  0.00  0.00    -0.006 A 
ATOM      8  C   LIG d   1       4.138  -0.368  -4.141  0.00  0.00     0.004 A 
ATOM      9  C   LIG d   1       3.875   0.988  -3.895  0.00  0.00    -0.052 A 
ATOM     10  C   LIG d   1       3.977   1.408  -2.592  0.00  0.00    -0.061 A 
ATOM     11  C   LIG d   1       4.327   0.545  -1.564  0.00  0.00    -0.060 A 
ATOM     12  C   LIG d   1       4.607  -0.791  -1.781  0.00  0.00    -0.038 A 
ATOM     13  C   LIG d   1       4.518  -1.247  -3.098  0.00  0.00     0.047 A 
ATOM     14  N   LIG d   1       4.728  -2.461  -3.663  0.00  0.00    -0.352 N 
ATOM     15  H   LIG d   1       4.988  -3.276  -3.208  0.00  0.00     0.166 HD
ATOM     16  C   LIG d   1       4.504  -2.357  -5.048  0.00  0.00     0.087 A 
ATOM     17  C   LIG d   1       4.750  -3.568  -5.876  0.00  0.00     0.180 C 
ATOM     18  O   LIG d   1       4.163  -4.622  -5.670  0.00  0.00    -0.290 OA
ATOM     19  C   LIG d   1       5.774  -3.421  -6.988  0.00  0.00     0.020 C 
ATOM     20  C   LIG d   1       5.379  -2.183  -7.697  0.00  0.00     0.010 C 
ATOM     21  H   LIG d   1       4.323  -2.119  -7.431  0.00  0.00     0.036 H 
ATOM     22  C   LIG d   1       6.005  -0.874  -7.263  0.00  0.00     0.106 C 
ATOM     23  H   LIG d   1       6.314  -0.914  -6.204  0.00  0.00     0.048 H 
ATOM     24  H   LIG d   1       5.763  -2.840 -11.092  0.00  0.00     0.057 H 
ATOM     25  H   LIG d   1       4.528  -0.789 -10.708  0.00  0.00     0.086 H 
ATOM     26  H   LIG d   1       3.322  -1.366  -9.544  0.00  0.00     0.086 H 
ATOM     27  H   LIG d   1       2.996   0.372  -6.356  0.00  0.00     0.037 H 
ATOM     28  H   LIG d   1       3.031  -1.157  -7.206  0.00  0.00     0.037 H 
ATOM     29  H   LIG d   1       3.605   1.668  -4.688  0.00  0.00     0.062 H 
ATOM     30  H   LIG d   1       3.775   2.442  -2.360  0.00  0.00     0.062 H 
ATOM     31  H   LIG d   1       4.381   0.932  -0.556  0.00  0.00     0.062 H 
ATOM     32  H   LIG d   1       4.878  -1.453  -0.972  0.00  0.00     0.064 H 
ATOM     33  H   LIG d   1       5.739  -4.226  -7.580  0.00  0.00     0.035 H 
ATOM     34  H   LIG d   1       6.778  -3.317  -6.577  0.00  0.00     0.035 H 
ATOM     35  N   LIG d   1       4.521   0.269  -8.887  0.00  0.00     0.233 N 
ATOM     36  H   LIG d   1       3.663   0.825  -8.983  0.00  0.00     0.202 HD
ATOM     37  H   LIG d   1       5.309   0.787  -9.294  0.00  0.00     0.202 HD
ENDROOT
BRANCH  22  38
ATOM     38  C   LIG d   1       7.191  -0.473  -8.108  0.00  0.00     0.316 C 
ATOM     39  O   LIG d   1       8.177  -1.171  -8.136  0.00  0.00    -0.250 OA
BRANCH  38  40
ATOM     40  O   LIG d   1       7.149   0.660  -8.828  0.00  0.00    -0.468 OA
BRANCH  40  41
ATOM     41  C   LIG d   1       7.863   0.663 -10.092  0.00  0.00     0.082 C 
ATOM     42  H   LIG d   1       8.705   1.352 -10.033  0.00  0.00     0.066 H 
ATOM     43  H   LIG d   1       8.231  -0.342 -10.304  0.00  0.00     0.066 H 
ATOM     44  H   LIG d   1       7.190   0.979 -10.890  0.00  0.00     0.066 H 
ENDBRANCH  40  41
ENDBRANCH  38  40
ENDBRANCH  22  38
BRANCH   1  45
ATOM     45  C   LIG d   1       6.959  -3.885  -9.497  0.00  0.00    -0.046 C 
ATOM     46  H   LIG d   1       6.597  -4.899  -9.663  0.00  0.00     0.027 H 
ATOM     47  H   LIG d   1       7.909  -3.748 -10.013  0.00  0.00     0.027 H 
ATOM     48  H   LIG d   1       7.099  -3.719  -8.428  0.00  0.00     0.027 H 
ENDBRANCH   1  45
TORSDOF 4
ENDMDL
MODEL 10
REMARK VINA RESULT:      -5.5      2.953      4.029
REMARK  4 active torsions:
REMARK  status: ('A' for Active; 'I' for Inactive)
REMARK    1  A    between atoms: C_1  and  C_2 
REMARK    2  A    between atoms: C_23  and  C_25 
REMARK    3  A    between atoms: C_25  and  O_27 
REMARK    4  A    between atoms: O_27  and  C_28 
ROOT
ATOM      1  C   LIG d   1       7.127  -5.729  -8.814  0.00  0.00    -0.083 C 
ATOM      2  C   LIG d   1       7.175  -5.006  -7.729  0.00  0.00    -0.025 C 
ATOM      3  C   LIG d   1       8.363  -4.997  -6.757  0.00  0.00    -0.011 C 
ATOM      4  C   LIG d   1       6.759  -4.226  -5.020  0.00  0.00    -0.004 C 
ATOM      5  H   LIG d   1       6.476  -4.474  -3.966  0.00  0.00     0.086 H 
ATOM      6  C   LIG d   1       6.924  -2.729  -5.116  0.00  0.00     0.019 C 
ATOM      7  C   LIG d   1       5.613  -1.991  -5.308  0.00  0.00    -0.006 A 
ATOM      8  C   LIG d   1       4.913  -1.483  -4.182  0.00  0.00     0.004 A 
ATOM      9  C   LIG d   1       5.176  -1.583  -2.808  0.00  0.00    -0.052 A 
ATOM     10  C   LIG d   1       4.300  -0.944  -1.966  0.00  0.00    -0.061 A 
ATOM     11  C   LIG d   1       3.205  -0.237  -2.439  0.00  0.00    -0.060 A 
ATOM     12  C   LIG d   1       2.914  -0.137  -3.787  0.00  0.00    -0.038 A 
ATOM     13  C   LIG d   1       3.783  -0.782  -4.669  0.00  0.00     0.047 A 
ATOM     14  N   LIG d   1       3.798  -0.898  -6.019  0.00  0.00    -0.352 N 
ATOM     15  H   LIG d   1       3.162  -0.517  -6.642  0.00  0.00     0.166 HD
ATOM     16  C   LIG d   1       4.909  -1.677  -6.391  0.00  0.00     0.087 A 
ATOM     17  C   LIG d   1       5.075  -1.989  -7.836  0.00  0.00     0.180 C 
ATOM     18  O   LIG d   1       5.172  -1.109  -8.681  0.00  0.00    -0.290 OA
ATOM     19  C   LIG d   1       5.115  -3.463  -8.201  0.00  0.00     0.020 C 
ATOM     20  C   LIG d   1       6.094  -4.054  -7.261  0.00  0.00     0.010 C 
ATOM     21  H   LIG d   1       6.685  -3.176  -6.997  0.00  0.00     0.036 H 
ATOM     22  C   LIG d   1       5.584  -4.628  -5.956  0.00  0.00     0.106 C 
ATOM     23  H   LIG d   1       4.642  -4.141  -5.649  0.00  0.00     0.048 H 
ATOM     24  H   LIG d   1       7.986  -6.308  -9.118  0.00  0.00     0.057 H 
ATOM     25  H   LIG d   1       8.978  -5.875  -6.947  0.00  0.00     0.086 H 
ATOM     26  H   LIG d   1       8.959  -4.103  -6.944  0.00  0.00     0.086 H 
ATOM     27  H   LIG d   1       7.355  -2.375  -4.163  0.00  0.00     0.037 H 
ATOM     28  H   LIG d   1       7.631  -2.454  -5.889  0.00  0.00     0.037 H 
ATOM     29  H   LIG d   1       6.024  -2.133  -2.431  0.00  0.00     0.062 H 
ATOM     30  H   LIG d   1       4.472  -0.991  -0.902  0.00  0.00     0.062 H 
ATOM     31  H   LIG d   1       2.556   0.253  -1.728  0.00  0.00     0.062 H 
ATOM     32  H   LIG d   1       2.058   0.417  -4.143  0.00  0.00     0.064 H 
ATOM     33  H   LIG d   1       5.396  -3.561  -9.156  0.00  0.00     0.035 H 
ATOM     34  H   LIG d   1       4.135  -3.921  -8.063  0.00  0.00     0.035 H 
ATOM     35  N   LIG d   1       7.945  -5.033  -5.317  0.00  0.00     0.233 N 
ATOM     36  H   LIG d   1       8.724  -4.686  -4.744  0.00  0.00     0.202 HD
ATOM     37  H   LIG d   1       7.744  -6.008  -5.062  0.00  0.00     0.202 HD
ENDROOT
BRANCH  22  38
ATOM     38  C   LIG d   1       5.372  -6.123  -6.007  0.00  0.00     0.316 C 
ATOM     39  O   LIG d   1       6.062  -6.855  -5.336  0.00  0.00    -0.250 OA
BRANCH  38  40
ATOM     40  O   LIG d   1       4.417  -6.639  -6.797  0.00  0.00    -0.468 OA
BRANCH  40  41
ATOM     41  C   LIG d   1       4.517  -8.052  -7.115  0.00  0.00     0.082 C 
ATOM     42  H   LIG d   1       3.755  -8.604  -6.565  0.00  0.00     0.066 H 
ATOM     43  H   LIG d   1       4.366  -8.194  -8.186  0.00  0.00     0.066 H 
ATOM     44  H   LIG d   1       5.505  -8.419  -6.836  0.00  0.00     0.066 H 
ENDBRANCH  40  41
ENDBRANCH  38  40
ENDBRANCH  22  38
BRANCH   1  45
ATOM     45  C   LIG d   1       5.870  -5.755  -9.646  0.00  0.00    -0.046 C 
ATOM     46  H   LIG d   1       5.312  -6.666  -9.433  0.00  0.00     0.027 H 
ATOM     47  H   LIG d   1       5.256  -4.888  -9.404  0.00  0.00     0.027 H 
ATOM     48  H   LIG d   1       6.134  -5.729 -10.704  0.00  0.00     0.027 H 
ENDBRANCH   1  45
TORSDOF 4
ENDMDL
