MODEL 1
REMARK VINA RESULT:      -7.6      0.000      0.000
REMARK  4 active torsions:
REMARK  status: ('A' for Active; 'I' for Inactive)
REMARK    1  A    between atoms: CB_1  and  CA_2 
REMARK       I    between atoms: CA_2  and  C_4 
REMARK       I    between atoms: CA_2  and  N_6 
REMARK       I    between atoms: N_6  and  C_7 
REMARK    2  A    between atoms: C_7  and  C_9 
REMARK    3  A    between atoms: C_9  and  O_10 
REMARK    4  A    between atoms: O_10  and  C_11 
ROOT
ATOM      1  C   UNK d   0       8.963   1.899  -4.640  0.00  0.00     0.125 A 
ATOM      2  C   UNK d   0       9.032   0.621  -5.186  0.00  0.00    -0.019 A 
ATOM      3  C   UNK d   0       8.061  -0.308  -4.891  0.00  0.00    -0.047 A 
ATOM      4  C   UNK d   0       7.006   0.032  -4.045  0.00  0.00     0.025 A 
ATOM      5  C   UNK d   0       5.956  -0.951  -3.717  0.00  0.00    -0.000 A 
ATOM      6  C   UNK d   0       5.969  -2.241  -4.230  0.00  0.00    -0.053 A 
ATOM      7  C   UNK d   0       4.960  -3.120  -3.890  0.00  0.00    -0.061 A 
ATOM      8  C   UNK d   0       3.936  -2.726  -3.042  0.00  0.00    -0.061 A 
ATOM      9  C   UNK d   0       3.905  -1.448  -2.523  0.00  0.00    -0.047 A 
ATOM     10  C   UNK d   0       4.914  -0.547  -2.853  0.00  0.00     0.067 A 
ATOM     11  C   UNK d   0       4.930   0.825  -2.329  0.00  0.00     0.345 A 
ATOM     12  O   UNK d   0       4.045   1.199  -1.584  0.00  0.00    -0.244 OA
ATOM     13  O   UNK d   0       5.918   1.669  -2.670  0.00  0.00    -0.422 OA
ATOM     14  C   UNK d   0       6.932   1.320  -3.492  0.00  0.00     0.143 A 
ATOM     15  C   UNK d   0       7.919   2.247  -3.798  0.00  0.00     0.023 A 
ATOM     16  H   UNK d   0       9.849   0.358  -5.841  0.00  0.00     0.065 H 
ATOM     17  H   UNK d   0       8.114  -1.300  -5.315  0.00  0.00     0.063 H 
ATOM     18  H   UNK d   0       6.761  -2.554  -4.894  0.00  0.00     0.062 H 
ATOM     19  H   UNK d   0       4.968  -4.124  -4.288  0.00  0.00     0.062 H 
ATOM     20  H   UNK d   0       3.154  -3.426  -2.786  0.00  0.00     0.062 H 
ATOM     21  H   UNK d   0       3.103  -1.149  -1.863  0.00  0.00     0.063 H 
ATOM     22  H   UNK d   0       7.874   3.241  -3.379  0.00  0.00     0.069 H 
ENDROOT
BRANCH   1  23
ATOM     23  O   UNK d   0       9.924   2.812  -4.934  0.00  0.00    -0.483 OA
BRANCH  23  24
ATOM     24  C   UNK d   0       9.852   4.070  -4.261  0.00  0.00     0.165 C 
ATOM     25  H   UNK d   0      10.177   4.863  -4.935  0.00  0.00     0.080 H 
ATOM     26  H   UNK d   0       8.823   4.257  -3.950  0.00  0.00     0.080 H 
BRANCH  24  27
ATOM     27  C   UNK d   0      10.746   4.043  -3.048  0.00  0.00     0.251 C 
ATOM     28  N   ALA d   1      10.752   5.084  -2.192  0.00  0.00    -0.305 N 
ATOM     29  CA  ALA d   1      11.621   5.058  -1.013  0.00  0.00     0.060 C 
ATOM     30  H   ALA d   1      10.180   5.851  -2.357  0.00  0.00     0.149 HD
ATOM     31  HA  ALA d   1      11.690   4.038  -0.635  0.00  0.00     0.056 H 
ATOM     32  C   ALA d   1      11.047   5.952   0.055  0.00  0.00     0.062 C 
ATOM     33  O   ALA d   1      10.016   6.550  -0.147  0.00  0.00    -0.548 OA
ATOM     34  OXT ALA d   1      11.678   6.084   1.232  0.00  0.00    -0.548 OA
ATOM     35  O   UNK d   0      11.459   3.085  -2.842  0.00  0.00    -0.272 OA
BRANCH  29  36
ATOM     36  CB  ALA d   1      13.016   5.554  -1.396  0.00  0.00    -0.041 C 
ATOM     37  HB1 ALA d   1      12.933   6.509  -1.914  0.00  0.00     0.025 H 
ATOM     38  HB2 ALA d   1      13.617   5.681  -0.495  0.00  0.00     0.025 H 
ATOM     39  HB3 ALA d   1      13.494   4.826  -2.051  0.00  0.00     0.025 H 
ENDBRANCH  29  36
ENDBRANCH  24  27
ENDBRANCH  23  24
ENDBRANCH   1  23
TORSDOF 6
ENDMDL
MODEL 2
REMARK VINA RESULT:      -7.5      7.105     11.226
REMARK  4 active torsions:
REMARK  status: ('A' for Active; 'I' for Inactive)
REMARK    1  A    between atoms: CB_1  and  CA_2 
REMARK       I    between atoms: CA_2  and  C_4 
REMARK       I    between atoms: CA_2  and  N_6 
REMARK       I    between atoms: N_6  and  C_7 
REMARK    2  A    between atoms: C_7  and  C_9 
REMARK    3  A    between atoms: C_9  and  O_10 
REMARK    4  A    between atoms: O_10  and  C_11 
ROOT
ATOM      1  C   UNK d   0       3.186  -1.065  -8.400  0.00  0.00     0.125 A 
ATOM      2  C   UNK d   0       2.482  -0.025  -7.800  0.00  0.00    -0.019 A 
ATOM      3  C   UNK d   0       2.734   0.313  -6.490  0.00  0.00    -0.047 A 
ATOM      4  C   UNK d   0       3.695  -0.388  -5.763  0.00  0.00     0.025 A 
ATOM      5  C   UNK d   0       3.979  -0.041  -4.357  0.00  0.00    -0.000 A 
ATOM      6  C   UNK d   0       3.310   0.986  -3.703  0.00  0.00    -0.053 A 
ATOM      7  C   UNK d   0       3.615   1.269  -2.387  0.00  0.00    -0.061 A 
ATOM      8  C   UNK d   0       4.582   0.537  -1.713  0.00  0.00    -0.061 A 
ATOM      9  C   UNK d   0       5.256  -0.487  -2.346  0.00  0.00    -0.047 A 
ATOM     10  C   UNK d   0       4.962  -0.788  -3.673  0.00  0.00     0.067 A 
ATOM     11  C   UNK d   0       5.650  -1.867  -4.395  0.00  0.00     0.345 A 
ATOM     12  O   UNK d   0       6.502  -2.526  -3.829  0.00  0.00    -0.244 OA
ATOM     13  O   UNK d   0       5.343  -2.129  -5.676  0.00  0.00    -0.422 OA
ATOM     14  C   UNK d   0       4.407  -1.437  -6.363  0.00  0.00     0.143 A 
ATOM     15  C   UNK d   0       4.143  -1.767  -7.686  0.00  0.00     0.023 A 
ATOM     16  H   UNK d   0       1.738   0.518  -8.364  0.00  0.00     0.065 H 
ATOM     17  H   UNK d   0       2.188   1.121  -6.025  0.00  0.00     0.063 H 
ATOM     18  H   UNK d   0       2.560   1.564  -4.222  0.00  0.00     0.062 H 
ATOM     19  H   UNK d   0       3.097   2.068  -1.877  0.00  0.00     0.062 H 
ATOM     20  H   UNK d   0       4.809   0.771  -0.683  0.00  0.00     0.062 H 
ATOM     21  H   UNK d   0       6.007  -1.052  -1.813  0.00  0.00     0.063 H 
ATOM     22  H   UNK d   0       4.684  -2.573  -8.159  0.00  0.00     0.069 H 
ENDROOT
BRANCH   1  23
ATOM     23  O   UNK d   0       2.934  -1.394  -9.693  0.00  0.00    -0.483 OA
BRANCH  23  24
ATOM     24  C   UNK d   0       1.563  -1.546 -10.067  0.00  0.00     0.165 C 
ATOM     25  H   UNK d   0       0.932  -1.460  -9.182  0.00  0.00     0.080 H 
ATOM     26  H   UNK d   0       1.293  -0.769 -10.783  0.00  0.00     0.080 H 
BRANCH  24  27
ATOM     27  C   UNK d   0       1.362  -2.901 -10.696  0.00  0.00     0.251 C 
ATOM     28  N   ALA d   1       0.415  -3.732 -10.219  0.00  0.00    -0.305 N 
ATOM     29  CA  ALA d   1       0.220  -5.049 -10.831  0.00  0.00     0.060 C 
ATOM     30  H   ALA d   1      -0.138  -3.458  -9.470  0.00  0.00     0.149 HD
ATOM     31  HA  ALA d   1       0.397  -4.981 -11.904  0.00  0.00     0.056 H 
ATOM     32  C   ALA d   1      -1.192  -5.514 -10.584  0.00  0.00     0.062 C 
ATOM     33  O   ALA d   1      -1.958  -4.816  -9.961  0.00  0.00    -0.548 OA
ATOM     34  OXT ALA d   1      -1.601  -6.701 -11.056  0.00  0.00    -0.548 OA
ATOM     35  O   UNK d   0       2.052  -3.243 -11.633  0.00  0.00    -0.272 OA
BRANCH  29  36
ATOM     36  CB  ALA d   1       1.200  -6.048 -10.214  0.00  0.00    -0.041 C 
ATOM     37  HB1 ALA d   1       0.969  -7.052 -10.571  0.00  0.00     0.025 H 
ATOM     38  HB2 ALA d   1       2.217  -5.785 -10.507  0.00  0.00     0.025 H 
ATOM     39  HB3 ALA d   1       1.115  -6.019  -9.128  0.00  0.00     0.025 H 
ENDBRANCH  29  36
ENDBRANCH  24  27
ENDBRANCH  23  24
ENDBRANCH   1  23
TORSDOF 6
ENDMDL
MODEL 3
REMARK VINA RESULT:      -7.4      2.911      4.616
REMARK  4 active torsions:
REMARK  status: ('A' for Active; 'I' for Inactive)
REMARK    1  A    between atoms: CB_1  and  CA_2 
REMARK       I    between atoms: CA_2  and  C_4 
REMARK       I    between atoms: CA_2  and  N_6 
REMARK       I    between atoms: N_6  and  C_7 
REMARK    2  A    between atoms: C_7  and  C_9 
REMARK    3  A    between atoms: C_9  and  O_10 
REMARK    4  A    between atoms: O_10  and  C_11 
ROOT
ATOM      1  C   UNK d   0       8.945   1.684  -5.208  0.00  0.00     0.125 A 
ATOM      2  C   UNK d   0       8.816   0.410  -5.753  0.00  0.00    -0.019 A 
ATOM      3  C   UNK d   0       7.833  -0.439  -5.297  0.00  0.00    -0.047 A 
ATOM      4  C   UNK d   0       6.965  -0.021  -4.289  0.00  0.00     0.025 A 
ATOM      5  C   UNK d   0       5.906  -0.917  -3.787  0.00  0.00    -0.000 A 
ATOM      6  C   UNK d   0       5.727  -2.200  -4.290  0.00  0.00    -0.053 A 
ATOM      7  C   UNK d   0       4.719  -2.996  -3.784  0.00  0.00    -0.061 A 
ATOM      8  C   UNK d   0       3.886  -2.527  -2.779  0.00  0.00    -0.061 A 
ATOM      9  C   UNK d   0       4.048  -1.256  -2.267  0.00  0.00    -0.047 A 
ATOM     10  C   UNK d   0       5.060  -0.438  -2.764  0.00  0.00     0.067 A 
ATOM     11  C   UNK d   0       5.276   0.923  -2.256  0.00  0.00     0.345 A 
ATOM     12  O   UNK d   0       4.561   1.361  -1.375  0.00  0.00    -0.244 OA
ATOM     13  O   UNK d   0       6.261   1.686  -2.758  0.00  0.00    -0.422 OA
ATOM     14  C   UNK d   0       7.091   1.262  -3.737  0.00  0.00     0.143 A 
ATOM     15  C   UNK d   0       8.087   2.108  -4.206  0.00  0.00     0.023 A 
ATOM     16  H   UNK d   0       9.489   0.087  -6.534  0.00  0.00     0.065 H 
ATOM     17  H   UNK d   0       7.733  -1.428  -5.720  0.00  0.00     0.063 H 
ATOM     18  H   UNK d   0       6.369  -2.570  -5.075  0.00  0.00     0.062 H 
ATOM     19  H   UNK d   0       4.578  -3.993  -4.174  0.00  0.00     0.062 H 
ATOM     20  H   UNK d   0       3.102  -3.162  -2.394  0.00  0.00     0.062 H 
ATOM     21  H   UNK d   0       3.395  -0.899  -1.485  0.00  0.00     0.063 H 
ATOM     22  H   UNK d   0       8.195   3.098  -3.789  0.00  0.00     0.069 H 
ENDROOT
BRANCH   1  23
ATOM     23  O   UNK d   0       9.916   2.517  -5.662  0.00  0.00    -0.483 OA
BRANCH  23  24
ATOM     24  C   UNK d   0       9.990   3.814  -5.065  0.00  0.00     0.165 C 
ATOM     25  H   UNK d   0       9.156   3.944  -4.374  0.00  0.00     0.080 H 
ATOM     26  H   UNK d   0      10.930   3.911  -4.521  0.00  0.00     0.080 H 
BRANCH  24  27
ATOM     27  C   UNK d   0       9.920   4.866  -6.140  0.00  0.00     0.251 C 
ATOM     28  N   ALA d   1       9.603   4.519  -7.404  0.00  0.00    -0.305 N 
ATOM     29  CA  ALA d   1       9.536   5.543  -8.450  0.00  0.00     0.060 C 
ATOM     30  H   ALA d   1       9.419   3.591  -7.620  0.00  0.00     0.149 HD
ATOM     31  HA  ALA d   1       9.154   6.471  -8.026  0.00  0.00     0.056 H 
ATOM     32  C   ALA d   1       8.616   5.078  -9.549  0.00  0.00     0.062 C 
ATOM     33  O   ALA d   1       8.072   4.002  -9.468  0.00  0.00    -0.548 OA
ATOM     34  OXT ALA d   1       8.400   5.859 -10.619  0.00  0.00    -0.548 OA
ATOM     35  O   UNK d   0      10.148   6.026  -5.870  0.00  0.00    -0.272 OA
BRANCH  29  36
ATOM     36  CB  ALA d   1      10.934   5.781  -9.022  0.00  0.00    -0.041 C 
ATOM     37  HB1 ALA d   1      10.949   5.503 -10.075  0.00  0.00     0.025 H 
ATOM     38  HB2 ALA d   1      11.192   6.836  -8.921  0.00  0.00     0.025 H 
ATOM     39  HB3 ALA d   1      11.658   5.177  -8.476  0.00  0.00     0.025 H 
ENDBRANCH  29  36
ENDBRANCH  24  27
ENDBRANCH  23  24
ENDBRANCH   1  23
TORSDOF 6
ENDMDL
MODEL 4
REMARK VINA RESULT:      -7.4      6.915     10.347
REMARK  4 active torsions:
REMARK  status: ('A' for Active; 'I' for Inactive)
REMARK    1  A    between atoms: CB_1  and  CA_2 
REMARK       I    between atoms: CA_2  and  C_4 
REMARK       I    between atoms: CA_2  and  N_6 
REMARK       I    between atoms: N_6  and  C_7 
REMARK    2  A    between atoms: C_7  and  C_9 
REMARK    3  A    between atoms: C_9  and  O_10 
REMARK    4  A    between atoms: O_10  and  C_11 
ROOT
ATOM      1  C   UNK d   0       5.097  -4.498  -6.575  0.00  0.00     0.125 A 
ATOM      2  C   UNK d   0       5.396  -4.635  -5.223  0.00  0.00    -0.019 A 
ATOM      3  C   UNK d   0       5.153  -3.595  -4.354  0.00  0.00    -0.047 A 
ATOM      4  C   UNK d   0       4.607  -2.403  -4.830  0.00  0.00     0.025 A 
ATOM      5  C   UNK d   0       4.341  -1.278  -3.915  0.00  0.00    -0.000 A 
ATOM      6  C   UNK d   0       4.616  -1.353  -2.555  0.00  0.00    -0.053 A 
ATOM      7  C   UNK d   0       4.346  -0.269  -1.744  0.00  0.00    -0.061 A 
ATOM      8  C   UNK d   0       3.803   0.892  -2.274  0.00  0.00    -0.061 A 
ATOM      9  C   UNK d   0       3.523   0.986  -3.621  0.00  0.00    -0.047 A 
ATOM     10  C   UNK d   0       3.789  -0.097  -4.456  0.00  0.00     0.067 A 
ATOM     11  C   UNK d   0       3.509  -0.051  -5.898  0.00  0.00     0.345 A 
ATOM     12  O   UNK d   0       3.033   0.954  -6.391  0.00  0.00    -0.244 OA
ATOM     13  O   UNK d   0       3.776  -1.114  -6.674  0.00  0.00    -0.422 OA
ATOM     14  C   UNK d   0       4.305  -2.261  -6.193  0.00  0.00     0.143 A 
ATOM     15  C   UNK d   0       4.555  -3.318  -7.057  0.00  0.00     0.023 A 
ATOM     16  H   UNK d   0       5.818  -5.558  -4.854  0.00  0.00     0.065 H 
ATOM     17  H   UNK d   0       5.383  -3.701  -3.304  0.00  0.00     0.063 H 
ATOM     18  H   UNK d   0       5.034  -2.255  -2.134  0.00  0.00     0.062 H 
ATOM     19  H   UNK d   0       4.559  -0.326  -0.686  0.00  0.00     0.062 H 
ATOM     20  H   UNK d   0       3.598   1.731  -1.625  0.00  0.00     0.062 H 
ATOM     21  H   UNK d   0       3.100   1.894  -4.026  0.00  0.00     0.063 H 
ATOM     22  H   UNK d   0       4.328  -3.220  -8.108  0.00  0.00     0.069 H 
ENDROOT
BRANCH   1  23
ATOM     23  O   UNK d   0       5.339  -5.527  -7.427  0.00  0.00    -0.483 OA
BRANCH  23  24
ATOM     24  C   UNK d   0       4.416  -6.617  -7.406  0.00  0.00     0.165 C 
ATOM     25  H   UNK d   0       3.537  -6.338  -6.824  0.00  0.00     0.080 H 
ATOM     26  H   UNK d   0       4.115  -6.859  -8.426  0.00  0.00     0.080 H 
BRANCH  24  27
ATOM     27  C   UNK d   0       5.073  -7.819  -6.778  0.00  0.00     0.251 C 
ATOM     28  N   ALA d   1       4.729  -8.200  -5.531  0.00  0.00    -0.305 N 
ATOM     29  CA  ALA d   1       5.368  -9.369  -4.921  0.00  0.00     0.060 C 
ATOM     30  H   ALA d   1       4.060  -7.700  -5.038  0.00  0.00     0.149 HD
ATOM     31  HA  ALA d   1       5.564 -10.118  -5.687  0.00  0.00     0.056 H 
ATOM     32  C   ALA d   1       4.456  -9.950  -3.872  0.00  0.00     0.062 C 
ATOM     33  O   ALA d   1       3.381  -9.440  -3.656  0.00  0.00    -0.548 OA
ATOM     34  OXT ALA d   1       4.834 -11.034  -3.177  0.00  0.00    -0.548 OA
ATOM     35  O   UNK d   0       5.909  -8.445  -7.394  0.00  0.00    -0.272 OA
BRANCH  29  36
ATOM     36  CB  ALA d   1       6.688  -8.948  -4.272  0.00  0.00    -0.041 C 
ATOM     37  HB1 ALA d   1       7.377  -9.793  -4.267  0.00  0.00     0.025 H 
ATOM     38  HB2 ALA d   1       7.125  -8.126  -4.839  0.00  0.00     0.025 H 
ATOM     39  HB3 ALA d   1       6.503  -8.624  -3.248  0.00  0.00     0.025 H 
ENDBRANCH  29  36
ENDBRANCH  24  27
ENDBRANCH  23  24
ENDBRANCH   1  23
TORSDOF 6
ENDMDL
MODEL 5
REMARK VINA RESULT:      -7.0      2.873      8.203
REMARK  4 active torsions:
REMARK  status: ('A' for Active; 'I' for Inactive)
REMARK    1  A    between atoms: CB_1  and  CA_2 
REMARK       I    between atoms: CA_2  and  C_4 
REMARK       I    between atoms: CA_2  and  N_6 
REMARK       I    between atoms: N_6  and  C_7 
REMARK    2  A    between atoms: C_7  and  C_9 
REMARK    3  A    between atoms: C_9  and  O_10 
REMARK    4  A    between atoms: O_10  and  C_11 
ROOT
ATOM      1  C   UNK d   0       9.391   2.560  -4.480  0.00  0.00     0.125 A 
ATOM      2  C   UNK d   0       9.341   3.376  -5.606  0.00  0.00    -0.019 A 
ATOM      3  C   UNK d   0       9.480   4.739  -5.478  0.00  0.00    -0.047 A 
ATOM      4  C   UNK d   0       9.673   5.303  -4.217  0.00  0.00     0.025 A 
ATOM      5  C   UNK d   0       9.824   6.762  -4.059  0.00  0.00    -0.000 A 
ATOM      6  C   UNK d   0       9.783   7.628  -5.145  0.00  0.00    -0.053 A 
ATOM      7  C   UNK d   0       9.930   8.985  -4.940  0.00  0.00    -0.061 A 
ATOM      8  C   UNK d   0      10.119   9.490  -3.661  0.00  0.00    -0.061 A 
ATOM      9  C   UNK d   0      10.162   8.646  -2.571  0.00  0.00    -0.047 A 
ATOM     10  C   UNK d   0      10.015   7.274  -2.758  0.00  0.00     0.067 A 
ATOM     11  C   UNK d   0      10.054   6.330  -1.632  0.00  0.00     0.345 A 
ATOM     12  O   UNK d   0      10.218   6.744  -0.501  0.00  0.00    -0.244 OA
ATOM     13  O   UNK d   0       9.910   5.012  -1.848  0.00  0.00    -0.422 OA
ATOM     14  C   UNK d   0       9.725   4.485  -3.079  0.00  0.00     0.143 A 
ATOM     15  C   UNK d   0       9.582   3.111  -3.223  0.00  0.00     0.023 A 
ATOM     16  H   UNK d   0       9.192   2.938  -6.583  0.00  0.00     0.065 H 
ATOM     17  H   UNK d   0       9.442   5.372  -6.352  0.00  0.00     0.063 H 
ATOM     18  H   UNK d   0       9.641   7.242  -6.143  0.00  0.00     0.062 H 
ATOM     19  H   UNK d   0       9.899   9.661  -5.782  0.00  0.00     0.062 H 
ATOM     20  H   UNK d   0      10.232  10.555  -3.518  0.00  0.00     0.062 H 
ATOM     21  H   UNK d   0      10.309   9.048  -1.579  0.00  0.00     0.063 H 
ATOM     22  H   UNK d   0       9.620   2.471  -2.355  0.00  0.00     0.069 H 
ENDROOT
BRANCH   1  23
ATOM     23  O   UNK d   0       9.253   1.216  -4.613  0.00  0.00    -0.483 OA
BRANCH  23  24
ATOM     24  C   UNK d   0       8.098   0.749  -5.313  0.00  0.00     0.165 C 
ATOM     25  H   UNK d   0       7.647   1.576  -5.862  0.00  0.00     0.080 H 
ATOM     26  H   UNK d   0       8.390  -0.034  -6.014  0.00  0.00     0.080 H 
BRANCH  24  27
ATOM     27  C   UNK d   0       7.102   0.196  -4.328  0.00  0.00     0.251 C 
ATOM     28  N   ALA d   1       5.808   0.566  -4.399  0.00  0.00    -0.305 N 
ATOM     29  CA  ALA d   1       4.839   0.029  -3.440  0.00  0.00     0.060 C 
ATOM     30  H   ALA d   1       5.518   1.188  -5.085  0.00  0.00     0.149 HD
ATOM     31  HA  ALA d   1       5.101  -1.000  -3.197  0.00  0.00     0.056 H 
ATOM     32  C   ALA d   1       3.459   0.066  -4.045  0.00  0.00     0.062 C 
ATOM     33  O   ALA d   1       3.301   0.496  -5.164  0.00  0.00    -0.548 OA
ATOM     34  OXT ALA d   1       2.405  -0.380  -3.344  0.00  0.00    -0.548 OA
ATOM     35  O   UNK d   0       7.464  -0.582  -3.471  0.00  0.00    -0.272 OA
BRANCH  29  36
ATOM     36  CB  ALA d   1       4.859   0.875  -2.166  0.00  0.00    -0.041 C 
ATOM     37  HB1 ALA d   1       5.071   1.912  -2.421  0.00  0.00     0.025 H 
ATOM     38  HB2 ALA d   1       3.887   0.814  -1.675  0.00  0.00     0.025 H 
ATOM     39  HB3 ALA d   1       5.630   0.500  -1.493  0.00  0.00     0.025 H 
ENDBRANCH  29  36
ENDBRANCH  24  27
ENDBRANCH  23  24
ENDBRANCH   1  23
TORSDOF 6
ENDMDL
MODEL 6
REMARK VINA RESULT:      -7.0      2.055      2.741
REMARK  4 active torsions:
REMARK  status: ('A' for Active; 'I' for Inactive)
REMARK    1  A    between atoms: CB_1  and  CA_2 
REMARK       I    between atoms: CA_2  and  C_4 
REMARK       I    between atoms: CA_2  and  N_6 
REMARK       I    between atoms: N_6  and  C_7 
REMARK    2  A    between atoms: C_7  and  C_9 
REMARK    3  A    between atoms: C_9  and  O_10 
REMARK    4  A    between atoms: O_10  and  C_11 
ROOT
ATOM      1  C   UNK d   0       9.033   1.714  -4.700  0.00  0.00     0.125 A 
ATOM      2  C   UNK d   0       9.038   0.430  -5.238  0.00  0.00    -0.019 A 
ATOM      3  C   UNK d   0       8.035  -0.456  -4.916  0.00  0.00    -0.047 A 
ATOM      4  C   UNK d   0       7.014  -0.067  -4.050  0.00  0.00     0.025 A 
ATOM      5  C   UNK d   0       5.931  -1.003  -3.693  0.00  0.00    -0.000 A 
ATOM      6  C   UNK d   0       5.881  -2.297  -4.198  0.00  0.00    -0.053 A 
ATOM      7  C   UNK d   0       4.844  -3.131  -3.831  0.00  0.00    -0.061 A 
ATOM      8  C   UNK d   0       3.854  -2.690  -2.964  0.00  0.00    -0.061 A 
ATOM      9  C   UNK d   0       3.888  -1.409  -2.453  0.00  0.00    -0.047 A 
ATOM     10  C   UNK d   0       4.926  -0.552  -2.811  0.00  0.00     0.067 A 
ATOM     11  C   UNK d   0       5.009   0.822  -2.298  0.00  0.00     0.345 A 
ATOM     12  O   UNK d   0       4.157   1.237  -1.536  0.00  0.00    -0.244 OA
ATOM     13  O   UNK d   0       6.024   1.622  -2.664  0.00  0.00    -0.422 OA
ATOM     14  C   UNK d   0       7.005   1.226  -3.506  0.00  0.00     0.143 A 
ATOM     15  C   UNK d   0       8.023   2.109  -3.839  0.00  0.00     0.023 A 
ATOM     16  H   UNK d   0       9.830   0.130  -5.908  0.00  0.00     0.065 H 
ATOM     17  H   UNK d   0       8.039  -1.452  -5.334  0.00  0.00     0.063 H 
ATOM     18  H   UNK d   0       6.644  -2.646  -4.876  0.00  0.00     0.062 H 
ATOM     19  H   UNK d   0       4.802  -4.137  -4.222  0.00  0.00     0.062 H 
ATOM     20  H   UNK d   0       3.050  -3.355  -2.687  0.00  0.00     0.062 H 
ATOM     21  H   UNK d   0       3.113  -1.073  -1.779  0.00  0.00     0.063 H 
ATOM     22  H   UNK d   0       8.027   3.107  -3.426  0.00  0.00     0.069 H 
ENDROOT
BRANCH   1  23
ATOM     23  O   UNK d   0      10.025   2.584  -5.020  0.00  0.00    -0.483 OA
BRANCH  23  24
ATOM     24  C   UNK d   0      10.793   3.118  -3.940  0.00  0.00     0.165 C 
ATOM     25  H   UNK d   0      10.631   2.517  -3.046  0.00  0.00     0.080 H 
ATOM     26  H   UNK d   0      11.852   3.099  -4.203  0.00  0.00     0.080 H 
BRANCH  24  27
ATOM     27  C   UNK d   0      10.367   4.539  -3.675  0.00  0.00     0.251 C 
ATOM     28  N   ALA d   1      10.436   5.458  -4.659  0.00  0.00    -0.305 N 
ATOM     29  CA  ALA d   1      10.021   6.840  -4.401  0.00  0.00     0.060 C 
ATOM     30  H   ALA d   1      10.760   5.204  -5.538  0.00  0.00     0.149 HD
ATOM     31  HA  ALA d   1       9.181   6.843  -3.707  0.00  0.00     0.056 H 
ATOM     32  C   ALA d   1       9.605   7.490  -5.695  0.00  0.00     0.062 C 
ATOM     33  O   ALA d   1       9.650   6.863  -6.728  0.00  0.00    -0.548 OA
ATOM     34  OXT ALA d   1       9.184   8.764  -5.703  0.00  0.00    -0.548 OA
ATOM     35  O   UNK d   0       9.960   4.856  -2.578  0.00  0.00    -0.272 OA
BRANCH  29  36
ATOM     36  CB  ALA d   1      11.189   7.617  -3.792  0.00  0.00    -0.041 C 
ATOM     37  HB1 ALA d   1      11.943   6.918  -3.431  0.00  0.00     0.025 H 
ATOM     38  HB2 ALA d   1      11.628   8.265  -4.551  0.00  0.00     0.025 H 
ATOM     39  HB3 ALA d   1      10.828   8.224  -2.961  0.00  0.00     0.025 H 
ENDBRANCH  29  36
ENDBRANCH  24  27
ENDBRANCH  23  24
ENDBRANCH   1  23
TORSDOF 6
ENDMDL
MODEL 7
REMARK VINA RESULT:      -6.9      3.333      5.147
REMARK  4 active torsions:
REMARK  status: ('A' for Active; 'I' for Inactive)
REMARK    1  A    between atoms: CB_1  and  CA_2 
REMARK       I    between atoms: CA_2  and  C_4 
REMARK       I    between atoms: CA_2  and  N_6 
REMARK       I    between atoms: N_6  and  C_7 
REMARK    2  A    between atoms: C_7  and  C_9 
REMARK    3  A    between atoms: C_9  and  O_10 
REMARK    4  A    between atoms: O_10  and  C_11 
ROOT
ATOM      1  C   UNK d   0       9.332   1.677  -5.288  0.00  0.00     0.125 A 
ATOM      2  C   UNK d   0       8.527   2.393  -4.406  0.00  0.00    -0.019 A 
ATOM      3  C   UNK d   0       7.479   1.769  -3.768  0.00  0.00    -0.047 A 
ATOM      4  C   UNK d   0       7.224   0.419  -4.005  0.00  0.00     0.025 A 
ATOM      5  C   UNK d   0       6.105  -0.267  -3.331  0.00  0.00    -0.000 A 
ATOM      6  C   UNK d   0       5.267   0.393  -2.440  0.00  0.00    -0.053 A 
ATOM      7  C   UNK d   0       4.235  -0.298  -1.837  0.00  0.00    -0.061 A 
ATOM      8  C   UNK d   0       4.028  -1.642  -2.113  0.00  0.00    -0.061 A 
ATOM      9  C   UNK d   0       4.850  -2.313  -2.994  0.00  0.00    -0.047 A 
ATOM     10  C   UNK d   0       5.896  -1.634  -3.614  0.00  0.00     0.067 A 
ATOM     11  C   UNK d   0       6.801  -2.301  -4.560  0.00  0.00     0.345 A 
ATOM     12  O   UNK d   0       6.643  -3.478  -4.821  0.00  0.00    -0.244 OA
ATOM     13  O   UNK d   0       7.801  -1.615  -5.138  0.00  0.00    -0.422 OA
ATOM     14  C   UNK d   0       8.032  -0.306  -4.894  0.00  0.00     0.143 A 
ATOM     15  C   UNK d   0       9.086   0.336  -5.530  0.00  0.00     0.023 A 
ATOM     16  H   UNK d   0       8.726   3.438  -4.222  0.00  0.00     0.065 H 
ATOM     17  H   UNK d   0       6.856   2.324  -3.082  0.00  0.00     0.063 H 
ATOM     18  H   UNK d   0       5.425   1.437  -2.217  0.00  0.00     0.062 H 
ATOM     19  H   UNK d   0       3.583   0.212  -1.144  0.00  0.00     0.062 H 
ATOM     20  H   UNK d   0       3.216  -2.168  -1.632  0.00  0.00     0.062 H 
ATOM     21  H   UNK d   0       4.681  -3.360  -3.203  0.00  0.00     0.063 H 
ATOM     22  H   UNK d   0       9.715  -0.211  -6.217  0.00  0.00     0.069 H 
ENDROOT
BRANCH   1  23
ATOM     23  O   UNK d   0      10.364   2.298  -5.915  0.00  0.00    -0.483 OA
BRANCH  23  24
ATOM     24  C   UNK d   0      10.797   3.546  -5.370  0.00  0.00     0.165 C 
ATOM     25  H   UNK d   0      10.410   3.655  -4.357  0.00  0.00     0.080 H 
ATOM     26  H   UNK d   0      11.887   3.573  -5.346  0.00  0.00     0.080 H 
BRANCH  24  27
ATOM     27  C   UNK d   0      10.285   4.673  -6.229  0.00  0.00     0.251 C 
ATOM     28  N   ALA d   1      10.052   4.468  -7.541  0.00  0.00    -0.305 N 
ATOM     29  CA  ALA d   1       9.554   5.564  -8.376  0.00  0.00     0.060 C 
ATOM     30  H   ALA d   1      10.214   3.595  -7.932  0.00  0.00     0.149 HD
ATOM     31  HA  ALA d   1       8.879   6.189  -7.792  0.00  0.00     0.056 H 
ATOM     32  C   ALA d   1       8.815   4.998  -9.560  0.00  0.00     0.062 C 
ATOM     33  O   ALA d   1       8.713   3.800  -9.693  0.00  0.00    -0.548 OA
ATOM     34  OXT ALA d   1       8.267   5.821 -10.468  0.00  0.00    -0.548 OA
ATOM     35  O   UNK d   0      10.082   5.764  -5.741  0.00  0.00    -0.272 OA
BRANCH  29  36
ATOM     36  CB  ALA d   1      10.732   6.407  -8.867  0.00  0.00    -0.041 C 
ATOM     37  HB1 ALA d   1      10.642   7.421  -8.476  0.00  0.00     0.025 H 
ATOM     38  HB2 ALA d   1      11.665   5.965  -8.517  0.00  0.00     0.025 H 
ATOM     39  HB3 ALA d   1      10.730   6.436  -9.956  0.00  0.00     0.025 H 
ENDBRANCH  29  36
ENDBRANCH  24  27
ENDBRANCH  23  24
ENDBRANCH   1  23
TORSDOF 6
ENDMDL
MODEL 8
REMARK VINA RESULT:      -6.8      2.490      8.821
REMARK  4 active torsions:
REMARK  status: ('A' for Active; 'I' for Inactive)
REMARK    1  A    between atoms: CB_1  and  CA_2 
REMARK       I    between atoms: CA_2  and  C_4 
REMARK       I    between atoms: CA_2  and  N_6 
REMARK       I    between atoms: N_6  and  C_7 
REMARK    2  A    between atoms: C_7  and  C_9 
REMARK    3  A    between atoms: C_9  and  O_10 
REMARK    4  A    between atoms: O_10  and  C_11 
ROOT
ATOM      1  C   UNK d   0       9.643   5.206  -3.615  0.00  0.00     0.125 A 
ATOM      2  C   UNK d   0       9.549   6.527  -4.043  0.00  0.00    -0.019 A 
ATOM      3  C   UNK d   0       9.859   7.554  -3.181  0.00  0.00    -0.047 A 
ATOM      4  C   UNK d   0      10.267   7.271  -1.878  0.00  0.00     0.025 A 
ATOM      5  C   UNK d   0      10.603   8.359  -0.940  0.00  0.00    -0.000 A 
ATOM      6  C   UNK d   0      10.529   9.696  -1.307  0.00  0.00    -0.053 A 
ATOM      7  C   UNK d   0      10.856  10.674  -0.389  0.00  0.00    -0.061 A 
ATOM      8  C   UNK d   0      11.255  10.332   0.895  0.00  0.00    -0.061 A 
ATOM      9  C   UNK d   0      11.334   9.009   1.278  0.00  0.00    -0.047 A 
ATOM     10  C   UNK d   0      11.009   8.008   0.366  0.00  0.00     0.067 A 
ATOM     11  C   UNK d   0      11.076   6.585   0.721  0.00  0.00     0.345 A 
ATOM     12  O   UNK d   0      11.423   6.255   1.839  0.00  0.00    -0.244 OA
ATOM     13  O   UNK d   0      10.756   5.645  -0.184  0.00  0.00    -0.422 OA
ATOM     14  C   UNK d   0      10.363   5.940  -1.443  0.00  0.00     0.143 A 
ATOM     15  C   UNK d   0      10.047   4.914  -2.323  0.00  0.00     0.023 A 
ATOM     16  H   UNK d   0       9.233   6.745  -5.052  0.00  0.00     0.065 H 
ATOM     17  H   UNK d   0       9.787   8.579  -3.513  0.00  0.00     0.063 H 
ATOM     18  H   UNK d   0      10.224   9.970  -2.306  0.00  0.00     0.062 H 
ATOM     19  H   UNK d   0      10.800  11.715  -0.672  0.00  0.00     0.062 H 
ATOM     20  H   UNK d   0      11.507  11.110   1.601  0.00  0.00     0.062 H 
ATOM     21  H   UNK d   0      11.646   8.752   2.280  0.00  0.00     0.063 H 
ATOM     22  H   UNK d   0      10.116   3.886  -1.999  0.00  0.00     0.069 H 
ENDROOT
BRANCH   1  23
ATOM     23  O   UNK d   0       9.335   4.196  -4.469  0.00  0.00    -0.483 OA
BRANCH  23  24
ATOM     24  C   UNK d   0       9.671   2.870  -4.054  0.00  0.00     0.165 C 
ATOM     25  H   UNK d   0      10.620   2.577  -4.503  0.00  0.00     0.080 H 
ATOM     26  H   UNK d   0       9.760   2.842  -2.967  0.00  0.00     0.080 H 
BRANCH  24  27
ATOM     27  C   UNK d   0       8.590   1.917  -4.495  0.00  0.00     0.251 C 
ATOM     28  N   ALA d   1       7.683   1.468  -3.604  0.00  0.00    -0.305 N 
ATOM     29  CA  ALA d   1       6.632   0.541  -4.033  0.00  0.00     0.060 C 
ATOM     30  H   ALA d   1       7.727   1.759  -2.679  0.00  0.00     0.149 HD
ATOM     31  HA  ALA d   1       6.326   0.785  -5.050  0.00  0.00     0.056 H 
ATOM     32  C   ALA d   1       5.448   0.663  -3.109  0.00  0.00     0.062 C 
ATOM     33  O   ALA d   1       5.478   1.444  -2.187  0.00  0.00    -0.548 OA
ATOM     34  OXT ALA d   1       4.359  -0.095  -3.310  0.00  0.00    -0.548 OA
ATOM     35  O   UNK d   0       8.535   1.555  -5.651  0.00  0.00    -0.272 OA
BRANCH  29  36
ATOM     36  CB  ALA d   1       7.167  -0.891  -3.991  0.00  0.00    -0.041 C 
ATOM     37  HB1 ALA d   1       6.798  -1.391  -3.095  0.00  0.00     0.025 H 
ATOM     38  HB2 ALA d   1       6.827  -1.431  -4.874  0.00  0.00     0.025 H 
ATOM     39  HB3 ALA d   1       8.257  -0.872  -3.974  0.00  0.00     0.025 H 
ENDBRANCH  29  36
ENDBRANCH  24  27
ENDBRANCH  23  24
ENDBRANCH   1  23
TORSDOF 6
ENDMDL
MODEL 9
REMARK VINA RESULT:      -6.7      5.929      9.883
REMARK  4 active torsions:
REMARK  status: ('A' for Active; 'I' for Inactive)
REMARK    1  A    between atoms: CB_1  and  CA_2 
REMARK       I    between atoms: CA_2  and  C_4 
REMARK       I    between atoms: CA_2  and  N_6 
REMARK       I    between atoms: N_6  and  C_7 
REMARK    2  A    between atoms: C_7  and  C_9 
REMARK    3  A    between atoms: C_9  and  O_10 
REMARK    4  A    between atoms: O_10  and  C_11 
ROOT
ATOM      1  C   UNK d   0       5.969  -4.816  -5.428  0.00  0.00     0.125 A 
ATOM      2  C   UNK d   0       4.676  -4.690  -4.929  0.00  0.00    -0.019 A 
ATOM      3  C   UNK d   0       4.293  -3.532  -4.290  0.00  0.00    -0.047 A 
ATOM      4  C   UNK d   0       5.203  -2.486  -4.142  0.00  0.00     0.025 A 
ATOM      5  C   UNK d   0       4.811  -1.238  -3.460  0.00  0.00    -0.000 A 
ATOM      6  C   UNK d   0       3.536  -1.051  -2.941  0.00  0.00    -0.053 A 
ATOM      7  C   UNK d   0       3.223   0.137  -2.312  0.00  0.00    -0.061 A 
ATOM      8  C   UNK d   0       4.170   1.144  -2.194  0.00  0.00    -0.061 A 
ATOM      9  C   UNK d   0       5.442   0.977  -2.702  0.00  0.00    -0.047 A 
ATOM     10  C   UNK d   0       5.777  -0.215  -3.340  0.00  0.00     0.067 A 
ATOM     11  C   UNK d   0       7.115  -0.445  -3.900  0.00  0.00     0.345 A 
ATOM     12  O   UNK d   0       7.966   0.420  -3.811  0.00  0.00    -0.244 OA
ATOM     13  O   UNK d   0       7.404  -1.606  -4.510  0.00  0.00    -0.422 OA
ATOM     14  C   UNK d   0       6.507  -2.609  -4.643  0.00  0.00     0.143 A 
ATOM     15  C   UNK d   0       6.879  -3.782  -5.286  0.00  0.00     0.023 A 
ATOM     16  H   UNK d   0       3.972  -5.501  -5.045  0.00  0.00     0.065 H 
ATOM     17  H   UNK d   0       3.289  -3.434  -3.904  0.00  0.00     0.063 H 
ATOM     18  H   UNK d   0       2.792  -1.828  -3.033  0.00  0.00     0.062 H 
ATOM     19  H   UNK d   0       2.232   0.285  -1.908  0.00  0.00     0.062 H 
ATOM     20  H   UNK d   0       3.909   2.068  -1.699  0.00  0.00     0.062 H 
ATOM     21  H   UNK d   0       6.173   1.767  -2.606  0.00  0.00     0.063 H 
ATOM     22  H   UNK d   0       7.880  -3.890  -5.675  0.00  0.00     0.069 H 
ENDROOT
BRANCH   1  23
ATOM     23  O   UNK d   0       6.341  -5.961  -6.058  0.00  0.00    -0.483 OA
BRANCH  23  24
ATOM     24  C   UNK d   0       5.308  -6.902  -6.355  0.00  0.00     0.165 C 
ATOM     25  H   UNK d   0       4.340  -6.400  -6.332  0.00  0.00     0.080 H 
ATOM     26  H   UNK d   0       5.474  -7.323  -7.347  0.00  0.00     0.080 H 
BRANCH  24  27
ATOM     27  C   UNK d   0       5.325  -8.007  -5.331  0.00  0.00     0.251 C 
ATOM     28  N   ALA d   1       6.490  -8.383  -4.766  0.00  0.00    -0.305 N 
ATOM     29  CA  ALA d   1       6.507  -9.458  -3.770  0.00  0.00     0.060 C 
ATOM     30  H   ALA d   1       7.316  -7.942  -5.018  0.00  0.00     0.149 HD
ATOM     31  HA  ALA d   1       5.597  -9.413  -3.171  0.00  0.00     0.056 H 
ATOM     32  C   ALA d   1       7.706  -9.294  -2.873  0.00  0.00     0.062 C 
ATOM     33  O   ALA d   1       8.470  -8.372  -3.048  0.00  0.00    -0.548 OA
ATOM     34  OXT ALA d   1       7.928 -10.168  -1.880  0.00  0.00    -0.548 OA
ATOM     35  O   UNK d   0       4.292  -8.557  -5.015  0.00  0.00    -0.272 OA
BRANCH  29  36
ATOM     36  CB  ALA d   1       6.583 -10.811  -4.480  0.00  0.00    -0.041 C 
ATOM     37  HB1 ALA d   1       6.108 -11.573  -3.863  0.00  0.00     0.025 H 
ATOM     38  HB2 ALA d   1       6.067 -10.746  -5.439  0.00  0.00     0.025 H 
ATOM     39  HB3 ALA d   1       7.627 -11.076  -4.647  0.00  0.00     0.025 H 
ENDBRANCH  29  36
ENDBRANCH  24  27
ENDBRANCH  23  24
ENDBRANCH   1  23
TORSDOF 6
ENDMDL
MODEL 10
REMARK VINA RESULT:      -6.6      2.165      2.905
REMARK  4 active torsions:
REMARK  status: ('A' for Active; 'I' for Inactive)
REMARK    1  A    between atoms: CB_1  and  CA_2 
REMARK       I    between atoms: CA_2  and  C_4 
REMARK       I    between atoms: CA_2  and  N_6 
REMARK       I    between atoms: N_6  and  C_7 
REMARK    2  A    between atoms: C_7  and  C_9 
REMARK    3  A    between atoms: C_9  and  O_10 
REMARK    4  A    between atoms: O_10  and  C_11 
ROOT
ATOM      1  C   UNK d   0       9.597   1.815  -5.461  0.00  0.00     0.125 A 
ATOM      2  C   UNK d   0       8.778   2.671  -4.730  0.00  0.00    -0.019 A 
ATOM      3  C   UNK d   0       7.711   2.167  -4.022  0.00  0.00    -0.047 A 
ATOM      4  C   UNK d   0       7.450   0.797  -4.037  0.00  0.00     0.025 A 
ATOM      5  C   UNK d   0       6.310   0.239  -3.286  0.00  0.00    -0.000 A 
ATOM      6  C   UNK d   0       5.458   1.041  -2.538  0.00  0.00    -0.053 A 
ATOM      7  C   UNK d   0       4.406   0.466  -1.853  0.00  0.00    -0.061 A 
ATOM      8  C   UNK d   0       4.195  -0.904  -1.905  0.00  0.00    -0.061 A 
ATOM      9  C   UNK d   0       5.031  -1.717  -2.642  0.00  0.00    -0.047 A 
ATOM     10  C   UNK d   0       6.097  -1.155  -3.341  0.00  0.00     0.067 A 
ATOM     11  C   UNK d   0       7.018  -1.974  -4.140  0.00  0.00     0.345 A 
ATOM     12  O   UNK d   0       6.857  -3.178  -4.204  0.00  0.00    -0.244 OA
ATOM     13  O   UNK d   0       8.037  -1.400  -4.800  0.00  0.00    -0.422 OA
ATOM     14  C   UNK d   0       8.273  -0.069  -4.772  0.00  0.00     0.143 A 
ATOM     15  C   UNK d   0       9.346   0.453  -5.482  0.00  0.00     0.023 A 
ATOM     16  H   UNK d   0       8.981   3.732  -4.719  0.00  0.00     0.065 H 
ATOM     17  H   UNK d   0       7.076   2.831  -3.455  0.00  0.00     0.063 H 
ATOM     18  H   UNK d   0       5.618   2.108  -2.489  0.00  0.00     0.062 H 
ATOM     19  H   UNK d   0       3.742   1.087  -1.271  0.00  0.00     0.062 H 
ATOM     20  H   UNK d   0       3.368  -1.339  -1.363  0.00  0.00     0.062 H 
ATOM     21  H   UNK d   0       4.859  -2.783  -2.677  0.00  0.00     0.063 H 
ATOM     22  H   UNK d   0       9.986  -0.204  -6.052  0.00  0.00     0.069 H 
ENDROOT
BRANCH   1  23
ATOM     23  O   UNK d   0      10.649   2.317  -6.157  0.00  0.00    -0.483 OA
BRANCH  23  24
ATOM     24  C   UNK d   0      11.951   1.859  -5.787  0.00  0.00     0.165 C 
ATOM     25  H   UNK d   0      11.951   0.770  -5.731  0.00  0.00     0.080 H 
ATOM     26  H   UNK d   0      12.677   2.184  -6.533  0.00  0.00     0.080 H 
BRANCH  24  27
ATOM     27  C   UNK d   0      12.321   2.431  -4.443  0.00  0.00     0.251 C 
ATOM     28  N   ALA d   1      12.313   3.766  -4.254  0.00  0.00    -0.305 N 
ATOM     29  CA  ALA d   1      12.673   4.323  -2.947  0.00  0.00     0.060 C 
ATOM     30  H   ALA d   1      12.069   4.358  -4.983  0.00  0.00     0.149 HD
ATOM     31  HA  ALA d   1      12.323   3.656  -2.159  0.00  0.00     0.056 H 
ATOM     32  C   ALA d   1      12.031   5.675  -2.783  0.00  0.00     0.062 C 
ATOM     33  O   ALA d   1      11.342   6.129  -3.667  0.00  0.00    -0.548 OA
ATOM     34  OXT ALA d   1      12.222   6.378  -1.655  0.00  0.00    -0.548 OA
ATOM     35  O   UNK d   0      12.625   1.692  -3.532  0.00  0.00    -0.272 OA
BRANCH  29  36
ATOM     36  CB  ALA d   1      14.193   4.465  -2.855  0.00  0.00    -0.041 C 
ATOM     37  HB1 ALA d   1      14.664   3.834  -3.608  0.00  0.00     0.025 H 
ATOM     38  HB2 ALA d   1      14.471   5.506  -3.028  0.00  0.00     0.025 H 
ATOM     39  HB3 ALA d   1      14.528   4.160  -1.864  0.00  0.00     0.025 H 
ENDBRANCH  29  36
ENDBRANCH  24  27
ENDBRANCH  23  24
ENDBRANCH   1  23
TORSDOF 6
ENDMDL
