MODEL 1
REMARK VINA RESULT:      -5.8      0.000      0.000
REMARK  5 active torsions:
REMARK  status: ('A' for Active; 'I' for Inactive)
REMARK    1  A    between atoms: C_1  and  C_2 
REMARK    2  A    between atoms: C_6  and  O_9 
REMARK    3  A    between atoms: C_7  and  O_8 
REMARK    4  A    between atoms: C_13  and  O_20 
REMARK    5  A    between atoms: C_15  and  O_19 
ROOT
ATOM      1  C   LIG d   1       5.207  -0.856  -3.093  0.00  0.00     0.009 A 
ATOM      2  C   LIG d   1       5.717  -1.735  -4.051  0.00  0.00     0.071 A 
ATOM      3  C   LIG d   1       6.843  -1.382  -4.812  0.00  0.00     0.143 A 
ATOM      4  C   LIG d   1       7.444  -0.148  -4.600  0.00  0.00     0.026 A 
ATOM      5  C   LIG d   1       6.935   0.720  -3.650  0.00  0.00     0.162 A 
ATOM      6  C   LIG d   1       5.815   0.366  -2.894  0.00  0.00     0.162 A 
ATOM      7  O   LIG d   1       7.346  -2.224  -5.739  0.00  0.00    -0.454 OA
ATOM      8  C   LIG d   1       6.821  -3.438  -6.006  0.00  0.00     0.146 A 
ATOM      9  C   LIG d   1       7.399  -4.244  -6.977  0.00  0.00     0.023 A 
ATOM     10  C   LIG d   1       6.867  -5.493  -7.255  0.00  0.00     0.124 A 
ATOM     11  C   LIG d   1       5.751  -5.958  -6.568  0.00  0.00     0.022 A 
ATOM     12  C   LIG d   1       5.157  -5.170  -5.600  0.00  0.00     0.135 A 
ATOM     13  C   LIG d   1       5.693  -3.908  -5.311  0.00  0.00     0.106 A 
ATOM     14  C   LIG d   1       5.085  -3.049  -4.281  0.00  0.00     0.204 A 
ATOM     15  O   LIG d   1       4.106  -3.406  -3.649  0.00  0.00    -0.286 OA
ATOM     16  H   LIG d   1       8.312   0.135  -5.178  0.00  0.00     0.069 H 
ATOM     17  H   LIG d   1       8.266  -3.895  -7.518  0.00  0.00     0.069 H 
ATOM     18  H   LIG d   1       5.346  -6.934  -6.794  0.00  0.00     0.069 H 
ENDROOT
BRANCH   1  19
ATOM     19  C   LIG d   1       3.998  -1.241  -2.280  0.00  0.00    -0.035 C 
ATOM     20  H   LIG d   1       4.213  -2.150  -1.717  0.00  0.00     0.028 H 
ATOM     21  H   LIG d   1       3.754  -0.436  -1.587  0.00  0.00     0.028 H 
ATOM     22  H   LIG d   1       3.153  -1.416  -2.945  0.00  0.00     0.028 H 
ENDBRANCH   1  19
BRANCH   6  23
ATOM     23  O   LIG d   1       5.324   1.227  -1.962  0.00  0.00    -0.503 OA
ATOM     24  H   LIG d   1       5.238   0.843  -1.079  0.00  0.00     0.292 HD
ENDBRANCH   6  23
BRANCH   5  25
ATOM     25  O   LIG d   1       7.530   1.924  -3.451  0.00  0.00    -0.503 OA
ATOM     26  H   LIG d   1       7.435   2.537  -4.192  0.00  0.00     0.292 HD
ENDBRANCH   5  25
BRANCH  12  27
ATOM     27  O   LIG d   1       4.065  -5.618  -4.930  0.00  0.00    -0.506 OA
ATOM     28  H   LIG d   1       3.716  -6.455  -5.263  0.00  0.00     0.292 HD
ENDBRANCH  12  27
BRANCH  10  29
ATOM     29  O   LIG d   1       7.442  -6.270  -8.208  0.00  0.00    -0.506 OA
ATOM     30  H   LIG d   1       7.870  -7.065  -7.862  0.00  0.00     0.292 HD
ENDBRANCH  10  29
TORSDOF 5
ENDMDL
MODEL 2
REMARK VINA RESULT:      -5.8     10.141     12.350
REMARK  5 active torsions:
REMARK  status: ('A' for Active; 'I' for Inactive)
REMARK    1  A    between atoms: C_1  and  C_2 
REMARK    2  A    between atoms: C_6  and  O_9 
REMARK    3  A    between atoms: C_7  and  O_8 
REMARK    4  A    between atoms: C_13  and  O_20 
REMARK    5  A    between atoms: C_15  and  O_19 
ROOT
ATOM      1  C   LIG d   1       9.633   8.024  -5.166  0.00  0.00     0.009 A 
ATOM      2  C   LIG d   1       9.951   8.054  -3.806  0.00  0.00     0.071 A 
ATOM      3  C   LIG d   1      10.041   9.278  -3.123  0.00  0.00     0.143 A 
ATOM      4  C   LIG d   1       9.811  10.459  -3.818  0.00  0.00     0.026 A 
ATOM      5  C   LIG d   1       9.497  10.424  -5.165  0.00  0.00     0.162 A 
ATOM      6  C   LIG d   1       9.407   9.205  -5.841  0.00  0.00     0.162 A 
ATOM      7  O   LIG d   1      10.346   9.320  -1.809  0.00  0.00    -0.454 OA
ATOM      8  C   LIG d   1      10.584   8.220  -1.064  0.00  0.00     0.146 A 
ATOM      9  C   LIG d   1      10.892   8.350   0.283  0.00  0.00     0.023 A 
ATOM     10  C   LIG d   1      11.136   7.225   1.055  0.00  0.00     0.124 A 
ATOM     11  C   LIG d   1      11.077   5.954   0.495  0.00  0.00     0.022 A 
ATOM     12  C   LIG d   1      10.777   5.801  -0.846  0.00  0.00     0.135 A 
ATOM     13  C   LIG d   1      10.524   6.936  -1.631  0.00  0.00     0.106 A 
ATOM     14  C   LIG d   1      10.196   6.804  -3.061  0.00  0.00     0.204 A 
ATOM     15  O   LIG d   1      10.131   5.714  -3.603  0.00  0.00    -0.286 OA
ATOM     16  H   LIG d   1       9.875  11.407  -3.304  0.00  0.00     0.069 H 
ATOM     17  H   LIG d   1      10.941   9.332   0.730  0.00  0.00     0.069 H 
ATOM     18  H   LIG d   1      11.270   5.085   1.107  0.00  0.00     0.069 H 
ENDROOT
BRANCH   1  19
ATOM     19  C   LIG d   1       9.538   6.707  -5.891  0.00  0.00    -0.035 C 
ATOM     20  H   LIG d   1       8.531   6.583  -6.290  0.00  0.00     0.028 H 
ATOM     21  H   LIG d   1      10.257   6.690  -6.710  0.00  0.00     0.028 H 
ATOM     22  H   LIG d   1       9.758   5.894  -5.199  0.00  0.00     0.028 H 
ENDBRANCH   1  19
BRANCH   6  23
ATOM     23  O   LIG d   1       9.096   9.183  -7.165  0.00  0.00    -0.503 OA
ATOM     24  H   LIG d   1       8.148   9.121  -7.346  0.00  0.00     0.292 HD
ENDBRANCH   6  23
BRANCH   5  25
ATOM     25  O   LIG d   1       9.273  11.584  -5.834  0.00  0.00    -0.503 OA
ATOM     26  H   LIG d   1       8.560  12.121  -5.463  0.00  0.00     0.292 HD
ENDBRANCH   5  25
BRANCH  12  27
ATOM     27  O   LIG d   1      10.722   4.563  -1.398  0.00  0.00    -0.506 OA
ATOM     28  H   LIG d   1      10.769   4.560  -2.363  0.00  0.00     0.292 HD
ENDBRANCH  12  27
BRANCH  10  29
ATOM     29  O   LIG d   1      11.437   7.366   2.370  0.00  0.00    -0.506 OA
ATOM     30  H   LIG d   1      10.899   6.818   2.958  0.00  0.00     0.292 HD
ENDBRANCH  10  29
TORSDOF 5
ENDMDL
MODEL 3
REMARK VINA RESULT:      -5.8      8.803     10.576
REMARK  5 active torsions:
REMARK  status: ('A' for Active; 'I' for Inactive)
REMARK    1  A    between atoms: C_1  and  C_2 
REMARK    2  A    between atoms: C_6  and  O_9 
REMARK    3  A    between atoms: C_7  and  O_8 
REMARK    4  A    between atoms: C_13  and  O_20 
REMARK    5  A    between atoms: C_15  and  O_19 
ROOT
ATOM      1  C   LIG d   1      10.848   4.846  -2.790  0.00  0.00     0.009 A 
ATOM      2  C   LIG d   1      10.405   5.737  -3.770  0.00  0.00     0.071 A 
ATOM      3  C   LIG d   1       9.935   7.011  -3.413  0.00  0.00     0.143 A 
ATOM      4  C   LIG d   1       9.916   7.375  -2.072  0.00  0.00     0.026 A 
ATOM      5  C   LIG d   1      10.356   6.488  -1.105  0.00  0.00     0.162 A 
ATOM      6  C   LIG d   1      10.824   5.222  -1.464  0.00  0.00     0.162 A 
ATOM      7  O   LIG d   1       9.506   7.882  -4.352  0.00  0.00    -0.454 OA
ATOM      8  C   LIG d   1       9.492   7.606  -5.672  0.00  0.00     0.146 A 
ATOM      9  C   LIG d   1       9.034   8.558  -6.573  0.00  0.00     0.023 A 
ATOM     10  C   LIG d   1       9.018   8.283  -7.931  0.00  0.00     0.124 A 
ATOM     11  C   LIG d   1       9.459   7.055  -8.412  0.00  0.00     0.022 A 
ATOM     12  C   LIG d   1       9.915   6.090  -7.532  0.00  0.00     0.135 A 
ATOM     13  C   LIG d   1       9.938   6.365  -6.157  0.00  0.00     0.106 A 
ATOM     14  C   LIG d   1      10.423   5.359  -5.197  0.00  0.00     0.204 A 
ATOM     15  O   LIG d   1      10.821   4.267  -5.563  0.00  0.00    -0.286 OA
ATOM     16  H   LIG d   1       9.558   8.353  -1.785  0.00  0.00     0.069 H 
ATOM     17  H   LIG d   1       8.689   9.515  -6.213  0.00  0.00     0.069 H 
ATOM     18  H   LIG d   1       9.441   6.852  -9.473  0.00  0.00     0.069 H 
ENDROOT
BRANCH   1  19
ATOM     19  C   LIG d   1      11.351   3.481  -3.181  0.00  0.00    -0.035 C 
ATOM     20  H   LIG d   1      11.070   3.271  -4.213  0.00  0.00     0.028 H 
ATOM     21  H   LIG d   1      12.437   3.453  -3.088  0.00  0.00     0.028 H 
ATOM     22  H   LIG d   1      10.912   2.729  -2.525  0.00  0.00     0.028 H 
ENDBRANCH   1  19
BRANCH   6  23
ATOM     23  O   LIG d   1      11.254   4.359  -0.504  0.00  0.00    -0.503 OA
ATOM     24  H   LIG d   1      11.441   4.779   0.347  0.00  0.00     0.292 HD
ENDBRANCH   6  23
BRANCH   5  25
ATOM     25  O   LIG d   1      10.333   6.854   0.202  0.00  0.00    -0.503 OA
ATOM     26  H   LIG d   1       9.700   6.358   0.738  0.00  0.00     0.292 HD
ENDBRANCH   5  25
BRANCH  12  27
ATOM     27  O   LIG d   1      10.342   4.889  -7.996  0.00  0.00    -0.506 OA
ATOM     28  H   LIG d   1      10.362   4.825  -8.960  0.00  0.00     0.292 HD
ENDBRANCH  12  27
BRANCH  10  29
ATOM     29  O   LIG d   1       8.567   9.221  -8.801  0.00  0.00    -0.506 OA
ATOM     30  H   LIG d   1       7.607   9.343  -8.787  0.00  0.00     0.292 HD
ENDBRANCH  10  29
TORSDOF 5
ENDMDL
MODEL 4
REMARK VINA RESULT:      -5.7      8.943     12.357
REMARK  5 active torsions:
REMARK  status: ('A' for Active; 'I' for Inactive)
REMARK    1  A    between atoms: C_1  and  C_2 
REMARK    2  A    between atoms: C_6  and  O_9 
REMARK    3  A    between atoms: C_7  and  O_8 
REMARK    4  A    between atoms: C_13  and  O_20 
REMARK    5  A    between atoms: C_15  and  O_19 
ROOT
ATOM      1  C   LIG d   1      11.220   9.720   0.948  0.00  0.00     0.009 A 
ATOM      2  C   LIG d   1      10.821   8.879  -0.094  0.00  0.00     0.071 A 
ATOM      3  C   LIG d   1      10.144   9.400  -1.209  0.00  0.00     0.143 A 
ATOM      4  C   LIG d   1       9.876  10.762  -1.264  0.00  0.00     0.026 A 
ATOM      5  C   LIG d   1      10.273  11.590  -0.229  0.00  0.00     0.162 A 
ATOM      6  C   LIG d   1      10.947  11.070   0.878  0.00  0.00     0.162 A 
ATOM      7  O   LIG d   1       9.756   8.597  -2.223  0.00  0.00    -0.454 OA
ATOM      8  C   LIG d   1       9.978   7.266  -2.246  0.00  0.00     0.146 A 
ATOM      9  C   LIG d   1       9.544   6.512  -3.327  0.00  0.00     0.023 A 
ATOM     10  C   LIG d   1       9.770   5.145  -3.360  0.00  0.00     0.124 A 
ATOM     11  C   LIG d   1      10.431   4.510  -2.314  0.00  0.00     0.022 A 
ATOM     12  C   LIG d   1      10.867   5.241  -1.225  0.00  0.00     0.135 A 
ATOM     13  C   LIG d   1      10.646   6.625  -1.189  0.00  0.00     0.106 A 
ATOM     14  C   LIG d   1      11.104   7.431  -0.045  0.00  0.00     0.204 A 
ATOM     15  O   LIG d   1      11.688   6.927   0.898  0.00  0.00    -0.286 OA
ATOM     16  H   LIG d   1       9.357  11.174  -2.116  0.00  0.00     0.069 H 
ATOM     17  H   LIG d   1       9.029   6.993  -4.146  0.00  0.00     0.069 H 
ATOM     18  H   LIG d   1      10.600   3.443  -2.351  0.00  0.00     0.069 H 
ENDROOT
BRANCH   1  19
ATOM     19  C   LIG d   1      11.946   9.155   2.140  0.00  0.00    -0.035 C 
ATOM     20  H   LIG d   1      12.961   8.882   1.853  0.00  0.00     0.028 H 
ATOM     21  H   LIG d   1      11.982   9.903   2.932  0.00  0.00     0.028 H 
ATOM     22  H   LIG d   1      11.420   8.271   2.501  0.00  0.00     0.028 H 
ENDBRANCH   1  19
BRANCH   6  23
ATOM     23  O   LIG d   1      11.332  11.895   1.889  0.00  0.00    -0.503 OA
ATOM     24  H   LIG d   1      11.868  11.461   2.568  0.00  0.00     0.292 HD
ENDBRANCH   6  23
BRANCH   5  25
ATOM     25  O   LIG d   1      10.005  12.920  -0.292  0.00  0.00    -0.503 OA
ATOM     26  H   LIG d   1       9.779  13.317   0.559  0.00  0.00     0.292 HD
ENDBRANCH   5  25
BRANCH  12  27
ATOM     27  O   LIG d   1      11.508   4.625  -0.201  0.00  0.00    -0.506 OA
ATOM     28  H   LIG d   1      11.065   3.828   0.118  0.00  0.00     0.292 HD
ENDBRANCH  12  27
BRANCH  10  29
ATOM     29  O   LIG d   1       9.340   4.419  -4.423  0.00  0.00    -0.506 OA
ATOM     30  H   LIG d   1       8.498   3.966  -4.276  0.00  0.00     0.292 HD
ENDBRANCH  10  29
TORSDOF 5
ENDMDL
MODEL 5
REMARK VINA RESULT:      -5.7      1.277      6.385
REMARK  5 active torsions:
REMARK  status: ('A' for Active; 'I' for Inactive)
REMARK    1  A    between atoms: C_1  and  C_2 
REMARK    2  A    between atoms: C_6  and  O_9 
REMARK    3  A    between atoms: C_7  and  O_8 
REMARK    4  A    between atoms: C_13  and  O_20 
REMARK    5  A    between atoms: C_15  and  O_19 
ROOT
ATOM      1  C   LIG d   1       7.029  -4.536  -5.457  0.00  0.00     0.009 A 
ATOM      2  C   LIG d   1       6.246  -3.558  -4.837  0.00  0.00     0.071 A 
ATOM      3  C   LIG d   1       4.875  -3.774  -4.625  0.00  0.00     0.143 A 
ATOM      4  C   LIG d   1       4.305  -4.972  -5.038  0.00  0.00     0.026 A 
ATOM      5  C   LIG d   1       5.085  -5.937  -5.652  0.00  0.00     0.162 A 
ATOM      6  C   LIG d   1       6.449  -5.720  -5.861  0.00  0.00     0.162 A 
ATOM      7  O   LIG d   1       4.109  -2.837  -4.026  0.00  0.00    -0.454 OA
ATOM      8  C   LIG d   1       4.584  -1.650  -3.596  0.00  0.00     0.146 A 
ATOM      9  C   LIG d   1       3.728  -0.741  -2.991  0.00  0.00     0.023 A 
ATOM     10  C   LIG d   1       4.209   0.481  -2.545  0.00  0.00     0.124 A 
ATOM     11  C   LIG d   1       5.550   0.813  -2.697  0.00  0.00     0.022 A 
ATOM     12  C   LIG d   1       6.420  -0.075  -3.302  0.00  0.00     0.135 A 
ATOM     13  C   LIG d   1       5.940  -1.314  -3.751  0.00  0.00     0.106 A 
ATOM     14  C   LIG d   1       6.843  -2.283  -4.394  0.00  0.00     0.204 A 
ATOM     15  O   LIG d   1       8.027  -2.044  -4.553  0.00  0.00    -0.286 OA
ATOM     16  H   LIG d   1       3.252  -5.150  -4.880  0.00  0.00     0.069 H 
ATOM     17  H   LIG d   1       2.684  -0.986  -2.866  0.00  0.00     0.069 H 
ATOM     18  H   LIG d   1       5.913   1.769  -2.346  0.00  0.00     0.069 H 
ENDROOT
BRANCH   1  19
ATOM     19  C   LIG d   1       8.499  -4.297  -5.681  0.00  0.00    -0.035 C 
ATOM     20  H   LIG d   1       8.744  -3.267  -5.422  0.00  0.00     0.028 H 
ATOM     21  H   LIG d   1       9.077  -4.976  -5.054  0.00  0.00     0.028 H 
ATOM     22  H   LIG d   1       8.741  -4.477  -6.728  0.00  0.00     0.028 H 
ENDBRANCH   1  19
BRANCH   6  23
ATOM     23  O   LIG d   1       7.205  -6.677  -6.464  0.00  0.00    -0.503 OA
ATOM     24  H   LIG d   1       7.381  -7.447  -5.907  0.00  0.00     0.292 HD
ENDBRANCH   6  23
BRANCH   5  25
ATOM     25  O   LIG d   1       4.519  -7.105  -6.052  0.00  0.00    -0.503 OA
ATOM     26  H   LIG d   1       5.036  -7.587  -6.710  0.00  0.00     0.292 HD
ENDBRANCH   5  25
BRANCH  12  27
ATOM     27  O   LIG d   1       7.728   0.247  -3.457  0.00  0.00    -0.506 OA
ATOM     28  H   LIG d   1       7.940   0.628  -4.319  0.00  0.00     0.292 HD
ENDBRANCH  12  27
BRANCH  10  29
ATOM     29  O   LIG d   1       3.361   1.361  -1.955  0.00  0.00    -0.506 OA
ATOM     30  H   LIG d   1       2.456   1.033  -1.860  0.00  0.00     0.292 HD
ENDBRANCH  10  29
TORSDOF 5
ENDMDL
MODEL 6
REMARK VINA RESULT:      -5.6      8.501     11.123
REMARK  5 active torsions:
REMARK  status: ('A' for Active; 'I' for Inactive)
REMARK    1  A    between atoms: C_1  and  C_2 
REMARK    2  A    between atoms: C_6  and  O_9 
REMARK    3  A    between atoms: C_7  and  O_8 
REMARK    4  A    between atoms: C_13  and  O_20 
REMARK    5  A    between atoms: C_15  and  O_19 
ROOT
ATOM      1  C   LIG d   1       9.583   7.333  -7.740  0.00  0.00     0.009 A 
ATOM      2  C   LIG d   1       9.730   7.169  -6.360  0.00  0.00     0.071 A 
ATOM      3  C   LIG d   1       9.787   8.288  -5.514  0.00  0.00     0.143 A 
ATOM      4  C   LIG d   1       9.695   9.560  -6.065  0.00  0.00     0.026 A 
ATOM      5  C   LIG d   1       9.549   9.716  -7.432  0.00  0.00     0.162 A 
ATOM      6  C   LIG d   1       9.493   8.601  -8.271  0.00  0.00     0.162 A 
ATOM      7  O   LIG d   1       9.926   8.143  -4.179  0.00  0.00    -0.454 OA
ATOM      8  C   LIG d   1      10.023   6.944  -3.566  0.00  0.00     0.146 A 
ATOM      9  C   LIG d   1      10.167   6.882  -2.187  0.00  0.00     0.023 A 
ATOM     10  C   LIG d   1      10.265   5.655  -1.550  0.00  0.00     0.124 A 
ATOM     11  C   LIG d   1      10.222   4.472  -2.279  0.00  0.00     0.022 A 
ATOM     12  C   LIG d   1      10.085   4.510  -3.655  0.00  0.00     0.135 A 
ATOM     13  C   LIG d   1       9.980   5.749  -4.304  0.00  0.00     0.106 A 
ATOM     14  C   LIG d   1       9.827   5.821  -5.767  0.00  0.00     0.204 A 
ATOM     15  O   LIG d   1       9.784   4.816  -6.455  0.00  0.00    -0.286 OA
ATOM     16  H   LIG d   1       9.735  10.429  -5.424  0.00  0.00     0.069 H 
ATOM     17  H   LIG d   1      10.201   7.793  -1.609  0.00  0.00     0.069 H 
ATOM     18  H   LIG d   1      10.300   3.521  -1.771  0.00  0.00     0.069 H 
ENDROOT
BRANCH   1  19
ATOM     19  C   LIG d   1       9.523   6.128  -8.642  0.00  0.00    -0.035 C 
ATOM     20  H   LIG d   1      10.535   5.813  -8.897  0.00  0.00     0.028 H 
ATOM     21  H   LIG d   1       9.009   5.315  -8.129  0.00  0.00     0.028 H 
ATOM     22  H   LIG d   1       8.981   6.382  -9.553  0.00  0.00     0.028 H 
ENDBRANCH   1  19
BRANCH   6  23
ATOM     23  O   LIG d   1       9.349   8.768  -9.615  0.00  0.00    -0.503 OA
ATOM     24  H   LIG d   1       9.989   9.378 -10.005  0.00  0.00     0.292 HD
ENDBRANCH   6  23
BRANCH   5  25
ATOM     25  O   LIG d   1       9.460  10.964  -7.960  0.00  0.00    -0.503 OA
ATOM     26  H   LIG d   1       9.803  11.035  -8.861  0.00  0.00     0.292 HD
ENDBRANCH   5  25
BRANCH  12  27
ATOM     27  O   LIG d   1      10.047   3.359  -4.370  0.00  0.00    -0.506 OA
ATOM     28  H   LIG d   1       9.785   3.477  -5.293  0.00  0.00     0.292 HD
ENDBRANCH  12  27
BRANCH  10  29
ATOM     29  O   LIG d   1      10.405   5.608  -0.202  0.00  0.00    -0.506 OA
ATOM     30  H   LIG d   1      10.974   6.301   0.160  0.00  0.00     0.292 HD
ENDBRANCH  10  29
TORSDOF 5
ENDMDL
MODEL 7
REMARK VINA RESULT:      -5.6      8.654     11.248
REMARK  5 active torsions:
REMARK  status: ('A' for Active; 'I' for Inactive)
REMARK    1  A    between atoms: C_1  and  C_2 
REMARK    2  A    between atoms: C_6  and  O_9 
REMARK    3  A    between atoms: C_7  and  O_8 
REMARK    4  A    between atoms: C_13  and  O_20 
REMARK    5  A    between atoms: C_15  and  O_19 
ROOT
ATOM      1  C   LIG d   1      10.405   6.513  -2.104  0.00  0.00     0.009 A 
ATOM      2  C   LIG d   1      10.203   6.698  -3.474  0.00  0.00     0.071 A 
ATOM      3  C   LIG d   1      10.214   5.600  -4.349  0.00  0.00     0.143 A 
ATOM      4  C   LIG d   1      10.429   4.327  -3.835  0.00  0.00     0.026 A 
ATOM      5  C   LIG d   1      10.628   4.149  -2.478  0.00  0.00     0.162 A 
ATOM      6  C   LIG d   1      10.615   5.244  -1.610  0.00  0.00     0.162 A 
ATOM      7  O   LIG d   1      10.019   5.766  -5.674  0.00  0.00    -0.454 OA
ATOM      8  C   LIG d   1       9.805   6.967  -6.251  0.00  0.00     0.146 A 
ATOM      9  C   LIG d   1       9.614   7.051  -7.623  0.00  0.00     0.023 A 
ATOM     10  C   LIG d   1       9.391   8.281  -8.223  0.00  0.00     0.124 A 
ATOM     11  C   LIG d   1       9.357   9.445  -7.463  0.00  0.00     0.022 A 
ATOM     12  C   LIG d   1       9.550   9.385  -6.095  0.00  0.00     0.135 A 
ATOM     13  C   LIG d   1       9.770   8.143  -5.482  0.00  0.00     0.106 A 
ATOM     14  C   LIG d   1       9.973   8.047  -4.027  0.00  0.00     0.204 A 
ATOM     15  O   LIG d   1       9.954   9.035  -3.313  0.00  0.00    -0.286 OA
ATOM     16  H   LIG d   1      10.438   3.474  -4.498  0.00  0.00     0.069 H 
ATOM     17  H   LIG d   1       9.638   6.154  -8.225  0.00  0.00     0.069 H 
ATOM     18  H   LIG d   1       9.183  10.397  -7.942  0.00  0.00     0.069 H 
ENDROOT
BRANCH   1  19
ATOM     19  C   LIG d   1      10.391   7.696  -1.171  0.00  0.00    -0.035 C 
ATOM     20  H   LIG d   1      11.415   8.007  -0.962  0.00  0.00     0.028 H 
ATOM     21  H   LIG d   1       9.850   8.520  -1.637  0.00  0.00     0.028 H 
ATOM     22  H   LIG d   1       9.898   7.420  -0.239  0.00  0.00     0.028 H 
ENDBRANCH   1  19
BRANCH   6  23
ATOM     23  O   LIG d   1      10.812   5.056  -0.276  0.00  0.00    -0.503 OA
ATOM     24  H   LIG d   1      11.120   4.170  -0.045  0.00  0.00     0.292 HD
ENDBRANCH   6  23
BRANCH   5  25
ATOM     25  O   LIG d   1      10.836   2.900  -1.986  0.00  0.00    -0.503 OA
ATOM     26  H   LIG d   1      10.736   2.834  -1.027  0.00  0.00     0.292 HD
ENDBRANCH   5  25
BRANCH  12  27
ATOM     27  O   LIG d   1       9.522  10.518  -5.351  0.00  0.00    -0.506 OA
ATOM     28  H   LIG d   1       9.415  11.326  -5.869  0.00  0.00     0.292 HD
ENDBRANCH  12  27
BRANCH  10  29
ATOM     29  O   LIG d   1       9.206   8.349  -9.565  0.00  0.00    -0.506 OA
ATOM     30  H   LIG d   1       8.959   9.227  -9.885  0.00  0.00     0.292 HD
ENDBRANCH  10  29
TORSDOF 5
ENDMDL
MODEL 8
REMARK VINA RESULT:      -5.5      8.596     11.365
REMARK  5 active torsions:
REMARK  status: ('A' for Active; 'I' for Inactive)
REMARK    1  A    between atoms: C_1  and  C_2 
REMARK    2  A    between atoms: C_6  and  O_9 
REMARK    3  A    between atoms: C_7  and  O_8 
REMARK    4  A    between atoms: C_13  and  O_20 
REMARK    5  A    between atoms: C_15  and  O_19 
ROOT
ATOM      1  C   LIG d   1       9.652   9.487  -5.901  0.00  0.00     0.009 A 
ATOM      2  C   LIG d   1       9.837   8.220  -5.341  0.00  0.00     0.071 A 
ATOM      3  C   LIG d   1       9.830   7.075  -6.153  0.00  0.00     0.143 A 
ATOM      4  C   LIG d   1       9.636   7.217  -7.522  0.00  0.00     0.026 A 
ATOM      5  C   LIG d   1       9.452   8.473  -8.072  0.00  0.00     0.162 A 
ATOM      6  C   LIG d   1       9.461   9.611  -7.261  0.00  0.00     0.162 A 
ATOM      7  O   LIG d   1      10.010   5.847  -5.624  0.00  0.00    -0.454 OA
ATOM      8  C   LIG d   1      10.203   5.624  -4.307  0.00  0.00     0.146 A 
ATOM      9  C   LIG d   1      10.379   4.328  -3.843  0.00  0.00     0.023 A 
ATOM     10  C   LIG d   1      10.581   4.091  -2.492  0.00  0.00     0.124 A 
ATOM     11  C   LIG d   1      10.610   5.144  -1.584  0.00  0.00     0.022 A 
ATOM     12  C   LIG d   1      10.431   6.443  -2.024  0.00  0.00     0.135 A 
ATOM     13  C   LIG d   1      10.232   6.688  -3.390  0.00  0.00     0.106 A 
ATOM     14  C   LIG d   1      10.045   8.061  -3.888  0.00  0.00     0.204 A 
ATOM     15  O   LIG d   1      10.060   9.021  -3.137  0.00  0.00    -0.286 OA
ATOM     16  H   LIG d   1       9.630   6.344  -8.158  0.00  0.00     0.069 H 
ATOM     17  H   LIG d   1      10.360   3.501  -4.538  0.00  0.00     0.069 H 
ATOM     18  H   LIG d   1      10.767   4.946  -0.534  0.00  0.00     0.069 H 
ENDROOT
BRANCH   1  19
ATOM     19  C   LIG d   1       9.661  10.711  -5.023  0.00  0.00    -0.035 C 
ATOM     20  H   LIG d   1       9.940  11.582  -5.616  0.00  0.00     0.028 H 
ATOM     21  H   LIG d   1       8.667  10.863  -4.601  0.00  0.00     0.028 H 
ATOM     22  H   LIG d   1      10.380  10.574  -4.216  0.00  0.00     0.028 H 
ENDBRANCH   1  19
BRANCH   6  23
ATOM     23  O   LIG d   1       9.280  10.841  -7.813  0.00  0.00    -0.503 OA
ATOM     24  H   LIG d   1       9.554  10.900  -8.739  0.00  0.00     0.292 HD
ENDBRANCH   6  23
BRANCH   5  25
ATOM     25  O   LIG d   1       9.264   8.601  -9.411  0.00  0.00    -0.503 OA
ATOM     26  H   LIG d   1      10.069   8.489  -9.933  0.00  0.00     0.292 HD
ENDBRANCH   5  25
BRANCH  12  27
ATOM     27  O   LIG d   1      10.454   7.472  -1.141  0.00  0.00    -0.506 OA
ATOM     28  H   LIG d   1      10.236   7.217  -0.235  0.00  0.00     0.292 HD
ENDBRANCH  12  27
BRANCH  10  29
ATOM     29  O   LIG d   1      10.751   2.819  -2.052  0.00  0.00    -0.506 OA
ATOM     30  H   LIG d   1      10.061   2.516  -1.447  0.00  0.00     0.292 HD
ENDBRANCH  10  29
TORSDOF 5
ENDMDL
MODEL 9
REMARK VINA RESULT:      -5.4     10.468     12.632
REMARK  5 active torsions:
REMARK  status: ('A' for Active; 'I' for Inactive)
REMARK    1  A    between atoms: C_1  and  C_2 
REMARK    2  A    between atoms: C_6  and  O_9 
REMARK    3  A    between atoms: C_7  and  O_8 
REMARK    4  A    between atoms: C_13  and  O_20 
REMARK    5  A    between atoms: C_15  and  O_19 
ROOT
ATOM      1  C   LIG d   1       9.708   9.794  -5.674  0.00  0.00     0.009 A 
ATOM      2  C   LIG d   1       9.855   8.901  -4.610  0.00  0.00     0.071 A 
ATOM      3  C   LIG d   1       9.775   7.516  -4.828  0.00  0.00     0.143 A 
ATOM      4  C   LIG d   1       9.549   7.044  -6.115  0.00  0.00     0.026 A 
ATOM      5  C   LIG d   1       9.404   7.933  -7.165  0.00  0.00     0.162 A 
ATOM      6  C   LIG d   1       9.485   9.310  -6.946  0.00  0.00     0.162 A 
ATOM      7  O   LIG d   1       9.917   6.643  -3.808  0.00  0.00    -0.454 OA
ATOM      8  C   LIG d   1      10.139   7.019  -2.531  0.00  0.00     0.146 A 
ATOM      9  C   LIG d   1      10.272   6.056  -1.540  0.00  0.00     0.023 A 
ATOM     10  C   LIG d   1      10.502   6.434  -0.226  0.00  0.00     0.124 A 
ATOM     11  C   LIG d   1      10.602   7.778   0.118  0.00  0.00     0.022 A 
ATOM     12  C   LIG d   1      10.467   8.753  -0.853  0.00  0.00     0.135 A 
ATOM     13  C   LIG d   1      10.240   8.377  -2.184  0.00  0.00     0.106 A 
ATOM     14  C   LIG d   1      10.098   9.393  -3.240  0.00  0.00     0.204 A 
ATOM     15  O   LIG d   1      10.176  10.584  -2.994  0.00  0.00    -0.286 OA
ATOM     16  H   LIG d   1       9.486   5.981  -6.296  0.00  0.00     0.069 H 
ATOM     17  H   LIG d   1      10.197   5.010  -1.794  0.00  0.00     0.069 H 
ATOM     18  H   LIG d   1      10.781   8.060   1.146  0.00  0.00     0.069 H 
ENDROOT
BRANCH   1  19
ATOM     19  C   LIG d   1       9.796  11.278  -5.433  0.00  0.00    -0.035 C 
ATOM     20  H   LIG d   1      10.812  11.620  -5.628  0.00  0.00     0.028 H 
ATOM     21  H   LIG d   1       9.105  11.796  -6.098  0.00  0.00     0.028 H 
ATOM     22  H   LIG d   1       9.532  11.495  -4.398  0.00  0.00     0.028 H 
ENDBRANCH   1  19
BRANCH   6  23
ATOM     23  O   LIG d   1       9.341  10.175  -7.987  0.00  0.00    -0.503 OA
ATOM     24  H   LIG d   1       8.781  10.938  -7.790  0.00  0.00     0.292 HD
ENDBRANCH   6  23
BRANCH   5  25
ATOM     25  O   LIG d   1       9.182   7.462  -8.420  0.00  0.00    -0.503 OA
ATOM     26  H   LIG d   1       9.367   8.103  -9.119  0.00  0.00     0.292 HD
ENDBRANCH   5  25
BRANCH  12  27
ATOM     27  O   LIG d   1      10.560  10.065  -0.520  0.00  0.00    -0.506 OA
ATOM     28  H   LIG d   1      11.145  10.241   0.228  0.00  0.00     0.292 HD
ENDBRANCH  12  27
BRANCH  10  29
ATOM     29  O   LIG d   1      10.630   5.484   0.733  0.00  0.00    -0.506 OA
ATOM     30  H   LIG d   1      11.546   5.252   0.938  0.00  0.00     0.292 HD
ENDBRANCH  10  29
TORSDOF 5
ENDMDL
MODEL 10
REMARK VINA RESULT:      -5.3      9.455     12.977
REMARK  5 active torsions:
REMARK  status: ('A' for Active; 'I' for Inactive)
REMARK    1  A    between atoms: C_1  and  C_2 
REMARK    2  A    between atoms: C_6  and  O_9 
REMARK    3  A    between atoms: C_7  and  O_8 
REMARK    4  A    between atoms: C_13  and  O_20 
REMARK    5  A    between atoms: C_15  and  O_19 
ROOT
ATOM      1  C   LIG d   1      10.570   5.917  -2.721  0.00  0.00     0.009 A 
ATOM      2  C   LIG d   1      10.309   7.289  -2.725  0.00  0.00     0.071 A 
ATOM      3  C   LIG d   1      10.260   8.008  -1.519  0.00  0.00     0.143 A 
ATOM      4  C   LIG d   1      10.477   7.337  -0.322  0.00  0.00     0.026 A 
ATOM      5  C   LIG d   1      10.735   5.978  -0.323  0.00  0.00     0.162 A 
ATOM      6  C   LIG d   1      10.783   5.266  -1.524  0.00  0.00     0.162 A 
ATOM      7  O   LIG d   1      10.010   9.334  -1.510  0.00  0.00    -0.454 OA
ATOM      8  C   LIG d   1       9.789  10.058  -2.627  0.00  0.00     0.146 A 
ATOM      9  C   LIG d   1       9.538  11.419  -2.531  0.00  0.00     0.023 A 
ATOM     10  C   LIG d   1       9.312  12.170  -3.675  0.00  0.00     0.124 A 
ATOM     11  C   LIG d   1       9.334  11.574  -4.931  0.00  0.00     0.022 A 
ATOM     12  C   LIG d   1       9.577  10.218  -5.049  0.00  0.00     0.135 A 
ATOM     13  C   LIG d   1       9.811   9.455  -3.897  0.00  0.00     0.106 A 
ATOM     14  C   LIG d   1      10.079   8.010  -3.992  0.00  0.00     0.204 A 
ATOM     15  O   LIG d   1      10.109   7.436  -5.067  0.00  0.00    -0.286 OA
ATOM     16  H   LIG d   1      10.444   7.878   0.612  0.00  0.00     0.069 H 
ATOM     17  H   LIG d   1       9.518  11.895  -1.562  0.00  0.00     0.069 H 
ATOM     18  H   LIG d   1       9.156  12.170  -5.814  0.00  0.00     0.069 H 
ENDROOT
BRANCH   1  19
ATOM     19  C   LIG d   1      10.621   5.153  -4.018  0.00  0.00    -0.035 C 
ATOM     20  H   LIG d   1      10.716   4.087  -3.810  0.00  0.00     0.028 H 
ATOM     21  H   LIG d   1       9.704   5.332  -4.581  0.00  0.00     0.028 H 
ATOM     22  H   LIG d   1      11.477   5.487  -4.604  0.00  0.00     0.028 H 
ENDBRANCH   1  19
BRANCH   6  23
ATOM     23  O   LIG d   1      11.040   3.929  -1.513  0.00  0.00    -0.503 OA
ATOM     24  H   LIG d   1      11.516   3.627  -0.728  0.00  0.00     0.292 HD
ENDBRANCH   6  23
BRANCH   5  25
ATOM     25  O   LIG d   1      10.945   5.331   0.853  0.00  0.00    -0.503 OA
ATOM     26  H   LIG d   1      10.760   5.868   1.635  0.00  0.00     0.292 HD
ENDBRANCH   5  25
BRANCH  12  27
ATOM     27  O   LIG d   1       9.595   9.631  -6.272  0.00  0.00    -0.506 OA
ATOM     28  H   LIG d   1      10.323   9.921  -6.837  0.00  0.00     0.292 HD
ENDBRANCH  12  27
BRANCH  10  29
ATOM     29  O   LIG d   1       9.067  13.500  -3.566  0.00  0.00    -0.506 OA
ATOM     30  H   LIG d   1       9.398  13.897  -2.749  0.00  0.00     0.292 HD
ENDBRANCH  10  29
TORSDOF 5
ENDMDL
