MODEL 1
REMARK VINA RESULT:      -6.7      0.000      0.000
REMARK  2 active torsions:
REMARK  status: ('A' for Active; 'I' for Inactive)
REMARK    1  A    between atoms: C_1  and  C_2 
REMARK    2  A    between atoms: C_10  and  C_11 
ROOT
ATOM      1  C   LIG d   1       6.602   0.510  -8.245  0.00  0.00    -0.015 A 
ATOM      2  C   LIG d   1       6.853   0.501  -9.607  0.00  0.00    -0.102 A 
ATOM      3  C   LIG d   1       5.824   0.272 -10.516  0.00  0.00    -0.068 A 
ATOM      4  C   LIG d   1       4.550   0.055 -10.069  0.00  0.00    -0.048 A 
ATOM      5  C   LIG d   1       4.283   0.062  -8.700  0.00  0.00     0.068 A 
ATOM      6  C   LIG d   1       5.314   0.291  -7.774  0.00  0.00     0.142 A 
ATOM      7  O   LIG d   1       4.816   0.252  -6.518  0.00  0.00    -0.451 OA
ATOM      8  C   LIG d   1       3.485   0.006  -6.512  0.00  0.00     0.176 A 
ATOM      9  C   LIG d   1       2.694  -0.094  -5.415  0.00  0.00    -0.008 C 
ATOM     10  C   LIG d   1       3.052  -0.131  -7.912  0.00  0.00     0.232 A 
ATOM     11  O   LIG d   1       1.928  -0.356  -8.327  0.00  0.00    -0.283 OA
ATOM     12  O   LIG d   1       8.115   0.716 -10.061  0.00  0.00    -0.873 OA
ATOM     13  H   LIG d   1       6.031   0.266 -11.576  0.00  0.00     0.061 H 
ATOM     14  H   LIG d   1       3.753  -0.126 -10.775  0.00  0.00     0.063 H 
ATOM     15  H   LIG d   1       1.606  -0.211  -5.530  0.00  0.00     0.066 H 
ENDROOT
BRANCH   9  16
ATOM     16  C   LIG d   1       3.290  -0.047  -4.072  0.00  0.00    -0.021 A 
ATOM     17  C   LIG d   1       3.687  -1.229  -3.436  0.00  0.00    -0.054 A 
ATOM     18  C   LIG d   1       4.244  -1.176  -2.177  0.00  0.00    -0.061 A 
ATOM     19  H   LIG d   1       3.555  -2.180  -3.931  0.00  0.00     0.062 H 
ATOM     20  C   LIG d   1       4.414   0.042  -1.541  0.00  0.00    -0.062 A 
ATOM     21  H   LIG d   1       4.551  -2.087  -1.684  0.00  0.00     0.062 H 
ATOM     22  C   LIG d   1       4.023   1.216  -2.163  0.00  0.00    -0.061 A 
ATOM     23  H   LIG d   1       4.850   0.077  -0.554  0.00  0.00     0.062 H 
ATOM     24  C   LIG d   1       3.469   1.181  -3.425  0.00  0.00    -0.054 A 
ATOM     25  H   LIG d   1       4.158   2.162  -1.659  0.00  0.00     0.062 H 
ATOM     26  H   LIG d   1       3.171   2.098  -3.911  0.00  0.00     0.062 H 
ENDBRANCH   9  16
BRANCH   1  27
ATOM     27  C   LIG d   1       7.727   0.757  -7.273  0.00  0.00    -0.037 C 
ATOM     28  H   LIG d   1       8.663   0.919  -7.828  0.00  0.00     0.028 H 
ATOM     29  H   LIG d   1       7.839  -0.114  -6.612  0.00  0.00     0.028 H 
ATOM     30  H   LIG d   1       7.501   1.649  -6.670  0.00  0.00     0.028 H 
ENDBRANCH   1  27
TORSDOF 2
ENDMDL
MODEL 2
REMARK VINA RESULT:      -6.3      1.478      3.155
REMARK  2 active torsions:
REMARK  status: ('A' for Active; 'I' for Inactive)
REMARK    1  A    between atoms: C_1  and  C_2 
REMARK    2  A    between atoms: C_10  and  C_11 
ROOT
ATOM      1  C   LIG d   1       3.865   0.081  -8.630  0.00  0.00    -0.015 A 
ATOM      2  C   LIG d   1       3.965   0.266  -9.999  0.00  0.00    -0.102 A 
ATOM      3  C   LIG d   1       5.200   0.507 -10.593  0.00  0.00    -0.068 A 
ATOM      4  C   LIG d   1       6.331   0.563  -9.827  0.00  0.00    -0.048 A 
ATOM      5  C   LIG d   1       6.246   0.377  -8.447  0.00  0.00     0.068 A 
ATOM      6  C   LIG d   1       5.004   0.134  -7.836  0.00  0.00     0.142 A 
ATOM      7  O   LIG d   1       5.173  -0.011  -6.504  0.00  0.00    -0.451 OA
ATOM      8  C   LIG d   1       6.471   0.118  -6.143  0.00  0.00     0.176 A 
ATOM      9  C   LIG d   1       6.966   0.025  -4.884  0.00  0.00    -0.008 C 
ATOM     10  C   LIG d   1       7.248   0.375  -7.366  0.00  0.00     0.232 A 
ATOM     11  O   LIG d   1       8.451   0.548  -7.464  0.00  0.00    -0.283 OA
ATOM     12  O   LIG d   1       2.848   0.212 -10.769  0.00  0.00    -0.873 OA
ATOM     13  H   LIG d   1       5.266   0.651 -11.662  0.00  0.00     0.061 H 
ATOM     14  H   LIG d   1       7.289   0.753 -10.289  0.00  0.00     0.063 H 
ATOM     15  H   LIG d   1       8.052   0.061  -4.716  0.00  0.00     0.066 H 
ENDROOT
BRANCH   9  16
ATOM     16  C   LIG d   1       6.050  -0.122  -3.744  0.00  0.00    -0.021 A 
ATOM     17  C   LIG d   1       5.592  -1.391  -3.369  0.00  0.00    -0.054 A 
ATOM     18  C   LIG d   1       4.733  -1.520  -2.298  0.00  0.00    -0.061 A 
ATOM     19  H   LIG d   1       5.911  -2.265  -3.916  0.00  0.00     0.062 H 
ATOM     20  C   LIG d   1       4.324  -0.401  -1.595  0.00  0.00    -0.062 A 
ATOM     21  H   LIG d   1       4.379  -2.498  -2.007  0.00  0.00     0.062 H 
ATOM     22  C   LIG d   1       4.771   0.858  -1.960  0.00  0.00    -0.061 A 
ATOM     23  H   LIG d   1       3.650  -0.509  -0.758  0.00  0.00     0.062 H 
ATOM     24  C   LIG d   1       5.635   1.004  -3.025  0.00  0.00    -0.054 A 
ATOM     25  H   LIG d   1       4.445   1.727  -1.407  0.00  0.00     0.062 H 
ATOM     26  H   LIG d   1       5.987   1.985  -3.305  0.00  0.00     0.062 H 
ENDBRANCH   9  16
BRANCH   1  27
ATOM     27  C   LIG d   1       2.520  -0.177  -8.000  0.00  0.00    -0.037 C 
ATOM     28  H   LIG d   1       2.340   0.562  -7.206  0.00  0.00     0.028 H 
ATOM     29  H   LIG d   1       2.506  -1.189  -7.569  0.00  0.00     0.028 H 
ATOM     30  H   LIG d   1       1.735  -0.092  -8.765  0.00  0.00     0.028 H 
ENDBRANCH   1  27
TORSDOF 2
ENDMDL
MODEL 3
REMARK VINA RESULT:      -6.3      2.372      4.170
REMARK  2 active torsions:
REMARK  status: ('A' for Active; 'I' for Inactive)
REMARK    1  A    between atoms: C_1  and  C_2 
REMARK    2  A    between atoms: C_10  and  C_11 
ROOT
ATOM      1  C   LIG d   1       7.403   1.458  -7.673  0.00  0.00    -0.015 A 
ATOM      2  C   LIG d   1       8.339   2.109  -8.461  0.00  0.00    -0.102 A 
ATOM      3  C   LIG d   1       9.443   2.729  -7.883  0.00  0.00    -0.068 A 
ATOM      4  C   LIG d   1       9.614   2.701  -6.527  0.00  0.00    -0.048 A 
ATOM      5  C   LIG d   1       8.679   2.050  -5.721  0.00  0.00     0.068 A 
ATOM      6  C   LIG d   1       7.561   1.421  -6.293  0.00  0.00     0.142 A 
ATOM      7  O   LIG d   1       6.806   0.863  -5.322  0.00  0.00    -0.451 OA
ATOM      8  C   LIG d   1       7.335   1.067  -4.093  0.00  0.00     0.176 A 
ATOM      9  C   LIG d   1       6.818   0.633  -2.917  0.00  0.00    -0.008 C 
ATOM     10  C   LIG d   1       8.574   1.842  -4.266  0.00  0.00     0.232 A 
ATOM     11  O   LIG d   1       9.341   2.226  -3.400  0.00  0.00    -0.283 OA
ATOM     12  O   LIG d   1       8.178   2.141  -9.808  0.00  0.00    -0.873 OA
ATOM     13  H   LIG d   1      10.166   3.234  -8.506  0.00  0.00     0.061 H 
ATOM     14  H   LIG d   1      10.469   3.186  -6.080  0.00  0.00     0.063 H 
ATOM     15  H   LIG d   1       7.378   0.783  -1.981  0.00  0.00     0.066 H 
ENDROOT
BRANCH   9  16
ATOM     16  C   LIG d   1       5.509  -0.034  -2.890  0.00  0.00    -0.021 A 
ATOM     17  C   LIG d   1       5.429  -1.431  -2.949  0.00  0.00    -0.054 A 
ATOM     18  C   LIG d   1       4.198  -2.048  -2.925  0.00  0.00    -0.061 A 
ATOM     19  H   LIG d   1       6.331  -2.022  -3.014  0.00  0.00     0.062 H 
ATOM     20  C   LIG d   1       3.041  -1.292  -2.842  0.00  0.00    -0.062 A 
ATOM     21  H   LIG d   1       4.134  -3.126  -2.970  0.00  0.00     0.062 H 
ATOM     22  C   LIG d   1       3.111   0.089  -2.784  0.00  0.00    -0.061 A 
ATOM     23  H   LIG d   1       2.079  -1.783  -2.824  0.00  0.00     0.062 H 
ATOM     24  C   LIG d   1       4.335   0.723  -2.802  0.00  0.00    -0.054 A 
ATOM     25  H   LIG d   1       2.203   0.672  -2.721  0.00  0.00     0.062 H 
ATOM     26  H   LIG d   1       4.388   1.800  -2.751  0.00  0.00     0.062 H 
ENDBRANCH   9  16
BRANCH   1  27
ATOM     27  C   LIG d   1       6.212   0.792  -8.312  0.00  0.00    -0.037 C 
ATOM     28  H   LIG d   1       6.419   0.615  -9.378  0.00  0.00     0.028 H 
ATOM     29  H   LIG d   1       5.331   1.443  -8.213  0.00  0.00     0.028 H 
ATOM     30  H   LIG d   1       6.017  -0.168  -7.813  0.00  0.00     0.028 H 
ENDBRANCH   1  27
TORSDOF 2
ENDMDL
MODEL 4
REMARK VINA RESULT:      -6.3      2.374      5.595
REMARK  2 active torsions:
REMARK  status: ('A' for Active; 'I' for Inactive)
REMARK    1  A    between atoms: C_1  and  C_2 
REMARK    2  A    between atoms: C_10  and  C_11 
ROOT
ATOM      1  C   LIG d   1       6.702  -1.682  -5.305  0.00  0.00    -0.015 A 
ATOM      2  C   LIG d   1       7.155  -2.156  -4.084  0.00  0.00    -0.102 A 
ATOM      3  C   LIG d   1       6.357  -2.059  -2.947  0.00  0.00    -0.068 A 
ATOM      4  C   LIG d   1       5.115  -1.494  -3.026  0.00  0.00    -0.048 A 
ATOM      5  C   LIG d   1       4.646  -1.013  -4.249  0.00  0.00     0.068 A 
ATOM      6  C   LIG d   1       5.443  -1.105  -5.403  0.00  0.00     0.142 A 
ATOM      7  O   LIG d   1       4.781  -0.578  -6.456  0.00  0.00    -0.451 OA
ATOM      8  C   LIG d   1       3.558  -0.118  -6.104  0.00  0.00     0.176 A 
ATOM      9  C   LIG d   1       2.652   0.464  -6.928  0.00  0.00    -0.008 C 
ATOM     10  C   LIG d   1       3.388  -0.367  -4.663  0.00  0.00     0.232 A 
ATOM     11  O   LIG d   1       2.423  -0.099  -3.968  0.00  0.00    -0.283 OA
ATOM     12  O   LIG d   1       8.387  -2.719  -3.995  0.00  0.00    -0.873 OA
ATOM     13  H   LIG d   1       6.721  -2.430  -2.000  0.00  0.00     0.061 H 
ATOM     14  H   LIG d   1       4.499  -1.416  -2.142  0.00  0.00     0.063 H 
ATOM     15  H   LIG d   1       1.652   0.723  -6.552  0.00  0.00     0.066 H 
ENDROOT
BRANCH   9  16
ATOM     16  C   LIG d   1       3.009   0.751  -8.326  0.00  0.00    -0.021 A 
ATOM     17  C   LIG d   1       2.850  -0.234  -9.308  0.00  0.00    -0.054 A 
ATOM     18  C   LIG d   1       3.187   0.044 -10.616  0.00  0.00    -0.061 A 
ATOM     19  H   LIG d   1       2.465  -1.206  -9.043  0.00  0.00     0.062 H 
ATOM     20  C   LIG d   1       3.680   1.290 -10.958  0.00  0.00    -0.062 A 
ATOM     21  H   LIG d   1       3.065  -0.714 -11.376  0.00  0.00     0.062 H 
ATOM     22  C   LIG d   1       3.842   2.269  -9.992  0.00  0.00    -0.061 A 
ATOM     23  H   LIG d   1       3.944   1.501 -11.985  0.00  0.00     0.062 H 
ATOM     24  C   LIG d   1       3.504   2.010  -8.681  0.00  0.00    -0.054 A 
ATOM     25  H   LIG d   1       4.229   3.239 -10.268  0.00  0.00     0.062 H 
ATOM     26  H   LIG d   1       3.625   2.776  -7.929  0.00  0.00     0.062 H 
ENDBRANCH   9  16
BRANCH   1  27
ATOM     27  C   LIG d   1       7.578  -1.792  -6.527  0.00  0.00    -0.037 C 
ATOM     28  H   LIG d   1       7.532  -2.819  -6.919  0.00  0.00     0.028 H 
ATOM     29  H   LIG d   1       8.615  -1.547  -6.258  0.00  0.00     0.028 H 
ATOM     30  H   LIG d   1       7.222  -1.091  -7.296  0.00  0.00     0.028 H 
ENDBRANCH   1  27
TORSDOF 2
ENDMDL
MODEL 5
REMARK VINA RESULT:      -6.2      2.672      3.482
REMARK  2 active torsions:
REMARK  status: ('A' for Active; 'I' for Inactive)
REMARK    1  A    between atoms: C_1  and  C_2 
REMARK    2  A    between atoms: C_10  and  C_11 
ROOT
ATOM      1  C   LIG d   1       3.013  -2.634  -9.627  0.00  0.00    -0.015 A 
ATOM      2  C   LIG d   1       2.730  -2.540 -10.980  0.00  0.00    -0.102 A 
ATOM      3  C   LIG d   1       2.458  -1.305 -11.562  0.00  0.00    -0.068 A 
ATOM      4  C   LIG d   1       2.468  -0.170 -10.801  0.00  0.00    -0.048 A 
ATOM      5  C   LIG d   1       2.751  -0.250  -9.437  0.00  0.00     0.068 A 
ATOM      6  C   LIG d   1       3.027  -1.490  -8.838  0.00  0.00     0.142 A 
ATOM      7  O   LIG d   1       3.269  -1.316  -7.521  0.00  0.00    -0.451 OA
ATOM      8  C   LIG d   1       3.178  -0.014  -7.160  0.00  0.00     0.176 A 
ATOM      9  C   LIG d   1       3.366   0.486  -5.914  0.00  0.00    -0.008 C 
ATOM     10  C   LIG d   1       2.841   0.759  -8.366  0.00  0.00     0.232 A 
ATOM     11  O   LIG d   1       2.672   1.962  -8.458  0.00  0.00    -0.283 OA
ATOM     12  O   LIG d   1       2.718  -3.661 -11.744  0.00  0.00    -0.873 OA
ATOM     13  H   LIG d   1       2.238  -1.244 -12.618  0.00  0.00     0.061 H 
ATOM     14  H   LIG d   1       2.253   0.787 -11.254  0.00  0.00     0.063 H 
ATOM     15  H   LIG d   1       3.352   1.574  -5.750  0.00  0.00     0.066 H 
ENDROOT
BRANCH   9  16
ATOM     16  C   LIG d   1       3.588  -0.425  -4.781  0.00  0.00    -0.021 A 
ATOM     17  C   LIG d   1       2.723  -0.402  -3.681  0.00  0.00    -0.054 A 
ATOM     18  C   LIG d   1       2.938  -1.259  -2.623  0.00  0.00    -0.061 A 
ATOM     19  H   LIG d   1       1.890   0.285  -3.661  0.00  0.00     0.062 H 
ATOM     20  C   LIG d   1       4.005  -2.141  -2.647  0.00  0.00    -0.062 A 
ATOM     21  H   LIG d   1       2.272  -1.244  -1.773  0.00  0.00     0.062 H 
ATOM     22  C   LIG d   1       4.865  -2.169  -3.731  0.00  0.00    -0.061 A 
ATOM     23  H   LIG d   1       4.169  -2.809  -1.814  0.00  0.00     0.062 H 
ATOM     24  C   LIG d   1       4.661  -1.322  -4.800  0.00  0.00    -0.054 A 
ATOM     25  H   LIG d   1       5.697  -2.859  -3.742  0.00  0.00     0.062 H 
ATOM     26  H   LIG d   1       5.330  -1.349  -5.647  0.00  0.00     0.062 H 
ENDBRANCH   9  16
BRANCH   1  27
ATOM     27  C   LIG d   1       3.304  -3.977  -9.009  0.00  0.00    -0.037 C 
ATOM     28  H   LIG d   1       3.390  -3.868  -7.918  0.00  0.00     0.028 H 
ATOM     29  H   LIG d   1       4.247  -4.370  -9.414  0.00  0.00     0.028 H 
ATOM     30  H   LIG d   1       2.485  -4.673  -9.243  0.00  0.00     0.028 H 
ENDBRANCH   1  27
TORSDOF 2
ENDMDL
MODEL 6
REMARK VINA RESULT:      -6.0      2.561      3.260
REMARK  2 active torsions:
REMARK  status: ('A' for Active; 'I' for Inactive)
REMARK    1  A    between atoms: C_1  and  C_2 
REMARK    2  A    between atoms: C_10  and  C_11 
ROOT
ATOM      1  C   LIG d   1       3.271  -0.489  -8.763  0.00  0.00    -0.015 A 
ATOM      2  C   LIG d   1       3.126  -0.939 -10.065  0.00  0.00    -0.102 A 
ATOM      3  C   LIG d   1       3.526  -2.224 -10.420  0.00  0.00    -0.068 A 
ATOM      4  C   LIG d   1       4.067  -3.057  -9.481  0.00  0.00    -0.048 A 
ATOM      5  C   LIG d   1       4.219  -2.618  -8.165  0.00  0.00     0.068 A 
ATOM      6  C   LIG d   1       3.820  -1.323  -7.797  0.00  0.00     0.142 A 
ATOM      7  O   LIG d   1       4.063  -1.128  -6.482  0.00  0.00    -0.451 OA
ATOM      8  C   LIG d   1       4.615  -2.221  -5.905  0.00  0.00     0.176 A 
ATOM      9  C   LIG d   1       4.975  -2.344  -4.603  0.00  0.00    -0.008 C 
ATOM     10  C   LIG d   1       4.752  -3.252  -6.946  0.00  0.00     0.232 A 
ATOM     11  O   LIG d   1       5.204  -4.378  -6.827  0.00  0.00    -0.283 OA
ATOM     12  O   LIG d   1       2.589  -0.118 -11.004  0.00  0.00    -0.873 OA
ATOM     13  H   LIG d   1       3.409  -2.564 -11.438  0.00  0.00     0.061 H 
ATOM     14  H   LIG d   1       4.380  -4.053  -9.758  0.00  0.00     0.063 H 
ATOM     15  H   LIG d   1       5.336  -3.310  -4.221  0.00  0.00     0.066 H 
ENDROOT
BRANCH   9  16
ATOM     16  C   LIG d   1       4.883  -1.186  -3.703  0.00  0.00    -0.021 A 
ATOM     17  C   LIG d   1       3.764  -1.023  -2.877  0.00  0.00    -0.054 A 
ATOM     18  C   LIG d   1       3.686   0.066  -2.036  0.00  0.00    -0.061 A 
ATOM     19  H   LIG d   1       2.965  -1.749  -2.899  0.00  0.00     0.062 H 
ATOM     20  C   LIG d   1       4.710   0.997  -2.006  0.00  0.00    -0.062 A 
ATOM     21  H   LIG d   1       2.824   0.193  -1.398  0.00  0.00     0.062 H 
ATOM     22  C   LIG d   1       5.819   0.844  -2.820  0.00  0.00    -0.061 A 
ATOM     23  H   LIG d   1       4.642   1.849  -1.345  0.00  0.00     0.062 H 
ATOM     24  C   LIG d   1       5.916  -0.242  -3.663  0.00  0.00    -0.054 A 
ATOM     25  H   LIG d   1       6.613   1.577  -2.792  0.00  0.00     0.062 H 
ATOM     26  H   LIG d   1       6.784  -0.363  -4.293  0.00  0.00     0.062 H 
ENDBRANCH   9  16
BRANCH   1  27
ATOM     27  C   LIG d   1       2.835   0.906  -8.394  0.00  0.00    -0.037 C 
ATOM     28  H   LIG d   1       2.834   1.539  -9.293  0.00  0.00     0.028 H 
ATOM     29  H   LIG d   1       3.532   1.323  -7.652  0.00  0.00     0.028 H 
ATOM     30  H   LIG d   1       1.822   0.872  -7.968  0.00  0.00     0.028 H 
ENDBRANCH   1  27
TORSDOF 2
ENDMDL
MODEL 7
REMARK VINA RESULT:      -5.8      3.151      3.874
REMARK  2 active torsions:
REMARK  status: ('A' for Active; 'I' for Inactive)
REMARK    1  A    between atoms: C_1  and  C_2 
REMARK    2  A    between atoms: C_10  and  C_11 
ROOT
ATOM      1  C   LIG d   1       4.417  -2.235  -8.503  0.00  0.00    -0.015 A 
ATOM      2  C   LIG d   1       4.330  -3.058  -9.614  0.00  0.00    -0.102 A 
ATOM      3  C   LIG d   1       4.253  -4.440  -9.467  0.00  0.00    -0.068 A 
ATOM      4  C   LIG d   1       4.261  -4.999  -8.220  0.00  0.00    -0.048 A 
ATOM      5  C   LIG d   1       4.348  -4.182  -7.092  0.00  0.00     0.068 A 
ATOM      6  C   LIG d   1       4.427  -2.787  -7.228  0.00  0.00     0.142 A 
ATOM      7  O   LIG d   1       4.503  -2.213  -6.007  0.00  0.00    -0.451 OA
ATOM      8  C   LIG d   1       4.481  -3.135  -5.016  0.00  0.00     0.176 A 
ATOM      9  C   LIG d   1       4.540  -2.882  -3.685  0.00  0.00    -0.008 C 
ATOM     10  C   LIG d   1       4.379  -4.462  -5.645  0.00  0.00     0.232 A 
ATOM     11  O   LIG d   1       4.332  -5.548  -5.094  0.00  0.00    -0.283 OA
ATOM     12  O   LIG d   1       4.320  -2.512 -10.857  0.00  0.00    -0.873 OA
ATOM     13  H   LIG d   1       4.186  -5.072 -10.341  0.00  0.00     0.061 H 
ATOM     14  H   LIG d   1       4.205  -6.072  -8.108  0.00  0.00     0.063 H 
ATOM     15  H   LIG d   1       4.428  -3.705  -2.963  0.00  0.00     0.066 H 
ENDROOT
BRANCH   9  16
ATOM     16  C   LIG d   1       4.756  -1.509  -3.207  0.00  0.00    -0.021 A 
ATOM     17  C   LIG d   1       5.971  -0.860  -3.456  0.00  0.00    -0.054 A 
ATOM     18  C   LIG d   1       6.164   0.427  -3.003  0.00  0.00    -0.061 A 
ATOM     19  H   LIG d   1       6.753  -1.367  -4.000  0.00  0.00     0.062 H 
ATOM     20  C   LIG d   1       5.162   1.079  -2.306  0.00  0.00    -0.062 A 
ATOM     21  H   LIG d   1       7.101   0.930  -3.194  0.00  0.00     0.062 H 
ATOM     22  C   LIG d   1       3.958   0.443  -2.055  0.00  0.00    -0.061 A 
ATOM     23  H   LIG d   1       5.321   2.087  -1.953  0.00  0.00     0.062 H 
ATOM     24  C   LIG d   1       3.745  -0.842  -2.505  0.00  0.00    -0.054 A 
ATOM     25  H   LIG d   1       3.181   0.958  -1.508  0.00  0.00     0.062 H 
ATOM     26  H   LIG d   1       2.804  -1.334  -2.313  0.00  0.00     0.062 H 
ENDBRANCH   9  16
BRANCH   1  27
ATOM     27  C   LIG d   1       4.502  -0.740  -8.677  0.00  0.00    -0.037 C 
ATOM     28  H   LIG d   1       3.547  -0.282  -8.380  0.00  0.00     0.028 H 
ATOM     29  H   LIG d   1       4.710  -0.505  -9.730  0.00  0.00     0.028 H 
ATOM     30  H   LIG d   1       5.310  -0.343  -8.045  0.00  0.00     0.028 H 
ENDBRANCH   1  27
TORSDOF 2
ENDMDL
MODEL 8
REMARK VINA RESULT:      -5.7      5.196      6.169
REMARK  2 active torsions:
REMARK  status: ('A' for Active; 'I' for Inactive)
REMARK    1  A    between atoms: C_1  and  C_2 
REMARK    2  A    between atoms: C_10  and  C_11 
ROOT
ATOM      1  C   LIG d   1       9.358  -4.772  -3.399  0.00  0.00    -0.015 A 
ATOM      2  C   LIG d   1      10.138  -5.817  -3.869  0.00  0.00    -0.102 A 
ATOM      3  C   LIG d   1       9.913  -6.358  -5.131  0.00  0.00    -0.068 A 
ATOM      4  C   LIG d   1       8.915  -5.860  -5.922  0.00  0.00    -0.048 A 
ATOM      5  C   LIG d   1       8.122  -4.809  -5.463  0.00  0.00     0.068 A 
ATOM      6  C   LIG d   1       8.340  -4.255  -4.191  0.00  0.00     0.142 A 
ATOM      7  O   LIG d   1       7.456  -3.258  -3.970  0.00  0.00    -0.451 OA
ATOM      8  C   LIG d   1       6.624  -3.080  -5.023  0.00  0.00     0.176 A 
ATOM      9  C   LIG d   1       5.631  -2.162  -5.113  0.00  0.00    -0.008 C 
ATOM     10  C   LIG d   1       6.996  -4.063  -6.054  0.00  0.00     0.232 A 
ATOM     11  O   LIG d   1       6.487  -4.224  -7.149  0.00  0.00    -0.283 OA
ATOM     12  O   LIG d   1      11.132  -6.317  -3.090  0.00  0.00    -0.873 OA
ATOM     13  H   LIG d   1      10.527  -7.172  -5.486  0.00  0.00     0.061 H 
ATOM     14  H   LIG d   1       8.739  -6.284  -6.900  0.00  0.00     0.063 H 
ATOM     15  H   LIG d   1       5.070  -2.048  -6.053  0.00  0.00     0.066 H 
ENDROOT
BRANCH   9  16
ATOM     16  C   LIG d   1       5.301  -1.320  -3.954  0.00  0.00    -0.021 A 
ATOM     17  C   LIG d   1       5.761   0.001  -3.890  0.00  0.00    -0.054 A 
ATOM     18  C   LIG d   1       5.448   0.783  -2.800  0.00  0.00    -0.061 A 
ATOM     19  H   LIG d   1       6.360   0.405  -4.693  0.00  0.00     0.062 H 
ATOM     20  C   LIG d   1       4.681   0.268  -1.770  0.00  0.00    -0.062 A 
ATOM     21  H   LIG d   1       5.802   1.803  -2.749  0.00  0.00     0.062 H 
ATOM     22  C   LIG d   1       4.223  -1.038  -1.825  0.00  0.00    -0.061 A 
ATOM     23  H   LIG d   1       4.440   0.886  -0.918  0.00  0.00     0.062 H 
ATOM     24  C   LIG d   1       4.522  -1.832  -2.911  0.00  0.00    -0.054 A 
ATOM     25  H   LIG d   1       3.626  -1.433  -1.016  0.00  0.00     0.062 H 
ATOM     26  H   LIG d   1       4.159  -2.848  -2.955  0.00  0.00     0.062 H 
ENDBRANCH   9  16
BRANCH   1  27
ATOM     27  C   LIG d   1       9.612  -4.198  -2.029  0.00  0.00    -0.037 C 
ATOM     28  H   LIG d   1       8.737  -4.376  -1.389  0.00  0.00     0.028 H 
ATOM     29  H   LIG d   1       9.791  -3.116  -2.113  0.00  0.00     0.028 H 
ATOM     30  H   LIG d   1      10.495  -4.683  -1.587  0.00  0.00     0.028 H 
ENDBRANCH   1  27
TORSDOF 2
ENDMDL
MODEL 9
REMARK VINA RESULT:      -5.7      3.688      4.849
REMARK  2 active torsions:
REMARK  status: ('A' for Active; 'I' for Inactive)
REMARK    1  A    between atoms: C_1  and  C_2 
REMARK    2  A    between atoms: C_10  and  C_11 
ROOT
ATOM      1  C   LIG d   1       9.075  -1.157  -6.076  0.00  0.00    -0.015 A 
ATOM      2  C   LIG d   1      10.320  -0.925  -6.638  0.00  0.00    -0.102 A 
ATOM      3  C   LIG d   1      11.037   0.225  -6.321  0.00  0.00    -0.068 A 
ATOM      4  C   LIG d   1      10.517   1.139  -5.447  0.00  0.00    -0.048 A 
ATOM      5  C   LIG d   1       9.265   0.918  -4.873  0.00  0.00     0.068 A 
ATOM      6  C   LIG d   1       8.532  -0.238  -5.187  0.00  0.00     0.142 A 
ATOM      7  O   LIG d   1       7.360  -0.231  -4.515  0.00  0.00    -0.451 OA
ATOM      8  C   LIG d   1       7.229   0.873  -3.743  0.00  0.00     0.176 A 
ATOM      9  C   LIG d   1       6.172   1.175  -2.949  0.00  0.00    -0.008 C 
ATOM     10  C   LIG d   1       8.444   1.685  -3.920  0.00  0.00     0.232 A 
ATOM     11  O   LIG d   1       8.710   2.753  -3.396  0.00  0.00    -0.283 OA
ATOM     12  O   LIG d   1      10.845  -1.827  -7.506  0.00  0.00    -0.873 OA
ATOM     13  H   LIG d   1      12.007   0.396  -6.765  0.00  0.00     0.061 H 
ATOM     14  H   LIG d   1      11.074   2.032  -5.205  0.00  0.00     0.063 H 
ATOM     15  H   LIG d   1       6.209   2.060  -2.296  0.00  0.00     0.066 H 
ENDROOT
BRANCH   9  16
ATOM     16  C   LIG d   1       4.976   0.320  -2.961  0.00  0.00    -0.021 A 
ATOM     17  C   LIG d   1       3.828   0.726  -3.652  0.00  0.00    -0.054 A 
ATOM     18  C   LIG d   1       2.711  -0.081  -3.658  0.00  0.00    -0.061 A 
ATOM     19  H   LIG d   1       3.818   1.669  -4.178  0.00  0.00     0.062 H 
ATOM     20  C   LIG d   1       2.722  -1.290  -2.984  0.00  0.00    -0.062 A 
ATOM     21  H   LIG d   1       1.824   0.230  -4.190  0.00  0.00     0.062 H 
ATOM     22  C   LIG d   1       3.853  -1.699  -2.298  0.00  0.00    -0.061 A 
ATOM     23  H   LIG d   1       1.843  -1.917  -2.992  0.00  0.00     0.062 H 
ATOM     24  C   LIG d   1       4.981  -0.906  -2.286  0.00  0.00    -0.054 A 
ATOM     25  H   LIG d   1       3.852  -2.643  -1.773  0.00  0.00     0.062 H 
ATOM     26  H   LIG d   1       5.864  -1.228  -1.756  0.00  0.00     0.062 H 
ENDBRANCH   9  16
BRANCH   1  27
ATOM     27  C   LIG d   1       8.309  -2.405  -6.431  0.00  0.00    -0.037 C 
ATOM     28  H   LIG d   1       7.243  -2.258  -6.203  0.00  0.00     0.028 H 
ATOM     29  H   LIG d   1       8.696  -3.251  -5.845  0.00  0.00     0.028 H 
ATOM     30  H   LIG d   1       8.428  -2.616  -7.504  0.00  0.00     0.028 H 
ENDBRANCH   1  27
TORSDOF 2
ENDMDL
