MODEL 1
REMARK VINA RESULT:      -6.3      0.000      0.000
REMARK  17 active torsions:
REMARK  status: ('A' for Active; 'I' for Inactive)
REMARK    1  A    between atoms: C_1  and  C_2 
REMARK    2  A    between atoms: C_3  and  C_37 
REMARK    3  A    between atoms: C_9  and  C_36 
REMARK    4  A    between atoms: C_10  and  C_16 
REMARK    5  A    between atoms: C_16  and  C_17 
REMARK       I    between atoms: C_17  and  N_19 
REMARK    6  A    between atoms: N_19  and  C_20 
REMARK    7  A    between atoms: N_19  and  C_21 
REMARK    8  A    between atoms: C_21  and  C_22 
REMARK    9  A    between atoms: C_22  and  C_24 
REMARK   10  A    between atoms: C_22  and  O_35 
REMARK   11  A    between atoms: C_24  and  C_26 
REMARK   12  A    between atoms: C_24  and  O_34 
REMARK   13  A    between atoms: C_26  and  C_28 
REMARK   14  A    between atoms: C_26  and  O_33 
REMARK   15  A    between atoms: C_28  and  C_30 
REMARK   16  A    between atoms: C_28  and  O_32 
REMARK   17  A    between atoms: C_30  and  O_31 
ROOT
ATOM      1  C   LIG d   1       9.989   2.975  -5.153  0.00  0.00     0.056 C 
ATOM      2  H   LIG d   1       9.917   3.572  -6.063  0.00  0.00     0.041 H 
ATOM      3  H   LIG d   1      10.842   2.302  -5.228  0.00  0.00     0.041 H 
ENDROOT
BRANCH   1   4
ATOM      4  C   LIG d   1      10.169   3.886  -3.967  0.00  0.00     0.049 A 
ATOM      5  C   LIG d   1       9.909   5.213  -4.084  0.00  0.00    -0.029 A 
ATOM      6  C   LIG d   1      10.097   6.062  -2.903  0.00  0.00     0.022 A 
ATOM      7  C   LIG d   1       9.847   7.433  -2.963  0.00  0.00    -0.040 A 
ATOM      8  C   LIG d   1      10.538   5.473  -1.699  0.00  0.00     0.143 A 
ATOM      9  C   LIG d   1      10.036   8.208  -1.827  0.00  0.00     0.024 A 
ATOM     10  H   LIG d   1       9.509   7.887  -3.883  0.00  0.00     0.063 H 
ATOM     11  C   LIG d   1       9.877   9.638  -1.527  0.00  0.00    -0.002 A 
ATOM     12  C   LIG d   1      10.478   7.620  -0.625  0.00  0.00     0.139 A 
ATOM     13  C   LIG d   1      10.208   9.788  -0.239  0.00  0.00     0.106 A 
ATOM     14  O   LIG d   1      10.562   8.604   0.292  0.00  0.00    -0.460 OA
ATOM     15  C   LIG d   1      10.730   6.256  -0.575  0.00  0.00     0.024 A 
ATOM     16  H   LIG d   1      11.065   5.804   0.346  0.00  0.00     0.069 H 
ATOM     17  O   LIG d   1      10.778   4.143  -1.655  0.00  0.00    -0.422 OA
ATOM     18  C   LIG d   1      10.607   3.362  -2.732  0.00  0.00     0.341 A 
ATOM     19  O   LIG d   1      10.837   2.169  -2.643  0.00  0.00    -0.245 OA
BRANCH   5  20
ATOM     20  C   LIG d   1       9.439   5.798  -5.390  0.00  0.00    -0.038 C 
ATOM     21  H   LIG d   1       8.703   5.133  -5.841  0.00  0.00     0.028 H 
ATOM     22  H   LIG d   1       8.985   6.773  -5.210  0.00  0.00     0.028 H 
ATOM     23  H   LIG d   1      10.288   5.910  -6.064  0.00  0.00     0.028 H 
ENDBRANCH   5  20
BRANCH  11  24
ATOM     24  C   LIG d   1       9.424  10.717  -2.477  0.00  0.00    -0.036 C 
ATOM     25  H   LIG d   1       8.350  10.631  -2.641  0.00  0.00     0.028 H 
ATOM     26  H   LIG d   1       9.649  11.695  -2.050  0.00  0.00     0.028 H 
ATOM     27  H   LIG d   1       9.947  10.607  -3.427  0.00  0.00     0.028 H 
ENDBRANCH  11  24
BRANCH  13  28
ATOM     28  C   LIG d   1      10.190  11.097   0.509  0.00  0.00    -0.006 C 
ATOM     29  H   LIG d   1       9.228  11.586   0.359  0.00  0.00     0.031 H 
ATOM     30  H   LIG d   1      10.341  10.910   1.571  0.00  0.00     0.031 H 
ATOM     31  H   LIG d   1      10.986  11.740   0.135  0.00  0.00     0.031 H 
ENDBRANCH  13  28
ENDBRANCH   1   4
BRANCH   1  32
ATOM     32  C   LIG d   1       8.726   2.169  -4.981  0.00  0.00     0.220 C 
ATOM     33  O   LIG d   1       7.685   2.726  -4.705  0.00  0.00    -0.275 OA
ATOM     34  N   LIG d   1       8.755   0.830  -5.132  0.00  0.00    -0.302 N 
BRANCH  34  35
ATOM     35  C   LIG d   1      10.014   0.158  -5.465  0.00  0.00     0.003 C 
ATOM     36  H   LIG d   1      10.631   0.822  -6.070  0.00  0.00     0.043 H 
ATOM     37  H   LIG d   1      10.545  -0.095  -4.547  0.00  0.00     0.043 H 
ATOM     38  H   LIG d   1       9.802  -0.753  -6.025  0.00  0.00     0.043 H 
ENDBRANCH  34  35
BRANCH  34  39
ATOM     39  C   LIG d   1       7.529   0.047  -4.964  0.00  0.00     0.043 C 
ATOM     40  H   LIG d   1       6.670   0.648  -5.265  0.00  0.00     0.049 H 
ATOM     41  H   LIG d   1       7.582  -0.847  -5.585  0.00  0.00     0.049 H 
BRANCH  39  42
ATOM     42  C   LIG d   1       7.378  -0.358  -3.496  0.00  0.00     0.099 C 
ATOM     43  H   LIG d   1       8.121   0.167  -2.896  0.00  0.00     0.064 H 
BRANCH  42  44
ATOM     44  C   LIG d   1       5.976   0.010  -3.008  0.00  0.00     0.111 C 
ATOM     45  H   LIG d   1       5.759  -0.530  -2.086  0.00  0.00     0.065 H 
BRANCH  44  46
ATOM     46  C   LIG d   1       4.948  -0.370  -4.075  0.00  0.00     0.111 C 
ATOM     47  H   LIG d   1       5.462  -0.758  -4.955  0.00  0.00     0.065 H 
BRANCH  46  48
ATOM     48  C   LIG d   1       4.009  -1.443  -3.521  0.00  0.00     0.106 C 
ATOM     49  H   LIG d   1       4.471  -1.916  -2.654  0.00  0.00     0.064 H 
BRANCH  48  50
ATOM     50  C   LIG d   1       2.685  -0.799  -3.105  0.00  0.00     0.073 C 
ATOM     51  H   LIG d   1       2.173  -1.448  -2.396  0.00  0.00     0.058 H 
ATOM     52  H   LIG d   1       2.882   0.166  -2.639  0.00  0.00     0.058 H 
BRANCH  50  53
ATOM     53  O   LIG d   1       1.864  -0.612  -4.260  0.00  0.00    -0.392 OA
ATOM     54  H   LIG d   1       2.007  -1.269  -4.954  0.00  0.00     0.209 HD
ENDBRANCH  50  53
ENDBRANCH  48  50
BRANCH  48  55
ATOM     55  O   LIG d   1       3.765  -2.428  -4.527  0.00  0.00    -0.387 OA
ATOM     56  H   LIG d   1       3.784  -2.082  -5.429  0.00  0.00     0.210 HD
ENDBRANCH  48  55
ENDBRANCH  46  48
BRANCH  46  57
ATOM     57  O   LIG d   1       4.188   0.785  -4.438  0.00  0.00    -0.387 OA
ATOM     58  H   LIG d   1       3.987   1.372  -3.697  0.00  0.00     0.210 HD
ENDBRANCH  46  57
ENDBRANCH  44  46
BRANCH  44  59
ATOM     59  O   LIG d   1       5.910   1.417  -2.764  0.00  0.00    -0.387 OA
ATOM     60  H   LIG d   1       6.640   1.758  -2.231  0.00  0.00     0.210 HD
ENDBRANCH  44  59
ENDBRANCH  42  44
BRANCH  42  61
ATOM     61  O   LIG d   1       7.572  -1.768  -3.370  0.00  0.00    -0.388 OA
ATOM     62  H   LIG d   1       7.234  -2.139  -2.543  0.00  0.00     0.210 HD
ENDBRANCH  42  61
ENDBRANCH  39  42
ENDBRANCH  34  39
ENDBRANCH   1  32
TORSDOF 17
ENDMDL
MODEL 2
REMARK VINA RESULT:      -6.2      1.454      2.280
REMARK  17 active torsions:
REMARK  status: ('A' for Active; 'I' for Inactive)
REMARK    1  A    between atoms: C_1  and  C_2 
REMARK    2  A    between atoms: C_3  and  C_37 
REMARK    3  A    between atoms: C_9  and  C_36 
REMARK    4  A    between atoms: C_10  and  C_16 
REMARK    5  A    between atoms: C_16  and  C_17 
REMARK       I    between atoms: C_17  and  N_19 
REMARK    6  A    between atoms: N_19  and  C_20 
REMARK    7  A    between atoms: N_19  and  C_21 
REMARK    8  A    between atoms: C_21  and  C_22 
REMARK    9  A    between atoms: C_22  and  C_24 
REMARK   10  A    between atoms: C_22  and  O_35 
REMARK   11  A    between atoms: C_24  and  C_26 
REMARK   12  A    between atoms: C_24  and  O_34 
REMARK   13  A    between atoms: C_26  and  C_28 
REMARK   14  A    between atoms: C_26  and  O_33 
REMARK   15  A    between atoms: C_28  and  C_30 
REMARK   16  A    between atoms: C_28  and  O_32 
REMARK   17  A    between atoms: C_30  and  O_31 
ROOT
ATOM      1  C   LIG d   1       9.987   2.133  -5.861  0.00  0.00     0.056 C 
ATOM      2  H   LIG d   1      10.079   2.208  -6.945  0.00  0.00     0.041 H 
ATOM      3  H   LIG d   1      10.825   1.561  -5.464  0.00  0.00     0.041 H 
ENDROOT
BRANCH   1   4
ATOM      4  C   LIG d   1       9.991   3.514  -5.259  0.00  0.00     0.049 A 
ATOM      5  C   LIG d   1      10.255   3.680  -3.938  0.00  0.00    -0.029 A 
ATOM      6  C   LIG d   1      10.249   5.041  -3.396  0.00  0.00     0.022 A 
ATOM      7  C   LIG d   1      10.512   5.274  -2.046  0.00  0.00    -0.040 A 
ATOM      8  C   LIG d   1       9.971   6.121  -4.261  0.00  0.00     0.143 A 
ATOM      9  C   LIG d   1      10.497   6.575  -1.565  0.00  0.00     0.024 A 
ATOM     10  H   LIG d   1      10.724   4.449  -1.382  0.00  0.00     0.063 H 
ATOM     11  C   LIG d   1      10.721   7.179  -0.244  0.00  0.00    -0.002 A 
ATOM     12  C   LIG d   1      10.217   7.654  -2.429  0.00  0.00     0.139 A 
ATOM     13  C   LIG d   1      10.576   8.500  -0.408  0.00  0.00     0.106 A 
ATOM     14  O   LIG d   1      10.280   8.781  -1.690  0.00  0.00    -0.460 OA
ATOM     15  C   LIG d   1       9.952   7.414  -3.769  0.00  0.00     0.024 A 
ATOM     16  H   LIG d   1       9.741   8.240  -4.432  0.00  0.00     0.069 H 
ATOM     17  O   LIG d   1       9.717   5.883  -5.567  0.00  0.00    -0.422 OA
ATOM     18  C   LIG d   1       9.722   4.638  -6.068  0.00  0.00     0.341 A 
ATOM     19  O   LIG d   1       9.486   4.475  -7.252  0.00  0.00    -0.245 OA
BRANCH   5  20
ATOM     20  C   LIG d   1      10.547   2.496  -3.053  0.00  0.00    -0.038 C 
ATOM     21  H   LIG d   1      11.298   1.864  -3.528  0.00  0.00     0.028 H 
ATOM     22  H   LIG d   1      10.922   2.845  -2.091  0.00  0.00     0.028 H 
ATOM     23  H   LIG d   1       9.633   1.922  -2.901  0.00  0.00     0.028 H 
ENDBRANCH   5  20
BRANCH  11  24
ATOM     24  C   LIG d   1      11.055   6.458   1.037  0.00  0.00    -0.036 C 
ATOM     25  H   LIG d   1      10.963   7.147   1.876  0.00  0.00     0.028 H 
ATOM     26  H   LIG d   1      10.367   5.624   1.174  0.00  0.00     0.028 H 
ATOM     27  H   LIG d   1      12.077   6.082   0.985  0.00  0.00     0.028 H 
ENDBRANCH  11  24
BRANCH  13  28
ATOM     28  C   LIG d   1      10.722   9.526   0.686  0.00  0.00    -0.006 C 
ATOM     29  H   LIG d   1      10.937  10.499   0.245  0.00  0.00     0.031 H 
ATOM     30  H   LIG d   1       9.796   9.583   1.257  0.00  0.00     0.031 H 
ATOM     31  H   LIG d   1      11.539   9.238   1.347  0.00  0.00     0.031 H 
ENDBRANCH  13  28
ENDBRANCH   1   4
BRANCH   1  32
ATOM     32  C   LIG d   1       8.695   1.438  -5.515  0.00  0.00     0.220 C 
ATOM     33  O   LIG d   1       7.666   2.075  -5.439  0.00  0.00    -0.275 OA
ATOM     34  N   LIG d   1       8.683   0.109  -5.288  0.00  0.00    -0.302 N 
BRANCH  34  35
ATOM     35  C   LIG d   1       9.928  -0.660  -5.380  0.00  0.00     0.003 C 
ATOM     36  H   LIG d   1      10.594  -0.371  -4.568  0.00  0.00     0.043 H 
ATOM     37  H   LIG d   1       9.703  -1.724  -5.304  0.00  0.00     0.043 H 
ATOM     38  H   LIG d   1      10.410  -0.458  -6.336  0.00  0.00     0.043 H 
ENDBRANCH  34  35
BRANCH  34  39
ATOM     39  C   LIG d   1       7.428  -0.566  -4.952  0.00  0.00     0.043 C 
ATOM     40  H   LIG d   1       6.590   0.000  -5.360  0.00  0.00     0.049 H 
ATOM     41  H   LIG d   1       7.430  -1.569  -5.377  0.00  0.00     0.049 H 
BRANCH  39  42
ATOM     42  C   LIG d   1       7.288  -0.656  -3.431  0.00  0.00     0.099 C 
ATOM     43  H   LIG d   1       8.104  -0.110  -2.958  0.00  0.00     0.064 H 
BRANCH  42  44
ATOM     44  C   LIG d   1       5.951  -0.046  -3.005  0.00  0.00     0.111 C 
ATOM     45  H   LIG d   1       5.650  -0.465  -2.044  0.00  0.00     0.065 H 
BRANCH  44  46
ATOM     46  C   LIG d   1       4.887  -0.366  -4.056  0.00  0.00     0.111 C 
ATOM     47  H   LIG d   1       5.367  -0.759  -4.953  0.00  0.00     0.065 H 
BRANCH  46  48
ATOM     48  C   LIG d   1       3.917  -1.409  -3.500  0.00  0.00     0.106 C 
ATOM     49  H   LIG d   1       4.334  -1.844  -2.591  0.00  0.00     0.064 H 
BRANCH  48  50
ATOM     50  C   LIG d   1       2.578  -0.742  -3.177  0.00  0.00     0.073 C 
ATOM     51  H   LIG d   1       2.011  -1.376  -2.496  0.00  0.00     0.058 H 
ATOM     52  H   LIG d   1       2.759   0.225  -2.708  0.00  0.00     0.058 H 
BRANCH  50  53
ATOM     53  O   LIG d   1       1.836  -0.555  -4.384  0.00  0.00    -0.392 OA
ATOM     54  H   LIG d   1       0.879  -0.629  -4.272  0.00  0.00     0.209 HD
ENDBRANCH  50  53
ENDBRANCH  48  50
BRANCH  48  55
ATOM     55  O   LIG d   1       3.715  -2.438  -4.471  0.00  0.00    -0.387 OA
ATOM     56  H   LIG d   1       3.756  -3.333  -4.109  0.00  0.00     0.210 HD
ENDBRANCH  48  55
ENDBRANCH  46  48
BRANCH  46  57
ATOM     57  O   LIG d   1       4.168   0.826  -4.384  0.00  0.00    -0.387 OA
ATOM     58  H   LIG d   1       3.239   0.676  -4.607  0.00  0.00     0.210 HD
ENDBRANCH  46  57
ENDBRANCH  44  46
BRANCH  44  59
ATOM     59  O   LIG d   1       6.091   1.371  -2.885  0.00  0.00    -0.387 OA
ATOM     60  H   LIG d   1       5.356   1.801  -2.426  0.00  0.00     0.210 HD
ENDBRANCH  44  59
ENDBRANCH  42  44
BRANCH  42  61
ATOM     61  O   LIG d   1       7.335  -2.027  -3.029  0.00  0.00    -0.388 OA
ATOM     62  H   LIG d   1       7.979  -2.558  -3.518  0.00  0.00     0.210 HD
ENDBRANCH  42  61
ENDBRANCH  39  42
ENDBRANCH  34  39
ENDBRANCH   1  32
TORSDOF 17
ENDMDL
MODEL 3
REMARK VINA RESULT:      -6.2      6.977     11.022
REMARK  17 active torsions:
REMARK  status: ('A' for Active; 'I' for Inactive)
REMARK    1  A    between atoms: C_1  and  C_2 
REMARK    2  A    between atoms: C_3  and  C_37 
REMARK    3  A    between atoms: C_9  and  C_36 
REMARK    4  A    between atoms: C_10  and  C_16 
REMARK    5  A    between atoms: C_16  and  C_17 
REMARK       I    between atoms: C_17  and  N_19 
REMARK    6  A    between atoms: N_19  and  C_20 
REMARK    7  A    between atoms: N_19  and  C_21 
REMARK    8  A    between atoms: C_21  and  C_22 
REMARK    9  A    between atoms: C_22  and  C_24 
REMARK   10  A    between atoms: C_22  and  O_35 
REMARK   11  A    between atoms: C_24  and  C_26 
REMARK   12  A    between atoms: C_24  and  O_34 
REMARK   13  A    between atoms: C_26  and  C_28 
REMARK   14  A    between atoms: C_26  and  O_33 
REMARK   15  A    between atoms: C_28  and  C_30 
REMARK   16  A    between atoms: C_28  and  O_32 
REMARK   17  A    between atoms: C_30  and  O_31 
ROOT
ATOM      1  C   LIG d   1       3.647  -2.813 -10.684  0.00  0.00     0.056 C 
ATOM      2  H   LIG d   1       3.492  -2.205 -11.576  0.00  0.00     0.041 H 
ATOM      3  H   LIG d   1       4.666  -3.198 -10.680  0.00  0.00     0.041 H 
ENDROOT
BRANCH   1   4
ATOM      4  C   LIG d   1       3.422  -1.970  -9.456  0.00  0.00     0.049 A 
ATOM      5  C   LIG d   1       4.216  -2.130  -8.367  0.00  0.00    -0.029 A 
ATOM      6  C   LIG d   1       3.962  -1.287  -7.195  0.00  0.00     0.022 A 
ATOM      7  C   LIG d   1       4.744  -1.407  -6.046  0.00  0.00    -0.040 A 
ATOM      8  C   LIG d   1       2.910  -0.348  -7.242  0.00  0.00     0.143 A 
ATOM      9  C   LIG d   1       4.476  -0.595  -4.953  0.00  0.00     0.024 A 
ATOM     10  H   LIG d   1       5.550  -2.125  -6.007  0.00  0.00     0.063 H 
ATOM     11  C   LIG d   1       5.072  -0.447  -3.618  0.00  0.00    -0.002 A 
ATOM     12  C   LIG d   1       3.423   0.341  -5.000  0.00  0.00     0.139 A 
ATOM     13  C   LIG d   1       4.377   0.518  -3.003  0.00  0.00     0.106 A 
ATOM     14  O   LIG d   1       3.408   0.982  -3.813  0.00  0.00    -0.460 OA
ATOM     15  C   LIG d   1       2.646   0.452  -6.144  0.00  0.00     0.024 A 
ATOM     16  H   LIG d   1       1.842   1.171  -6.182  0.00  0.00     0.069 H 
ATOM     17  O   LIG d   1       2.158  -0.242  -8.361  0.00  0.00    -0.422 OA
ATOM     18  C   LIG d   1       2.387  -1.011  -9.436  0.00  0.00     0.341 A 
ATOM     19  O   LIG d   1       1.683  -0.878 -10.421  0.00  0.00    -0.245 OA
BRANCH   5  20
ATOM     20  C   LIG d   1       5.329  -3.146  -8.363  0.00  0.00    -0.038 C 
ATOM     21  H   LIG d   1       5.742  -3.235  -9.368  0.00  0.00     0.028 H 
ATOM     22  H   LIG d   1       6.112  -2.824  -7.676  0.00  0.00     0.028 H 
ATOM     23  H   LIG d   1       4.938  -4.111  -8.043  0.00  0.00     0.028 H 
ENDBRANCH   5  20
BRANCH  11  24
ATOM     24  C   LIG d   1       6.237  -1.222  -3.056  0.00  0.00    -0.036 C 
ATOM     25  H   LIG d   1       7.063  -1.200  -3.765  0.00  0.00     0.028 H 
ATOM     26  H   LIG d   1       6.552  -0.771  -2.115  0.00  0.00     0.028 H 
ATOM     27  H   LIG d   1       5.934  -2.255  -2.881  0.00  0.00     0.028 H 
ENDBRANCH  11  24
BRANCH  13  28
ATOM     28  C   LIG d   1       4.641   1.012  -1.604  0.00  0.00    -0.006 C 
ATOM     29  H   LIG d   1       3.696   1.271  -1.127  0.00  0.00     0.031 H 
ATOM     30  H   LIG d   1       5.136   0.230  -1.030  0.00  0.00     0.031 H 
ATOM     31  H   LIG d   1       5.280   1.894  -1.645  0.00  0.00     0.031 H 
ENDBRANCH  13  28
ENDBRANCH   1   4
BRANCH   1  32
ATOM     32  C   LIG d   1       2.674  -3.965 -10.688  0.00  0.00     0.220 C 
ATOM     33  O   LIG d   1       2.638  -4.731  -9.748  0.00  0.00    -0.275 OA
ATOM     34  N   LIG d   1       1.846  -4.145 -11.736  0.00  0.00    -0.302 N 
BRANCH  34  35
ATOM     35  C   LIG d   1       1.891  -3.220 -12.871  0.00  0.00     0.003 C 
ATOM     36  H   LIG d   1       1.052  -2.528 -12.808  0.00  0.00     0.043 H 
ATOM     37  H   LIG d   1       2.826  -2.660 -12.847  0.00  0.00     0.043 H 
ATOM     38  H   LIG d   1       1.828  -3.784 -13.802  0.00  0.00     0.043 H 
ENDBRANCH  34  35
BRANCH  34  39
ATOM     39  C   LIG d   1       0.902  -5.264 -11.739  0.00  0.00     0.043 C 
ATOM     40  H   LIG d   1       0.790  -5.643 -12.755  0.00  0.00     0.049 H 
ATOM     41  H   LIG d   1       1.278  -6.059 -11.095  0.00  0.00     0.049 H 
BRANCH  39  42
ATOM     42  C   LIG d   1      -0.457  -4.787 -11.221  0.00  0.00     0.099 C 
ATOM     43  H   LIG d   1      -0.991  -4.274 -12.020  0.00  0.00     0.064 H 
BRANCH  42  44
ATOM     44  C   LIG d   1      -1.275  -5.992 -10.752  0.00  0.00     0.111 C 
ATOM     45  H   LIG d   1      -1.991  -6.269 -11.526  0.00  0.00     0.065 H 
BRANCH  44  46
ATOM     46  C   LIG d   1      -2.027  -5.630  -9.469  0.00  0.00     0.111 C 
ATOM     47  H   LIG d   1      -1.959  -4.555  -9.299  0.00  0.00     0.065 H 
BRANCH  46  48
ATOM     48  C   LIG d   1      -3.496  -6.032  -9.607  0.00  0.00     0.106 C 
ATOM     49  H   LIG d   1      -3.834  -6.494  -8.680  0.00  0.00     0.064 H 
BRANCH  48  50
ATOM     50  C   LIG d   1      -4.341  -4.789  -9.895  0.00  0.00     0.073 C 
ATOM     51  H   LIG d   1      -3.746  -4.067 -10.453  0.00  0.00     0.058 H 
ATOM     52  H   LIG d   1      -5.213  -5.073 -10.483  0.00  0.00     0.058 H 
BRANCH  50  53
ATOM     53  O   LIG d   1      -4.767  -4.207  -8.662  0.00  0.00    -0.392 OA
ATOM     54  H   LIG d   1      -4.118  -4.280  -7.949  0.00  0.00     0.209 HD
ENDBRANCH  50  53
ENDBRANCH  48  50
BRANCH  48  55
ATOM     55  O   LIG d   1      -3.636  -6.963 -10.682  0.00  0.00    -0.387 OA
ATOM     56  H   LIG d   1      -4.027  -6.585 -11.481  0.00  0.00     0.210 HD
ENDBRANCH  48  55
ENDBRANCH  46  48
BRANCH  46  57
ATOM     57  O   LIG d   1      -1.444  -6.325  -8.364  0.00  0.00    -0.387 OA
ATOM     58  H   LIG d   1      -1.606  -7.278  -8.369  0.00  0.00     0.210 HD
ENDBRANCH  46  57
ENDBRANCH  44  46
BRANCH  44  59
ATOM     59  O   LIG d   1      -0.400  -7.092 -10.496  0.00  0.00    -0.387 OA
ATOM     60  H   LIG d   1      -0.490  -7.821 -11.125  0.00  0.00     0.210 HD
ENDBRANCH  44  59
ENDBRANCH  42  44
BRANCH  42  61
ATOM     61  O   LIG d   1      -0.260  -3.890 -10.126  0.00  0.00    -0.388 OA
ATOM     62  H   LIG d   1      -0.495  -2.972 -10.322  0.00  0.00     0.210 HD
ENDBRANCH  42  61
ENDBRANCH  39  42
ENDBRANCH  34  39
ENDBRANCH   1  32
TORSDOF 17
ENDMDL
MODEL 4
REMARK VINA RESULT:      -6.1      2.362      3.397
REMARK  17 active torsions:
REMARK  status: ('A' for Active; 'I' for Inactive)
REMARK    1  A    between atoms: C_1  and  C_2 
REMARK    2  A    between atoms: C_3  and  C_37 
REMARK    3  A    between atoms: C_9  and  C_36 
REMARK    4  A    between atoms: C_10  and  C_16 
REMARK    5  A    between atoms: C_16  and  C_17 
REMARK       I    between atoms: C_17  and  N_19 
REMARK    6  A    between atoms: N_19  and  C_20 
REMARK    7  A    between atoms: N_19  and  C_21 
REMARK    8  A    between atoms: C_21  and  C_22 
REMARK    9  A    between atoms: C_22  and  C_24 
REMARK   10  A    between atoms: C_22  and  O_35 
REMARK   11  A    between atoms: C_24  and  C_26 
REMARK   12  A    between atoms: C_24  and  O_34 
REMARK   13  A    between atoms: C_26  and  C_28 
REMARK   14  A    between atoms: C_26  and  O_33 
REMARK   15  A    between atoms: C_28  and  C_30 
REMARK   16  A    between atoms: C_28  and  O_32 
REMARK   17  A    between atoms: C_30  and  O_31 
ROOT
ATOM      1  C   LIG d   1       9.641   1.247  -4.770  0.00  0.00     0.056 C 
ATOM      2  H   LIG d   1       9.713   1.033  -5.836  0.00  0.00     0.041 H 
ATOM      3  H   LIG d   1      10.418   0.701  -4.236  0.00  0.00     0.041 H 
ENDROOT
BRANCH   1   4
ATOM      4  C   LIG d   1       9.817   2.726  -4.541  0.00  0.00     0.049 A 
ATOM      5  C   LIG d   1       9.540   3.605  -5.537  0.00  0.00    -0.029 A 
ATOM      6  C   LIG d   1       9.724   5.035  -5.270  0.00  0.00     0.022 A 
ATOM      7  C   LIG d   1       9.456   5.985  -6.255  0.00  0.00    -0.040 A 
ATOM      8  C   LIG d   1      10.180   5.440  -3.997  0.00  0.00     0.143 A 
ATOM      9  C   LIG d   1       9.642   7.331  -5.969  0.00  0.00     0.024 A 
ATOM     10  H   LIG d   1       9.107   5.678  -7.230  0.00  0.00     0.063 H 
ATOM     11  C   LIG d   1       9.467   8.572  -6.736  0.00  0.00    -0.002 A 
ATOM     12  C   LIG d   1      10.100   7.735  -4.699  0.00  0.00     0.139 A 
ATOM     13  C   LIG d   1       9.805   9.571  -5.911  0.00  0.00     0.106 A 
ATOM     14  O   LIG d   1      10.178   9.081  -4.715  0.00  0.00    -0.460 OA
ATOM     15  C   LIG d   1      10.370   6.783  -3.726  0.00  0.00     0.024 A 
ATOM     16  H   LIG d   1      10.716   7.093  -2.751  0.00  0.00     0.069 H 
ATOM     17  O   LIG d   1      10.437   4.509  -3.052  0.00  0.00    -0.422 OA
ATOM     18  C   LIG d   1      10.269   3.199  -3.291  0.00  0.00     0.341 A 
ATOM     19  O   LIG d   1      10.515   2.399  -2.407  0.00  0.00    -0.245 OA
BRANCH   5  20
ATOM     20  C   LIG d   1       9.054   3.125  -6.881  0.00  0.00    -0.038 C 
ATOM     21  H   LIG d   1       8.830   2.060  -6.826  0.00  0.00     0.028 H 
ATOM     22  H   LIG d   1       8.152   3.672  -7.158  0.00  0.00     0.028 H 
ATOM     23  H   LIG d   1       9.828   3.296  -7.628  0.00  0.00     0.028 H 
ENDBRANCH   5  20
BRANCH  11  24
ATOM     24  C   LIG d   1       8.995   8.697  -8.162  0.00  0.00    -0.036 C 
ATOM     25  H   LIG d   1       9.246   7.789  -8.709  0.00  0.00     0.028 H 
ATOM     26  H   LIG d   1       7.915   8.843  -8.175  0.00  0.00     0.028 H 
ATOM     27  H   LIG d   1       9.483   9.551  -8.632  0.00  0.00     0.028 H 
ENDBRANCH  11  24
BRANCH  13  28
ATOM     28  C   LIG d   1       9.775  11.034  -6.271  0.00  0.00    -0.006 C 
ATOM     29  H   LIG d   1       9.289  11.594  -5.473  0.00  0.00     0.031 H 
ATOM     30  H   LIG d   1      10.793  11.397  -6.403  0.00  0.00     0.031 H 
ATOM     31  H   LIG d   1       9.218  11.168  -7.199  0.00  0.00     0.031 H 
ENDBRANCH  13  28
ENDBRANCH   1   4
BRANCH   1  32
ATOM     32  C   LIG d   1       8.287   0.817  -4.263  0.00  0.00     0.220 C 
ATOM     33  O   LIG d   1       7.565   1.619  -3.710  0.00  0.00    -0.275 OA
ATOM     34  N   LIG d   1       7.881  -0.457  -4.423  0.00  0.00    -0.302 N 
BRANCH  34  35
ATOM     35  C   LIG d   1       8.754  -1.426  -5.092  0.00  0.00     0.003 C 
ATOM     36  H   LIG d   1       9.374  -1.927  -4.350  0.00  0.00     0.043 H 
ATOM     37  H   LIG d   1       8.145  -2.164  -5.614  0.00  0.00     0.043 H 
ATOM     38  H   LIG d   1       9.390  -0.907  -5.809  0.00  0.00     0.043 H 
ENDBRANCH  34  35
BRANCH  34  39
ATOM     39  C   LIG d   1       6.565  -0.874  -3.931  0.00  0.00     0.043 C 
ATOM     40  H   LIG d   1       6.649  -1.851  -3.454  0.00  0.00     0.049 H 
ATOM     41  H   LIG d   1       6.201  -0.146  -3.207  0.00  0.00     0.049 H 
BRANCH  39  42
ATOM     42  C   LIG d   1       5.586  -0.963  -5.103  0.00  0.00     0.099 C 
ATOM     43  H   LIG d   1       5.986  -1.635  -5.862  0.00  0.00     0.064 H 
BRANCH  42  44
ATOM     44  C   LIG d   1       4.242  -1.497  -4.605  0.00  0.00     0.111 C 
ATOM     45  H   LIG d   1       3.432  -0.986  -5.125  0.00  0.00     0.065 H 
BRANCH  44  46
ATOM     46  C   LIG d   1       4.119  -1.246  -3.100  0.00  0.00     0.111 C 
ATOM     47  H   LIG d   1       5.102  -1.015  -2.689  0.00  0.00     0.065 H 
BRANCH  46  48
ATOM     48  C   LIG d   1       3.174  -0.069  -2.854  0.00  0.00     0.106 C 
ATOM     49  H   LIG d   1       2.362  -0.387  -2.200  0.00  0.00     0.064 H 
BRANCH  48  50
ATOM     50  C   LIG d   1       3.945   1.075  -2.192  0.00  0.00     0.073 C 
ATOM     51  H   LIG d   1       3.260   1.676  -1.596  0.00  0.00     0.058 H 
ATOM     52  H   LIG d   1       4.721   0.663  -1.548  0.00  0.00     0.058 H 
BRANCH  50  53
ATOM     53  O   LIG d   1       4.545   1.891  -3.200  0.00  0.00    -0.392 OA
ATOM     54  H   LIG d   1       4.210   2.798  -3.221  0.00  0.00     0.209 HD
ENDBRANCH  50  53
ENDBRANCH  48  50
BRANCH  48  55
ATOM     55  O   LIG d   1       2.635   0.377  -4.099  0.00  0.00    -0.387 OA
ATOM     56  H   LIG d   1       3.304   0.582  -4.767  0.00  0.00     0.210 HD
ENDBRANCH  48  55
ENDBRANCH  46  48
BRANCH  46  57
ATOM     57  O   LIG d   1       3.600  -2.416  -2.464  0.00  0.00    -0.387 OA
ATOM     58  H   LIG d   1       2.983  -2.921  -3.011  0.00  0.00     0.210 HD
ENDBRANCH  46  57
ENDBRANCH  44  46
BRANCH  44  59
ATOM     59  O   LIG d   1       4.163  -2.901  -4.861  0.00  0.00    -0.387 OA
ATOM     60  H   LIG d   1       3.353  -3.173  -5.314  0.00  0.00     0.210 HD
ENDBRANCH  44  59
ENDBRANCH  42  44
BRANCH  42  61
ATOM     61  O   LIG d   1       5.401   0.338  -5.668  0.00  0.00    -0.388 OA
ATOM     62  H   LIG d   1       4.514   0.490  -6.022  0.00  0.00     0.210 HD
ENDBRANCH  42  61
ENDBRANCH  39  42
ENDBRANCH  34  39
ENDBRANCH   1  32
TORSDOF 17
ENDMDL
MODEL 5
REMARK VINA RESULT:      -6.0      2.379      8.627
REMARK  17 active torsions:
REMARK  status: ('A' for Active; 'I' for Inactive)
REMARK    1  A    between atoms: C_1  and  C_2 
REMARK    2  A    between atoms: C_3  and  C_37 
REMARK    3  A    between atoms: C_9  and  C_36 
REMARK    4  A    between atoms: C_10  and  C_16 
REMARK    5  A    between atoms: C_16  and  C_17 
REMARK       I    between atoms: C_17  and  N_19 
REMARK    6  A    between atoms: N_19  and  C_20 
REMARK    7  A    between atoms: N_19  and  C_21 
REMARK    8  A    between atoms: C_21  and  C_22 
REMARK    9  A    between atoms: C_22  and  C_24 
REMARK   10  A    between atoms: C_22  and  O_35 
REMARK   11  A    between atoms: C_24  and  C_26 
REMARK   12  A    between atoms: C_24  and  O_34 
REMARK   13  A    between atoms: C_26  and  C_28 
REMARK   14  A    between atoms: C_26  and  O_33 
REMARK   15  A    between atoms: C_28  and  C_30 
REMARK   16  A    between atoms: C_28  and  O_32 
REMARK   17  A    between atoms: C_30  and  O_31 
ROOT
ATOM      1  C   LIG d   1      11.578   3.398  -5.204  0.00  0.00     0.056 C 
ATOM      2  H   LIG d   1      12.001   3.291  -4.205  0.00  0.00     0.041 H 
ATOM      3  H   LIG d   1      12.324   3.117  -5.946  0.00  0.00     0.041 H 
ENDROOT
BRANCH   1   4
ATOM      4  C   LIG d   1      10.374   2.502  -5.338  0.00  0.00     0.049 A 
ATOM      5  C   LIG d   1       9.438   2.468  -4.355  0.00  0.00    -0.029 A 
ATOM      6  C   LIG d   1       8.283   1.582  -4.528  0.00  0.00     0.022 A 
ATOM      7  C   LIG d   1       7.290   1.506  -3.551  0.00  0.00    -0.040 A 
ATOM      8  C   LIG d   1       8.187   0.803  -5.700  0.00  0.00     0.143 A 
ATOM      9  C   LIG d   1       6.210   0.656  -3.746  0.00  0.00     0.024 A 
ATOM     10  H   LIG d   1       7.361   2.101  -2.653  0.00  0.00     0.063 H 
ATOM     11  C   LIG d   1       5.014   0.326  -2.958  0.00  0.00    -0.002 A 
ATOM     12  C   LIG d   1       6.116  -0.125  -4.916  0.00  0.00     0.139 A 
ATOM     13  C   LIG d   1       4.328  -0.569  -3.679  0.00  0.00     0.106 A 
ATOM     14  O   LIG d   1       4.973  -0.835  -4.829  0.00  0.00    -0.460 OA
ATOM     15  C   LIG d   1       7.110  -0.046  -5.880  0.00  0.00     0.024 A 
ATOM     16  H   LIG d   1       7.037  -0.640  -6.779  0.00  0.00     0.069 H 
ATOM     17  O   LIG d   1       9.157   0.886  -6.639  0.00  0.00    -0.422 OA
ATOM     18  C   LIG d   1      10.216   1.696  -6.486  0.00  0.00     0.341 A 
ATOM     19  O   LIG d   1      11.063   1.735  -7.359  0.00  0.00    -0.245 OA
BRANCH   5  20
ATOM     20  C   LIG d   1       9.583   3.320  -3.120  0.00  0.00    -0.038 C 
ATOM     21  H   LIG d   1       8.598   3.507  -2.691  0.00  0.00     0.028 H 
ATOM     22  H   LIG d   1      10.203   2.799  -2.390  0.00  0.00     0.028 H 
ATOM     23  H   LIG d   1      10.050   4.267  -3.385  0.00  0.00     0.028 H 
ENDBRANCH   5  20
BRANCH  11  24
ATOM     24  C   LIG d   1       4.632   0.888  -1.613  0.00  0.00    -0.036 C 
ATOM     25  H   LIG d   1       5.534   1.139  -1.055  0.00  0.00     0.028 H 
ATOM     26  H   LIG d   1       4.030   1.786  -1.751  0.00  0.00     0.028 H 
ATOM     27  H   LIG d   1       4.057   0.146  -1.060  0.00  0.00     0.028 H 
ENDBRANCH  11  24
BRANCH  13  28
ATOM     28  C   LIG d   1       3.020  -1.191  -3.262  0.00  0.00    -0.006 C 
ATOM     29  H   LIG d   1       3.006  -2.239  -3.557  0.00  0.00     0.031 H 
ATOM     30  H   LIG d   1       2.910  -1.116  -2.181  0.00  0.00     0.031 H 
ATOM     31  H   LIG d   1       2.197  -0.666  -3.748  0.00  0.00     0.031 H 
ENDBRANCH  13  28
ENDBRANCH   1   4
BRANCH   1  32
ATOM     32  C   LIG d   1      11.164   4.831  -5.422  0.00  0.00     0.220 C 
ATOM     33  O   LIG d   1      10.426   5.115  -6.341  0.00  0.00    -0.275 OA
ATOM     34  N   LIG d   1      11.616   5.796  -4.598  0.00  0.00    -0.302 N 
BRANCH  34  35
ATOM     35  C   LIG d   1      12.509   5.452  -3.488  0.00  0.00     0.003 C 
ATOM     36  H   LIG d   1      11.920   5.073  -2.653  0.00  0.00     0.043 H 
ATOM     37  H   LIG d   1      13.213   4.686  -3.812  0.00  0.00     0.043 H 
ATOM     38  H   LIG d   1      13.057   6.340  -3.174  0.00  0.00     0.043 H 
ENDBRANCH  34  35
BRANCH  34  39
ATOM     39  C   LIG d   1      11.215   7.189  -4.810  0.00  0.00     0.043 C 
ATOM     40  H   LIG d   1      11.972   7.853  -4.393  0.00  0.00     0.049 H 
ATOM     41  H   LIG d   1      11.114   7.378  -5.879  0.00  0.00     0.049 H 
BRANCH  39  42
ATOM     42  C   LIG d   1       9.875   7.445  -4.118  0.00  0.00     0.099 C 
ATOM     43  H   LIG d   1       9.360   6.498  -3.959  0.00  0.00     0.064 H 
BRANCH  42  44
ATOM     44  C   LIG d   1      10.120   8.124  -2.769  0.00  0.00     0.111 C 
ATOM     45  H   LIG d   1      11.192   8.245  -2.613  0.00  0.00     0.065 H 
BRANCH  44  46
ATOM     46  C   LIG d   1       9.537   7.260  -1.649  0.00  0.00     0.111 C 
ATOM     47  H   LIG d   1       9.428   6.234  -2.001  0.00  0.00     0.065 H 
BRANCH  46  48
ATOM     48  C   LIG d   1      10.475   7.287  -0.441  0.00  0.00     0.106 C 
ATOM     49  H   LIG d   1       9.939   7.675   0.425  0.00  0.00     0.064 H 
BRANCH  48  50
ATOM     50  C   LIG d   1      10.966   5.868  -0.143  0.00  0.00     0.073 C 
ATOM     51  H   LIG d   1      10.523   5.174  -0.856  0.00  0.00     0.058 H 
ATOM     52  H   LIG d   1      12.051   5.836  -0.230  0.00  0.00     0.058 H 
BRANCH  50  53
ATOM     53  O   LIG d   1      10.582   5.501   1.183  0.00  0.00    -0.392 OA
ATOM     54  H   LIG d   1      10.745   4.572   1.395  0.00  0.00     0.209 HD
ENDBRANCH  50  53
ENDBRANCH  48  50
BRANCH  48  55
ATOM     55  O   LIG d   1      11.594   8.128  -0.726  0.00  0.00    -0.387 OA
ATOM     56  H   LIG d   1      12.096   8.393   0.057  0.00  0.00     0.210 HD
ENDBRANCH  48  55
ENDBRANCH  46  48
BRANCH  46  57
ATOM     57  O   LIG d   1       8.257   7.772  -1.270  0.00  0.00    -0.387 OA
ATOM     58  H   LIG d   1       8.298   8.517  -0.655  0.00  0.00     0.210 HD
ENDBRANCH  46  57
ENDBRANCH  44  46
BRANCH  44  59
ATOM     59  O   LIG d   1       9.489   9.406  -2.758  0.00  0.00    -0.387 OA
ATOM     60  H   LIG d   1       9.799   9.991  -2.054  0.00  0.00     0.210 HD
ENDBRANCH  44  59
ENDBRANCH  42  44
BRANCH  42  61
ATOM     61  O   LIG d   1       9.069   8.294  -4.939  0.00  0.00    -0.388 OA
ATOM     62  H   LIG d   1       8.118   8.171  -4.817  0.00  0.00     0.210 HD
ENDBRANCH  42  61
ENDBRANCH  39  42
ENDBRANCH  34  39
ENDBRANCH   1  32
TORSDOF 17
ENDMDL
MODEL 6
REMARK VINA RESULT:      -5.9      2.553      8.757
REMARK  17 active torsions:
REMARK  status: ('A' for Active; 'I' for Inactive)
REMARK    1  A    between atoms: C_1  and  C_2 
REMARK    2  A    between atoms: C_3  and  C_37 
REMARK    3  A    between atoms: C_9  and  C_36 
REMARK    4  A    between atoms: C_10  and  C_16 
REMARK    5  A    between atoms: C_16  and  C_17 
REMARK       I    between atoms: C_17  and  N_19 
REMARK    6  A    between atoms: N_19  and  C_20 
REMARK    7  A    between atoms: N_19  and  C_21 
REMARK    8  A    between atoms: C_21  and  C_22 
REMARK    9  A    between atoms: C_22  and  C_24 
REMARK   10  A    between atoms: C_22  and  O_35 
REMARK   11  A    between atoms: C_24  and  C_26 
REMARK   12  A    between atoms: C_24  and  O_34 
REMARK   13  A    between atoms: C_26  and  C_28 
REMARK   14  A    between atoms: C_26  and  O_33 
REMARK   15  A    between atoms: C_28  and  C_30 
REMARK   16  A    between atoms: C_28  and  O_32 
REMARK   17  A    between atoms: C_30  and  O_31 
ROOT
ATOM      1  C   LIG d   1      11.158   3.488  -6.096  0.00  0.00     0.056 C 
ATOM      2  H   LIG d   1      11.777   3.233  -6.957  0.00  0.00     0.041 H 
ATOM      3  H   LIG d   1      10.518   4.333  -6.346  0.00  0.00     0.041 H 
ENDROOT
BRANCH   1   4
ATOM      4  C   LIG d   1      10.305   2.303  -5.723  0.00  0.00     0.049 A 
ATOM      5  C   LIG d   1       9.221   2.471  -4.922  0.00  0.00    -0.029 A 
ATOM      6  C   LIG d   1       8.419   1.291  -4.586  0.00  0.00     0.022 A 
ATOM      7  C   LIG d   1       7.295   1.402  -3.767  0.00  0.00    -0.040 A 
ATOM      8  C   LIG d   1       8.800   0.034  -5.102  0.00  0.00     0.143 A 
ATOM      9  C   LIG d   1       6.559   0.264  -3.467  0.00  0.00     0.024 A 
ATOM     10  H   LIG d   1       7.001   2.362  -3.370  0.00  0.00     0.063 H 
ATOM     11  C   LIG d   1       5.355   0.008  -2.664  0.00  0.00    -0.002 A 
ATOM     12  C   LIG d   1       6.941  -0.992  -3.981  0.00  0.00     0.139 A 
ATOM     13  C   LIG d   1       5.115  -1.306  -2.759  0.00  0.00     0.106 A 
ATOM     14  O   LIG d   1       6.046  -1.894  -3.532  0.00  0.00    -0.460 OA
ATOM     15  C   LIG d   1       8.063  -1.094  -4.791  0.00  0.00     0.024 A 
ATOM     16  H   LIG d   1       8.355  -2.055  -5.188  0.00  0.00     0.069 H 
ATOM     17  O   LIG d   1       9.893  -0.060  -5.894  0.00  0.00    -0.422 OA
ATOM     18  C   LIG d   1      10.630   1.018  -6.205  0.00  0.00     0.341 A 
ATOM     19  O   LIG d   1      11.604   0.882  -6.922  0.00  0.00    -0.245 OA
BRANCH   5  20
ATOM     20  C   LIG d   1       8.852   3.834  -4.395  0.00  0.00    -0.038 C 
ATOM     21  H   LIG d   1       8.527   3.745  -3.358  0.00  0.00     0.028 H 
ATOM     22  H   LIG d   1       9.720   4.492  -4.449  0.00  0.00     0.028 H 
ATOM     23  H   LIG d   1       8.043   4.248  -4.995  0.00  0.00     0.028 H 
ENDBRANCH   5  20
BRANCH  11  24
ATOM     24  C   LIG d   1       4.548   1.022  -1.894  0.00  0.00    -0.036 C 
ATOM     25  H   LIG d   1       4.149   1.767  -2.581  0.00  0.00     0.028 H 
ATOM     26  H   LIG d   1       3.726   0.520  -1.384  0.00  0.00     0.028 H 
ATOM     27  H   LIG d   1       5.187   1.511  -1.158  0.00  0.00     0.028 H 
ENDBRANCH  11  24
BRANCH  13  28
ATOM     28  C   LIG d   1       3.968  -2.023  -2.094  0.00  0.00    -0.006 C 
ATOM     29  H   LIG d   1       3.962  -1.788  -1.030  0.00  0.00     0.031 H 
ATOM     30  H   LIG d   1       3.029  -1.701  -2.543  0.00  0.00     0.031 H 
ATOM     31  H   LIG d   1       4.086  -3.098  -2.228  0.00  0.00     0.031 H 
ENDBRANCH  13  28
ENDBRANCH   1   4
BRANCH   1  32
ATOM     32  C   LIG d   1      12.044   3.855  -4.933  0.00  0.00     0.220 C 
ATOM     33  O   LIG d   1      12.598   2.985  -4.294  0.00  0.00    -0.275 OA
ATOM     34  N   LIG d   1      12.219   5.149  -4.601  0.00  0.00    -0.302 N 
BRANCH  34  35
ATOM     35  C   LIG d   1      11.549   6.200  -5.372  0.00  0.00     0.003 C 
ATOM     36  H   LIG d   1      12.226   6.574  -6.140  0.00  0.00     0.043 H 
ATOM     37  H   LIG d   1      10.656   5.791  -5.844  0.00  0.00     0.043 H 
ATOM     38  H   LIG d   1      11.267   7.016  -4.707  0.00  0.00     0.043 H 
ENDBRANCH  34  35
BRANCH  34  39
ATOM     39  C   LIG d   1      13.080   5.506  -3.470  0.00  0.00     0.043 C 
ATOM     40  H   LIG d   1      13.423   4.598  -2.975  0.00  0.00     0.049 H 
ATOM     41  H   LIG d   1      13.939   6.070  -3.833  0.00  0.00     0.049 H 
BRANCH  39  42
ATOM     42  C   LIG d   1      12.290   6.361  -2.477  0.00  0.00     0.099 C 
ATOM     43  H   LIG d   1      11.689   7.088  -3.021  0.00  0.00     0.064 H 
BRANCH  42  44
ATOM     44  C   LIG d   1      11.373   5.460  -1.647  0.00  0.00     0.111 C 
ATOM     45  H   LIG d   1      10.677   4.942  -2.307  0.00  0.00     0.065 H 
BRANCH  44  46
ATOM     46  C   LIG d   1      10.588   6.314  -0.648  0.00  0.00     0.111 C 
ATOM     47  H   LIG d   1       9.569   5.935  -0.568  0.00  0.00     0.065 H 
BRANCH  46  48
ATOM     48  C   LIG d   1      11.265   6.249   0.722  0.00  0.00     0.106 C 
ATOM     49  H   LIG d   1      12.289   5.896   0.604  0.00  0.00     0.064 H 
BRANCH  48  50
ATOM     50  C   LIG d   1      11.275   7.643   1.353  0.00  0.00     0.073 C 
ATOM     51  H   LIG d   1      10.430   8.218   0.977  0.00  0.00     0.058 H 
ATOM     52  H   LIG d   1      11.199   7.550   2.436  0.00  0.00     0.058 H 
BRANCH  50  53
ATOM     53  O   LIG d   1      12.494   8.309   1.017  0.00  0.00    -0.392 OA
ATOM     54  H   LIG d   1      13.062   8.495   1.777  0.00  0.00     0.209 HD
ENDBRANCH  50  53
ENDBRANCH  48  50
BRANCH  48  55
ATOM     55  O   LIG d   1      10.545   5.349   1.566  0.00  0.00    -0.387 OA
ATOM     56  H   LIG d   1      10.058   5.783   2.280  0.00  0.00     0.210 HD
ENDBRANCH  48  55
ENDBRANCH  46  48
BRANCH  46  57
ATOM     57  O   LIG d   1      10.558   7.669  -1.101  0.00  0.00    -0.387 OA
ATOM     58  H   LIG d   1      10.304   8.306  -0.420  0.00  0.00     0.210 HD
ENDBRANCH  46  57
ENDBRANCH  44  46
BRANCH  44  59
ATOM     59  O   LIG d   1      12.161   4.502  -0.937  0.00  0.00    -0.387 OA
ATOM     60  H   LIG d   1      11.887   3.586  -1.079  0.00  0.00     0.210 HD
ENDBRANCH  44  59
ENDBRANCH  42  44
BRANCH  42  61
ATOM     61  O   LIG d   1      13.198   7.045  -1.611  0.00  0.00    -0.388 OA
ATOM     62  H   LIG d   1      14.040   6.585  -1.481  0.00  0.00     0.210 HD
ENDBRANCH  42  61
ENDBRANCH  39  42
ENDBRANCH  34  39
ENDBRANCH   1  32
TORSDOF 17
ENDMDL
MODEL 7
REMARK VINA RESULT:      -5.9      7.618     11.014
REMARK  17 active torsions:
REMARK  status: ('A' for Active; 'I' for Inactive)
REMARK    1  A    between atoms: C_1  and  C_2 
REMARK    2  A    between atoms: C_3  and  C_37 
REMARK    3  A    between atoms: C_9  and  C_36 
REMARK    4  A    between atoms: C_10  and  C_16 
REMARK    5  A    between atoms: C_16  and  C_17 
REMARK       I    between atoms: C_17  and  N_19 
REMARK    6  A    between atoms: N_19  and  C_20 
REMARK    7  A    between atoms: N_19  and  C_21 
REMARK    8  A    between atoms: C_21  and  C_22 
REMARK    9  A    between atoms: C_22  and  C_24 
REMARK   10  A    between atoms: C_22  and  O_35 
REMARK   11  A    between atoms: C_24  and  C_26 
REMARK   12  A    between atoms: C_24  and  O_34 
REMARK   13  A    between atoms: C_26  and  C_28 
REMARK   14  A    between atoms: C_26  and  O_33 
REMARK   15  A    between atoms: C_28  and  C_30 
REMARK   16  A    between atoms: C_28  and  O_32 
REMARK   17  A    between atoms: C_30  and  O_31 
ROOT
ATOM      1  C   LIG d   1       3.066  -0.444 -11.388  0.00  0.00     0.056 C 
ATOM      2  H   LIG d   1       2.927   0.637 -11.344  0.00  0.00     0.041 H 
ATOM      3  H   LIG d   1       3.837  -0.682 -12.120  0.00  0.00     0.041 H 
ENDROOT
BRANCH   1   4
ATOM      4  C   LIG d   1       3.486  -0.952 -10.033  0.00  0.00     0.049 A 
ATOM      5  C   LIG d   1       3.264  -0.198  -8.925  0.00  0.00    -0.029 A 
ATOM      6  C   LIG d   1       3.688  -0.733  -7.628  0.00  0.00     0.022 A 
ATOM      7  C   LIG d   1       3.487  -0.004  -6.456  0.00  0.00    -0.040 A 
ATOM      8  C   LIG d   1       4.307  -2.000  -7.578  0.00  0.00     0.143 A 
ATOM      9  C   LIG d   1       3.901  -0.538  -5.244  0.00  0.00     0.024 A 
ATOM     10  H   LIG d   1       3.013   0.967  -6.491  0.00  0.00     0.063 H 
ATOM     11  C   LIG d   1       3.854  -0.070  -3.851  0.00  0.00    -0.002 A 
ATOM     12  C   LIG d   1       4.522  -1.803  -5.195  0.00  0.00     0.139 A 
ATOM     13  C   LIG d   1       4.411  -1.039  -3.113  0.00  0.00     0.106 A 
ATOM     14  O   LIG d   1       4.803  -2.057  -3.901  0.00  0.00    -0.460 OA
ATOM     15  C   LIG d   1       4.723  -2.519  -6.365  0.00  0.00     0.024 A 
ATOM     16  H   LIG d   1       5.194  -3.490  -6.328  0.00  0.00     0.069 H 
ATOM     17  O   LIG d   1       4.497  -2.696  -8.721  0.00  0.00    -0.422 OA
ATOM     18  C   LIG d   1       4.110  -2.212  -9.912  0.00  0.00     0.341 A 
ATOM     19  O   LIG d   1       4.304  -2.876 -10.913  0.00  0.00    -0.245 OA
BRANCH   5  20
ATOM     20  C   LIG d   1       2.598   1.150  -9.027  0.00  0.00    -0.038 C 
ATOM     21  H   LIG d   1       2.136   1.399  -8.072  0.00  0.00     0.028 H 
ATOM     22  H   LIG d   1       3.343   1.905  -9.278  0.00  0.00     0.028 H 
ATOM     23  H   LIG d   1       1.834   1.119  -9.803  0.00  0.00     0.028 H 
ENDBRANCH   5  20
BRANCH  11  24
ATOM     24  C   LIG d   1       3.287   1.234  -3.352  0.00  0.00    -0.036 C 
ATOM     25  H   LIG d   1       3.760   2.061  -3.881  0.00  0.00     0.028 H 
ATOM     26  H   LIG d   1       2.213   1.255  -3.531  0.00  0.00     0.028 H 
ATOM     27  H   LIG d   1       3.480   1.328  -2.283  0.00  0.00     0.028 H 
ENDBRANCH  11  24
BRANCH  13  28
ATOM     28  C   LIG d   1       4.575  -0.996  -1.616  0.00  0.00    -0.006 C 
ATOM     29  H   LIG d   1       4.883   0.004  -1.314  0.00  0.00     0.031 H 
ATOM     30  H   LIG d   1       3.627  -1.243  -1.139  0.00  0.00     0.031 H 
ATOM     31  H   LIG d   1       5.333  -1.717  -1.313  0.00  0.00     0.031 H 
ENDBRANCH  13  28
ENDBRANCH   1   4
BRANCH   1  32
ATOM     32  C   LIG d   1       1.770  -1.100 -11.791  0.00  0.00     0.220 C 
ATOM     33  O   LIG d   1       0.784  -0.970 -11.097  0.00  0.00    -0.275 OA
ATOM     34  N   LIG d   1       1.708  -1.833 -12.920  0.00  0.00    -0.302 N 
BRANCH  34  35
ATOM     35  C   LIG d   1       2.900  -1.990 -13.758  0.00  0.00     0.003 C 
ATOM     36  H   LIG d   1       3.310  -1.009 -13.993  0.00  0.00     0.043 H 
ATOM     37  H   LIG d   1       3.647  -2.575 -13.220  0.00  0.00     0.043 H 
ATOM     38  H   LIG d   1       2.631  -2.504 -14.680  0.00  0.00     0.043 H 
ENDBRANCH  34  35
BRANCH  34  39
ATOM     39  C   LIG d   1       0.449  -2.471 -13.311  0.00  0.00     0.043 C 
ATOM     40  H   LIG d   1      -0.280  -2.360 -12.507  0.00  0.00     0.049 H 
ATOM     41  H   LIG d   1       0.067  -1.996 -14.215  0.00  0.00     0.049 H 
BRANCH  39  42
ATOM     42  C   LIG d   1       0.691  -3.958 -13.578  0.00  0.00     0.099 C 
ATOM     43  H   LIG d   1       1.671  -4.090 -14.034  0.00  0.00     0.064 H 
BRANCH  42  44
ATOM     44  C   LIG d   1       0.633  -4.728 -12.258  0.00  0.00     0.111 C 
ATOM     45  H   LIG d   1       0.379  -5.770 -12.455  0.00  0.00     0.065 H 
BRANCH  44  46
ATOM     46  C   LIG d   1      -0.432  -4.107 -11.351  0.00  0.00     0.111 C 
ATOM     47  H   LIG d   1      -0.881  -3.250 -11.852  0.00  0.00     0.065 H 
BRANCH  46  48
ATOM     48  C   LIG d   1      -1.514  -5.145 -11.050  0.00  0.00     0.106 C 
ATOM     49  H   LIG d   1      -1.816  -5.635 -11.976  0.00  0.00     0.064 H 
BRANCH  48  50
ATOM     50  C   LIG d   1      -0.964  -6.190 -10.077  0.00  0.00     0.073 C 
ATOM     51  H   LIG d   1      -1.363  -7.170 -10.333  0.00  0.00     0.058 H 
ATOM     52  H   LIG d   1       0.123  -6.210 -10.145  0.00  0.00     0.058 H 
BRANCH  50  53
ATOM     53  O   LIG d   1      -1.352  -5.850  -8.744  0.00  0.00    -0.392 OA
ATOM     54  H   LIG d   1      -0.608  -5.738  -8.136  0.00  0.00     0.209 HD
ENDBRANCH  50  53
ENDBRANCH  48  50
BRANCH  48  55
ATOM     55  O   LIG d   1      -2.645  -4.497 -10.464  0.00  0.00    -0.387 OA
ATOM     56  H   LIG d   1      -2.417  -3.795  -9.840  0.00  0.00     0.210 HD
ENDBRANCH  48  55
ENDBRANCH  46  48
BRANCH  46  57
ATOM     57  O   LIG d   1       0.174  -3.682 -10.128  0.00  0.00    -0.387 OA
ATOM     58  H   LIG d   1       1.140  -3.718 -10.134  0.00  0.00     0.210 HD
ENDBRANCH  46  57
ENDBRANCH  44  46
BRANCH  44  59
ATOM     59  O   LIG d   1       1.906  -4.662 -11.611  0.00  0.00    -0.387 OA
ATOM     60  H   LIG d   1       1.934  -5.105 -10.752  0.00  0.00     0.210 HD
ENDBRANCH  44  59
ENDBRANCH  42  44
BRANCH  42  61
ATOM     61  O   LIG d   1      -0.318  -4.452 -14.463  0.00  0.00    -0.388 OA
ATOM     62  H   LIG d   1      -1.216  -4.189 -14.221  0.00  0.00     0.210 HD
ENDBRANCH  42  61
ENDBRANCH  39  42
ENDBRANCH  34  39
ENDBRANCH   1  32
TORSDOF 17
ENDMDL
MODEL 8
REMARK VINA RESULT:      -5.9      6.082     10.148
REMARK  17 active torsions:
REMARK  status: ('A' for Active; 'I' for Inactive)
REMARK    1  A    between atoms: C_1  and  C_2 
REMARK    2  A    between atoms: C_3  and  C_37 
REMARK    3  A    between atoms: C_9  and  C_36 
REMARK    4  A    between atoms: C_10  and  C_16 
REMARK    5  A    between atoms: C_16  and  C_17 
REMARK       I    between atoms: C_17  and  N_19 
REMARK    6  A    between atoms: N_19  and  C_20 
REMARK    7  A    between atoms: N_19  and  C_21 
REMARK    8  A    between atoms: C_21  and  C_22 
REMARK    9  A    between atoms: C_22  and  C_24 
REMARK   10  A    between atoms: C_22  and  O_35 
REMARK   11  A    between atoms: C_24  and  C_26 
REMARK   12  A    between atoms: C_24  and  O_34 
REMARK   13  A    between atoms: C_26  and  C_28 
REMARK   14  A    between atoms: C_26  and  O_33 
REMARK   15  A    between atoms: C_28  and  C_30 
REMARK   16  A    between atoms: C_28  and  O_32 
REMARK   17  A    between atoms: C_30  and  O_31 
ROOT
ATOM      1  C   LIG d   1      12.819  10.982   1.556  0.00  0.00     0.056 C 
ATOM      2  H   LIG d   1      13.338  11.736   2.147  0.00  0.00     0.041 H 
ATOM      3  H   LIG d   1      13.494  10.587   0.797  0.00  0.00     0.041 H 
ENDROOT
BRANCH   1   4
ATOM      4  C   LIG d   1      12.366   9.862   2.457  0.00  0.00     0.049 A 
ATOM      5  C   LIG d   1      12.405  10.016   3.805  0.00  0.00    -0.029 A 
ATOM      6  C   LIG d   1      11.954   8.901   4.643  0.00  0.00     0.022 A 
ATOM      7  C   LIG d   1      11.972   9.001   6.034  0.00  0.00    -0.040 A 
ATOM      8  C   LIG d   1      11.499   7.719   4.022  0.00  0.00     0.143 A 
ATOM      9  C   LIG d   1      11.539   7.926   6.798  0.00  0.00     0.024 A 
ATOM     10  H   LIG d   1      12.319   9.905   6.512  0.00  0.00     0.063 H 
ATOM     11  C   LIG d   1      11.420   7.681   8.243  0.00  0.00    -0.002 A 
ATOM     12  C   LIG d   1      11.087   6.744   6.178  0.00  0.00     0.139 A 
ATOM     13  C   LIG d   1      10.926   6.443   8.371  0.00  0.00     0.106 A 
ATOM     14  O   LIG d   1      10.730   5.891   7.160  0.00  0.00    -0.460 OA
ATOM     15  C   LIG d   1      11.077   6.651   4.794  0.00  0.00     0.024 A 
ATOM     16  H   LIG d   1      10.727   5.747   4.317  0.00  0.00     0.069 H 
ATOM     17  O   LIG d   1      11.488   7.634   2.673  0.00  0.00    -0.422 OA
ATOM     18  C   LIG d   1      11.899   8.652   1.902  0.00  0.00     0.341 A 
ATOM     19  O   LIG d   1      11.870   8.528   0.691  0.00  0.00    -0.245 OA
BRANCH   5  20
ATOM     20  C   LIG d   1      12.898  11.299   4.424  0.00  0.00    -0.038 C 
ATOM     21  H   LIG d   1      12.053  11.965   4.600  0.00  0.00     0.028 H 
ATOM     22  H   LIG d   1      13.391  11.080   5.371  0.00  0.00     0.028 H 
ATOM     23  H   LIG d   1      13.604  11.780   3.748  0.00  0.00     0.028 H 
ENDBRANCH   5  20
BRANCH  11  24
ATOM     24  C   LIG d   1      11.776   8.633   9.355  0.00  0.00    -0.036 C 
ATOM     25  H   LIG d   1      11.263   9.581   9.201  0.00  0.00     0.028 H 
ATOM     26  H   LIG d   1      11.472   8.205  10.310  0.00  0.00     0.028 H 
ATOM     27  H   LIG d   1      12.854   8.799   9.359  0.00  0.00     0.028 H 
ENDBRANCH  11  24
BRANCH  13  28
ATOM     28  C   LIG d   1      10.632   5.764   9.684  0.00  0.00    -0.006 C 
ATOM     29  H   LIG d   1      11.559   5.640  10.243  0.00  0.00     0.031 H 
ATOM     30  H   LIG d   1       9.938   6.374  10.261  0.00  0.00     0.031 H 
ATOM     31  H   LIG d   1      10.188   4.787   9.497  0.00  0.00     0.031 H 
ENDBRANCH  13  28
ENDBRANCH   1   4
BRANCH   1  32
ATOM     32  C   LIG d   1      11.620  11.606   0.888  0.00  0.00     0.220 C 
ATOM     33  O   LIG d   1      10.672  11.962   1.555  0.00  0.00    -0.275 OA
ATOM     34  N   LIG d   1      11.601  11.765  -0.450  0.00  0.00    -0.302 N 
BRANCH  34  35
ATOM     35  C   LIG d   1      12.747  11.334  -1.255  0.00  0.00     0.003 C 
ATOM     36  H   LIG d   1      12.444  10.517  -1.909  0.00  0.00     0.043 H 
ATOM     37  H   LIG d   1      13.101  12.170  -1.859  0.00  0.00     0.043 H 
ATOM     38  H   LIG d   1      13.547  10.996  -0.597  0.00  0.00     0.043 H 
ENDBRANCH  34  35
BRANCH  34  39
ATOM     39  C   LIG d   1      10.436  12.371  -1.099  0.00  0.00     0.043 C 
ATOM     40  H   LIG d   1       9.668  12.573  -0.351  0.00  0.00     0.049 H 
ATOM     41  H   LIG d   1      10.732  13.304  -1.578  0.00  0.00     0.049 H 
BRANCH  39  42
ATOM     42  C   LIG d   1       9.881  11.410  -2.152  0.00  0.00     0.099 C 
ATOM     43  H   LIG d   1      10.641  11.222  -2.910  0.00  0.00     0.064 H 
BRANCH  42  44
ATOM     44  C   LIG d   1       9.491  10.091  -1.483  0.00  0.00     0.111 C 
ATOM     45  H   LIG d   1       9.952  10.033  -0.497  0.00  0.00     0.065 H 
BRANCH  44  46
ATOM     46  C   LIG d   1       9.976   8.921  -2.341  0.00  0.00     0.111 C 
ATOM     47  H   LIG d   1      11.064   8.941  -2.403  0.00  0.00     0.065 H 
BRANCH  46  48
ATOM     48  C   LIG d   1       9.527   7.603  -1.708  0.00  0.00     0.106 C 
ATOM     49  H   LIG d   1       8.592   7.279  -2.167  0.00  0.00     0.064 H 
BRANCH  48  50
ATOM     50  C   LIG d   1      10.601   6.536  -1.933  0.00  0.00     0.073 C 
ATOM     51  H   LIG d   1      10.911   6.549  -2.977  0.00  0.00     0.058 H 
ATOM     52  H   LIG d   1      11.459   6.746  -1.296  0.00  0.00     0.058 H 
BRANCH  50  53
ATOM     53  O   LIG d   1      10.070   5.250  -1.608  0.00  0.00    -0.392 OA
ATOM     54  H   LIG d   1       9.244   5.039  -2.065  0.00  0.00     0.209 HD
ENDBRANCH  50  53
ENDBRANCH  48  50
BRANCH  48  55
ATOM     55  O   LIG d   1       9.329   7.791  -0.306  0.00  0.00    -0.387 OA
ATOM     56  H   LIG d   1       8.503   7.416   0.028  0.00  0.00     0.210 HD
ENDBRANCH  48  55
ENDBRANCH  46  48
BRANCH  46  57
ATOM     57  O   LIG d   1       9.421   9.032  -3.654  0.00  0.00    -0.387 OA
ATOM     58  H   LIG d   1      10.011   8.729  -4.357  0.00  0.00     0.210 HD
ENDBRANCH  46  57
ENDBRANCH  44  46
BRANCH  44  59
ATOM     59  O   LIG d   1       8.070  10.026  -1.349  0.00  0.00    -0.387 OA
ATOM     60  H   LIG d   1       7.666  10.847  -1.037  0.00  0.00     0.210 HD
ENDBRANCH  44  59
ENDBRANCH  42  44
BRANCH  42  61
ATOM     61  O   LIG d   1       8.728  11.992  -2.766  0.00  0.00    -0.388 OA
ATOM     62  H   LIG d   1       8.279  12.649  -2.217  0.00  0.00     0.210 HD
ENDBRANCH  42  61
ENDBRANCH  39  42
ENDBRANCH  34  39
ENDBRANCH   1  32
TORSDOF 17
ENDMDL
MODEL 9
REMARK VINA RESULT:      -5.8      4.292      9.809
REMARK  17 active torsions:
REMARK  status: ('A' for Active; 'I' for Inactive)
REMARK    1  A    between atoms: C_1  and  C_2 
REMARK    2  A    between atoms: C_3  and  C_37 
REMARK    3  A    between atoms: C_9  and  C_36 
REMARK    4  A    between atoms: C_10  and  C_16 
REMARK    5  A    between atoms: C_16  and  C_17 
REMARK       I    between atoms: C_17  and  N_19 
REMARK    6  A    between atoms: N_19  and  C_20 
REMARK    7  A    between atoms: N_19  and  C_21 
REMARK    8  A    between atoms: C_21  and  C_22 
REMARK    9  A    between atoms: C_22  and  C_24 
REMARK   10  A    between atoms: C_22  and  O_35 
REMARK   11  A    between atoms: C_24  and  C_26 
REMARK   12  A    between atoms: C_24  and  O_34 
REMARK   13  A    between atoms: C_26  and  C_28 
REMARK   14  A    between atoms: C_26  and  O_33 
REMARK   15  A    between atoms: C_28  and  C_30 
REMARK   16  A    between atoms: C_28  and  O_32 
REMARK   17  A    between atoms: C_30  and  O_31 
ROOT
ATOM      1  C   LIG d   1      10.976   4.038  -6.104  0.00  0.00     0.056 C 
ATOM      2  H   LIG d   1      11.009   4.672  -5.217  0.00  0.00     0.041 H 
ATOM      3  H   LIG d   1      11.988   3.739  -6.375  0.00  0.00     0.041 H 
ENDROOT
BRANCH   1   4
ATOM      4  C   LIG d   1      10.150   2.812  -5.814  0.00  0.00     0.049 A 
ATOM      5  C   LIG d   1       9.125   2.876  -4.926  0.00  0.00    -0.029 A 
ATOM      6  C   LIG d   1       8.348   1.659  -4.676  0.00  0.00     0.022 A 
ATOM      7  C   LIG d   1       7.284   1.664  -3.773  0.00  0.00    -0.040 A 
ATOM      8  C   LIG d   1       8.690   0.475  -5.362  0.00  0.00     0.143 A 
ATOM      9  C   LIG d   1       6.569   0.494  -3.559  0.00  0.00     0.024 A 
ATOM     10  H   LIG d   1       7.020   2.569  -3.246  0.00  0.00     0.063 H 
ATOM     11  C   LIG d   1       5.425   0.136  -2.709  0.00  0.00    -0.002 A 
ATOM     12  C   LIG d   1       6.914  -0.690  -4.243  0.00  0.00     0.139 A 
ATOM     13  C   LIG d   1       5.178  -1.159  -2.942  0.00  0.00     0.106 A 
ATOM     14  O   LIG d   1       6.051  -1.646  -3.842  0.00  0.00    -0.460 OA
ATOM     15  C   LIG d   1       7.976  -0.688  -5.135  0.00  0.00     0.024 A 
ATOM     16  H   LIG d   1       8.238  -1.593  -5.663  0.00  0.00     0.069 H 
ATOM     17  O   LIG d   1       9.724   0.482  -6.234  0.00  0.00    -0.422 OA
ATOM     18  C   LIG d   1      10.439   1.594  -6.467  0.00  0.00     0.341 A 
ATOM     19  O   LIG d   1      11.361   1.551  -7.260  0.00  0.00    -0.245 OA
BRANCH   5  20
ATOM     20  C   LIG d   1       8.795   4.164  -4.217  0.00  0.00    -0.038 C 
ATOM     21  H   LIG d   1       7.777   4.464  -4.464  0.00  0.00     0.028 H 
ATOM     22  H   LIG d   1       8.879   4.018  -3.140  0.00  0.00     0.028 H 
ATOM     23  H   LIG d   1       9.490   4.941  -4.535  0.00  0.00     0.028 H 
ENDBRANCH   5  20
BRANCH  11  24
ATOM     24  C   LIG d   1       4.675   1.046  -1.770  0.00  0.00    -0.036 C 
ATOM     25  H   LIG d   1       4.191   1.838  -2.341  0.00  0.00     0.028 H 
ATOM     26  H   LIG d   1       3.921   0.472  -1.233  0.00  0.00     0.028 H 
ATOM     27  H   LIG d   1       5.373   1.486  -1.057  0.00  0.00     0.028 H 
ENDBRANCH  11  24
BRANCH  13  28
ATOM     28  C   LIG d   1       4.080  -1.958  -2.288  0.00  0.00    -0.006 C 
ATOM     29  H   LIG d   1       3.983  -1.656  -1.246  0.00  0.00     0.031 H 
ATOM     30  H   LIG d   1       3.140  -1.776  -2.808  0.00  0.00     0.031 H 
ATOM     31  H   LIG d   1       4.324  -3.019  -2.337  0.00  0.00     0.031 H 
ENDBRANCH  13  28
ENDBRANCH   1   4
BRANCH   1  32
ATOM     32  C   LIG d   1      10.355   4.805  -7.244  0.00  0.00     0.220 C 
ATOM     33  O   LIG d   1      10.083   4.236  -8.280  0.00  0.00    -0.275 OA
ATOM     34  N   LIG d   1      10.105   6.122  -7.114  0.00  0.00    -0.302 N 
BRANCH  34  35
ATOM     35  C   LIG d   1      10.434   6.810  -5.862  0.00  0.00     0.003 C 
ATOM     36  H   LIG d   1       9.959   7.790  -5.850  0.00  0.00     0.043 H 
ATOM     37  H   LIG d   1      10.073   6.221  -5.018  0.00  0.00     0.043 H 
ATOM     38  H   LIG d   1      11.515   6.928  -5.786  0.00  0.00     0.043 H 
ENDBRANCH  34  35
BRANCH  34  39
ATOM     39  C   LIG d   1       9.502   6.867  -8.222  0.00  0.00     0.043 C 
ATOM     40  H   LIG d   1      10.151   6.807  -9.095  0.00  0.00     0.049 H 
ATOM     41  H   LIG d   1       8.530   6.437  -8.461  0.00  0.00     0.049 H 
BRANCH  39  42
ATOM     42  C   LIG d   1       9.327   8.332  -7.817  0.00  0.00     0.099 C 
ATOM     43  H   LIG d   1       9.082   8.389  -6.757  0.00  0.00     0.064 H 
BRANCH  42  44
ATOM     44  C   LIG d   1      10.627   9.093  -8.082  0.00  0.00     0.111 C 
ATOM     45  H   LIG d   1      11.477   8.448  -7.860  0.00  0.00     0.065 H 
BRANCH  44  46
ATOM     46  C   LIG d   1      10.683  10.334  -7.190  0.00  0.00     0.111 C 
ATOM     47  H   LIG d   1      11.509  10.238  -6.485  0.00  0.00     0.065 H 
BRANCH  46  48
ATOM     48  C   LIG d   1      10.895  11.577  -8.055  0.00  0.00     0.106 C 
ATOM     49  H   LIG d   1      10.526  11.384  -9.063  0.00  0.00     0.064 H 
BRANCH  48  50
ATOM     50  C   LIG d   1      10.132  12.758  -7.451  0.00  0.00     0.073 C 
ATOM     51  H   LIG d   1      10.043  12.619  -6.374  0.00  0.00     0.058 H 
ATOM     52  H   LIG d   1      10.673  13.681  -7.655  0.00  0.00     0.058 H 
BRANCH  50  53
ATOM     53  O   LIG d   1       8.829  12.830  -8.032  0.00  0.00    -0.392 OA
ATOM     54  H   LIG d   1       8.407  11.969  -8.158  0.00  0.00     0.209 HD
ENDBRANCH  50  53
ENDBRANCH  48  50
BRANCH  48  55
ATOM     55  O   LIG d   1      12.288  11.888  -8.110  0.00  0.00    -0.387 OA
ATOM     56  H   LIG d   1      12.611  12.382  -7.344  0.00  0.00     0.210 HD
ENDBRANCH  48  55
ENDBRANCH  46  48
BRANCH  46  57
ATOM     57  O   LIG d   1       9.454  10.459  -6.470  0.00  0.00    -0.387 OA
ATOM     58  H   LIG d   1       8.668  10.466  -7.033  0.00  0.00     0.210 HD
ENDBRANCH  46  57
ENDBRANCH  44  46
BRANCH  44  59
ATOM     59  O   LIG d   1      10.675   9.491  -9.454  0.00  0.00    -0.387 OA
ATOM     60  H   LIG d   1      10.592  10.444  -9.590  0.00  0.00     0.210 HD
ENDBRANCH  44  59
ENDBRANCH  42  44
BRANCH  42  61
ATOM     61  O   LIG d   1       8.269   8.914  -8.583  0.00  0.00    -0.388 OA
ATOM     62  H   LIG d   1       7.462   8.382  -8.606  0.00  0.00     0.210 HD
ENDBRANCH  42  61
ENDBRANCH  39  42
ENDBRANCH  34  39
ENDBRANCH   1  32
TORSDOF 17
ENDMDL
MODEL 10
REMARK VINA RESULT:      -5.5      6.712     10.655
REMARK  17 active torsions:
REMARK  status: ('A' for Active; 'I' for Inactive)
REMARK    1  A    between atoms: C_1  and  C_2 
REMARK    2  A    between atoms: C_3  and  C_37 
REMARK    3  A    between atoms: C_9  and  C_36 
REMARK    4  A    between atoms: C_10  and  C_16 
REMARK    5  A    between atoms: C_16  and  C_17 
REMARK       I    between atoms: C_17  and  N_19 
REMARK    6  A    between atoms: N_19  and  C_20 
REMARK    7  A    between atoms: N_19  and  C_21 
REMARK    8  A    between atoms: C_21  and  C_22 
REMARK    9  A    between atoms: C_22  and  C_24 
REMARK   10  A    between atoms: C_22  and  O_35 
REMARK   11  A    between atoms: C_24  and  C_26 
REMARK   12  A    between atoms: C_24  and  O_34 
REMARK   13  A    between atoms: C_26  and  C_28 
REMARK   14  A    between atoms: C_26  and  O_33 
REMARK   15  A    between atoms: C_28  and  C_30 
REMARK   16  A    between atoms: C_28  and  O_32 
REMARK   17  A    between atoms: C_30  and  O_31 
ROOT
ATOM      1  C   LIG d   1       6.730  -7.111  -6.423  0.00  0.00     0.056 C 
ATOM      2  H   LIG d   1       5.853  -7.095  -7.071  0.00  0.00     0.041 H 
ATOM      3  H   LIG d   1       7.624  -7.266  -7.026  0.00  0.00     0.041 H 
ENDROOT
BRANCH   1   4
ATOM      4  C   LIG d   1       6.837  -5.797  -5.692  0.00  0.00     0.049 A 
ATOM      5  C   LIG d   1       5.718  -5.085  -5.405  0.00  0.00    -0.029 A 
ATOM      6  C   LIG d   1       5.871  -3.813  -4.692  0.00  0.00     0.022 A 
ATOM      7  C   LIG d   1       4.757  -3.038  -4.370  0.00  0.00    -0.040 A 
ATOM      8  C   LIG d   1       7.165  -3.380  -4.334  0.00  0.00     0.143 A 
ATOM      9  C   LIG d   1       4.936  -1.838  -3.696  0.00  0.00     0.024 A 
ATOM     10  H   LIG d   1       3.765  -3.367  -4.643  0.00  0.00     0.063 H 
ATOM     11  C   LIG d   1       4.024  -0.794  -3.207  0.00  0.00    -0.002 A 
ATOM     12  C   LIG d   1       6.229  -1.404  -3.341  0.00  0.00     0.139 A 
ATOM     13  C   LIG d   1       4.796   0.131  -2.622  0.00  0.00     0.106 A 
ATOM     14  O   LIG d   1       6.091  -0.226  -2.699  0.00  0.00    -0.460 OA
ATOM     15  C   LIG d   1       7.332  -2.179  -3.668  0.00  0.00     0.024 A 
ATOM     16  H   LIG d   1       8.323  -1.849  -3.393  0.00  0.00     0.069 H 
ATOM     17  O   LIG d   1       8.236  -4.140  -4.653  0.00  0.00    -0.422 OA
ATOM     18  C   LIG d   1       8.102  -5.305  -5.305  0.00  0.00     0.341 A 
ATOM     19  O   LIG d   1       9.097  -5.954  -5.569  0.00  0.00    -0.245 OA
BRANCH   5  20
ATOM     20  C   LIG d   1       4.356  -5.589  -5.807  0.00  0.00    -0.038 C 
ATOM     21  H   LIG d   1       4.454  -6.573  -6.266  0.00  0.00     0.028 H 
ATOM     22  H   LIG d   1       3.721  -5.662  -4.924  0.00  0.00     0.028 H 
ATOM     23  H   LIG d   1       3.909  -4.898  -6.521  0.00  0.00     0.028 H 
ENDBRANCH   5  20
BRANCH  11  24
ATOM     24  C   LIG d   1       2.523  -0.771  -3.334  0.00  0.00    -0.036 C 
ATOM     25  H   LIG d   1       2.235  -0.076  -4.122  0.00  0.00     0.028 H 
ATOM     26  H   LIG d   1       2.164  -1.770  -3.582  0.00  0.00     0.028 H 
ATOM     27  H   LIG d   1       2.084  -0.451  -2.388  0.00  0.00     0.028 H 
ENDBRANCH  11  24
BRANCH  13  28
ATOM     28  C   LIG d   1       4.287   1.391  -1.970  0.00  0.00    -0.006 C 
ATOM     29  H   LIG d   1       5.043   2.171  -2.049  0.00  0.00     0.031 H 
ATOM     30  H   LIG d   1       3.375   1.716  -2.470  0.00  0.00     0.031 H 
ATOM     31  H   LIG d   1       4.075   1.196  -0.919  0.00  0.00     0.031 H 
ENDBRANCH  13  28
ENDBRANCH   1   4
BRANCH   1  32
ATOM     32  C   LIG d   1       6.595  -8.232  -5.424  0.00  0.00     0.220 C 
ATOM     33  O   LIG d   1       5.597  -8.319  -4.741  0.00  0.00    -0.275 OA
ATOM     34  N   LIG d   1       7.585  -9.136  -5.288  0.00  0.00    -0.302 N 
BRANCH  34  35
ATOM     35  C   LIG d   1       8.792  -9.030  -6.113  0.00  0.00     0.003 C 
ATOM     36  H   LIG d   1       8.890  -9.923  -6.729  0.00  0.00     0.043 H 
ATOM     37  H   LIG d   1       8.717  -8.152  -6.755  0.00  0.00     0.043 H 
ATOM     38  H   LIG d   1       9.666  -8.935  -5.468  0.00  0.00     0.043 H 
ENDBRANCH  34  35
BRANCH  34  39
ATOM     39  C   LIG d   1       7.455 -10.225  -4.317  0.00  0.00     0.043 C 
ATOM     40  H   LIG d   1       6.453 -10.211  -3.888  0.00  0.00     0.049 H 
ATOM     41  H   LIG d   1       7.624 -11.178  -4.817  0.00  0.00     0.049 H 
BRANCH  39  42
ATOM     42  C   LIG d   1       8.488 -10.042  -3.203  0.00  0.00     0.099 C 
ATOM     43  H   LIG d   1       9.452  -9.786  -3.640  0.00  0.00     0.064 H 
BRANCH  42  44
ATOM     44  C   LIG d   1       8.036  -8.918  -2.269  0.00  0.00     0.111 C 
ATOM     45  H   LIG d   1       7.266  -8.324  -2.761  0.00  0.00     0.065 H 
BRANCH  44  46
ATOM     46  C   LIG d   1       9.231  -8.024  -1.932  0.00  0.00     0.111 C 
ATOM     47  H   LIG d   1       8.903  -7.205  -1.291  0.00  0.00     0.065 H 
BRANCH  46  48
ATOM     48  C   LIG d   1      10.295  -8.846  -1.202  0.00  0.00     0.106 C 
ATOM     49  H   LIG d   1      10.419  -9.805  -1.704  0.00  0.00     0.064 H 
BRANCH  48  50
ATOM     50  C   LIG d   1      11.624  -8.088  -1.216  0.00  0.00     0.073 C 
ATOM     51  H   LIG d   1      12.439  -8.788  -1.397  0.00  0.00     0.058 H 
ATOM     52  H   LIG d   1      11.606  -7.339  -2.007  0.00  0.00     0.058 H 
BRANCH  50  53
ATOM     53  O   LIG d   1      11.818  -7.445   0.045  0.00  0.00    -0.392 OA
ATOM     54  H   LIG d   1      11.310  -7.837   0.768  0.00  0.00     0.209 HD
ENDBRANCH  50  53
ENDBRANCH  48  50
BRANCH  48  55
ATOM     55  O   LIG d   1       9.885  -9.065   0.148  0.00  0.00    -0.387 OA
ATOM     56  H   LIG d   1      10.544  -9.519   0.691  0.00  0.00     0.210 HD
ENDBRANCH  48  55
ENDBRANCH  46  48
BRANCH  46  57
ATOM     57  O   LIG d   1       9.783  -7.493  -3.138  0.00  0.00    -0.387 OA
ATOM     58  H   LIG d   1      10.428  -6.786  -2.998  0.00  0.00     0.210 HD
ENDBRANCH  46  57
ENDBRANCH  44  46
BRANCH  44  59
ATOM     59  O   LIG d   1       7.509  -9.481  -1.066  0.00  0.00    -0.387 OA
ATOM     60  H   LIG d   1       7.320 -10.427  -1.124  0.00  0.00     0.210 HD
ENDBRANCH  44  59
ENDBRANCH  42  44
BRANCH  42  61
ATOM     61  O   LIG d   1       8.608 -11.259  -2.462  0.00  0.00    -0.388 OA
ATOM     62  H   LIG d   1       7.782 -11.755  -2.384  0.00  0.00     0.210 HD
ENDBRANCH  42  61
ENDBRANCH  39  42
ENDBRANCH  34  39
ENDBRANCH   1  32
TORSDOF 17
ENDMDL
