MODEL 1
REMARK VINA RESULT:      -6.5      0.000      0.000
REMARK  12 active torsions:
REMARK  status: ('A' for Active; 'I' for Inactive)
REMARK    1  A    between atoms: C_1  and  C_2 
REMARK    2  A    between atoms: C_5  and  O_37 
REMARK    3  A    between atoms: C_7  and  C_34 
REMARK    4  A    between atoms: C_7  and  C_35 
REMARK    5  A    between atoms: C_14  and  N_16 
REMARK       I    between atoms: N_16  and  C_17 
REMARK    6  A    between atoms: C_17  and  O_19 
REMARK    7  A    between atoms: O_19  and  C_20 
REMARK    8  A    between atoms: C_20  and  C_21 
REMARK    9  A    between atoms: C_23  and  C_25 
REMARK   10  A    between atoms: C_25  and  C_26 
REMARK       I    between atoms: C_26  and  N_28 
REMARK   11  A    between atoms: N_28  and  C_29 
REMARK   12  A    between atoms: C_35  and  O_36 
ROOT
ATOM      1  C   LIG d   1       8.759  -3.423  -4.877  0.00  0.00    -0.019 C 
ATOM      2  C   LIG d   1       8.607  -3.975  -3.456  0.00  0.00    -0.044 C 
ATOM      3  C   LIG d   1       9.818  -4.828  -3.085  0.00  0.00    -0.026 C 
ATOM      4  C   LIG d   1      11.075  -3.953  -3.141  0.00  0.00     0.063 C 
ATOM      5  H   LIG d   1      10.963  -3.109  -2.460  0.00  0.00     0.060 H 
ATOM      6  C   LIG d   1      11.252  -3.442  -4.570  0.00  0.00     0.021 C 
ATOM      7  C   LIG d   1      10.043  -2.598  -4.988  0.00  0.00    -0.021 C 
ATOM      8  H   LIG d   1       9.972  -1.712  -4.358  0.00  0.00     0.032 H 
ATOM      9  C   LIG d   1      10.255  -2.198  -6.462  0.00  0.00    -0.016 C 
ATOM     10  C   LIG d   1       8.980  -1.696  -7.023  0.00  0.00     0.015 A 
ATOM     11  C   LIG d   1       7.736  -1.817  -6.492  0.00  0.00     0.058 A 
ATOM     12  N   LIG d   1       6.746  -1.270  -7.194  0.00  0.00    -0.229 NA
ATOM     13  C   LIG d   1       6.956  -0.648  -8.336  0.00  0.00     0.167 A 
ATOM     14  S   LIG d   1       8.678  -0.796  -8.519  0.00  0.00    -0.057 SA
ATOM     15  C   LIG d   1       7.537  -2.543  -5.169  0.00  0.00     0.016 C 
ATOM     16  H   LIG d   1       7.417  -1.811  -4.369  0.00  0.00     0.037 H 
ATOM     17  H   LIG d   1       7.706  -4.586  -3.399  0.00  0.00     0.027 H 
ATOM     18  H   LIG d   1       8.523  -3.146  -2.754  0.00  0.00     0.027 H 
ATOM     19  H   LIG d   1       9.915  -5.652  -3.792  0.00  0.00     0.029 H 
ATOM     20  H   LIG d   1       9.693  -5.222  -2.076  0.00  0.00     0.029 H 
ATOM     21  H   LIG d   1      11.016  -1.421  -6.522  0.00  0.00     0.032 H 
ATOM     22  H   LIG d   1      10.574  -3.069  -7.034  0.00  0.00     0.032 H 
ENDROOT
BRANCH  15  23
ATOM     23  C   LIG d   1       6.285  -3.418  -5.251  0.00  0.00     0.033 C 
ATOM     24  H   LIG d   1       5.947  -3.472  -6.287  0.00  0.00     0.036 H 
ATOM     25  H   LIG d   1       6.518  -4.420  -4.893  0.00  0.00     0.036 H 
BRANCH  23  26
ATOM     26  C   LIG d   1       5.196  -2.820  -4.399  0.00  0.00     0.214 C 
ATOM     27  O   LIG d   1       4.335  -3.533  -3.927  0.00  0.00    -0.276 OA
ATOM     28  N   LIG d   1       5.178  -1.494  -4.160  0.00  0.00    -0.312 N 
ATOM     29  H   LIG d   1       5.867  -0.924  -4.536  0.00  0.00     0.149 HD
BRANCH  28  30
ATOM     30  C   LIG d   1       4.120  -0.913  -3.331  0.00  0.00     0.023 C 
ATOM     31  C   LIG d   1       4.633  -0.692  -1.898  0.00  0.00    -0.035 C 
ATOM     32  C   LIG d   1       4.533   0.822  -1.621  0.00  0.00    -0.051 C 
ATOM     33  H   LIG d   1       4.013  -1.244  -1.190  0.00  0.00     0.028 H 
ATOM     34  H   LIG d   1       5.671  -1.019  -1.818  0.00  0.00     0.028 H 
ATOM     35  C   LIG d   1       3.444   1.316  -2.605  0.00  0.00    -0.051 C 
ATOM     36  H   LIG d   1       4.225   1.001  -0.590  0.00  0.00     0.027 H 
ATOM     37  H   LIG d   1       5.484   1.312  -1.827  0.00  0.00     0.027 H 
ATOM     38  C   LIG d   1       3.724   0.476  -3.876  0.00  0.00    -0.035 C 
ATOM     39  H   LIG d   1       2.447   1.107  -2.216  0.00  0.00     0.027 H 
ATOM     40  H   LIG d   1       3.564   2.380  -2.811  0.00  0.00     0.027 H 
ATOM     41  H   LIG d   1       4.545   0.910  -4.446  0.00  0.00     0.028 H 
ATOM     42  H   LIG d   1       2.828   0.403  -4.490  0.00  0.00     0.028 H 
ATOM     43  H   LIG d   1       3.251  -1.571  -3.320  0.00  0.00     0.050 H 
ENDBRANCH  28  30
ENDBRANCH  23  26
ENDBRANCH  15  23
BRANCH   1  44
ATOM     44  C   LIG d   1       8.805  -4.582  -5.875  0.00  0.00    -0.059 C 
ATOM     45  H   LIG d   1       8.665  -5.524  -5.345  0.00  0.00     0.024 H 
ATOM     46  H   LIG d   1       8.012  -4.458  -6.613  0.00  0.00     0.024 H 
ATOM     47  H   LIG d   1       9.773  -4.589  -6.378  0.00  0.00     0.024 H 
ENDBRANCH   1  44
BRANCH   6  48
ATOM     48  C   LIG d   1      12.517  -2.586  -4.649  0.00  0.00    -0.055 C 
ATOM     49  H   LIG d   1      13.354  -3.204  -4.973  0.00  0.00     0.024 H 
ATOM     50  H   LIG d   1      12.366  -1.777  -5.363  0.00  0.00     0.024 H 
ATOM     51  H   LIG d   1      12.735  -2.167  -3.666  0.00  0.00     0.024 H 
ENDBRANCH   6  48
BRANCH   6  52
ATOM     52  C   LIG d   1      11.387  -4.632  -5.521  0.00  0.00     0.052 C 
ATOM     53  H   LIG d   1      10.810  -5.474  -5.134  0.00  0.00     0.056 H 
ATOM     54  H   LIG d   1      11.010  -4.357  -6.506  0.00  0.00     0.056 H 
BRANCH  52  55
ATOM     55  O   LIG d   1      12.763  -5.006  -5.624  0.00  0.00    -0.394 OA
ATOM     56  H   LIG d   1      12.917  -5.958  -5.553  0.00  0.00     0.209 HD
ENDBRANCH  52  55
ENDBRANCH   6  52
BRANCH  13  57
ATOM     57  N   LIG d   1       6.038  -0.031  -9.177  0.00  0.00    -0.230 N 
ATOM     58  C   LIG d   1       5.849   1.301  -9.107  0.00  0.00     0.406 C 
ATOM     59  O   LIG d   1       6.480   1.963  -8.307  0.00  0.00    -0.226 OA
ATOM     60  H   LIG d   1       5.534  -0.560  -9.815  0.00  0.00     0.160 HD
BRANCH  58  61
ATOM     61  O   LIG d   1       4.959   1.899  -9.923  0.00  0.00    -0.446 OA
BRANCH  61  62
ATOM     62  C   LIG d   1       3.963   2.752  -9.299  0.00  0.00     0.112 C 
ATOM     63  H   LIG d   1       4.451   3.422  -8.592  0.00  0.00     0.074 H 
ATOM     64  H   LIG d   1       3.457   3.339 -10.065  0.00  0.00     0.074 H 
BRANCH  62  65
ATOM     65  C   LIG d   1       2.957   1.898  -8.571  0.00  0.00    -0.054 C 
ATOM     66  C   LIG d   1       2.412   0.870  -9.173  0.00  0.00    -0.100 C 
ATOM     67  H   LIG d   1       2.683   0.635 -10.192  0.00  0.00     0.053 H 
ATOM     68  H   LIG d   1       1.692   0.258  -8.651  0.00  0.00     0.053 H 
ATOM     69  H   LIG d   1       2.687   2.132  -7.552  0.00  0.00     0.060 H 
ENDBRANCH  62  65
ENDBRANCH  61  62
ENDBRANCH  58  61
ENDBRANCH  13  57
BRANCH   4  70
ATOM     70  O   LIG d   1      12.215  -4.726  -2.765  0.00  0.00    -0.391 OA
ATOM     71  H   LIG d   1      13.056  -4.254  -2.851  0.00  0.00     0.210 HD
ENDBRANCH   4  70
TORSDOF 12
ENDMDL
MODEL 2
REMARK VINA RESULT:      -6.3      4.086      7.381
REMARK  12 active torsions:
REMARK  status: ('A' for Active; 'I' for Inactive)
REMARK    1  A    between atoms: C_1  and  C_2 
REMARK    2  A    between atoms: C_5  and  O_37 
REMARK    3  A    between atoms: C_7  and  C_34 
REMARK    4  A    between atoms: C_7  and  C_35 
REMARK    5  A    between atoms: C_14  and  N_16 
REMARK       I    between atoms: N_16  and  C_17 
REMARK    6  A    between atoms: C_17  and  O_19 
REMARK    7  A    between atoms: O_19  and  C_20 
REMARK    8  A    between atoms: C_20  and  C_21 
REMARK    9  A    between atoms: C_23  and  C_25 
REMARK   10  A    between atoms: C_25  and  C_26 
REMARK       I    between atoms: C_26  and  N_28 
REMARK   11  A    between atoms: N_28  and  C_29 
REMARK   12  A    between atoms: C_35  and  O_36 
ROOT
ATOM      1  C   LIG d   1       3.347  -0.297  -9.114  0.00  0.00    -0.019 C 
ATOM      2  C   LIG d   1       1.873  -0.601  -9.401  0.00  0.00    -0.044 C 
ATOM      3  C   LIG d   1       1.621  -0.638 -10.906  0.00  0.00    -0.026 C 
ATOM      4  C   LIG d   1       2.480  -1.745 -11.524  0.00  0.00     0.063 C 
ATOM      5  H   LIG d   1       2.235  -2.700 -11.059  0.00  0.00     0.060 H 
ATOM      6  C   LIG d   1       3.952  -1.417 -11.280  0.00  0.00     0.021 C 
ATOM      7  C   LIG d   1       4.241  -1.349  -9.776  0.00  0.00    -0.021 C 
ATOM      8  H   LIG d   1       4.070  -2.323  -9.321  0.00  0.00     0.032 H 
ATOM      9  C   LIG d   1       5.715  -0.927  -9.614  0.00  0.00    -0.016 C 
ATOM     10  C   LIG d   1       5.953  -0.501  -8.217  0.00  0.00     0.015 A 
ATOM     11  C   LIG d   1       5.025  -0.218  -7.267  0.00  0.00     0.058 A 
ATOM     12  N   LIG d   1       5.500   0.141  -6.076  0.00  0.00    -0.229 NA
ATOM     13  C   LIG d   1       6.791   0.218  -5.830  0.00  0.00     0.167 A 
ATOM     14  S   LIG d   1       7.481  -0.240  -7.358  0.00  0.00    -0.057 SA
ATOM     15  C   LIG d   1       3.543  -0.320  -7.593  0.00  0.00     0.016 C 
ATOM     16  H   LIG d   1       3.147  -1.253  -7.189  0.00  0.00     0.037 H 
ATOM     17  H   LIG d   1       1.251   0.172  -8.950  0.00  0.00     0.027 H 
ATOM     18  H   LIG d   1       1.614  -1.567  -8.968  0.00  0.00     0.027 H 
ATOM     19  H   LIG d   1       1.892   0.322 -11.345  0.00  0.00     0.029 H 
ATOM     20  H   LIG d   1       0.568  -0.845 -11.095  0.00  0.00     0.029 H 
ATOM     21  H   LIG d   1       6.364  -1.768  -9.860  0.00  0.00     0.032 H 
ATOM     22  H   LIG d   1       5.931  -0.091 -10.280  0.00  0.00     0.032 H 
ENDROOT
BRANCH  15  23
ATOM     23  C   LIG d   1       2.800   0.861  -6.965  0.00  0.00     0.033 C 
ATOM     24  H   LIG d   1       3.313   1.789  -7.220  0.00  0.00     0.036 H 
ATOM     25  H   LIG d   1       1.780   0.895  -7.348  0.00  0.00     0.036 H 
BRANCH  23  26
ATOM     26  C   LIG d   1       2.769   0.698  -5.467  0.00  0.00     0.214 C 
ATOM     27  O   LIG d   1       2.604   1.667  -4.755  0.00  0.00    -0.276 OA
ATOM     28  N   LIG d   1       2.926  -0.522  -4.919  0.00  0.00    -0.312 N 
ATOM     29  H   LIG d   1       3.058  -1.296  -5.488  0.00  0.00     0.149 HD
BRANCH  28  30
ATOM     30  C   LIG d   1       2.897  -0.680  -3.463  0.00  0.00     0.023 C 
ATOM     31  C   LIG d   1       3.575  -2.002  -3.062  0.00  0.00    -0.035 C 
ATOM     32  C   LIG d   1       4.772  -1.629  -2.163  0.00  0.00    -0.051 C 
ATOM     33  H   LIG d   1       2.874  -2.629  -2.511  0.00  0.00     0.028 H 
ATOM     34  H   LIG d   1       3.926  -2.527  -3.952  0.00  0.00     0.028 H 
ATOM     35  C   LIG d   1       4.397  -0.239  -1.590  0.00  0.00    -0.051 C 
ATOM     36  H   LIG d   1       4.885  -2.355  -1.357  0.00  0.00     0.027 H 
ATOM     37  H   LIG d   1       5.687  -1.565  -2.751  0.00  0.00     0.027 H 
ATOM     38  C   LIG d   1       3.705   0.450  -2.792  0.00  0.00    -0.035 C 
ATOM     39  H   LIG d   1       3.708  -0.340  -0.752  0.00  0.00     0.027 H 
ATOM     40  H   LIG d   1       5.291   0.309  -1.293  0.00  0.00     0.027 H 
ATOM     41  H   LIG d   1       4.447   0.850  -3.482  0.00  0.00     0.028 H 
ATOM     42  H   LIG d   1       3.039   1.241  -2.447  0.00  0.00     0.028 H 
ATOM     43  H   LIG d   1       1.867  -0.666  -3.106  0.00  0.00     0.050 H 
ENDBRANCH  28  30
ENDBRANCH  23  26
ENDBRANCH  15  23
BRANCH   1  44
ATOM     44  C   LIG d   1       3.700   1.090  -9.655  0.00  0.00    -0.059 C 
ATOM     45  H   LIG d   1       3.771   1.049 -10.742  0.00  0.00     0.024 H 
ATOM     46  H   LIG d   1       2.923   1.800  -9.368  0.00  0.00     0.024 H 
ATOM     47  H   LIG d   1       4.656   1.409  -9.240  0.00  0.00     0.024 H 
ENDBRANCH   1  44
BRANCH   6  48
ATOM     48  C   LIG d   1       4.826  -2.502 -11.913  0.00  0.00    -0.055 C 
ATOM     49  H   LIG d   1       4.209  -3.367 -12.159  0.00  0.00     0.024 H 
ATOM     50  H   LIG d   1       5.286  -2.114 -12.822  0.00  0.00     0.024 H 
ATOM     51  H   LIG d   1       5.603  -2.799 -11.210  0.00  0.00     0.024 H 
ENDBRANCH   6  48
BRANCH   6  52
ATOM     52  C   LIG d   1       4.282  -0.066 -11.917  0.00  0.00     0.052 C 
ATOM     53  H   LIG d   1       3.391   0.563 -11.918  0.00  0.00     0.056 H 
ATOM     54  H   LIG d   1       5.071   0.424 -11.345  0.00  0.00     0.056 H 
BRANCH  52  55
ATOM     55  O   LIG d   1       4.724  -0.268 -13.261  0.00  0.00    -0.394 OA
ATOM     56  H   LIG d   1       5.367  -0.983 -13.360  0.00  0.00     0.209 HD
ENDBRANCH  52  55
ENDBRANCH   6  52
BRANCH  13  57
ATOM     57  N   LIG d   1       7.437   0.573  -4.651  0.00  0.00    -0.230 N 
ATOM     58  C   LIG d   1       8.011   1.786  -4.536  0.00  0.00     0.406 C 
ATOM     59  O   LIG d   1       7.966   2.570  -5.463  0.00  0.00    -0.226 OA
ATOM     60  H   LIG d   1       7.473  -0.053  -3.911  0.00  0.00     0.160 HD
BRANCH  58  61
ATOM     61  O   LIG d   1       8.636   2.130  -3.393  0.00  0.00    -0.446 OA
BRANCH  61  62
ATOM     62  C   LIG d   1      10.073   2.327  -3.461  0.00  0.00     0.112 C 
ATOM     63  H   LIG d   1      10.578   1.457  -3.042  0.00  0.00     0.074 H 
ATOM     64  H   LIG d   1      10.373   2.455  -4.501  0.00  0.00     0.074 H 
BRANCH  62  65
ATOM     65  C   LIG d   1      10.449   3.555  -2.672  0.00  0.00    -0.054 C 
ATOM     66  C   LIG d   1       9.881   4.705  -2.940  0.00  0.00    -0.100 C 
ATOM     67  H   LIG d   1       9.144   4.773  -3.727  0.00  0.00     0.053 H 
ATOM     68  H   LIG d   1      10.150   5.584  -2.374  0.00  0.00     0.053 H 
ATOM     69  H   LIG d   1      11.185   3.487  -1.886  0.00  0.00     0.060 H 
ENDBRANCH  62  65
ENDBRANCH  61  62
ENDBRANCH  58  61
ENDBRANCH  13  57
BRANCH   4  70
ATOM     70  O   LIG d   1       2.233  -1.817 -12.929  0.00  0.00    -0.391 OA
ATOM     71  H   LIG d   1       1.733  -1.067 -13.279  0.00  0.00     0.210 HD
ENDBRANCH   4  70
TORSDOF 12
ENDMDL
MODEL 3
REMARK VINA RESULT:      -6.1      3.063      8.049
REMARK  12 active torsions:
REMARK  status: ('A' for Active; 'I' for Inactive)
REMARK    1  A    between atoms: C_1  and  C_2 
REMARK    2  A    between atoms: C_5  and  O_37 
REMARK    3  A    between atoms: C_7  and  C_34 
REMARK    4  A    between atoms: C_7  and  C_35 
REMARK    5  A    between atoms: C_14  and  N_16 
REMARK       I    between atoms: N_16  and  C_17 
REMARK    6  A    between atoms: C_17  and  O_19 
REMARK    7  A    between atoms: O_19  and  C_20 
REMARK    8  A    between atoms: C_20  and  C_21 
REMARK    9  A    between atoms: C_23  and  C_25 
REMARK   10  A    between atoms: C_25  and  C_26 
REMARK       I    between atoms: C_26  and  N_28 
REMARK   11  A    between atoms: N_28  and  C_29 
REMARK   12  A    between atoms: C_35  and  O_36 
ROOT
ATOM      1  C   LIG d   1       3.055  -1.200  -9.568  0.00  0.00    -0.019 C 
ATOM      2  C   LIG d   1       1.605  -0.712  -9.657  0.00  0.00    -0.044 C 
ATOM      3  C   LIG d   1       1.130  -0.719 -11.108  0.00  0.00    -0.026 C 
ATOM      4  C   LIG d   1       1.200  -2.153 -11.643  0.00  0.00     0.063 C 
ATOM      5  H   LIG d   1       0.584  -2.805 -11.022  0.00  0.00     0.060 H 
ATOM      6  C   LIG d   1       2.653  -2.622 -11.598  0.00  0.00     0.021 C 
ATOM      7  C   LIG d   1       3.175  -2.607 -10.158  0.00  0.00    -0.021 C 
ATOM      8  H   LIG d   1       2.611  -3.314  -9.551  0.00  0.00     0.032 H 
ATOM      9  C   LIG d   1       4.664  -3.003 -10.208  0.00  0.00    -0.016 C 
ATOM     10  C   LIG d   1       5.306  -2.665  -8.919  0.00  0.00     0.015 A 
ATOM     11  C   LIG d   1       4.815  -1.873  -7.930  0.00  0.00     0.058 A 
ATOM     12  N   LIG d   1       5.591  -1.729  -6.858  0.00  0.00    -0.229 NA
ATOM     13  C   LIG d   1       6.765  -2.318  -6.758  0.00  0.00     0.167 A 
ATOM     14  S   LIG d   1       6.872  -3.176  -8.265  0.00  0.00    -0.057 SA
ATOM     15  C   LIG d   1       3.454  -1.212  -8.087  0.00  0.00     0.016 C 
ATOM     16  H   LIG d   1       2.713  -1.770  -7.515  0.00  0.00     0.037 H 
ATOM     17  H   LIG d   1       1.540   0.302  -9.262  0.00  0.00     0.027 H 
ATOM     18  H   LIG d   1       0.967  -1.368  -9.065  0.00  0.00     0.027 H 
ATOM     19  H   LIG d   1       1.773  -0.075 -11.707  0.00  0.00     0.029 H 
ATOM     20  H   LIG d   1       0.102  -0.361 -11.158  0.00  0.00     0.029 H 
ATOM     21  H   LIG d   1       4.749  -4.074 -10.394  0.00  0.00     0.032 H 
ATOM     22  H   LIG d   1       5.161  -2.452 -11.006  0.00  0.00     0.032 H 
ENDROOT
BRANCH  15  23
ATOM     23  C   LIG d   1       3.522   0.225  -7.565  0.00  0.00     0.033 C 
ATOM     24  H   LIG d   1       4.553   0.579  -7.611  0.00  0.00     0.036 H 
ATOM     25  H   LIG d   1       2.891   0.866  -8.180  0.00  0.00     0.036 H 
BRANCH  23  26
ATOM     26  C   LIG d   1       3.041   0.266  -6.138  0.00  0.00     0.214 C 
ATOM     27  O   LIG d   1       1.852   0.312  -5.900  0.00  0.00    -0.276 OA
ATOM     28  N   LIG d   1       3.930   0.250  -5.125  0.00  0.00    -0.312 N 
ATOM     29  H   LIG d   1       4.880   0.212  -5.315  0.00  0.00     0.149 HD
BRANCH  28  30
ATOM     30  C   LIG d   1       3.461   0.290  -3.738  0.00  0.00     0.023 C 
ATOM     31  C   LIG d   1       3.454  -1.129  -3.143  0.00  0.00    -0.035 C 
ATOM     32  C   LIG d   1       4.421  -1.108  -1.941  0.00  0.00    -0.051 C 
ATOM     33  H   LIG d   1       2.449  -1.390  -2.810  0.00  0.00     0.028 H 
ATOM     34  H   LIG d   1       3.799  -1.848  -3.888  0.00  0.00     0.028 H 
ATOM     35  C   LIG d   1       4.467   0.381  -1.518  0.00  0.00    -0.051 C 
ATOM     36  H   LIG d   1       4.033  -1.724  -1.129  0.00  0.00     0.027 H 
ATOM     37  H   LIG d   1       5.411  -1.451  -2.241  0.00  0.00     0.027 H 
ATOM     38  C   LIG d   1       4.432   1.124  -2.876  0.00  0.00    -0.035 C 
ATOM     39  H   LIG d   1       3.597   0.638  -0.913  0.00  0.00     0.027 H 
ATOM     40  H   LIG d   1       5.390   0.601  -0.981  0.00  0.00     0.027 H 
ATOM     41  H   LIG d   1       5.423   1.142  -3.327  0.00  0.00     0.028 H 
ATOM     42  H   LIG d   1       4.052   2.137  -2.747  0.00  0.00     0.028 H 
ATOM     43  H   LIG d   1       2.460   0.718  -3.695  0.00  0.00     0.050 H 
ENDBRANCH  28  30
ENDBRANCH  23  26
ENDBRANCH  15  23
BRANCH   1  44
ATOM     44  C   LIG d   1       3.967  -0.242 -10.336  0.00  0.00    -0.059 C 
ATOM     45  H   LIG d   1       4.606   0.294  -9.635  0.00  0.00     0.024 H 
ATOM     46  H   LIG d   1       4.586  -0.809 -11.032  0.00  0.00     0.024 H 
ATOM     47  H   LIG d   1       3.358   0.473 -10.892  0.00  0.00     0.024 H 
ENDBRANCH   1  44
BRANCH   6  48
ATOM     48  C   LIG d   1       2.743  -4.045 -12.153  0.00  0.00    -0.055 C 
ATOM     49  H   LIG d   1       1.754  -4.376 -12.469  0.00  0.00     0.024 H 
ATOM     50  H   LIG d   1       3.421  -4.061 -13.007  0.00  0.00     0.024 H 
ATOM     51  H   LIG d   1       3.118  -4.714 -11.379  0.00  0.00     0.024 H 
ENDBRANCH   6  48
BRANCH   6  52
ATOM     52  C   LIG d   1       3.512  -1.690 -12.454  0.00  0.00     0.052 C 
ATOM     53  H   LIG d   1       3.112  -0.677 -12.402  0.00  0.00     0.056 H 
ATOM     54  H   LIG d   1       4.537  -1.696 -12.082  0.00  0.00     0.056 H 
BRANCH  52  55
ATOM     55  O   LIG d   1       3.496  -2.139 -13.812  0.00  0.00    -0.394 OA
ATOM     56  H   LIG d   1       2.993  -2.953 -13.950  0.00  0.00     0.209 HD
ENDBRANCH  52  55
ENDBRANCH   6  52
BRANCH  13  57
ATOM     57  N   LIG d   1       7.681  -2.268  -5.714  0.00  0.00    -0.230 N 
ATOM     58  C   LIG d   1       7.528  -3.072  -4.643  0.00  0.00     0.406 C 
ATOM     59  O   LIG d   1       6.588  -3.839  -4.589  0.00  0.00    -0.226 OA
ATOM     60  H   LIG d   1       8.432  -1.655  -5.757  0.00  0.00     0.160 HD
BRANCH  58  61
ATOM     61  O   LIG d   1       8.417  -3.023  -3.632  0.00  0.00    -0.446 OA
BRANCH  61  62
ATOM     62  C   LIG d   1       9.387  -4.101  -3.555  0.00  0.00     0.112 C 
ATOM     63  H   LIG d   1       8.986  -4.986  -4.047  0.00  0.00     0.074 H 
ATOM     64  H   LIG d   1      10.308  -3.796  -4.050  0.00  0.00     0.074 H 
BRANCH  62  65
ATOM     65  C   LIG d   1       9.672  -4.416  -2.109  0.00  0.00    -0.054 C 
ATOM     66  C   LIG d   1       9.759  -5.662  -1.715  0.00  0.00    -0.100 C 
ATOM     67  H   LIG d   1       9.625  -6.464  -2.426  0.00  0.00     0.053 H 
ATOM     68  H   LIG d   1       9.965  -5.888  -0.679  0.00  0.00     0.053 H 
ATOM     69  H   LIG d   1       9.807  -3.615  -1.398  0.00  0.00     0.060 H 
ENDBRANCH  62  65
ENDBRANCH  61  62
ENDBRANCH  58  61
ENDBRANCH  13  57
BRANCH   4  70
ATOM     70  O   LIG d   1       0.727  -2.187 -12.990  0.00  0.00    -0.391 OA
ATOM     71  H   LIG d   1       1.431  -2.227 -13.653  0.00  0.00     0.210 HD
ENDBRANCH   4  70
TORSDOF 12
ENDMDL
MODEL 4
REMARK VINA RESULT:      -6.1      4.897      5.849
REMARK  12 active torsions:
REMARK  status: ('A' for Active; 'I' for Inactive)
REMARK    1  A    between atoms: C_1  and  C_2 
REMARK    2  A    between atoms: C_5  and  O_37 
REMARK    3  A    between atoms: C_7  and  C_34 
REMARK    4  A    between atoms: C_7  and  C_35 
REMARK    5  A    between atoms: C_14  and  N_16 
REMARK       I    between atoms: N_16  and  C_17 
REMARK    6  A    between atoms: C_17  and  O_19 
REMARK    7  A    between atoms: O_19  and  C_20 
REMARK    8  A    between atoms: C_20  and  C_21 
REMARK    9  A    between atoms: C_23  and  C_25 
REMARK   10  A    between atoms: C_25  and  C_26 
REMARK       I    between atoms: C_26  and  N_28 
REMARK   11  A    between atoms: N_28  and  C_29 
REMARK   12  A    between atoms: C_35  and  O_36 
ROOT
ATOM      1  C   LIG d   1       9.966   3.381  -4.288  0.00  0.00    -0.019 C 
ATOM      2  C   LIG d   1       9.944   3.764  -2.804  0.00  0.00    -0.044 C 
ATOM      3  C   LIG d   1      11.249   4.452  -2.413  0.00  0.00    -0.026 C 
ATOM      4  C   LIG d   1      11.405   5.727  -3.248  0.00  0.00     0.063 C 
ATOM      5  H   LIG d   1      10.549   6.380  -3.080  0.00  0.00     0.060 H 
ATOM      6  C   LIG d   1      11.476   5.340  -4.724  0.00  0.00     0.021 C 
ATOM      7  C   LIG d   1      10.190   4.625  -5.150  0.00  0.00    -0.021 C 
ATOM      8  H   LIG d   1       9.340   5.301  -5.056  0.00  0.00     0.032 H 
ATOM      9  C   LIG d   1      10.375   4.190  -6.618  0.00  0.00    -0.016 C 
ATOM     10  C   LIG d   1       9.334   3.199  -6.971  0.00  0.00     0.015 A 
ATOM     11  C   LIG d   1       8.515   2.520  -6.128  0.00  0.00     0.058 A 
ATOM     12  N   LIG d   1       7.653   1.682  -6.700  0.00  0.00    -0.229 NA
ATOM     13  C   LIG d   1       7.595   1.518  -8.005  0.00  0.00     0.167 A 
ATOM     14  S   LIG d   1       8.831   2.605  -8.564  0.00  0.00    -0.057 SA
ATOM     15  C   LIG d   1       8.614   2.739  -4.626  0.00  0.00     0.016 C 
ATOM     16  H   LIG d   1       7.808   3.398  -4.302  0.00  0.00     0.037 H 
ATOM     17  H   LIG d   1       9.815   2.865  -2.201  0.00  0.00     0.027 H 
ATOM     18  H   LIG d   1       9.110   4.442  -2.620  0.00  0.00     0.027 H 
ATOM     19  H   LIG d   1      12.087   3.783  -2.608  0.00  0.00     0.029 H 
ATOM     20  H   LIG d   1      11.223   4.710  -1.354  0.00  0.00     0.029 H 
ATOM     21  H   LIG d   1      10.293   5.061  -7.269  0.00  0.00     0.032 H 
ATOM     22  H   LIG d   1      11.356   3.731  -6.741  0.00  0.00     0.032 H 
ENDROOT
BRANCH  15  23
ATOM     23  C   LIG d   1       8.493   1.394  -3.905  0.00  0.00     0.033 C 
ATOM     24  H   LIG d   1       8.948   0.614  -4.516  0.00  0.00     0.036 H 
ATOM     25  H   LIG d   1       9.007   1.449  -2.946  0.00  0.00     0.036 H 
BRANCH  23  26
ATOM     26  C   LIG d   1       7.039   1.073  -3.680  0.00  0.00     0.214 C 
ATOM     27  O   LIG d   1       6.289   1.926  -3.254  0.00  0.00    -0.276 OA
ATOM     28  N   LIG d   1       6.571  -0.161  -3.952  0.00  0.00    -0.312 N 
ATOM     29  H   LIG d   1       7.170  -0.842  -4.294  0.00  0.00     0.149 HD
BRANCH  28  30
ATOM     30  C   LIG d   1       5.157  -0.473  -3.733  0.00  0.00     0.023 C 
ATOM     31  C   LIG d   1       4.739  -1.669  -4.606  0.00  0.00    -0.035 C 
ATOM     32  C   LIG d   1       4.274  -2.779  -3.641  0.00  0.00    -0.051 C 
ATOM     33  H   LIG d   1       3.921  -1.382  -5.267  0.00  0.00     0.028 H 
ATOM     34  H   LIG d   1       5.589  -2.017  -5.194  0.00  0.00     0.028 H 
ATOM     35  C   LIG d   1       3.864  -2.017  -2.357  0.00  0.00    -0.051 C 
ATOM     36  H   LIG d   1       3.419  -3.313  -4.057  0.00  0.00     0.027 H 
ATOM     37  H   LIG d   1       5.091  -3.470  -3.431  0.00  0.00     0.027 H 
ATOM     38  C   LIG d   1       4.930  -0.898  -2.267  0.00  0.00    -0.035 C 
ATOM     39  H   LIG d   1       2.865  -1.593  -2.462  0.00  0.00     0.027 H 
ATOM     40  H   LIG d   1       3.916  -2.672  -1.486  0.00  0.00     0.027 H 
ATOM     41  H   LIG d   1       5.853  -1.284  -1.835  0.00  0.00     0.028 H 
ATOM     42  H   LIG d   1       4.555  -0.059  -1.681  0.00  0.00     0.028 H 
ATOM     43  H   LIG d   1       4.542   0.395  -3.970  0.00  0.00     0.050 H 
ENDBRANCH  28  30
ENDBRANCH  23  26
ENDBRANCH  15  23
BRANCH   1  44
ATOM     44  C   LIG d   1      11.089   2.373  -4.540  0.00  0.00    -0.059 C 
ATOM     45  H   LIG d   1      11.293   1.820  -3.624  0.00  0.00     0.024 H 
ATOM     46  H   LIG d   1      10.785   1.679  -5.323  0.00  0.00     0.024 H 
ATOM     47  H   LIG d   1      11.989   2.903  -4.853  0.00  0.00     0.024 H 
ENDBRANCH   1  44
BRANCH   6  48
ATOM     48  C   LIG d   1      11.657   6.601  -5.571  0.00  0.00    -0.055 C 
ATOM     49  H   LIG d   1      10.689   7.077  -5.725  0.00  0.00     0.024 H 
ATOM     50  H   LIG d   1      12.324   7.293  -5.056  0.00  0.00     0.024 H 
ATOM     51  H   LIG d   1      12.087   6.333  -6.536  0.00  0.00     0.024 H 
ENDBRANCH   6  48
BRANCH   6  52
ATOM     52  C   LIG d   1      12.667   4.406  -4.946  0.00  0.00     0.052 C 
ATOM     53  H   LIG d   1      12.825   3.799  -4.054  0.00  0.00     0.056 H 
ATOM     54  H   LIG d   1      12.466   3.756  -5.797  0.00  0.00     0.056 H 
BRANCH  52  55
ATOM     55  O   LIG d   1      13.839   5.183  -5.207  0.00  0.00    -0.394 OA
ATOM     56  H   LIG d   1      14.401   5.317  -4.432  0.00  0.00     0.209 HD
ENDBRANCH  52  55
ENDBRANCH   6  52
BRANCH  13  57
ATOM     57  N   LIG d   1       6.759   0.691  -8.746  0.00  0.00    -0.230 N 
ATOM     58  C   LIG d   1       5.725   1.218  -9.432  0.00  0.00     0.406 C 
ATOM     59  O   LIG d   1       5.523   2.415  -9.402  0.00  0.00    -0.226 OA
ATOM     60  H   LIG d   1       6.920  -0.265  -8.771  0.00  0.00     0.160 HD
BRANCH  58  61
ATOM     61  O   LIG d   1       4.916   0.417 -10.151  0.00  0.00    -0.446 OA
BRANCH  61  62
ATOM     62  C   LIG d   1       3.621   0.955 -10.527  0.00  0.00     0.112 C 
ATOM     63  H   LIG d   1       3.697   2.036 -10.644  0.00  0.00     0.074 H 
ATOM     64  H   LIG d   1       3.302   0.510 -11.469  0.00  0.00     0.074 H 
BRANCH  62  65
ATOM     65  C   LIG d   1       2.613   0.635  -9.453  0.00  0.00    -0.054 C 
ATOM     66  C   LIG d   1       1.920  -0.475  -9.514  0.00  0.00    -0.100 C 
ATOM     67  H   LIG d   1       2.070  -1.161 -10.335  0.00  0.00     0.053 H 
ATOM     68  H   LIG d   1       1.199  -0.705  -8.744  0.00  0.00     0.053 H 
ATOM     69  H   LIG d   1       2.464   1.320  -8.632  0.00  0.00     0.060 H 
ENDBRANCH  62  65
ENDBRANCH  61  62
ENDBRANCH  58  61
ENDBRANCH  13  57
BRANCH   4  70
ATOM     70  O   LIG d   1      12.606   6.403  -2.872  0.00  0.00    -0.391 OA
ATOM     71  H   LIG d   1      13.038   6.031  -2.090  0.00  0.00     0.210 HD
ENDBRANCH   4  70
TORSDOF 12
ENDMDL
MODEL 5
REMARK VINA RESULT:      -5.8      4.388      8.446
REMARK  12 active torsions:
REMARK  status: ('A' for Active; 'I' for Inactive)
REMARK    1  A    between atoms: C_1  and  C_2 
REMARK    2  A    between atoms: C_5  and  O_37 
REMARK    3  A    between atoms: C_7  and  C_34 
REMARK    4  A    between atoms: C_7  and  C_35 
REMARK    5  A    between atoms: C_14  and  N_16 
REMARK       I    between atoms: N_16  and  C_17 
REMARK    6  A    between atoms: C_17  and  O_19 
REMARK    7  A    between atoms: O_19  and  C_20 
REMARK    8  A    between atoms: C_20  and  C_21 
REMARK    9  A    between atoms: C_23  and  C_25 
REMARK   10  A    between atoms: C_25  and  C_26 
REMARK       I    between atoms: C_26  and  N_28 
REMARK   11  A    between atoms: N_28  and  C_29 
REMARK   12  A    between atoms: C_35  and  O_36 
ROOT
ATOM      1  C   LIG d   1       4.186  -3.248  -8.204  0.00  0.00    -0.019 C 
ATOM      2  C   LIG d   1       3.765  -1.779  -8.083  0.00  0.00    -0.044 C 
ATOM      3  C   LIG d   1       3.780  -1.108  -9.454  0.00  0.00    -0.026 C 
ATOM      4  C   LIG d   1       2.787  -1.830 -10.370  0.00  0.00     0.063 C 
ATOM      5  H   LIG d   1       1.792  -1.798  -9.926  0.00  0.00     0.060 H 
ATOM      6  C   LIG d   1       3.234  -3.282 -10.528  0.00  0.00     0.021 C 
ATOM      7  C   LIG d   1       3.253  -3.986  -9.167  0.00  0.00    -0.021 C 
ATOM      8  H   LIG d   1       2.246  -4.024  -8.754  0.00  0.00     0.032 H 
ATOM      9  C   LIG d   1       3.797  -5.410  -9.398  0.00  0.00    -0.016 C 
ATOM     10  C   LIG d   1       4.173  -6.009  -8.097  0.00  0.00     0.015 A 
ATOM     11  C   LIG d   1       4.324  -5.376  -6.905  0.00  0.00     0.058 A 
ATOM     12  N   LIG d   1       4.664  -6.146  -5.874  0.00  0.00    -0.229 NA
ATOM     13  C   LIG d   1       4.845  -7.445  -5.998  0.00  0.00     0.167 A 
ATOM     14  S   LIG d   1       4.527  -7.697  -7.688  0.00  0.00    -0.057 SA
ATOM     15  C   LIG d   1       4.105  -3.874  -6.805  0.00  0.00     0.016 C 
ATOM     16  H   LIG d   1       3.121  -3.679  -6.376  0.00  0.00     0.037 H 
ATOM     17  H   LIG d   1       4.455  -1.259  -7.419  0.00  0.00     0.027 H 
ATOM     18  H   LIG d   1       2.759  -1.726  -7.667  0.00  0.00     0.027 H 
ATOM     19  H   LIG d   1       4.782  -1.171  -9.880  0.00  0.00     0.029 H 
ATOM     20  H   LIG d   1       3.489  -0.063  -9.353  0.00  0.00     0.029 H 
ATOM     21  H   LIG d   1       3.031  -6.019  -9.878  0.00  0.00     0.032 H 
ATOM     22  H   LIG d   1       4.681  -5.364 -10.034  0.00  0.00     0.032 H 
ENDROOT
BRANCH  15  23
ATOM     23  C   LIG d   1       5.182  -3.260  -5.908  0.00  0.00     0.033 C 
ATOM     24  H   LIG d   1       5.908  -4.027  -5.637  0.00  0.00     0.036 H 
ATOM     25  H   LIG d   1       5.687  -2.457  -6.444  0.00  0.00     0.036 H 
BRANCH  23  26
ATOM     26  C   LIG d   1       4.543  -2.709  -4.660  0.00  0.00     0.214 C 
ATOM     27  O   LIG d   1       4.189  -3.462  -3.777  0.00  0.00    -0.276 OA
ATOM     28  N   LIG d   1       4.366  -1.380  -4.524  0.00  0.00    -0.312 N 
ATOM     29  H   LIG d   1       4.650  -0.778  -5.229  0.00  0.00     0.149 HD
BRANCH  28  30
ATOM     30  C   LIG d   1       3.745  -0.844  -3.310  0.00  0.00     0.023 C 
ATOM     31  C   LIG d   1       4.807  -0.658  -2.213  0.00  0.00    -0.035 C 
ATOM     32  C   LIG d   1       4.823   0.846  -1.866  0.00  0.00    -0.051 C 
ATOM     33  H   LIG d   1       4.540  -1.242  -1.331  0.00  0.00     0.028 H 
ATOM     34  H   LIG d   1       5.785  -0.966  -2.583  0.00  0.00     0.028 H 
ATOM     35  C   LIG d   1       3.421   1.348  -2.290  0.00  0.00    -0.051 C 
ATOM     36  H   LIG d   1       4.971   0.988  -0.795  0.00  0.00     0.027 H 
ATOM     37  H   LIG d   1       5.600   1.360  -2.431  0.00  0.00     0.027 H 
ATOM     38  C   LIG d   1       3.152   0.552  -3.592  0.00  0.00    -0.035 C 
ATOM     39  H   LIG d   1       2.678   1.108  -1.530  0.00  0.00     0.027 H 
ATOM     40  H   LIG d   1       3.439   2.420  -2.490  0.00  0.00     0.027 H 
ATOM     41  H   LIG d   1       3.659   1.018  -4.436  0.00  0.00     0.028 H 
ATOM     42  H   LIG d   1       2.081   0.480  -3.781  0.00  0.00     0.028 H 
ATOM     43  H   LIG d   1       2.963  -1.519  -2.962  0.00  0.00     0.050 H 
ENDBRANCH  28  30
ENDBRANCH  23  26
ENDBRANCH  15  23
BRANCH   1  44
ATOM     44  C   LIG d   1       5.623  -3.329  -8.719  0.00  0.00    -0.059 C 
ATOM     45  H   LIG d   1       6.095  -4.235  -8.339  0.00  0.00     0.024 H 
ATOM     46  H   LIG d   1       5.619  -3.351  -9.809  0.00  0.00     0.024 H 
ATOM     47  H   LIG d   1       6.182  -2.457  -8.375  0.00  0.00     0.024 H 
ENDBRANCH   1  44
BRANCH   6  48
ATOM     48  C   LIG d   1       2.265  -4.012 -11.460  0.00  0.00    -0.055 C 
ATOM     49  H   LIG d   1       1.308  -3.490 -11.471  0.00  0.00     0.024 H 
ATOM     50  H   LIG d   1       2.677  -4.035 -12.469  0.00  0.00     0.024 H 
ATOM     51  H   LIG d   1       2.117  -5.032 -11.105  0.00  0.00     0.024 H 
ENDBRANCH   6  48
BRANCH   6  52
ATOM     52  C   LIG d   1       4.639  -3.317 -11.131  0.00  0.00     0.052 C 
ATOM     53  H   LIG d   1       5.199  -2.443 -10.798  0.00  0.00     0.056 H 
ATOM     54  H   LIG d   1       5.153  -4.222 -10.807  0.00  0.00     0.056 H 
BRANCH  52  55
ATOM     55  O   LIG d   1       4.546  -3.308 -12.558  0.00  0.00    -0.394 OA
ATOM     56  H   LIG d   1       3.836  -2.749 -12.901  0.00  0.00     0.209 HD
ENDBRANCH  52  55
ENDBRANCH   6  52
BRANCH  13  57
ATOM     57  N   LIG d   1       5.197  -8.375  -5.028  0.00  0.00    -0.230 N 
ATOM     58  C   LIG d   1       6.495  -8.660  -4.806  0.00  0.00     0.406 C 
ATOM     59  O   LIG d   1       7.358  -8.105  -5.457  0.00  0.00    -0.226 OA
ATOM     60  H   LIG d   1       4.508  -8.818  -4.508  0.00  0.00     0.160 HD
BRANCH  58  61
ATOM     61  O   LIG d   1       6.837  -9.561  -3.865  0.00  0.00    -0.446 OA
BRANCH  61  62
ATOM     62  C   LIG d   1       5.796 -10.464  -3.408  0.00  0.00     0.112 C 
ATOM     63  H   LIG d   1       4.830 -10.123  -3.782  0.00  0.00     0.074 H 
ATOM     64  H   LIG d   1       5.996 -11.467  -3.782  0.00  0.00     0.074 H 
BRANCH  62  65
ATOM     65  C   LIG d   1       5.774 -10.482  -1.901  0.00  0.00    -0.054 C 
ATOM     66  C   LIG d   1       6.861 -10.198  -1.227  0.00  0.00    -0.100 C 
ATOM     67  H   LIG d   1       7.773  -9.952  -1.751  0.00  0.00     0.053 H 
ATOM     68  H   LIG d   1       6.845 -10.211  -0.147  0.00  0.00     0.053 H 
ATOM     69  H   LIG d   1       4.863 -10.727  -1.377  0.00  0.00     0.060 H 
ENDBRANCH  62  65
ENDBRANCH  61  62
ENDBRANCH  58  61
ENDBRANCH  13  57
BRANCH   4  70
ATOM     70  O   LIG d   1       2.763  -1.195 -11.648  0.00  0.00    -0.391 OA
ATOM     71  H   LIG d   1       1.884  -0.897 -11.923  0.00  0.00     0.210 HD
ENDBRANCH   4  70
TORSDOF 12
ENDMDL
MODEL 6
REMARK VINA RESULT:      -5.5      3.437      5.029
REMARK  12 active torsions:
REMARK  status: ('A' for Active; 'I' for Inactive)
REMARK    1  A    between atoms: C_1  and  C_2 
REMARK    2  A    between atoms: C_5  and  O_37 
REMARK    3  A    between atoms: C_7  and  C_34 
REMARK    4  A    between atoms: C_7  and  C_35 
REMARK    5  A    between atoms: C_14  and  N_16 
REMARK       I    between atoms: N_16  and  C_17 
REMARK    6  A    between atoms: C_17  and  O_19 
REMARK    7  A    between atoms: O_19  and  C_20 
REMARK    8  A    between atoms: C_20  and  C_21 
REMARK    9  A    between atoms: C_23  and  C_25 
REMARK   10  A    between atoms: C_25  and  C_26 
REMARK       I    between atoms: C_26  and  N_28 
REMARK   11  A    between atoms: N_28  and  C_29 
REMARK   12  A    between atoms: C_35  and  O_36 
ROOT
ATOM      1  C   LIG d   1       6.161  -5.622  -5.861  0.00  0.00    -0.019 C 
ATOM      2  C   LIG d   1       4.853  -6.375  -5.600  0.00  0.00    -0.044 C 
ATOM      3  C   LIG d   1       4.827  -7.685  -6.385  0.00  0.00    -0.026 C 
ATOM      4  C   LIG d   1       5.998  -8.559  -5.926  0.00  0.00     0.063 C 
ATOM      5  H   LIG d   1       5.920  -8.740  -4.854  0.00  0.00     0.060 H 
ATOM      6  C   LIG d   1       7.304  -7.828  -6.231  0.00  0.00     0.021 C 
ATOM      7  C   LIG d   1       7.358  -6.495  -5.477  0.00  0.00    -0.021 C 
ATOM      8  H   LIG d   1       7.358  -6.675  -4.403  0.00  0.00     0.032 H 
ATOM      9  C   LIG d   1       8.656  -5.781  -5.905  0.00  0.00    -0.016 C 
ATOM     10  C   LIG d   1       8.592  -4.360  -5.498  0.00  0.00     0.015 A 
ATOM     11  C   LIG d   1       7.501  -3.663  -5.087  0.00  0.00     0.058 A 
ATOM     12  N   LIG d   1       7.710  -2.387  -4.769  0.00  0.00    -0.229 NA
ATOM     13  C   LIG d   1       8.901  -1.831  -4.846  0.00  0.00     0.167 A 
ATOM     14  S   LIG d   1       9.883  -3.149  -5.410  0.00  0.00    -0.057 SA
ATOM     15  C   LIG d   1       6.143  -4.345  -5.012  0.00  0.00     0.016 C 
ATOM     16  H   LIG d   1       5.924  -4.601  -3.974  0.00  0.00     0.037 H 
ATOM     17  H   LIG d   1       4.011  -5.755  -5.906  0.00  0.00     0.027 H 
ATOM     18  H   LIG d   1       4.769  -6.592  -4.535  0.00  0.00     0.027 H 
ATOM     19  H   LIG d   1       4.924  -7.474  -7.450  0.00  0.00     0.029 H 
ATOM     20  H   LIG d   1       3.888  -8.205  -6.197  0.00  0.00     0.029 H 
ATOM     21  H   LIG d   1       9.510  -6.264  -5.431  0.00  0.00     0.032 H 
ATOM     22  H   LIG d   1       8.761  -5.834  -6.989  0.00  0.00     0.032 H 
ENDROOT
BRANCH  15  23
ATOM     23  C   LIG d   1       5.066  -3.395  -5.540  0.00  0.00     0.033 C 
ATOM     24  H   LIG d   1       5.527  -2.648  -6.187  0.00  0.00     0.036 H 
ATOM     25  H   LIG d   1       4.329  -3.962  -6.108  0.00  0.00     0.036 H 
BRANCH  23  26
ATOM     26  C   LIG d   1       4.389  -2.709  -4.382  0.00  0.00     0.214 C 
ATOM     27  O   LIG d   1       4.044  -3.353  -3.413  0.00  0.00    -0.276 OA
ATOM     28  N   LIG d   1       4.167  -1.380  -4.422  0.00  0.00    -0.312 N 
ATOM     29  H   LIG d   1       4.443  -0.866  -5.196  0.00  0.00     0.149 HD
BRANCH  28  30
ATOM     30  C   LIG d   1       3.508  -0.713  -3.296  0.00  0.00     0.023 C 
ATOM     31  C   LIG d   1       4.446  -0.689  -2.077  0.00  0.00    -0.035 C 
ATOM     32  C   LIG d   1       4.687   0.796  -1.735  0.00  0.00    -0.051 C 
ATOM     33  H   LIG d   1       3.974  -1.195  -1.233  0.00  0.00     0.028 H 
ATOM     34  H   LIG d   1       5.391  -1.174  -2.322  0.00  0.00     0.028 H 
ATOM     35  C   LIG d   1       3.458   1.527  -2.332  0.00  0.00    -0.051 C 
ATOM     36  H   LIG d   1       4.727   0.937  -0.655  0.00  0.00     0.027 H 
ATOM     37  H   LIG d   1       5.605   1.151  -2.202  0.00  0.00     0.027 H 
ATOM     38  C   LIG d   1       3.212   0.758  -3.654  0.00  0.00    -0.035 C 
ATOM     39  H   LIG d   1       2.597   1.440  -1.668  0.00  0.00     0.027 H 
ATOM     40  H   LIG d   1       3.690   2.573  -2.531  0.00  0.00     0.027 H 
ATOM     41  H   LIG d   1       3.892   1.107  -4.430  0.00  0.00     0.028 H 
ATOM     42  H   LIG d   1       2.176   0.871  -3.973  0.00  0.00     0.028 H 
ATOM     43  H   LIG d   1       2.583  -1.231  -3.046  0.00  0.00     0.050 H 
ENDBRANCH  28  30
ENDBRANCH  23  26
ENDBRANCH  15  23
BRANCH   1  44
ATOM     44  C   LIG d   1       6.251  -5.251  -7.342  0.00  0.00    -0.059 C 
ATOM     45  H   LIG d   1       6.458  -6.145  -7.930  0.00  0.00     0.024 H 
ATOM     46  H   LIG d   1       5.306  -4.814  -7.666  0.00  0.00     0.024 H 
ATOM     47  H   LIG d   1       7.054  -4.527  -7.487  0.00  0.00     0.024 H 
ENDBRANCH   1  44
BRANCH   6  48
ATOM     48  C   LIG d   1       8.485  -8.700  -5.801  0.00  0.00    -0.055 C 
ATOM     49  H   LIG d   1       8.685  -8.543  -4.741  0.00  0.00     0.024 H 
ATOM     50  H   LIG d   1       8.247  -9.749  -5.974  0.00  0.00     0.024 H 
ATOM     51  H   LIG d   1       9.368  -8.427  -6.379  0.00  0.00     0.024 H 
ENDBRANCH   6  48
BRANCH   6  52
ATOM     52  C   LIG d   1       7.395  -7.559  -7.734  0.00  0.00     0.052 C 
ATOM     53  H   LIG d   1       6.391  -7.443  -8.144  0.00  0.00     0.056 H 
ATOM     54  H   LIG d   1       7.965  -6.646  -7.907  0.00  0.00     0.056 H 
BRANCH  52  55
ATOM     55  O   LIG d   1       8.047  -8.657  -8.376  0.00  0.00    -0.394 OA
ATOM     56  H   LIG d   1       7.935  -8.674  -9.336  0.00  0.00     0.209 HD
ENDBRANCH  52  55
ENDBRANCH   6  52
BRANCH  13  57
ATOM     57  N   LIG d   1       9.276  -0.525  -4.551  0.00  0.00    -0.230 N 
ATOM     58  C   LIG d   1       9.180   0.433  -5.493  0.00  0.00     0.406 C 
ATOM     59  O   LIG d   1       8.767   0.156  -6.602  0.00  0.00    -0.226 OA
ATOM     60  H   LIG d   1       9.606  -0.304  -3.666  0.00  0.00     0.160 HD
BRANCH  58  61
ATOM     61  O   LIG d   1       9.543   1.698  -5.207  0.00  0.00    -0.446 OA
BRANCH  61  62
ATOM     62  C   LIG d   1       9.458   2.111  -3.818  0.00  0.00     0.112 C 
ATOM     63  H   LIG d   1       8.435   2.412  -3.591  0.00  0.00     0.074 H 
ATOM     64  H   LIG d   1       9.743   1.280  -3.174  0.00  0.00     0.074 H 
BRANCH  62  65
ATOM     65  C   LIG d   1      10.388   3.273  -3.582  0.00  0.00    -0.054 C 
ATOM     66  C   LIG d   1      10.036   4.240  -2.770  0.00  0.00    -0.100 C 
ATOM     67  H   LIG d   1       9.078   4.204  -2.271  0.00  0.00     0.053 H 
ATOM     68  H   LIG d   1      10.702   5.072  -2.600  0.00  0.00     0.053 H 
ATOM     69  H   LIG d   1      11.345   3.309  -4.079  0.00  0.00     0.060 H 
ENDBRANCH  62  65
ENDBRANCH  61  62
ENDBRANCH  58  61
ENDBRANCH  13  57
BRANCH   4  70
ATOM     70  O   LIG d   1       5.971  -9.803  -6.626  0.00  0.00    -0.391 OA
ATOM     71  H   LIG d   1       5.176 -10.330  -6.462  0.00  0.00     0.210 HD
ENDBRANCH   4  70
TORSDOF 12
ENDMDL
MODEL 7
REMARK VINA RESULT:      -5.4      6.261      7.734
REMARK  12 active torsions:
REMARK  status: ('A' for Active; 'I' for Inactive)
REMARK    1  A    between atoms: C_1  and  C_2 
REMARK    2  A    between atoms: C_5  and  O_37 
REMARK    3  A    between atoms: C_7  and  C_34 
REMARK    4  A    between atoms: C_7  and  C_35 
REMARK    5  A    between atoms: C_14  and  N_16 
REMARK       I    between atoms: N_16  and  C_17 
REMARK    6  A    between atoms: C_17  and  O_19 
REMARK    7  A    between atoms: O_19  and  C_20 
REMARK    8  A    between atoms: C_20  and  C_21 
REMARK    9  A    between atoms: C_23  and  C_25 
REMARK   10  A    between atoms: C_25  and  C_26 
REMARK       I    between atoms: C_26  and  N_28 
REMARK   11  A    between atoms: N_28  and  C_29 
REMARK   12  A    between atoms: C_35  and  O_36 
ROOT
ATOM      1  C   LIG d   1      10.335   2.208  -6.738  0.00  0.00    -0.019 C 
ATOM      2  C   LIG d   1      10.158   0.696  -6.907  0.00  0.00    -0.044 C 
ATOM      3  C   LIG d   1      10.774   0.232  -8.225  0.00  0.00    -0.026 C 
ATOM      4  C   LIG d   1      12.272   0.554  -8.211  0.00  0.00     0.063 C 
ATOM      5  H   LIG d   1      12.743   0.061  -7.360  0.00  0.00     0.060 H 
ATOM      6  C   LIG d   1      12.446   2.067  -8.091  0.00  0.00     0.021 C 
ATOM      7  C   LIG d   1      11.820   2.575  -6.788  0.00  0.00    -0.021 C 
ATOM      8  H   LIG d   1      12.339   2.143  -5.933  0.00  0.00     0.032 H 
ATOM      9  C   LIG d   1      11.957   4.111  -6.785  0.00  0.00    -0.016 C 
ATOM     10  C   LIG d   1      11.070   4.681  -5.747  0.00  0.00     0.015 A 
ATOM     11  C   LIG d   1      10.064   4.056  -5.082  0.00  0.00     0.058 A 
ATOM     12  N   LIG d   1       9.413   4.793  -4.184  0.00  0.00    -0.229 NA
ATOM     13  C   LIG d   1       9.723   6.051  -3.951  0.00  0.00     0.167 A 
ATOM     14  S   LIG d   1      11.042   6.311  -5.052  0.00  0.00    -0.057 SA
ATOM     15  C   LIG d   1       9.739   2.600  -5.380  0.00  0.00     0.016 C 
ATOM     16  H   LIG d   1      10.164   1.967  -4.600  0.00  0.00     0.037 H 
ATOM     17  H   LIG d   1       9.096   0.453  -6.900  0.00  0.00     0.027 H 
ATOM     18  H   LIG d   1      10.648   0.181  -6.080  0.00  0.00     0.027 H 
ATOM     19  H   LIG d   1      10.296   0.754  -9.054  0.00  0.00     0.029 H 
ATOM     20  H   LIG d   1      10.633  -0.843  -8.336  0.00  0.00     0.029 H 
ATOM     21  H   LIG d   1      12.992   4.383  -6.578  0.00  0.00     0.032 H 
ATOM     22  H   LIG d   1      11.662   4.505  -7.758  0.00  0.00     0.032 H 
ENDROOT
BRANCH  15  23
ATOM     23  C   LIG d   1       8.220   2.414  -5.416  0.00  0.00     0.033 C 
ATOM     24  H   LIG d   1       7.737   3.389  -5.481  0.00  0.00     0.036 H 
ATOM     25  H   LIG d   1       7.948   1.816  -6.285  0.00  0.00     0.036 H 
BRANCH  23  26
ATOM     26  C   LIG d   1       7.770   1.712  -4.161  0.00  0.00     0.214 C 
ATOM     27  O   LIG d   1       8.480   1.714  -3.177  0.00  0.00    -0.276 OA
ATOM     28  N   LIG d   1       6.578   1.084  -4.131  0.00  0.00    -0.312 N 
ATOM     29  H   LIG d   1       6.010   1.083  -4.917  0.00  0.00     0.149 HD
BRANCH  28  30
ATOM     30  C   LIG d   1       6.141   0.401  -2.911  0.00  0.00     0.023 C 
ATOM     31  C   LIG d   1       4.930   1.131  -2.304  0.00  0.00    -0.035 C 
ATOM     32  C   LIG d   1       3.766   0.118  -2.291  0.00  0.00    -0.051 C 
ATOM     33  H   LIG d   1       5.157   1.452  -1.287  0.00  0.00     0.028 H 
ATOM     34  H   LIG d   1       4.667   1.994  -2.918  0.00  0.00     0.028 H 
ATOM     35  C   LIG d   1       4.465  -1.263  -2.301  0.00  0.00    -0.051 C 
ATOM     36  H   LIG d   1       3.168   0.236  -1.387  0.00  0.00     0.027 H 
ATOM     37  H   LIG d   1       3.145   0.238  -3.179  0.00  0.00     0.027 H 
ATOM     38  C   LIG d   1       5.671  -1.030  -3.245  0.00  0.00    -0.035 C 
ATOM     39  H   LIG d   1       4.804  -1.532  -1.301  0.00  0.00     0.027 H 
ATOM     40  H   LIG d   1       3.802  -2.029  -2.704  0.00  0.00     0.027 H 
ATOM     41  H   LIG d   1       5.358  -1.095  -4.286  0.00  0.00     0.028 H 
ATOM     42  H   LIG d   1       6.463  -1.749  -3.037  0.00  0.00     0.028 H 
ATOM     43  H   LIG d   1       6.957   0.368  -2.189  0.00  0.00     0.050 H 
ENDBRANCH  28  30
ENDBRANCH  23  26
ENDBRANCH  15  23
BRANCH   1  44
ATOM     44  C   LIG d   1       9.588   2.939  -7.855  0.00  0.00    -0.059 C 
ATOM     45  H   LIG d   1       9.101   2.211  -8.504  0.00  0.00     0.024 H 
ATOM     46  H   LIG d   1       8.836   3.598  -7.420  0.00  0.00     0.024 H 
ATOM     47  H   LIG d   1      10.295   3.530  -8.439  0.00  0.00     0.024 H 
ENDBRANCH   1  44
BRANCH   6  48
ATOM     48  C   LIG d   1      13.938   2.407  -8.101  0.00  0.00    -0.055 C 
ATOM     49  H   LIG d   1      14.304   2.404  -9.128  0.00  0.00     0.024 H 
ATOM     50  H   LIG d   1      14.089   3.394  -7.665  0.00  0.00     0.024 H 
ATOM     51  H   LIG d   1      14.484   1.665  -7.519  0.00  0.00     0.024 H 
ENDBRANCH   6  48
BRANCH   6  52
ATOM     52  C   LIG d   1      11.764   2.751  -9.277  0.00  0.00     0.052 C 
ATOM     53  H   LIG d   1      10.919   2.146  -9.609  0.00  0.00     0.056 H 
ATOM     54  H   LIG d   1      11.408   3.735  -8.974  0.00  0.00     0.056 H 
BRANCH  52  55
ATOM     55  O   LIG d   1      12.699   2.892 -10.349  0.00  0.00    -0.394 OA
ATOM     56  H   LIG d   1      12.720   3.776 -10.738  0.00  0.00     0.209 HD
ENDBRANCH  52  55
ENDBRANCH   6  52
BRANCH  13  57
ATOM     57  N   LIG d   1       9.145   6.943  -3.055  0.00  0.00    -0.230 N 
ATOM     58  C   LIG d   1       9.463   6.885  -1.746  0.00  0.00     0.406 C 
ATOM     59  O   LIG d   1      10.253   6.052  -1.350  0.00  0.00    -0.226 OA
ATOM     60  H   LIG d   1       8.514   7.608  -3.371  0.00  0.00     0.160 HD
BRANCH  58  61
ATOM     61  O   LIG d   1       8.903   7.748  -0.878  0.00  0.00    -0.446 OA
BRANCH  61  62
ATOM     62  C   LIG d   1       9.191   9.158  -1.072  0.00  0.00     0.112 C 
ATOM     63  H   LIG d   1       9.074   9.410  -2.127  0.00  0.00     0.074 H 
ATOM     64  H   LIG d   1       8.500   9.755  -0.478  0.00  0.00     0.074 H 
BRANCH  62  65
ATOM     65  C   LIG d   1      10.606   9.446  -0.640  0.00  0.00    -0.054 C 
ATOM     66  C   LIG d   1      10.924   9.402   0.630  0.00  0.00    -0.100 C 
ATOM     67  H   LIG d   1      10.172   9.161   1.367  0.00  0.00     0.053 H 
ATOM     68  H   LIG d   1      11.938   9.607   0.940  0.00  0.00     0.053 H 
ATOM     69  H   LIG d   1      11.357   9.686  -1.377  0.00  0.00     0.060 H 
ENDBRANCH  62  65
ENDBRANCH  61  62
ENDBRANCH  58  61
ENDBRANCH  13  57
BRANCH   4  70
ATOM     70  O   LIG d   1      12.872   0.097  -9.423  0.00  0.00    -0.391 OA
ATOM     71  H   LIG d   1      12.739  -0.845  -9.598  0.00  0.00     0.210 HD
ENDBRANCH   4  70
TORSDOF 12
ENDMDL
MODEL 8
REMARK VINA RESULT:      -5.4      8.807     10.170
REMARK  12 active torsions:
REMARK  status: ('A' for Active; 'I' for Inactive)
REMARK    1  A    between atoms: C_1  and  C_2 
REMARK    2  A    between atoms: C_5  and  O_37 
REMARK    3  A    between atoms: C_7  and  C_34 
REMARK    4  A    between atoms: C_7  and  C_35 
REMARK    5  A    between atoms: C_14  and  N_16 
REMARK       I    between atoms: N_16  and  C_17 
REMARK    6  A    between atoms: C_17  and  O_19 
REMARK    7  A    between atoms: O_19  and  C_20 
REMARK    8  A    between atoms: C_20  and  C_21 
REMARK    9  A    between atoms: C_23  and  C_25 
REMARK   10  A    between atoms: C_25  and  C_26 
REMARK       I    between atoms: C_26  and  N_28 
REMARK   11  A    between atoms: N_28  and  C_29 
REMARK   12  A    between atoms: C_35  and  O_36 
ROOT
ATOM      1  C   LIG d   1      10.435   6.269  -4.418  0.00  0.00    -0.019 C 
ATOM      2  C   LIG d   1      10.393   7.115  -3.141  0.00  0.00    -0.044 C 
ATOM      3  C   LIG d   1      10.417   6.215  -1.907  0.00  0.00    -0.026 C 
ATOM      4  C   LIG d   1      11.713   5.400  -1.914  0.00  0.00     0.063 C 
ATOM      5  H   LIG d   1      12.569   6.075  -1.927  0.00  0.00     0.060 H 
ATOM      6  C   LIG d   1      11.732   4.522  -3.164  0.00  0.00     0.021 C 
ATOM      7  C   LIG d   1      11.687   5.389  -4.427  0.00  0.00    -0.021 C 
ATOM      8  H   LIG d   1      12.579   6.011  -4.482  0.00  0.00     0.032 H 
ATOM      9  C   LIG d   1      11.618   4.433  -5.634  0.00  0.00    -0.016 C 
ATOM     10  C   LIG d   1      11.217   5.192  -6.840  0.00  0.00     0.015 A 
ATOM     11  C   LIG d   1      10.694   6.445  -6.895  0.00  0.00     0.058 A 
ATOM     12  N   LIG d   1      10.420   6.909  -8.112  0.00  0.00    -0.229 NA
ATOM     13  C   LIG d   1      10.641   6.200  -9.200  0.00  0.00     0.167 A 
ATOM     14  S   LIG d   1      11.295   4.728  -8.548  0.00  0.00    -0.057 SA
ATOM     15  C   LIG d   1      10.456   7.230  -5.614  0.00  0.00     0.016 C 
ATOM     16  H   LIG d   1      11.257   7.958  -5.482  0.00  0.00     0.037 H 
ATOM     17  H   LIG d   1       9.482   7.713  -3.133  0.00  0.00     0.027 H 
ATOM     18  H   LIG d   1      11.258   7.778  -3.119  0.00  0.00     0.027 H 
ATOM     19  H   LIG d   1       9.561   5.541  -1.931  0.00  0.00     0.029 H 
ATOM     20  H   LIG d   1      10.377   6.829  -1.007  0.00  0.00     0.029 H 
ATOM     21  H   LIG d   1      12.595   3.976  -5.793  0.00  0.00     0.032 H 
ATOM     22  H   LIG d   1      10.878   3.656  -5.443  0.00  0.00     0.032 H 
ENDROOT
BRANCH  15  23
ATOM     23  C   LIG d   1       9.114   7.960  -5.706  0.00  0.00     0.033 C 
ATOM     24  H   LIG d   1       8.613   7.683  -6.634  0.00  0.00     0.036 H 
ATOM     25  H   LIG d   1       8.489   7.679  -4.859  0.00  0.00     0.036 H 
BRANCH  23  26
ATOM     26  C   LIG d   1       9.348   9.448  -5.686  0.00  0.00     0.214 C 
ATOM     27  O   LIG d   1       9.692  10.021  -6.699  0.00  0.00    -0.276 OA
ATOM     28  N   LIG d   1       9.176  10.143  -4.544  0.00  0.00    -0.312 N 
ATOM     29  H   LIG d   1       8.900   9.685  -3.735  0.00  0.00     0.149 HD
BRANCH  28  30
ATOM     30  C   LIG d   1       9.404  11.589  -4.525  0.00  0.00     0.023 C 
ATOM     31  C   LIG d   1       8.581  12.238  -3.399  0.00  0.00    -0.035 C 
ATOM     32  C   LIG d   1       9.591  12.907  -2.443  0.00  0.00    -0.051 C 
ATOM     33  H   LIG d   1       7.906  12.988  -3.813  0.00  0.00     0.028 H 
ATOM     34  H   LIG d   1       8.011  11.476  -2.866  0.00  0.00     0.028 H 
ATOM     35  C   LIG d   1      10.841  13.153  -3.324  0.00  0.00    -0.051 C 
ATOM     36  H   LIG d   1       9.196  13.852  -2.070  0.00  0.00     0.027 H 
ATOM     37  H   LIG d   1       9.833  12.240  -1.615  0.00  0.00     0.027 H 
ATOM     38  C   LIG d   1      10.886  11.886  -4.215  0.00  0.00    -0.035 C 
ATOM     39  H   LIG d   1      10.715  14.049  -3.932  0.00  0.00     0.027 H 
ATOM     40  H   LIG d   1      11.739  13.225  -2.709  0.00  0.00     0.027 H 
ATOM     41  H   LIG d   1      11.337  11.055  -3.674  0.00  0.00     0.028 H 
ATOM     42  H   LIG d   1      11.435  12.087  -5.135  0.00  0.00     0.028 H 
ATOM     43  H   LIG d   1       9.129  12.023  -5.486  0.00  0.00     0.050 H 
ENDBRANCH  28  30
ENDBRANCH  23  26
ENDBRANCH  15  23
BRANCH   1  44
ATOM     44  C   LIG d   1       9.187   5.388  -4.490  0.00  0.00    -0.059 C 
ATOM     45  H   LIG d   1       9.163   4.720  -3.630  0.00  0.00     0.024 H 
ATOM     46  H   LIG d   1       8.297   6.017  -4.486  0.00  0.00     0.024 H 
ATOM     47  H   LIG d   1       9.211   4.798  -5.408  0.00  0.00     0.024 H 
ENDBRANCH   1  44
BRANCH   6  48
ATOM     48  C   LIG d   1      13.011   3.681  -3.174  0.00  0.00    -0.055 C 
ATOM     49  H   LIG d   1      13.879   4.341  -3.181  0.00  0.00     0.024 H 
ATOM     50  H   LIG d   1      13.040   3.052  -2.285  0.00  0.00     0.024 H 
ATOM     51  H   LIG d   1      13.026   3.054  -4.065  0.00  0.00     0.024 H 
ENDBRANCH   6  48
BRANCH   6  52
ATOM     52  C   LIG d   1      10.517   3.593  -3.149  0.00  0.00     0.052 C 
ATOM     53  H   LIG d   1       9.631   4.158  -2.857  0.00  0.00     0.056 H 
ATOM     54  H   LIG d   1      10.367   3.172  -4.143  0.00  0.00     0.056 H 
BRANCH  52  55
ATOM     55  O   LIG d   1      10.737   2.535  -2.213  0.00  0.00    -0.394 OA
ATOM     56  H   LIG d   1      10.219   1.739  -2.391  0.00  0.00     0.209 HD
ENDBRANCH  52  55
ENDBRANCH   6  52
BRANCH  13  57
ATOM     57  N   LIG d   1      10.411   6.542 -10.527  0.00  0.00    -0.230 N 
ATOM     58  C   LIG d   1       9.222   6.265 -11.099  0.00  0.00     0.406 C 
ATOM     59  O   LIG d   1       8.352   5.715 -10.454  0.00  0.00    -0.226 OA
ATOM     60  H   LIG d   1      11.106   6.981 -11.042  0.00  0.00     0.160 HD
BRANCH  58  61
ATOM     61  O   LIG d   1       8.999   6.597 -12.385  0.00  0.00    -0.446 OA
BRANCH  61  62
ATOM     62  C   LIG d   1       9.975   7.463 -13.021  0.00  0.00     0.112 C 
ATOM     63  H   LIG d   1      10.885   7.487 -12.421  0.00  0.00     0.074 H 
ATOM     64  H   LIG d   1      10.206   7.083 -14.015  0.00  0.00     0.074 H 
BRANCH  62  65
ATOM     65  C   LIG d   1       9.411   8.856 -13.133  0.00  0.00    -0.054 C 
ATOM     66  C   LIG d   1       9.698   9.597 -14.175  0.00  0.00    -0.100 C 
ATOM     67  H   LIG d   1      10.340   9.210 -14.953  0.00  0.00     0.053 H 
ATOM     68  H   LIG d   1       9.293  10.595 -14.256  0.00  0.00     0.053 H 
ATOM     69  H   LIG d   1       8.769   9.243 -12.357  0.00  0.00     0.060 H 
ENDBRANCH  62  65
ENDBRANCH  61  62
ENDBRANCH  58  61
ENDBRANCH  13  57
BRANCH   4  70
ATOM     70  O   LIG d   1      11.769   4.576  -0.749  0.00  0.00    -0.391 OA
ATOM     71  H   LIG d   1      12.553   4.722  -0.202  0.00  0.00     0.210 HD
ENDBRANCH   4  70
TORSDOF 12
ENDMDL
MODEL 9
REMARK VINA RESULT:      -5.3      4.458      8.264
REMARK  12 active torsions:
REMARK  status: ('A' for Active; 'I' for Inactive)
REMARK    1  A    between atoms: C_1  and  C_2 
REMARK    2  A    between atoms: C_5  and  O_37 
REMARK    3  A    between atoms: C_7  and  C_34 
REMARK    4  A    between atoms: C_7  and  C_35 
REMARK    5  A    between atoms: C_14  and  N_16 
REMARK       I    between atoms: N_16  and  C_17 
REMARK    6  A    between atoms: C_17  and  O_19 
REMARK    7  A    between atoms: O_19  and  C_20 
REMARK    8  A    between atoms: C_20  and  C_21 
REMARK    9  A    between atoms: C_23  and  C_25 
REMARK   10  A    between atoms: C_25  and  C_26 
REMARK       I    between atoms: C_26  and  N_28 
REMARK   11  A    between atoms: N_28  and  C_29 
REMARK   12  A    between atoms: C_35  and  O_36 
ROOT
ATOM      1  C   LIG d   1       4.731  -1.725  -9.897  0.00  0.00    -0.019 C 
ATOM      2  C   LIG d   1       4.567  -0.205  -9.997  0.00  0.00    -0.044 C 
ATOM      3  C   LIG d   1       4.919   0.277 -11.402  0.00  0.00    -0.026 C 
ATOM      4  C   LIG d   1       3.968  -0.388 -12.404  0.00  0.00     0.063 C 
ATOM      5  H   LIG d   1       2.938  -0.140 -12.148  0.00  0.00     0.060 H 
ATOM      6  C   LIG d   1       4.167  -1.901 -12.338  0.00  0.00     0.021 C 
ATOM      7  C   LIG d   1       3.845  -2.420 -10.932  0.00  0.00    -0.021 C 
ATOM      8  H   LIG d   1       2.795  -2.244 -10.702  0.00  0.00     0.032 H 
ATOM      9  C   LIG d   1       4.154  -3.931 -10.923  0.00  0.00    -0.016 C 
ATOM     10  C   LIG d   1       4.207  -4.412  -9.524  0.00  0.00     0.015 A 
ATOM     11  C   LIG d   1       4.280  -3.665  -8.392  0.00  0.00     0.058 A 
ATOM     12  N   LIG d   1       4.310  -4.344  -7.247  0.00  0.00    -0.229 NA
ATOM     13  C   LIG d   1       4.272  -5.659  -7.210  0.00  0.00     0.167 A 
ATOM     14  S   LIG d   1       4.184  -6.069  -8.896  0.00  0.00    -0.057 SA
ATOM     15  C   LIG d   1       4.320  -2.147  -8.480  0.00  0.00     0.016 C 
ATOM     16  H   LIG d   1       3.333  -1.745  -8.253  0.00  0.00     0.037 H 
ATOM     17  H   LIG d   1       5.226   0.278  -9.275  0.00  0.00     0.027 H 
ATOM     18  H   LIG d   1       3.534   0.062  -9.772  0.00  0.00     0.027 H 
ATOM     19  H   LIG d   1       5.947   0.000 -11.636  0.00  0.00     0.029 H 
ATOM     20  H   LIG d   1       4.807   1.359 -11.456  0.00  0.00     0.029 H 
ATOM     21  H   LIG d   1       3.377  -4.465 -11.469  0.00  0.00     0.032 H 
ATOM     22  H   LIG d   1       5.121  -4.108 -11.394  0.00  0.00     0.032 H 
ENDROOT
BRANCH  15  23
ATOM     23  C   LIG d   1       5.335  -1.606  -7.471  0.00  0.00     0.033 C 
ATOM     24  H   LIG d   1       5.920  -2.432  -7.066  0.00  0.00     0.036 H 
ATOM     25  H   LIG d   1       6.001  -0.900  -7.968  0.00  0.00     0.036 H 
BRANCH  23  26
ATOM     26  C   LIG d   1       4.608  -0.908  -6.351  0.00  0.00     0.214 C 
ATOM     27  O   LIG d   1       3.968   0.098  -6.578  0.00  0.00    -0.276 OA
ATOM     28  N   LIG d   1       4.668  -1.401  -5.098  0.00  0.00    -0.312 N 
ATOM     29  H   LIG d   1       5.179  -2.205  -4.918  0.00  0.00     0.149 HD
BRANCH  28  30
ATOM     30  C   LIG d   1       3.961  -0.722  -4.010  0.00  0.00     0.023 C 
ATOM     31  C   LIG d   1       3.668  -1.715  -2.871  0.00  0.00    -0.035 C 
ATOM     32  C   LIG d   1       4.393  -1.177  -1.620  0.00  0.00    -0.051 C 
ATOM     33  H   LIG d   1       2.595  -1.767  -2.688  0.00  0.00     0.028 H 
ATOM     34  H   LIG d   1       4.052  -2.703  -3.129  0.00  0.00     0.028 H 
ATOM     35  C   LIG d   1       4.545   0.340  -1.893  0.00  0.00    -0.051 C 
ATOM     36  H   LIG d   1       3.788  -1.345  -0.728  0.00  0.00     0.027 H 
ATOM     37  H   LIG d   1       5.371  -1.646  -1.513  0.00  0.00     0.027 H 
ATOM     38  C   LIG d   1       4.853   0.385  -3.410  0.00  0.00    -0.035 C 
ATOM     39  H   LIG d   1       3.618   0.868  -1.670  0.00  0.00     0.027 H 
ATOM     40  H   LIG d   1       5.375   0.754  -1.318  0.00  0.00     0.027 H 
ATOM     41  H   LIG d   1       5.905   0.169  -3.593  0.00  0.00     0.028 H 
ATOM     42  H   LIG d   1       4.585   1.357  -3.825  0.00  0.00     0.028 H 
ATOM     43  H   LIG d   1       3.030  -0.293  -4.379  0.00  0.00     0.050 H 
ENDBRANCH  28  30
ENDBRANCH  23  26
ENDBRANCH  15  23
BRANCH   1  44
ATOM     44  C   LIG d   1       6.194  -2.100 -10.139  0.00  0.00    -0.059 C 
ATOM     45  H   LIG d   1       6.662  -2.371  -9.192  0.00  0.00     0.024 H 
ATOM     46  H   LIG d   1       6.244  -2.946 -10.824  0.00  0.00     0.024 H 
ATOM     47  H   LIG d   1       6.721  -1.248 -10.572  0.00  0.00     0.024 H 
ENDBRANCH   1  44
BRANCH   6  48
ATOM     48  C   LIG d   1       3.242  -2.578 -13.351  0.00  0.00    -0.055 C 
ATOM     49  H   LIG d   1       2.210  -2.501 -13.008  0.00  0.00     0.024 H 
ATOM     50  H   LIG d   1       3.340  -2.088 -14.319  0.00  0.00     0.024 H 
ATOM     51  H   LIG d   1       3.514  -3.629 -13.445  0.00  0.00     0.024 H 
ENDBRANCH   6  48
BRANCH   6  52
ATOM     52  C   LIG d   1       5.620  -2.236 -12.677  0.00  0.00     0.052 C 
ATOM     53  H   LIG d   1       6.266  -1.416 -12.361  0.00  0.00     0.056 H 
ATOM     54  H   LIG d   1       5.914  -3.149 -12.158  0.00  0.00     0.056 H 
BRANCH  52  55
ATOM     55  O   LIG d   1       5.749  -2.427 -14.088  0.00  0.00    -0.394 OA
ATOM     56  H   LIG d   1       6.172  -1.689 -14.547  0.00  0.00     0.209 HD
ENDBRANCH  52  55
ENDBRANCH   6  52
BRANCH  13  57
ATOM     57  N   LIG d   1       4.294  -6.503  -6.105  0.00  0.00    -0.230 N 
ATOM     58  C   LIG d   1       5.364  -7.291  -5.880  0.00  0.00     0.406 C 
ATOM     59  O   LIG d   1       6.309  -7.265  -6.644  0.00  0.00    -0.226 OA
ATOM     60  H   LIG d   1       3.540  -6.525  -5.496  0.00  0.00     0.160 HD
BRANCH  58  61
ATOM     61  O   LIG d   1       5.387  -8.108  -4.810  0.00  0.00    -0.446 OA
BRANCH  61  62
ATOM     62  C   LIG d   1       4.860  -9.449  -4.993  0.00  0.00     0.112 C 
ATOM     63  H   LIG d   1       3.932  -9.399  -5.564  0.00  0.00     0.074 H 
ATOM     64  H   LIG d   1       5.586 -10.054  -5.534  0.00  0.00     0.074 H 
BRANCH  62  65
ATOM     65  C   LIG d   1       4.589 -10.069  -3.647  0.00  0.00    -0.054 C 
ATOM     66  C   LIG d   1       3.378 -10.047  -3.147  0.00  0.00    -0.100 C 
ATOM     67  H   LIG d   1       2.574  -9.582  -3.699  0.00  0.00     0.053 H 
ATOM     68  H   LIG d   1       3.184 -10.493  -2.183  0.00  0.00     0.053 H 
ATOM     69  H   LIG d   1       5.392 -10.535  -3.095  0.00  0.00     0.060 H 
ENDBRANCH  62  65
ENDBRANCH  61  62
ENDBRANCH  58  61
ENDBRANCH  13  57
BRANCH   4  70
ATOM     70  O   LIG d   1       4.260   0.076 -13.723  0.00  0.00    -0.391 OA
ATOM     71  H   LIG d   1       5.206   0.149 -13.913  0.00  0.00     0.210 HD
ENDBRANCH   4  70
TORSDOF 12
ENDMDL
