MODEL 1
REMARK VINA RESULT:      -5.2      0.000      0.000
REMARK  7 active torsions:
REMARK  status: ('A' for Active; 'I' for Inactive)
REMARK    1  A    between atoms: C_1  and  C_2 
REMARK    2  A    between atoms: C_3  and  C_18 
REMARK    3  A    between atoms: C_9  and  O_17 
REMARK    4  A    between atoms: C_10  and  C_13 
REMARK    5  A    between atoms: C_13  and  N_14 
REMARK    6  A    between atoms: N_14  and  C_15 
REMARK    7  A    between atoms: N_14  and  C_16 
ROOT
ATOM      1  C   LIG d   1       8.694   0.026  -5.049  0.00  0.00     0.114 A 
ATOM      2  C   LIG d   1       8.149   1.034  -4.318  0.00  0.00     0.067 A 
ATOM      3  C   LIG d   1       6.833   0.822  -3.693  0.00  0.00     0.200 A 
ATOM      4  O   LIG d   1       6.294   1.690  -3.027  0.00  0.00    -0.286 OA
ATOM      5  C   LIG d   1       6.197  -0.491  -3.911  0.00  0.00     0.065 A 
ATOM      6  C   LIG d   1       4.950  -0.791  -3.362  0.00  0.00    -0.044 A 
ATOM      7  C   LIG d   1       4.390  -2.017  -3.585  0.00  0.00    -0.019 A 
ATOM      8  C   LIG d   1       5.057  -2.965  -4.356  0.00  0.00     0.129 A 
ATOM      9  C   LIG d   1       6.295  -2.682  -4.907  0.00  0.00     0.081 A 
ATOM     10  C   LIG d   1       6.882  -1.443  -4.687  0.00  0.00     0.150 A 
ATOM     11  O   LIG d   1       8.083  -1.148  -5.221  0.00  0.00    -0.459 OA
ATOM     12  H   LIG d   1       4.431  -0.058  -2.764  0.00  0.00     0.063 H 
ATOM     13  H   LIG d   1       3.425  -2.251  -3.160  0.00  0.00     0.065 H 
ENDROOT
BRANCH   9  14
ATOM     14  C   LIG d   1       7.006  -3.717  -5.740  0.00  0.00     0.001 C 
ATOM     15  H   LIG d   1       6.331  -4.081  -6.528  0.00  0.00     0.087 H 
ATOM     16  H   LIG d   1       7.898  -3.267  -6.201  0.00  0.00     0.087 H 
BRANCH  14  17
ATOM     17  N   LIG d   1       7.412  -4.840  -4.885  0.00  0.00     0.234 N 
ATOM     18  H   LIG d   1       6.716  -4.885  -4.034  0.00  0.00     0.203 HD
BRANCH  17  19
ATOM     19  C   LIG d   1       7.321  -6.114  -5.611  0.00  0.00    -0.043 C 
ATOM     20  H   LIG d   1       7.993  -6.089  -6.481  0.00  0.00     0.078 H 
ATOM     21  H   LIG d   1       6.286  -6.269  -5.950  0.00  0.00     0.078 H 
ATOM     22  H   LIG d   1       7.615  -6.938  -4.944  0.00  0.00     0.078 H 
ENDBRANCH  17  19
BRANCH  17  23
ATOM     23  C   LIG d   1       8.764  -4.634  -4.351  0.00  0.00    -0.043 C 
ATOM     24  H   LIG d   1       9.082  -5.531  -3.799  0.00  0.00     0.078 H 
ATOM     25  H   LIG d   1       8.763  -3.769  -3.672  0.00  0.00     0.078 H 
ATOM     26  H   LIG d   1       9.461  -4.447  -5.181  0.00  0.00     0.078 H 
ENDBRANCH  17  23
ENDBRANCH  14  17
ENDBRANCH   9  14
BRANCH   8  27
ATOM     27  O   LIG d   1       4.488  -4.179  -4.570  0.00  0.00    -0.506 OA
ATOM     28  H   LIG d   1       4.226  -4.492  -5.591  0.00  0.00     0.292 HD
ENDBRANCH   8  27
BRANCH   1  29
ATOM     29  C   LIG d   1      10.042   0.244  -5.688  0.00  0.00    -0.006 C 
ATOM     30  H   LIG d   1      10.423   1.238  -5.413  0.00  0.00     0.031 H 
ATOM     31  H   LIG d   1       9.942   0.178  -6.782  0.00  0.00     0.031 H 
ATOM     32  H   LIG d   1      10.742  -0.528  -5.336  0.00  0.00     0.031 H 
ENDBRANCH   1  29
BRANCH   2  33
ATOM     33  C   LIG d   1       8.866   2.322  -4.154  0.00  0.00    -0.011 A 
ATOM     34  C   LIG d   1       9.751   2.499  -3.092  0.00  0.00    -0.052 A 
ATOM     35  C   LIG d   1      10.415   3.699  -2.943  0.00  0.00    -0.043 A 
ATOM     36  H   LIG d   1       9.917   1.698  -2.386  0.00  0.00     0.062 H 
ATOM     37  C   LIG d   1      10.205   4.726  -3.848  0.00  0.00     0.041 A 
ATOM     38  H   LIG d   1      11.102   3.838  -2.121  0.00  0.00     0.063 H 
ATOM     39  C   LIG d   1       9.326   4.556  -4.904  0.00  0.00    -0.043 A 
ATOM     40 CL   LIG d   1      11.043   6.233  -3.655  0.00  0.00    -0.084 Cl
ATOM     41  C   LIG d   1       8.661   3.357  -5.064  0.00  0.00    -0.052 A 
ATOM     42  H   LIG d   1       9.164   5.360  -5.606  0.00  0.00     0.063 H 
ATOM     43  H   LIG d   1       7.979   3.223  -5.891  0.00  0.00     0.062 H 
ENDBRANCH   2  33
TORSDOF 7
ENDMDL
MODEL 2
REMARK VINA RESULT:      -5.1      5.500      7.414
REMARK  7 active torsions:
REMARK  status: ('A' for Active; 'I' for Inactive)
REMARK    1  A    between atoms: C_1  and  C_2 
REMARK    2  A    between atoms: C_3  and  C_18 
REMARK    3  A    between atoms: C_9  and  O_17 
REMARK    4  A    between atoms: C_10  and  C_13 
REMARK    5  A    between atoms: C_13  and  N_14 
REMARK    6  A    between atoms: N_14  and  C_15 
REMARK    7  A    between atoms: N_14  and  C_16 
ROOT
ATOM      1  C   LIG d   1       4.078   0.128  -7.954  0.00  0.00     0.114 A 
ATOM      2  C   LIG d   1       4.294  -0.959  -8.739  0.00  0.00     0.067 A 
ATOM      3  C   LIG d   1       4.540  -2.260  -8.093  0.00  0.00     0.200 A 
ATOM      4  O   LIG d   1       4.741  -3.270  -8.746  0.00  0.00    -0.286 OA
ATOM      5  C   LIG d   1       4.531  -2.282  -6.619  0.00  0.00     0.065 A 
ATOM      6  C   LIG d   1       4.754  -3.463  -5.911  0.00  0.00    -0.044 A 
ATOM      7  C   LIG d   1       4.740  -3.448  -4.545  0.00  0.00    -0.019 A 
ATOM      8  C   LIG d   1       4.505  -2.260  -3.858  0.00  0.00     0.129 A 
ATOM      9  C   LIG d   1       4.282  -1.079  -4.546  0.00  0.00     0.081 A 
ATOM     10  C   LIG d   1       4.288  -1.078  -5.935  0.00  0.00     0.150 A 
ATOM     11  O   LIG d   1       4.080   0.064  -6.620  0.00  0.00    -0.459 OA
ATOM     12  H   LIG d   1       4.936  -4.386  -6.441  0.00  0.00     0.063 H 
ATOM     13  H   LIG d   1       4.911  -4.362  -3.996  0.00  0.00     0.065 H 
ENDROOT
BRANCH   9  14
ATOM     14  C   LIG d   1       4.029   0.200  -3.791  0.00  0.00     0.001 C 
ATOM     15  H   LIG d   1       4.026   1.046  -4.493  0.00  0.00     0.087 H 
ATOM     16  H   LIG d   1       3.055   0.140  -3.284  0.00  0.00     0.087 H 
BRANCH  14  17
ATOM     17  N   LIG d   1       5.089   0.397  -2.792  0.00  0.00     0.234 N 
ATOM     18  H   LIG d   1       5.429  -0.595  -2.460  0.00  0.00     0.203 HD
BRANCH  17  19
ATOM     19  C   LIG d   1       6.240   1.097  -3.378  0.00  0.00    -0.043 C 
ATOM     20  H   LIG d   1       5.908   1.685  -4.246  0.00  0.00     0.078 H 
ATOM     21  H   LIG d   1       6.992   0.361  -3.698  0.00  0.00     0.078 H 
ATOM     22  H   LIG d   1       6.681   1.768  -2.627  0.00  0.00     0.078 H 
ENDBRANCH  17  19
BRANCH  17  23
ATOM     23  C   LIG d   1       4.578   1.115  -1.617  0.00  0.00    -0.043 C 
ATOM     24  H   LIG d   1       3.561   1.480  -1.823  0.00  0.00     0.078 H 
ATOM     25  H   LIG d   1       5.235   1.969  -1.394  0.00  0.00     0.078 H 
ATOM     26  H   LIG d   1       4.556   0.434  -0.753  0.00  0.00     0.078 H 
ENDBRANCH  17  23
ENDBRANCH  14  17
ENDBRANCH   9  14
BRANCH   8  27
ATOM     27  O   LIG d   1       4.494  -2.258  -2.501  0.00  0.00    -0.506 OA
ATOM     28  H   LIG d   1       4.212  -1.347  -1.954  0.00  0.00     0.292 HD
ENDBRANCH   8  27
BRANCH   1  29
ATOM     29  C   LIG d   1       3.827   1.459  -8.615  0.00  0.00    -0.006 C 
ATOM     30  H   LIG d   1       3.997   1.369  -9.698  0.00  0.00     0.031 H 
ATOM     31  H   LIG d   1       4.513   2.211  -8.198  0.00  0.00     0.031 H 
ATOM     32  H   LIG d   1       2.787   1.768  -8.432  0.00  0.00     0.031 H 
ENDBRANCH   1  29
BRANCH   2  33
ATOM     33  C   LIG d   1       4.284  -0.839 -10.217  0.00  0.00    -0.011 A 
ATOM     34  C   LIG d   1       5.477  -0.642 -10.911  0.00  0.00    -0.052 A 
ATOM     35  C   LIG d   1       5.462  -0.532 -12.286  0.00  0.00    -0.043 A 
ATOM     36  H   LIG d   1       6.412  -0.577 -10.373  0.00  0.00     0.062 H 
ATOM     37  C   LIG d   1       4.266  -0.617 -12.977  0.00  0.00     0.041 A 
ATOM     38  H   LIG d   1       6.386  -0.380 -12.825  0.00  0.00     0.063 H 
ATOM     39  C   LIG d   1       3.078  -0.811 -12.293  0.00  0.00    -0.043 A 
ATOM     40 CL   LIG d   1       4.255  -0.477 -14.707  0.00  0.00    -0.084 Cl
ATOM     41  C   LIG d   1       3.083  -0.929 -10.917  0.00  0.00    -0.052 A 
ATOM     42  H   LIG d   1       2.147  -0.876 -12.836  0.00  0.00     0.063 H 
ATOM     43  H   LIG d   1       2.156  -1.086 -10.385  0.00  0.00     0.062 H 
ENDBRANCH   2  33
TORSDOF 7
ENDMDL
MODEL 3
REMARK VINA RESULT:      -5.1      5.285      7.104
REMARK  7 active torsions:
REMARK  status: ('A' for Active; 'I' for Inactive)
REMARK    1  A    between atoms: C_1  and  C_2 
REMARK    2  A    between atoms: C_3  and  C_18 
REMARK    3  A    between atoms: C_9  and  O_17 
REMARK    4  A    between atoms: C_10  and  C_13 
REMARK    5  A    between atoms: C_13  and  N_14 
REMARK    6  A    between atoms: N_14  and  C_15 
REMARK    7  A    between atoms: N_14  and  C_16 
ROOT
ATOM      1  C   LIG d   1       5.683  -0.751  -7.745  0.00  0.00     0.114 A 
ATOM      2  C   LIG d   1       4.430  -0.603  -8.248  0.00  0.00     0.067 A 
ATOM      3  C   LIG d   1       3.329  -0.282  -7.324  0.00  0.00     0.200 A 
ATOM      4  O   LIG d   1       2.184  -0.139  -7.718  0.00  0.00    -0.286 OA
ATOM      5  C   LIG d   1       3.678  -0.143  -5.898  0.00  0.00     0.065 A 
ATOM      6  C   LIG d   1       2.709   0.159  -4.942  0.00  0.00    -0.044 A 
ATOM      7  C   LIG d   1       3.066   0.280  -3.629  0.00  0.00    -0.019 A 
ATOM      8  C   LIG d   1       4.392   0.103  -3.243  0.00  0.00     0.129 A 
ATOM      9  C   LIG d   1       5.366  -0.197  -4.180  0.00  0.00     0.081 A 
ATOM     10  C   LIG d   1       5.021  -0.318  -5.520  0.00  0.00     0.150 A 
ATOM     11  O   LIG d   1       5.955  -0.617  -6.444  0.00  0.00    -0.459 OA
ATOM     12  H   LIG d   1       1.679   0.297  -5.238  0.00  0.00     0.063 H 
ATOM     13  H   LIG d   1       2.317   0.514  -2.887  0.00  0.00     0.065 H 
ENDROOT
BRANCH   9  14
ATOM     14  C   LIG d   1       6.798  -0.386  -3.749  0.00  0.00     0.001 C 
ATOM     15  H   LIG d   1       6.892  -0.155  -2.678  0.00  0.00     0.087 H 
ATOM     16  H   LIG d   1       7.099  -1.429  -3.927  0.00  0.00     0.087 H 
BRANCH  14  17
ATOM     17  N   LIG d   1       7.665   0.513  -4.522  0.00  0.00     0.234 N 
ATOM     18  H   LIG d   1       7.144   0.763  -5.458  0.00  0.00     0.203 HD
BRANCH  17  19
ATOM     19  C   LIG d   1       7.911   1.763  -3.792  0.00  0.00    -0.043 C 
ATOM     20  H   LIG d   1       7.870   1.570  -2.710  0.00  0.00     0.078 H 
ATOM     21  H   LIG d   1       7.143   2.502  -4.063  0.00  0.00     0.078 H 
ATOM     22  H   LIG d   1       8.905   2.153  -4.058  0.00  0.00     0.078 H 
ENDBRANCH  17  19
BRANCH  17  23
ATOM     23  C   LIG d   1       8.928  -0.149  -4.874  0.00  0.00    -0.043 C 
ATOM     24  H   LIG d   1       9.582   0.563  -5.399  0.00  0.00     0.078 H 
ATOM     25  H   LIG d   1       8.723  -1.008  -5.529  0.00  0.00     0.078 H 
ATOM     26  H   LIG d   1       9.427  -0.498  -3.958  0.00  0.00     0.078 H 
ENDBRANCH  17  23
ENDBRANCH  14  17
ENDBRANCH   9  14
BRANCH   8  27
ATOM     27  O   LIG d   1       4.734   0.226  -1.935  0.00  0.00    -0.506 OA
ATOM     28  H   LIG d   1       3.978   0.525  -1.194  0.00  0.00     0.292 HD
ENDBRANCH   8  27
BRANCH   1  29
ATOM     29  C   LIG d   1       6.809  -1.079  -8.691  0.00  0.00    -0.006 C 
ATOM     30  H   LIG d   1       6.418  -1.662  -9.538  0.00  0.00     0.031 H 
ATOM     31  H   LIG d   1       7.572  -1.667  -8.161  0.00  0.00     0.031 H 
ATOM     32  H   LIG d   1       7.257  -0.146  -9.063  0.00  0.00     0.031 H 
ENDBRANCH   1  29
BRANCH   2  33
ATOM     33  C   LIG d   1       4.175  -0.762  -9.701  0.00  0.00    -0.011 A 
ATOM     34  C   LIG d   1       4.301   0.332 -10.557  0.00  0.00    -0.052 A 
ATOM     35  C   LIG d   1       4.064   0.178 -11.907  0.00  0.00    -0.043 A 
ATOM     36  H   LIG d   1       4.585   1.297 -10.163  0.00  0.00     0.062 H 
ATOM     37  C   LIG d   1       3.702  -1.058 -12.413  0.00  0.00     0.041 A 
ATOM     38  H   LIG d   1       4.162   1.025 -12.571  0.00  0.00     0.063 H 
ATOM     39  C   LIG d   1       3.574  -2.147 -11.567  0.00  0.00    -0.043 A 
ATOM     40 CL   LIG d   1       3.404  -1.243 -14.113  0.00  0.00    -0.084 Cl
ATOM     41  C   LIG d   1       3.815  -2.006 -10.215  0.00  0.00    -0.052 A 
ATOM     42  H   LIG d   1       3.290  -3.109 -11.966  0.00  0.00     0.063 H 
ATOM     43  H   LIG d   1       3.720  -2.857  -9.558  0.00  0.00     0.062 H 
ENDBRANCH   2  33
TORSDOF 7
ENDMDL
MODEL 4
REMARK VINA RESULT:      -5.1      5.583      7.239
REMARK  7 active torsions:
REMARK  status: ('A' for Active; 'I' for Inactive)
REMARK    1  A    between atoms: C_1  and  C_2 
REMARK    2  A    between atoms: C_3  and  C_18 
REMARK    3  A    between atoms: C_9  and  O_17 
REMARK    4  A    between atoms: C_10  and  C_13 
REMARK    5  A    between atoms: C_13  and  N_14 
REMARK    6  A    between atoms: N_14  and  C_15 
REMARK    7  A    between atoms: N_14  and  C_16 
ROOT
ATOM      1  C   LIG d   1       4.604  -1.964  -8.071  0.00  0.00     0.114 A 
ATOM      2  C   LIG d   1       3.877  -1.017  -8.720  0.00  0.00     0.067 A 
ATOM      3  C   LIG d   1       3.145  -0.018  -7.923  0.00  0.00     0.200 A 
ATOM      4  O   LIG d   1       2.475   0.854  -8.449  0.00  0.00    -0.286 OA
ATOM      5  C   LIG d   1       3.259  -0.125  -6.457  0.00  0.00     0.065 A 
ATOM      6  C   LIG d   1       2.604   0.771  -5.612  0.00  0.00    -0.044 A 
ATOM      7  C   LIG d   1       2.731   0.644  -4.258  0.00  0.00    -0.019 A 
ATOM      8  C   LIG d   1       3.510  -0.377  -3.719  0.00  0.00     0.129 A 
ATOM      9  C   LIG d   1       4.166  -1.274  -4.543  0.00  0.00     0.081 A 
ATOM     10  C   LIG d   1       4.053  -1.156  -5.922  0.00  0.00     0.150 A 
ATOM     11  O   LIG d   1       4.680  -2.025  -6.739  0.00  0.00    -0.459 OA
ATOM     12  H   LIG d   1       1.998   1.563  -6.028  0.00  0.00     0.063 H 
ATOM     13  H   LIG d   1       2.224   1.337  -3.603  0.00  0.00     0.065 H 
ENDROOT
BRANCH   9  14
ATOM     14  C   LIG d   1       5.007  -2.374  -3.947  0.00  0.00     0.001 C 
ATOM     15  H   LIG d   1       4.955  -2.321  -2.850  0.00  0.00     0.087 H 
ATOM     16  H   LIG d   1       4.627  -3.349  -4.285  0.00  0.00     0.087 H 
BRANCH  14  17
ATOM     17  N   LIG d   1       6.402  -2.214  -4.379  0.00  0.00     0.234 N 
ATOM     18  H   LIG d   1       6.397  -1.705  -5.355  0.00  0.00     0.203 HD
BRANCH  17  19
ATOM     19  C   LIG d   1       7.153  -1.376  -3.435  0.00  0.00    -0.043 C 
ATOM     20  H   LIG d   1       7.190  -1.872  -2.455  0.00  0.00     0.078 H 
ATOM     21  H   LIG d   1       6.654  -0.401  -3.335  0.00  0.00     0.078 H 
ATOM     22  H   LIG d   1       8.176  -1.227  -3.811  0.00  0.00     0.078 H 
ENDBRANCH  17  19
BRANCH  17  23
ATOM     23  C   LIG d   1       7.051  -3.520  -4.556  0.00  0.00    -0.043 C 
ATOM     24  H   LIG d   1       7.719  -3.716  -3.704  0.00  0.00     0.078 H 
ATOM     25  H   LIG d   1       7.637  -3.516  -5.486  0.00  0.00     0.078 H 
ATOM     26  H   LIG d   1       6.284  -4.306  -4.610  0.00  0.00     0.078 H 
ENDBRANCH  17  23
ENDBRANCH  14  17
ENDBRANCH   9  14
BRANCH   8  27
ATOM     27  O   LIG d   1       3.628  -0.493  -2.371  0.00  0.00    -0.506 OA
ATOM     28  H   LIG d   1       4.283   0.194  -1.815  0.00  0.00     0.292 HD
ENDBRANCH   8  27
BRANCH   1  29
ATOM     29  C   LIG d   1       5.353  -2.986  -8.887  0.00  0.00    -0.006 C 
ATOM     30  H   LIG d   1       4.667  -3.458  -9.605  0.00  0.00     0.031 H 
ATOM     31  H   LIG d   1       5.771  -3.753  -8.219  0.00  0.00     0.031 H 
ATOM     32  H   LIG d   1       6.170  -2.490  -9.433  0.00  0.00     0.031 H 
ENDBRANCH   1  29
BRANCH   2  33
ATOM     33  C   LIG d   1       3.822  -0.990 -10.202  0.00  0.00    -0.011 A 
ATOM     34  C   LIG d   1       2.810  -1.672 -10.876  0.00  0.00    -0.052 A 
ATOM     35  C   LIG d   1       2.763  -1.643 -12.255  0.00  0.00    -0.043 A 
ATOM     36  H   LIG d   1       2.065  -2.222 -10.321  0.00  0.00     0.062 H 
ATOM     37  C   LIG d   1       3.716  -0.938 -12.968  0.00  0.00     0.041 A 
ATOM     38  H   LIG d   1       1.979  -2.171 -12.779  0.00  0.00     0.063 H 
ATOM     39  C   LIG d   1       4.724  -0.259 -12.303  0.00  0.00    -0.043 A 
ATOM     40 CL   LIG d   1       3.651  -0.906 -14.702  0.00  0.00    -0.084 Cl
ATOM     41  C   LIG d   1       4.777  -0.277 -10.924  0.00  0.00    -0.052 A 
ATOM     42  H   LIG d   1       5.466   0.289 -12.864  0.00  0.00     0.063 H 
ATOM     43  H   LIG d   1       5.560   0.257 -10.406  0.00  0.00     0.062 H 
ENDBRANCH   2  33
TORSDOF 7
ENDMDL
MODEL 5
REMARK VINA RESULT:      -5.0      5.442      7.803
REMARK  7 active torsions:
REMARK  status: ('A' for Active; 'I' for Inactive)
REMARK    1  A    between atoms: C_1  and  C_2 
REMARK    2  A    between atoms: C_3  and  C_18 
REMARK    3  A    between atoms: C_9  and  O_17 
REMARK    4  A    between atoms: C_10  and  C_13 
REMARK    5  A    between atoms: C_13  and  N_14 
REMARK    6  A    between atoms: N_14  and  C_15 
REMARK    7  A    between atoms: N_14  and  C_16 
ROOT
ATOM      1  C   LIG d   1       3.834  -0.305  -7.294  0.00  0.00     0.114 A 
ATOM      2  C   LIG d   1       4.041  -1.342  -8.147  0.00  0.00     0.067 A 
ATOM      3  C   LIG d   1       5.030  -2.371  -7.784  0.00  0.00     0.200 A 
ATOM      4  O   LIG d   1       5.259  -3.323  -8.511  0.00  0.00    -0.286 OA
ATOM      5  C   LIG d   1       5.731  -2.194  -6.500  0.00  0.00     0.065 A 
ATOM      6  C   LIG d   1       6.688  -3.111  -6.064  0.00  0.00    -0.044 A 
ATOM      7  C   LIG d   1       7.319  -2.917  -4.869  0.00  0.00    -0.019 A 
ATOM      8  C   LIG d   1       7.013  -1.807  -4.085  0.00  0.00     0.129 A 
ATOM      9  C   LIG d   1       6.067  -0.887  -4.503  0.00  0.00     0.081 A 
ATOM     10  C   LIG d   1       5.411  -1.072  -5.713  0.00  0.00     0.150 A 
ATOM     11  O   LIG d   1       4.492  -0.183  -6.139  0.00  0.00    -0.459 OA
ATOM     12  H   LIG d   1       6.927  -3.973  -6.670  0.00  0.00     0.063 H 
ATOM     13  H   LIG d   1       8.059  -3.627  -4.530  0.00  0.00     0.065 H 
ENDROOT
BRANCH   9  14
ATOM     14  C   LIG d   1       5.745   0.310  -3.646  0.00  0.00     0.001 C 
ATOM     15  H   LIG d   1       6.450   0.357  -2.803  0.00  0.00     0.087 H 
ATOM     16  H   LIG d   1       5.832   1.226  -4.248  0.00  0.00     0.087 H 
BRANCH  14  17
ATOM     17  N   LIG d   1       4.374   0.190  -3.132  0.00  0.00     0.234 N 
ATOM     18  H   LIG d   1       3.760  -0.280  -3.914  0.00  0.00     0.203 HD
BRANCH  17  19
ATOM     19  C   LIG d   1       4.331  -0.672  -1.943  0.00  0.00    -0.043 C 
ATOM     20  H   LIG d   1       3.625  -0.252  -1.212  0.00  0.00     0.078 H 
ATOM     21  H   LIG d   1       5.334  -0.728  -1.495  0.00  0.00     0.078 H 
ATOM     22  H   LIG d   1       4.002  -1.680  -2.233  0.00  0.00     0.078 H 
ENDBRANCH  17  19
BRANCH  17  23
ATOM     23  C   LIG d   1       3.802   1.512  -2.845  0.00  0.00    -0.043 C 
ATOM     24  H   LIG d   1       4.237   2.257  -3.528  0.00  0.00     0.078 H 
ATOM     25  H   LIG d   1       4.027   1.792  -1.806  0.00  0.00     0.078 H 
ATOM     26  H   LIG d   1       2.711   1.478  -2.987  0.00  0.00     0.078 H 
ENDBRANCH  17  23
ENDBRANCH  14  17
ENDBRANCH   9  14
BRANCH   8  27
ATOM     27  O   LIG d   1       7.649  -1.625  -2.899  0.00  0.00    -0.506 OA
ATOM     28  H   LIG d   1       8.339  -0.778  -2.769  0.00  0.00     0.292 HD
ENDBRANCH   8  27
BRANCH   1  29
ATOM     29  C   LIG d   1       2.821   0.747  -7.666  0.00  0.00    -0.006 C 
ATOM     30  H   LIG d   1       3.262   1.438  -8.399  0.00  0.00     0.031 H 
ATOM     31  H   LIG d   1       2.526   1.306  -6.766  0.00  0.00     0.031 H 
ATOM     32  H   LIG d   1       1.935   0.263  -8.104  0.00  0.00     0.031 H 
ENDBRANCH   1  29
BRANCH   2  33
ATOM     33  C   LIG d   1       3.285  -1.435  -9.421  0.00  0.00    -0.011 A 
ATOM     34  C   LIG d   1       3.723  -0.738 -10.546  0.00  0.00    -0.052 A 
ATOM     35  C   LIG d   1       3.017  -0.829 -11.728  0.00  0.00    -0.043 A 
ATOM     36  H   LIG d   1       4.613  -0.129 -10.493  0.00  0.00     0.062 H 
ATOM     37  C   LIG d   1       1.877  -1.611 -11.798  0.00  0.00     0.041 A 
ATOM     38  H   LIG d   1       3.355  -0.290 -12.601  0.00  0.00     0.063 H 
ATOM     39  C   LIG d   1       1.437  -2.304 -10.683  0.00  0.00    -0.043 A 
ATOM     40 CL   LIG d   1       0.994  -1.720 -13.288  0.00  0.00    -0.084 Cl
ATOM     41  C   LIG d   1       2.140  -2.225  -9.497  0.00  0.00    -0.052 A 
ATOM     42  H   LIG d   1       0.547  -2.912 -10.742  0.00  0.00     0.063 H 
ATOM     43  H   LIG d   1       1.799  -2.770  -8.630  0.00  0.00     0.062 H 
ENDBRANCH   2  33
TORSDOF 7
ENDMDL
MODEL 6
REMARK VINA RESULT:      -5.0      5.780      9.672
REMARK  7 active torsions:
REMARK  status: ('A' for Active; 'I' for Inactive)
REMARK    1  A    between atoms: C_1  and  C_2 
REMARK    2  A    between atoms: C_3  and  C_18 
REMARK    3  A    between atoms: C_9  and  O_17 
REMARK    4  A    between atoms: C_10  and  C_13 
REMARK    5  A    between atoms: C_13  and  N_14 
REMARK    6  A    between atoms: N_14  and  C_15 
REMARK    7  A    between atoms: N_14  and  C_16 
ROOT
ATOM      1  C   LIG d   1       9.545   6.233  -3.683  0.00  0.00     0.114 A 
ATOM      2  C   LIG d   1       9.932   4.935  -3.577  0.00  0.00     0.067 A 
ATOM      3  C   LIG d   1      10.577   4.489  -2.331  0.00  0.00     0.200 A 
ATOM      4  O   LIG d   1      10.946   3.337  -2.179  0.00  0.00    -0.286 OA
ATOM      5  C   LIG d   1      10.757   5.503  -1.276  0.00  0.00     0.065 A 
ATOM      6  C   LIG d   1      11.358   5.183  -0.058  0.00  0.00    -0.044 A 
ATOM      7  C   LIG d   1      11.509   6.147   0.898  0.00  0.00    -0.019 A 
ATOM      8  C   LIG d   1      11.067   7.446   0.661  0.00  0.00     0.129 A 
ATOM      9  C   LIG d   1      10.469   7.779  -0.542  0.00  0.00     0.081 A 
ATOM     10  C   LIG d   1      10.302   6.811  -1.522  0.00  0.00     0.150 A 
ATOM     11  O   LIG d   1       9.728   7.120  -2.702  0.00  0.00    -0.459 OA
ATOM     12  H   LIG d   1      11.702   4.176   0.128  0.00  0.00     0.063 H 
ATOM     13  H   LIG d   1      11.974   5.900   1.841  0.00  0.00     0.065 H 
ENDROOT
BRANCH   9  14
ATOM     14  C   LIG d   1       9.995   9.190  -0.785  0.00  0.00     0.001 C 
ATOM     15  H   LIG d   1       8.909   9.187  -0.956  0.00  0.00     0.087 H 
ATOM     16  H   LIG d   1      10.227   9.811   0.093  0.00  0.00     0.087 H 
BRANCH  14  17
ATOM     17  N   LIG d   1      10.675   9.738  -1.966  0.00  0.00     0.234 N 
ATOM     18  H   LIG d   1      10.872   8.907  -2.659  0.00  0.00     0.203 HD
BRANCH  17  19
ATOM     19  C   LIG d   1       9.821  10.712  -2.660  0.00  0.00    -0.043 C 
ATOM     20  H   LIG d   1       9.299  11.334  -1.918  0.00  0.00     0.078 H 
ATOM     21  H   LIG d   1       9.084  10.179  -3.277  0.00  0.00     0.078 H 
ATOM     22  H   LIG d   1      10.443  11.352  -3.303  0.00  0.00     0.078 H 
ENDBRANCH  17  19
BRANCH  17  23
ATOM     23  C   LIG d   1      11.966  10.335  -1.601  0.00  0.00    -0.043 C 
ATOM     24  H   LIG d   1      12.196  10.099  -0.552  0.00  0.00     0.078 H 
ATOM     25  H   LIG d   1      11.916  11.426  -1.729  0.00  0.00     0.078 H 
ATOM     26  H   LIG d   1      12.755   9.926  -2.250  0.00  0.00     0.078 H 
ENDBRANCH  17  23
ENDBRANCH  14  17
ENDBRANCH   9  14
BRANCH   8  27
ATOM     27  O   LIG d   1      11.224   8.395   1.619  0.00  0.00    -0.506 OA
ATOM     28  H   LIG d   1      11.808   9.302   1.405  0.00  0.00     0.292 HD
ENDBRANCH   8  27
BRANCH   1  29
ATOM     29  C   LIG d   1       8.885   6.689  -4.959  0.00  0.00    -0.006 C 
ATOM     30  H   LIG d   1       8.906   5.873  -5.696  0.00  0.00     0.031 H 
ATOM     31  H   LIG d   1       9.425   7.560  -5.359  0.00  0.00     0.031 H 
ATOM     32  H   LIG d   1       7.841   6.968  -4.750  0.00  0.00     0.031 H 
ENDBRANCH   1  29
BRANCH   2  33
ATOM     33  C   LIG d   1       9.709   3.986  -4.695  0.00  0.00    -0.011 A 
ATOM     34  C   LIG d   1      10.574   3.978  -5.788  0.00  0.00    -0.052 A 
ATOM     35  C   LIG d   1      10.362   3.093  -6.825  0.00  0.00    -0.043 A 
ATOM     36  H   LIG d   1      11.408   4.663  -5.824  0.00  0.00     0.062 H 
ATOM     37  C   LIG d   1       9.294   2.213  -6.781  0.00  0.00     0.041 A 
ATOM     38  H   LIG d   1      11.032   3.084  -7.673  0.00  0.00     0.063 H 
ATOM     39  C   LIG d   1       8.432   2.218  -5.698  0.00  0.00    -0.043 A 
ATOM     40 CL   LIG d   1       9.034   1.102  -8.089  0.00  0.00    -0.084 Cl
ATOM     41  C   LIG d   1       8.638   3.095  -4.652  0.00  0.00    -0.052 A 
ATOM     42  H   LIG d   1       7.599   1.531  -5.668  0.00  0.00     0.063 H 
ATOM     43  H   LIG d   1       7.968   3.095  -3.806  0.00  0.00     0.062 H 
ENDBRANCH   2  33
TORSDOF 7
ENDMDL
MODEL 7
REMARK VINA RESULT:      -4.9      6.311     10.476
REMARK  7 active torsions:
REMARK  status: ('A' for Active; 'I' for Inactive)
REMARK    1  A    between atoms: C_1  and  C_2 
REMARK    2  A    between atoms: C_3  and  C_18 
REMARK    3  A    between atoms: C_9  and  O_17 
REMARK    4  A    between atoms: C_10  and  C_13 
REMARK    5  A    between atoms: C_13  and  N_14 
REMARK    6  A    between atoms: N_14  and  C_15 
REMARK    7  A    between atoms: N_14  and  C_16 
ROOT
ATOM      1  C   LIG d   1       9.842   6.644  -3.251  0.00  0.00     0.114 A 
ATOM      2  C   LIG d   1      10.456   5.625  -2.596  0.00  0.00     0.067 A 
ATOM      3  C   LIG d   1      11.005   5.876  -1.252  0.00  0.00     0.200 A 
ATOM      4  O   LIG d   1      11.568   5.001  -0.617  0.00  0.00    -0.286 OA
ATOM      5  C   LIG d   1      10.843   7.239  -0.713  0.00  0.00     0.065 A 
ATOM      6  C   LIG d   1      11.328   7.580   0.550  0.00  0.00    -0.044 A 
ATOM      7  C   LIG d   1      11.160   8.852   1.019  0.00  0.00    -0.019 A 
ATOM      8  C   LIG d   1      10.509   9.807   0.243  0.00  0.00     0.129 A 
ATOM      9  C   LIG d   1      10.022   9.484  -1.012  0.00  0.00     0.081 A 
ATOM     10  C   LIG d   1      10.178   8.195  -1.502  0.00  0.00     0.150 A 
ATOM     11  O   LIG d   1       9.716   7.865  -2.725  0.00  0.00    -0.459 OA
ATOM     12  H   LIG d   1      11.834   6.841   1.154  0.00  0.00     0.063 H 
ATOM     13  H   LIG d   1      11.535   9.117   1.997  0.00  0.00     0.065 H 
ENDROOT
BRANCH   9  14
ATOM     14  C   LIG d   1       9.318  10.527  -1.842  0.00  0.00     0.001 C 
ATOM     15  H   LIG d   1       8.291  10.198  -2.051  0.00  0.00     0.087 H 
ATOM     16  H   LIG d   1       9.293  11.479  -1.290  0.00  0.00     0.087 H 
BRANCH  14  17
ATOM     17  N   LIG d   1      10.040  10.714  -3.108  0.00  0.00     0.234 N 
ATOM     18  H   LIG d   1      10.495   9.752  -3.383  0.00  0.00     0.203 HD
BRANCH  17  19
ATOM     19  C   LIG d   1       9.120  11.104  -4.185  0.00  0.00    -0.043 C 
ATOM     20  H   LIG d   1       8.177  10.547  -4.080  0.00  0.00     0.078 H 
ATOM     21  H   LIG d   1       9.577  10.872  -5.158  0.00  0.00     0.078 H 
ATOM     22  H   LIG d   1       8.918  12.183  -4.122  0.00  0.00     0.078 H 
ENDBRANCH  17  19
BRANCH  17  23
ATOM     23  C   LIG d   1      11.121  11.697  -2.958  0.00  0.00    -0.043 C 
ATOM     24  H   LIG d   1      10.913  12.343  -2.092  0.00  0.00     0.078 H 
ATOM     25  H   LIG d   1      11.186  12.313  -3.866  0.00  0.00     0.078 H 
ATOM     26  H   LIG d   1      12.075  11.171  -2.802  0.00  0.00     0.078 H 
ENDBRANCH  17  23
ENDBRANCH  14  17
ENDBRANCH   9  14
BRANCH   8  27
ATOM     27  O   LIG d   1      10.350  11.068   0.721  0.00  0.00    -0.506 OA
ATOM     28  H   LIG d   1      10.945  11.410   1.580  0.00  0.00     0.292 HD
ENDBRANCH   8  27
BRANCH   1  29
ATOM     29  C   LIG d   1       9.280   6.386  -4.625  0.00  0.00    -0.006 C 
ATOM     30  H   LIG d   1       9.952   5.712  -5.177  0.00  0.00     0.031 H 
ATOM     31  H   LIG d   1       9.188   7.338  -5.168  0.00  0.00     0.031 H 
ATOM     32  H   LIG d   1       8.288   5.918  -4.533  0.00  0.00     0.031 H 
ENDBRANCH   1  29
BRANCH   2  33
ATOM     33  C   LIG d   1      10.572   4.285  -3.221  0.00  0.00    -0.011 A 
ATOM     34  C   LIG d   1      11.743   3.923  -3.887  0.00  0.00    -0.052 A 
ATOM     35  C   LIG d   1      11.846   2.676  -4.467  0.00  0.00    -0.043 A 
ATOM     36  H   LIG d   1      12.567   4.619  -3.950  0.00  0.00     0.062 H 
ATOM     37  C   LIG d   1      10.791   1.783  -4.387  0.00  0.00     0.041 A 
ATOM     38  H   LIG d   1      12.752   2.394  -4.983  0.00  0.00     0.063 H 
ATOM     39  C   LIG d   1       9.626   2.137  -3.728  0.00  0.00    -0.043 A 
ATOM     40 CL   LIG d   1      10.928   0.215  -5.119  0.00  0.00    -0.084 Cl
ATOM     41  C   LIG d   1       9.515   3.381  -3.139  0.00  0.00    -0.052 A 
ATOM     42  H   LIG d   1       8.805   1.438  -3.669  0.00  0.00     0.063 H 
ATOM     43  H   LIG d   1       8.608   3.655  -2.621  0.00  0.00     0.062 H 
ENDBRANCH   2  33
TORSDOF 7
ENDMDL
MODEL 8
REMARK VINA RESULT:      -4.9      9.453     12.252
REMARK  7 active torsions:
REMARK  status: ('A' for Active; 'I' for Inactive)
REMARK    1  A    between atoms: C_1  and  C_2 
REMARK    2  A    between atoms: C_3  and  C_18 
REMARK    3  A    between atoms: C_9  and  O_17 
REMARK    4  A    between atoms: C_10  and  C_13 
REMARK    5  A    between atoms: C_13  and  N_14 
REMARK    6  A    between atoms: N_14  and  C_15 
REMARK    7  A    between atoms: N_14  and  C_16 
ROOT
ATOM      1  C   LIG d   1       7.579 -10.946  -1.300  0.00  0.00     0.114 A 
ATOM      2  C   LIG d   1       7.180 -10.283  -2.417  0.00  0.00     0.067 A 
ATOM      3  C   LIG d   1       7.912  -9.070  -2.819  0.00  0.00     0.200 A 
ATOM      4  O   LIG d   1       7.599  -8.433  -3.811  0.00  0.00    -0.286 OA
ATOM      5  C   LIG d   1       9.042  -8.661  -1.964  0.00  0.00     0.065 A 
ATOM      6  C   LIG d   1       9.799  -7.527  -2.258  0.00  0.00    -0.044 A 
ATOM      7  C   LIG d   1      10.839  -7.176  -1.444  0.00  0.00    -0.019 A 
ATOM      8  C   LIG d   1      11.144  -7.946  -0.324  0.00  0.00     0.129 A 
ATOM      9  C   LIG d   1      10.403  -9.074  -0.020  0.00  0.00     0.081 A 
ATOM     10  C   LIG d   1       9.346  -9.448  -0.839  0.00  0.00     0.150 A 
ATOM     11  O   LIG d   1       8.609 -10.540  -0.553  0.00  0.00    -0.459 OA
ATOM     12  H   LIG d   1       9.564  -6.928  -3.125  0.00  0.00     0.063 H 
ATOM     13  H   LIG d   1      11.426  -6.299  -1.670  0.00  0.00     0.065 H 
ENDROOT
BRANCH   9  14
ATOM     14  C   LIG d   1      10.744  -9.898   1.196  0.00  0.00     0.001 C 
ATOM     15  H   LIG d   1      11.219  -9.257   1.952  0.00  0.00     0.087 H 
ATOM     16  H   LIG d   1       9.825 -10.337   1.611  0.00  0.00     0.087 H 
BRANCH  14  17
ATOM     17  N   LIG d   1      11.670 -10.973   0.814  0.00  0.00     0.234 N 
ATOM     18  H   LIG d   1      11.857 -10.891  -0.267  0.00  0.00     0.203 HD
BRANCH  17  19
ATOM     19  C   LIG d   1      12.957 -10.829   1.508  0.00  0.00    -0.043 C 
ATOM     20  H   LIG d   1      13.291 -11.814   1.868  0.00  0.00     0.078 H 
ATOM     21  H   LIG d   1      12.839 -10.146   2.361  0.00  0.00     0.078 H 
ATOM     22  H   LIG d   1      13.705 -10.421   0.812  0.00  0.00     0.078 H 
ENDBRANCH  17  19
BRANCH  17  23
ATOM     23  C   LIG d   1      11.079 -12.293   1.070  0.00  0.00    -0.043 C 
ATOM     24  H   LIG d   1      11.584 -12.763   1.927  0.00  0.00     0.078 H 
ATOM     25  H   LIG d   1      11.200 -12.928   0.180  0.00  0.00     0.078 H 
ATOM     26  H   LIG d   1      10.008 -12.177   1.294  0.00  0.00     0.078 H 
ENDBRANCH  17  23
ENDBRANCH  14  17
ENDBRANCH   9  14
BRANCH   8  27
ATOM     27  O   LIG d   1      12.180  -7.586   0.477  0.00  0.00    -0.506 OA
ATOM     28  H   LIG d   1      12.309  -6.534   0.771  0.00  0.00     0.292 HD
ENDBRANCH   8  27
BRANCH   1  29
ATOM     29  C   LIG d   1       6.830 -12.187  -0.889  0.00  0.00    -0.006 C 
ATOM     30  H   LIG d   1       5.877 -12.238  -1.435  0.00  0.00     0.031 H 
ATOM     31  H   LIG d   1       6.632 -12.153   0.192  0.00  0.00     0.031 H 
ATOM     32  H   LIG d   1       7.436 -13.075  -1.124  0.00  0.00     0.031 H 
ENDBRANCH   1  29
BRANCH   2  33
ATOM     33  C   LIG d   1       6.029 -10.771  -3.215  0.00  0.00    -0.011 A 
ATOM     34  C   LIG d   1       6.246 -11.567  -4.340  0.00  0.00    -0.052 A 
ATOM     35  C   LIG d   1       5.173 -12.019  -5.079  0.00  0.00    -0.043 A 
ATOM     36  H   LIG d   1       7.253 -11.829  -4.631  0.00  0.00     0.062 H 
ATOM     37  C   LIG d   1       3.882 -11.685  -4.706  0.00  0.00     0.041 A 
ATOM     38  H   LIG d   1       5.339 -12.636  -5.950  0.00  0.00     0.063 H 
ATOM     39  C   LIG d   1       3.662 -10.894  -3.591  0.00  0.00    -0.043 A 
ATOM     40 CL   LIG d   1       2.536 -12.257  -5.640  0.00  0.00    -0.084 Cl
ATOM     41  C   LIG d   1       4.729 -10.442  -2.841  0.00  0.00    -0.052 A 
ATOM     42  H   LIG d   1       2.653 -10.635  -3.304  0.00  0.00     0.063 H 
ATOM     43  H   LIG d   1       4.555  -9.829  -1.968  0.00  0.00     0.062 H 
ENDBRANCH   2  33
TORSDOF 7
ENDMDL
MODEL 9
REMARK VINA RESULT:      -4.8      7.176      9.399
REMARK  7 active torsions:
REMARK  status: ('A' for Active; 'I' for Inactive)
REMARK    1  A    between atoms: C_1  and  C_2 
REMARK    2  A    between atoms: C_3  and  C_18 
REMARK    3  A    between atoms: C_9  and  O_17 
REMARK    4  A    between atoms: C_10  and  C_13 
REMARK    5  A    between atoms: C_13  and  N_14 
REMARK    6  A    between atoms: N_14  and  C_15 
REMARK    7  A    between atoms: N_14  and  C_16 
ROOT
ATOM      1  C   LIG d   1       9.619   7.488  -5.970  0.00  0.00     0.114 A 
ATOM      2  C   LIG d   1       9.976   6.389  -6.685  0.00  0.00     0.067 A 
ATOM      3  C   LIG d   1      10.375   5.171  -5.959  0.00  0.00     0.200 A 
ATOM      4  O   LIG d   1      10.706   4.156  -6.547  0.00  0.00    -0.286 OA
ATOM      5  C   LIG d   1      10.356   5.239  -4.487  0.00  0.00     0.065 A 
ATOM      6  C   LIG d   1      10.717   4.141  -3.706  0.00  0.00    -0.044 A 
ATOM      7  C   LIG d   1      10.688   4.238  -2.344  0.00  0.00    -0.019 A 
ATOM      8  C   LIG d   1      10.302   5.429  -1.732  0.00  0.00     0.129 A 
ATOM      9  C   LIG d   1       9.941   6.527  -2.493  0.00  0.00     0.081 A 
ATOM     10  C   LIG d   1       9.958   6.444  -3.879  0.00  0.00     0.150 A 
ATOM     11  O   LIG d   1       9.617   7.506  -4.635  0.00  0.00    -0.459 OA
ATOM     12  H   LIG d   1      11.017   3.217  -4.177  0.00  0.00     0.063 H 
ATOM     13  H   LIG d   1      10.967   3.389  -1.739  0.00  0.00     0.065 H 
ENDROOT
BRANCH   9  14
ATOM     14  C   LIG d   1       9.524   7.810  -1.819  0.00  0.00     0.001 C 
ATOM     15  H   LIG d   1       8.515   8.089  -2.154  0.00  0.00     0.087 H 
ATOM     16  H   LIG d   1       9.522   7.666  -0.728  0.00  0.00     0.087 H 
BRANCH  14  17
ATOM     17  N   LIG d   1      10.470   8.877  -2.171  0.00  0.00     0.234 N 
ATOM     18  H   LIG d   1      10.874   8.656  -3.170  0.00  0.00     0.203 HD
BRANCH  17  19
ATOM     19  C   LIG d   1       9.793  10.180  -2.235  0.00  0.00    -0.043 C 
ATOM     20  H   LIG d   1       8.958  10.123  -2.949  0.00  0.00     0.078 H 
ATOM     21  H   LIG d   1      10.507  10.948  -2.566  0.00  0.00     0.078 H 
ATOM     22  H   LIG d   1       9.407  10.442  -1.240  0.00  0.00     0.078 H 
ENDBRANCH  17  19
BRANCH  17  23
ATOM     23  C   LIG d   1      11.596   8.916  -1.228  0.00  0.00    -0.043 C 
ATOM     24  H   LIG d   1      12.423   9.492  -1.667  0.00  0.00     0.078 H 
ATOM     25  H   LIG d   1      11.934   7.891  -1.019  0.00  0.00     0.078 H 
ATOM     26  H   LIG d   1      11.273   9.393  -0.291  0.00  0.00     0.078 H 
ENDBRANCH  17  23
ENDBRANCH  14  17
ENDBRANCH   9  14
BRANCH   8  27
ATOM     27  O   LIG d   1      10.278   5.512  -0.378  0.00  0.00    -0.506 OA
ATOM     28  H   LIG d   1      11.221   5.564   0.187  0.00  0.00     0.292 HD
ENDBRANCH   8  27
BRANCH   1  29
ATOM     29  C   LIG d   1       9.211   8.734  -6.713  0.00  0.00    -0.006 C 
ATOM     30  H   LIG d   1       8.365   8.505  -7.377  0.00  0.00     0.031 H 
ATOM     31  H   LIG d   1      10.059   9.097  -7.311  0.00  0.00     0.031 H 
ATOM     32  H   LIG d   1       8.912   9.509  -5.991  0.00  0.00     0.031 H 
ENDBRANCH   1  29
BRANCH   2  33
ATOM     33  C   LIG d   1       9.964   6.416  -8.168  0.00  0.00    -0.011 A 
ATOM     34  C   LIG d   1      11.069   6.901  -8.867  0.00  0.00    -0.052 A 
ATOM     35  C   LIG d   1      11.053   6.923 -10.246  0.00  0.00    -0.043 A 
ATOM     36  H   LIG d   1      11.935   7.258  -8.330  0.00  0.00     0.062 H 
ATOM     37  C   LIG d   1       9.944   6.464 -10.936  0.00  0.00     0.041 A 
ATOM     38  H   LIG d   1      11.908   7.297 -10.790  0.00  0.00     0.063 H 
ATOM     39  C   LIG d   1       8.844   5.983 -10.247  0.00  0.00    -0.043 A 
ATOM     40 CL   LIG d   1       9.931   6.495 -12.672  0.00  0.00    -0.084 Cl
ATOM     41  C   LIG d   1       8.852   5.951  -8.866  0.00  0.00    -0.052 A 
ATOM     42  H   LIG d   1       7.980   5.627 -10.789  0.00  0.00     0.063 H 
ATOM     43  H   LIG d   1       7.996   5.571  -8.330  0.00  0.00     0.062 H 
ENDBRANCH   2  33
TORSDOF 7
ENDMDL
MODEL 10
REMARK VINA RESULT:      -4.8      8.647     10.798
REMARK  7 active torsions:
REMARK  status: ('A' for Active; 'I' for Inactive)
REMARK    1  A    between atoms: C_1  and  C_2 
REMARK    2  A    between atoms: C_3  and  C_18 
REMARK    3  A    between atoms: C_9  and  O_17 
REMARK    4  A    between atoms: C_10  and  C_13 
REMARK    5  A    between atoms: C_13  and  N_14 
REMARK    6  A    between atoms: N_14  and  C_15 
REMARK    7  A    between atoms: N_14  and  C_16 
ROOT
ATOM      1  C   LIG d   1      10.703   9.150  -3.135  0.00  0.00     0.114 A 
ATOM      2  C   LIG d   1      10.604   8.001  -3.853  0.00  0.00     0.067 A 
ATOM      3  C   LIG d   1      10.661   6.714  -3.139  0.00  0.00     0.200 A 
ATOM      4  O   LIG d   1      10.578   5.651  -3.731  0.00  0.00    -0.286 OA
ATOM      5  C   LIG d   1      10.824   6.773  -1.675  0.00  0.00     0.065 A 
ATOM      6  C   LIG d   1      10.891   5.610  -0.907  0.00  0.00    -0.044 A 
ATOM      7  C   LIG d   1      11.043   5.700   0.447  0.00  0.00    -0.019 A 
ATOM      8  C   LIG d   1      11.133   6.946   1.063  0.00  0.00     0.129 A 
ATOM      9  C   LIG d   1      11.068   8.109   0.314  0.00  0.00     0.081 A 
ATOM     10  C   LIG d   1      10.908   8.036  -1.063  0.00  0.00     0.150 A 
ATOM     11  O   LIG d   1      10.851   9.158  -1.808  0.00  0.00    -0.459 OA
ATOM     12  H   LIG d   1      10.822   4.642  -1.382  0.00  0.00     0.063 H 
ATOM     13  H   LIG d   1      11.094   4.801   1.043  0.00  0.00     0.065 H 
ENDROOT
BRANCH   9  14
ATOM     14  C   LIG d   1      11.167   9.451   0.993  0.00  0.00     0.001 C 
ATOM     15  H   LIG d   1      10.939  10.246   0.268  0.00  0.00     0.087 H 
ATOM     16  H   LIG d   1      10.447   9.496   1.824  0.00  0.00     0.087 H 
BRANCH  14  17
ATOM     17  N   LIG d   1      12.528   9.639   1.513  0.00  0.00     0.234 N 
ATOM     18  H   LIG d   1      12.970   8.644   1.670  0.00  0.00     0.203 HD
BRANCH  17  19
ATOM     19  C   LIG d   1      13.367  10.359   0.545  0.00  0.00    -0.043 C 
ATOM     20  H   LIG d   1      13.315  11.439   0.749  0.00  0.00     0.078 H 
ATOM     21  H   LIG d   1      13.003  10.159  -0.474  0.00  0.00     0.078 H 
ATOM     22  H   LIG d   1      14.408  10.017   0.637  0.00  0.00     0.078 H 
ENDBRANCH  17  19
BRANCH  17  23
ATOM     23  C   LIG d   1      12.506  10.331   2.808  0.00  0.00    -0.043 C 
ATOM     24  H   LIG d   1      13.345   9.980   3.427  0.00  0.00     0.078 H 
ATOM     25  H   LIG d   1      11.558  10.118   3.323  0.00  0.00     0.078 H 
ATOM     26  H   LIG d   1      12.599  11.415   2.646  0.00  0.00     0.078 H 
ENDBRANCH  17  23
ENDBRANCH  14  17
ENDBRANCH   9  14
BRANCH   8  27
ATOM     27  O   LIG d   1      11.284   7.022   2.410  0.00  0.00    -0.506 OA
ATOM     28  H   LIG d   1      11.296   6.103   3.014  0.00  0.00     0.292 HD
ENDBRANCH   8  27
BRANCH   1  29
ATOM     29  C   LIG d   1      10.644  10.467  -3.865  0.00  0.00    -0.006 C 
ATOM     30  H   LIG d   1      10.881  10.309  -4.927  0.00  0.00     0.031 H 
ATOM     31  H   LIG d   1      11.374  11.162  -3.425  0.00  0.00     0.031 H 
ATOM     32  H   LIG d   1       9.632  10.891  -3.774  0.00  0.00     0.031 H 
ENDBRANCH   1  29
BRANCH   2  33
ATOM     33  C   LIG d   1      10.441   8.043  -5.326  0.00  0.00    -0.011 A 
ATOM     34  C   LIG d   1      11.561   7.994  -6.155  0.00  0.00    -0.052 A 
ATOM     35  C   LIG d   1      11.404   8.032  -7.525  0.00  0.00    -0.043 A 
ATOM     36  H   LIG d   1      12.550   7.927  -5.725  0.00  0.00     0.062 H 
ATOM     37  C   LIG d   1      10.138   8.117  -8.078  0.00  0.00     0.041 A 
ATOM     38  H   LIG d   1      12.271   7.994  -8.169  0.00  0.00     0.063 H 
ATOM     39  C   LIG d   1       9.022   8.166  -7.259  0.00  0.00    -0.043 A 
ATOM     40 CL   LIG d   1       9.948   8.165  -9.802  0.00  0.00    -0.084 Cl
ATOM     41  C   LIG d   1       9.168   8.123  -5.887  0.00  0.00    -0.052 A 
ATOM     42  H   LIG d   1       8.036   8.234  -7.694  0.00  0.00     0.063 H 
ATOM     43  H   LIG d   1       8.297   8.156  -5.250  0.00  0.00     0.062 H 
ENDBRANCH   2  33
TORSDOF 7
ENDMDL
