MODEL 1
REMARK VINA RESULT:      -7.7      0.000      0.000
REMARK  4 active torsions:
REMARK  status: ('A' for Active; 'I' for Inactive)
REMARK    1  A    between atoms: C_2  and  C_3 
REMARK    2  A    between atoms: C_3  and  O_4 
REMARK    3  A    between atoms: O_4  and  C_5 
REMARK    4  A    between atoms: C_19  and  C_24 
ROOT
ATOM      1  C   LIG d   1       4.736  -9.113  -6.102  0.00  0.00     0.063 C 
ATOM      2  H   LIG d   1       3.955  -8.774  -5.422  0.00  0.00     0.060 H 
ATOM      3  C   LIG d   1       4.567  -8.437  -7.472  0.00  0.00    -0.011 C 
ATOM      4  C   LIG d   1       4.368  -6.947  -7.217  0.00  0.00     0.018 C 
ATOM      5  N   LIG d   1       5.392  -6.407  -6.322  0.00  0.00    -0.286 N 
ATOM      6  C   LIG d   1       6.278  -7.203  -5.493  0.00  0.00     0.105 C 
ATOM      7  H   LIG d   1       6.106  -6.916  -4.456  0.00  0.00     0.060 H 
ATOM      8  C   LIG d   1       6.103  -8.707  -5.567  0.00  0.00     0.001 C 
ATOM      9  C   LIG d   1       7.711  -6.871  -5.822  0.00  0.00     0.238 C 
ATOM     10  O   LIG d   1       8.396  -7.724  -6.347  0.00  0.00    -0.273 OA
ATOM     11  N   LIG d   1       8.259  -5.692  -5.564  0.00  0.00    -0.283 N 
ATOM     12  C   LIG d   1       7.598  -4.616  -4.995  0.00  0.00     0.046 A 
ATOM     13  C   LIG d   1       8.300  -3.838  -4.072  0.00  0.00    -0.039 A 
ATOM     14  C   LIG d   1       7.721  -2.728  -3.505  0.00  0.00    -0.052 A 
ATOM     15  C   LIG d   1       6.415  -2.371  -3.850  0.00  0.00    -0.014 A 
ATOM     16  C   LIG d   1       5.704  -3.142  -4.754  0.00  0.00    -0.040 A 
ATOM     17  C   LIG d   1       6.286  -4.283  -5.333  0.00  0.00     0.059 A 
ATOM     18  C   LIG d   1       5.467  -5.063  -6.257  0.00  0.00     0.249 C 
ATOM     19  O   LIG d   1       4.784  -4.437  -7.046  0.00  0.00    -0.270 OA
ATOM     20  H   LIG d   1       5.460  -8.595  -8.077  0.00  0.00     0.030 H 
ATOM     21  H   LIG d   1       3.694  -8.845  -7.983  0.00  0.00     0.030 H 
ATOM     22  H   LIG d   1       4.411  -6.415  -8.168  0.00  0.00     0.047 H 
ATOM     23  H   LIG d   1       3.387  -6.791  -6.769  0.00  0.00     0.047 H 
ATOM     24  H   LIG d   1       6.229  -9.125  -4.567  0.00  0.00     0.031 H 
ATOM     25  H   LIG d   1       6.874  -9.120  -6.218  0.00  0.00     0.031 H 
ATOM     26  H   LIG d   1       9.194  -5.573  -5.792  0.00  0.00     0.155 HD
ATOM     27  H   LIG d   1       9.309  -4.111  -3.802  0.00  0.00     0.064 H 
ATOM     28  H   LIG d   1       8.274  -2.132  -2.794  0.00  0.00     0.062 H 
ATOM     29  H   LIG d   1       4.694  -2.865  -5.017  0.00  0.00     0.063 H 
ENDROOT
BRANCH  15  30
ATOM     30  C   LIG d   1       5.791  -1.168  -3.249  0.00  0.00     0.017 A 
ATOM     31  C   LIG d   1       4.655  -1.294  -2.448  0.00  0.00     0.131 A 
ATOM     32  C   LIG d   1       4.082  -0.168  -1.885  0.00  0.00    -0.026 A 
ATOM     33  F   LIG d   1       4.122  -2.513  -2.216  0.00  0.00    -0.205 F 
ATOM     34  C   LIG d   1       4.624   1.080  -2.126  0.00  0.00    -0.059 A 
ATOM     35  H   LIG d   1       3.205  -0.264  -1.262  0.00  0.00     0.065 H 
ATOM     36  C   LIG d   1       5.746   1.211  -2.925  0.00  0.00    -0.061 A 
ATOM     37  H   LIG d   1       4.170   1.958  -1.690  0.00  0.00     0.062 H 
ATOM     38  C   LIG d   1       6.331   0.095  -3.487  0.00  0.00    -0.051 A 
ATOM     39  H   LIG d   1       6.165   2.189  -3.109  0.00  0.00     0.062 H 
ATOM     40  H   LIG d   1       7.207   0.199  -4.110  0.00  0.00     0.062 H 
ENDBRANCH  15  30
BRANCH   1  41
ATOM     41  O   LIG d   1       4.670 -10.533  -6.249  0.00  0.00    -0.372 OA
BRANCH  41  42
ATOM     42  C   LIG d   1       4.751 -11.250  -5.016  0.00  0.00     0.066 C 
ATOM     43  H   LIG d   1       4.951 -12.302  -5.219  0.00  0.00     0.060 H 
ATOM     44  H   LIG d   1       5.556 -10.837  -4.408  0.00  0.00     0.060 H 
BRANCH  42  45
ATOM     45  C   LIG d   1       3.446 -11.123  -4.274  0.00  0.00    -0.066 C 
ATOM     46  C   LIG d   1       3.383 -10.415  -3.173  0.00  0.00    -0.101 C 
ATOM     47  H   LIG d   1       4.268  -9.923  -2.797  0.00  0.00     0.053 H 
ATOM     48  H   LIG d   1       2.447 -10.324  -2.643  0.00  0.00     0.053 H 
ATOM     49  H   LIG d   1       2.560 -11.615  -4.650  0.00  0.00     0.059 H 
ENDBRANCH  42  45
ENDBRANCH  41  42
ENDBRANCH   1  41
TORSDOF 4
ENDMDL
MODEL 2
REMARK VINA RESULT:      -7.3      6.838     11.964
REMARK  4 active torsions:
REMARK  status: ('A' for Active; 'I' for Inactive)
REMARK    1  A    between atoms: C_2  and  C_3 
REMARK    2  A    between atoms: C_3  and  O_4 
REMARK    3  A    between atoms: O_4  and  C_5 
REMARK    4  A    between atoms: C_19  and  C_24 
ROOT
ATOM      1  C   LIG d   1      10.045   7.334  -4.426  0.00  0.00     0.063 C 
ATOM      2  H   LIG d   1       9.149   7.372  -3.807  0.00  0.00     0.060 H 
ATOM      3  C   LIG d   1      11.183   6.643  -3.657  0.00  0.00    -0.011 C 
ATOM      4  C   LIG d   1      10.611   5.363  -3.059  0.00  0.00     0.018 C 
ATOM      5  N   LIG d   1       9.895   4.569  -4.059  0.00  0.00    -0.286 N 
ATOM      6  C   LIG d   1       9.464   5.055  -5.356  0.00  0.00     0.105 C 
ATOM      7  H   LIG d   1       8.380   4.950  -5.404  0.00  0.00     0.060 H 
ATOM      8  C   LIG d   1       9.778   6.503  -5.675  0.00  0.00     0.001 C 
ATOM      9  C   LIG d   1      10.050   4.188  -6.441  0.00  0.00     0.238 C 
ATOM     10  O   LIG d   1      10.873   4.675  -7.188  0.00  0.00    -0.273 OA
ATOM     11  N   LIG d   1       9.709   2.919  -6.617  0.00  0.00    -0.283 N 
ATOM     12  C   LIG d   1       8.807   2.221  -5.831  0.00  0.00     0.046 A 
ATOM     13  C   LIG d   1       7.944   1.329  -6.470  0.00  0.00    -0.039 A 
ATOM     14  C   LIG d   1       7.057   0.569  -5.745  0.00  0.00    -0.052 A 
ATOM     15  C   LIG d   1       7.012   0.690  -4.355  0.00  0.00    -0.014 A 
ATOM     16  C   LIG d   1       7.854   1.581  -3.710  0.00  0.00    -0.040 A 
ATOM     17  C   LIG d   1       8.758   2.367  -4.444  0.00  0.00     0.059 A 
ATOM     18  C   LIG d   1       9.596   3.305  -3.700  0.00  0.00     0.249 C 
ATOM     19  O   LIG d   1      10.069   2.904  -2.653  0.00  0.00    -0.270 OA
ATOM     20  H   LIG d   1      11.999   6.403  -4.339  0.00  0.00     0.030 H 
ATOM     21  H   LIG d   1      11.543   7.296  -2.861  0.00  0.00     0.030 H 
ATOM     22  H   LIG d   1      11.426   4.767  -2.650  0.00  0.00     0.047 H 
ATOM     23  H   LIG d   1       9.923   5.623  -2.255  0.00  0.00     0.047 H 
ATOM     24  H   LIG d   1       8.934   6.936  -6.213  0.00  0.00     0.031 H 
ATOM     25  H   LIG d   1      10.658   6.539  -6.317  0.00  0.00     0.031 H 
ATOM     26  H   LIG d   1      10.123   2.443  -7.354  0.00  0.00     0.155 HD
ATOM     27  H   LIG d   1       7.975   1.234  -7.546  0.00  0.00     0.064 H 
ATOM     28  H   LIG d   1       6.395  -0.120  -6.250  0.00  0.00     0.062 H 
ATOM     29  H   LIG d   1       7.815   1.673  -2.635  0.00  0.00     0.063 H 
ENDROOT
BRANCH  15  30
ATOM     30  C   LIG d   1       6.064  -0.136  -3.568  0.00  0.00     0.017 A 
ATOM     31  C   LIG d   1       5.180   0.471  -2.676  0.00  0.00     0.131 A 
ATOM     32  C   LIG d   1       4.294  -0.305  -1.950  0.00  0.00    -0.026 A 
ATOM     33  F   LIG d   1       5.183   1.814  -2.526  0.00  0.00    -0.205 F 
ATOM     34  C   LIG d   1       4.293  -1.679  -2.099  0.00  0.00    -0.059 A 
ATOM     35  H   LIG d   1       3.606   0.163  -1.262  0.00  0.00     0.065 H 
ATOM     36  C   LIG d   1       5.173  -2.286  -2.978  0.00  0.00    -0.061 A 
ATOM     37  H   LIG d   1       3.604  -2.282  -1.526  0.00  0.00     0.062 H 
ATOM     38  C   LIG d   1       6.057  -1.523  -3.712  0.00  0.00    -0.051 A 
ATOM     39  H   LIG d   1       5.167  -3.360  -3.090  0.00  0.00     0.062 H 
ATOM     40  H   LIG d   1       6.742  -1.998  -4.398  0.00  0.00     0.062 H 
ENDBRANCH  15  30
BRANCH   1  41
ATOM     41  O   LIG d   1      10.439   8.657  -4.794  0.00  0.00    -0.372 OA
BRANCH  41  42
ATOM     42  C   LIG d   1       9.550   9.295  -5.713  0.00  0.00     0.066 C 
ATOM     43  H   LIG d   1       9.912   9.148  -6.730  0.00  0.00     0.060 H 
ATOM     44  H   LIG d   1       8.555   8.861  -5.615  0.00  0.00     0.060 H 
BRANCH  42  45
ATOM     45  C   LIG d   1       9.487  10.769  -5.410  0.00  0.00    -0.066 C 
ATOM     46  C   LIG d   1       9.051  11.182  -4.246  0.00  0.00    -0.101 C 
ATOM     47  H   LIG d   1       8.737  10.465  -3.502  0.00  0.00     0.053 H 
ATOM     48  H   LIG d   1       9.007  12.239  -4.030  0.00  0.00     0.053 H 
ATOM     49  H   LIG d   1       9.801  11.487  -6.155  0.00  0.00     0.059 H 
ENDBRANCH  42  45
ENDBRANCH  41  42
ENDBRANCH   1  41
TORSDOF 4
ENDMDL
MODEL 3
REMARK VINA RESULT:      -7.2      1.850      2.093
REMARK  4 active torsions:
REMARK  status: ('A' for Active; 'I' for Inactive)
REMARK    1  A    between atoms: C_2  and  C_3 
REMARK    2  A    between atoms: C_3  and  O_4 
REMARK    3  A    between atoms: O_4  and  C_5 
REMARK    4  A    between atoms: C_19  and  C_24 
ROOT
ATOM      1  C   LIG d   1       6.534  -9.466  -4.480  0.00  0.00     0.063 C 
ATOM      2  H   LIG d   1       6.163  -9.163  -3.501  0.00  0.00     0.060 H 
ATOM      3  C   LIG d   1       5.384  -9.463  -5.500  0.00  0.00    -0.011 C 
ATOM      4  C   LIG d   1       4.643  -8.140  -5.338  0.00  0.00     0.018 C 
ATOM      5  N   LIG d   1       5.559  -6.998  -5.353  0.00  0.00    -0.286 N 
ATOM      6  C   LIG d   1       6.997  -7.083  -5.187  0.00  0.00     0.105 C 
ATOM      7  H   LIG d   1       7.264  -6.491  -4.312  0.00  0.00     0.060 H 
ATOM      8  C   LIG d   1       7.575  -8.468  -4.973  0.00  0.00     0.001 C 
ATOM      9  C   LIG d   1       7.680  -6.460  -6.379  0.00  0.00     0.238 C 
ATOM     10  O   LIG d   1       8.314  -7.178  -7.122  0.00  0.00    -0.273 OA
ATOM     11  N   LIG d   1       7.620  -5.164  -6.652  0.00  0.00    -0.283 N 
ATOM     12  C   LIG d   1       6.916  -4.227  -5.914  0.00  0.00     0.046 A 
ATOM     13  C   LIG d   1       7.501  -2.973  -5.729  0.00  0.00    -0.039 A 
ATOM     14  C   LIG d   1       6.837  -1.982  -5.047  0.00  0.00    -0.052 A 
ATOM     15  C   LIG d   1       5.563  -2.227  -4.529  0.00  0.00    -0.014 A 
ATOM     16  C   LIG d   1       4.977  -3.471  -4.693  0.00  0.00    -0.040 A 
ATOM     17  C   LIG d   1       5.653  -4.493  -5.382  0.00  0.00     0.059 A 
ATOM     18  C   LIG d   1       4.985  -5.787  -5.494  0.00  0.00     0.249 C 
ATOM     19  O   LIG d   1       3.793  -5.769  -5.738  0.00  0.00    -0.270 OA
ATOM     20  H   LIG d   1       5.784  -9.544  -6.511  0.00  0.00     0.030 H 
ATOM     21  H   LIG d   1       4.707 -10.294  -5.299  0.00  0.00     0.030 H 
ATOM     22  H   LIG d   1       3.928  -8.032  -6.154  0.00  0.00     0.047 H 
ATOM     23  H   LIG d   1       4.102  -8.149  -4.392  0.00  0.00     0.047 H 
ATOM     24  H   LIG d   1       8.378  -8.404  -4.238  0.00  0.00     0.031 H 
ATOM     25  H   LIG d   1       7.989  -8.827  -5.915  0.00  0.00     0.031 H 
ATOM     26  H   LIG d   1       8.107  -4.848  -7.429  0.00  0.00     0.155 HD
ATOM     27  H   LIG d   1       8.486  -2.780  -6.127  0.00  0.00     0.064 H 
ATOM     28  H   LIG d   1       7.298  -1.014  -4.912  0.00  0.00     0.062 H 
ATOM     29  H   LIG d   1       3.994  -3.658  -4.289  0.00  0.00     0.063 H 
ENDROOT
BRANCH  15  30
ATOM     30  C   LIG d   1       4.838  -1.156  -3.802  0.00  0.00     0.017 A 
ATOM     31  C   LIG d   1       3.898  -0.370  -4.468  0.00  0.00     0.131 A 
ATOM     32  C   LIG d   1       3.222   0.623  -3.782  0.00  0.00    -0.026 A 
ATOM     33  F   LIG d   1       3.643  -0.583  -5.778  0.00  0.00    -0.205 F 
ATOM     34  C   LIG d   1       3.486   0.844  -2.444  0.00  0.00    -0.059 A 
ATOM     35  H   LIG d   1       2.491   1.230  -4.296  0.00  0.00     0.065 H 
ATOM     36  C   LIG d   1       4.423   0.071  -1.781  0.00  0.00    -0.061 A 
ATOM     37  H   LIG d   1       2.961   1.625  -1.913  0.00  0.00     0.062 H 
ATOM     38  C   LIG d   1       5.099  -0.927  -2.452  0.00  0.00    -0.051 A 
ATOM     39  H   LIG d   1       4.624   0.249  -0.735  0.00  0.00     0.062 H 
ATOM     40  H   LIG d   1       5.830  -1.529  -1.932  0.00  0.00     0.062 H 
ENDBRANCH  15  30
BRANCH   1  41
ATOM     41  O   LIG d   1       7.109 -10.772  -4.399  0.00  0.00    -0.372 OA
BRANCH  41  42
ATOM     42  C   LIG d   1       6.599 -11.567  -3.327  0.00  0.00     0.066 C 
ATOM     43  H   LIG d   1       5.669 -12.043  -3.638  0.00  0.00     0.060 H 
ATOM     44  H   LIG d   1       7.328 -12.332  -3.063  0.00  0.00     0.060 H 
BRANCH  42  45
ATOM     45  C   LIG d   1       6.337 -10.689  -2.131  0.00  0.00    -0.066 C 
ATOM     46  C   LIG d   1       6.295 -11.212  -0.930  0.00  0.00    -0.101 C 
ATOM     47  H   LIG d   1       6.449 -12.272  -0.798  0.00  0.00     0.053 H 
ATOM     48  H   LIG d   1       6.108 -10.582  -0.073  0.00  0.00     0.053 H 
ATOM     49  H   LIG d   1       6.183  -9.627  -2.263  0.00  0.00     0.059 H 
ENDBRANCH  42  45
ENDBRANCH  41  42
ENDBRANCH   1  41
TORSDOF 4
ENDMDL
MODEL 4
REMARK VINA RESULT:      -6.9      5.710      9.662
REMARK  4 active torsions:
REMARK  status: ('A' for Active; 'I' for Inactive)
REMARK    1  A    between atoms: C_2  and  C_3 
REMARK    2  A    between atoms: C_3  and  O_4 
REMARK    3  A    between atoms: O_4  and  C_5 
REMARK    4  A    between atoms: C_19  and  C_24 
ROOT
ATOM      1  C   LIG d   1       3.556  -0.052  -5.022  0.00  0.00     0.063 C 
ATOM      2  H   LIG d   1       2.950  -0.914  -4.743  0.00  0.00     0.060 H 
ATOM      3  C   LIG d   1       4.942  -0.518  -5.494  0.00  0.00    -0.011 C 
ATOM      4  C   LIG d   1       4.722  -1.652  -6.489  0.00  0.00     0.018 C 
ATOM      5  N   LIG d   1       3.746  -1.290  -7.519  0.00  0.00    -0.286 N 
ATOM      6  C   LIG d   1       2.836  -0.164  -7.444  0.00  0.00     0.105 C 
ATOM      7  H   LIG d   1       1.820  -0.556  -7.501  0.00  0.00     0.060 H 
ATOM      8  C   LIG d   1       2.908   0.683  -6.189  0.00  0.00     0.001 C 
ATOM      9  C   LIG d   1       3.042   0.733  -8.638  0.00  0.00     0.238 C 
ATOM     10  O   LIG d   1       3.496   1.843  -8.456  0.00  0.00    -0.273 OA
ATOM     11  N   LIG d   1       2.750   0.366  -9.878  0.00  0.00    -0.283 N 
ATOM     12  C   LIG d   1       2.252  -0.874 -10.244  0.00  0.00     0.046 A 
ATOM     13  C   LIG d   1       1.280  -0.913 -11.245  0.00  0.00    -0.039 A 
ATOM     14  C   LIG d   1       0.777  -2.113 -11.690  0.00  0.00    -0.052 A 
ATOM     15  C   LIG d   1       1.238  -3.308 -11.135  0.00  0.00    -0.014 A 
ATOM     16  C   LIG d   1       2.193  -3.283 -10.131  0.00  0.00    -0.040 A 
ATOM     17  C   LIG d   1       2.706  -2.060  -9.666  0.00  0.00     0.059 A 
ATOM     18  C   LIG d   1       3.690  -2.109  -8.588  0.00  0.00     0.249 C 
ATOM     19  O   LIG d   1       4.542  -2.974  -8.662  0.00  0.00    -0.270 OA
ATOM     20  H   LIG d   1       5.466   0.306  -5.980  0.00  0.00     0.030 H 
ATOM     21  H   LIG d   1       5.523  -0.878  -4.644  0.00  0.00     0.030 H 
ATOM     22  H   LIG d   1       5.671  -1.894  -6.968  0.00  0.00     0.047 H 
ATOM     23  H   LIG d   1       4.362  -2.530  -5.952  0.00  0.00     0.047 H 
ATOM     24  H   LIG d   1       1.897   0.976  -5.904  0.00  0.00     0.031 H 
ATOM     25  H   LIG d   1       3.485   1.583  -6.403  0.00  0.00     0.031 H 
ATOM     26  H   LIG d   1       2.897   1.015 -10.583  0.00  0.00     0.155 HD
ATOM     27  H   LIG d   1       0.920   0.010 -11.676  0.00  0.00     0.064 H 
ATOM     28  H   LIG d   1       0.026  -2.131 -12.466  0.00  0.00     0.062 H 
ATOM     29  H   LIG d   1       2.545  -4.209  -9.704  0.00  0.00     0.063 H 
ENDROOT
BRANCH  15  30
ATOM     30  C   LIG d   1       0.706  -4.606 -11.620  0.00  0.00     0.017 A 
ATOM     31  C   LIG d   1      -0.421  -5.168 -11.020  0.00  0.00     0.131 A 
ATOM     32  C   LIG d   1      -0.915  -6.375 -11.481  0.00  0.00    -0.026 A 
ATOM     33  F   LIG d   1      -1.033  -4.532  -9.997  0.00  0.00    -0.205 F 
ATOM     34  C   LIG d   1      -0.287  -7.028 -12.524  0.00  0.00    -0.059 A 
ATOM     35  H   LIG d   1      -1.790  -6.810 -11.021  0.00  0.00     0.065 H 
ATOM     36  C   LIG d   1       0.835  -6.477 -13.118  0.00  0.00    -0.061 A 
ATOM     37  H   LIG d   1      -0.673  -7.973 -12.878  0.00  0.00     0.062 H 
ATOM     38  C   LIG d   1       1.334  -5.271 -12.671  0.00  0.00    -0.051 A 
ATOM     39  H   LIG d   1       1.321  -6.993 -13.933  0.00  0.00     0.062 H 
ATOM     40  H   LIG d   1       2.209  -4.842 -13.135  0.00  0.00     0.062 H 
ENDBRANCH  15  30
BRANCH   1  41
ATOM     41  O   LIG d   1       3.693   0.829  -3.905  0.00  0.00    -0.372 OA
BRANCH  41  42
ATOM     42  C   LIG d   1       3.179   0.300  -2.681  0.00  0.00     0.066 C 
ATOM     43  H   LIG d   1       2.749   1.107  -2.088  0.00  0.00     0.060 H 
ATOM     44  H   LIG d   1       2.408  -0.439  -2.900  0.00  0.00     0.060 H 
BRANCH  42  45
ATOM     45  C   LIG d   1       4.294  -0.352  -1.907  0.00  0.00    -0.066 C 
ATOM     46  C   LIG d   1       4.407  -1.657  -1.892  0.00  0.00    -0.101 C 
ATOM     47  H   LIG d   1       3.699  -2.266  -2.435  0.00  0.00     0.053 H 
ATOM     48  H   LIG d   1       5.207  -2.124  -1.337  0.00  0.00     0.053 H 
ATOM     49  H   LIG d   1       5.002   0.257  -1.363  0.00  0.00     0.059 H 
ENDBRANCH  42  45
ENDBRANCH  41  42
ENDBRANCH   1  41
TORSDOF 4
ENDMDL
MODEL 5
REMARK VINA RESULT:      -6.7      7.173     12.057
REMARK  4 active torsions:
REMARK  status: ('A' for Active; 'I' for Inactive)
REMARK    1  A    between atoms: C_2  and  C_3 
REMARK    2  A    between atoms: C_3  and  O_4 
REMARK    3  A    between atoms: O_4  and  C_5 
REMARK    4  A    between atoms: C_19  and  C_24 
ROOT
ATOM      1  C   LIG d   1       9.976   7.656  -5.703  0.00  0.00     0.063 C 
ATOM      2  H   LIG d   1       8.998   7.784  -5.239  0.00  0.00     0.060 H 
ATOM      3  C   LIG d   1      11.016   7.279  -4.635  0.00  0.00    -0.011 C 
ATOM      4  C   LIG d   1      10.414   6.157  -3.796  0.00  0.00     0.018 C 
ATOM      5  N   LIG d   1       9.884   5.078  -4.632  0.00  0.00    -0.286 N 
ATOM      6  C   LIG d   1       9.629   5.176  -6.056  0.00  0.00     0.105 C 
ATOM      7  H   LIG d   1       8.569   4.978  -6.216  0.00  0.00     0.060 H 
ATOM      8  C   LIG d   1       9.929   6.512  -6.708  0.00  0.00     0.001 C 
ATOM      9  C   LIG d   1      10.402   4.105  -6.783  0.00  0.00     0.238 C 
ATOM     10  O   LIG d   1      11.305   4.443  -7.518  0.00  0.00    -0.273 OA
ATOM     11  N   LIG d   1      10.141   2.812  -6.656  0.00  0.00    -0.283 N 
ATOM     12  C   LIG d   1       9.163   2.274  -5.836  0.00  0.00     0.046 A 
ATOM     13  C   LIG d   1       8.439   1.182  -6.320  0.00  0.00    -0.039 A 
ATOM     14  C   LIG d   1       7.486   0.571  -5.541  0.00  0.00    -0.052 A 
ATOM     15  C   LIG d   1       7.233   1.045  -4.251  0.00  0.00    -0.014 A 
ATOM     16  C   LIG d   1       7.935   2.135  -3.765  0.00  0.00    -0.040 A 
ATOM     17  C   LIG d   1       8.905   2.771  -4.558  0.00  0.00     0.059 A 
ATOM     18  C   LIG d   1       9.586   3.931  -3.989  0.00  0.00     0.249 C 
ATOM     19  O   LIG d   1       9.917   3.854  -2.821  0.00  0.00    -0.270 OA
ATOM     20  H   LIG d   1      11.932   6.934  -5.115  0.00  0.00     0.030 H 
ATOM     21  H   LIG d   1      11.229   8.142  -4.003  0.00  0.00     0.030 H 
ATOM     22  H   LIG d   1      11.184   5.753  -3.139  0.00  0.00     0.047 H 
ATOM     23  H   LIG d   1       9.606   6.564  -3.188  0.00  0.00     0.047 H 
ATOM     24  H   LIG d   1       9.156   6.723  -7.447  0.00  0.00     0.031 H 
ATOM     25  H   LIG d   1      10.891   6.447  -7.216  0.00  0.00     0.031 H 
ATOM     26  H   LIG d   1      10.677   2.194  -7.177  0.00  0.00     0.155 HD
ATOM     27  H   LIG d   1       8.631   0.814  -7.317  0.00  0.00     0.064 H 
ATOM     28  H   LIG d   1       6.933  -0.274  -5.924  0.00  0.00     0.062 H 
ATOM     29  H   LIG d   1       7.735   2.500  -2.769  0.00  0.00     0.063 H 
ENDROOT
BRANCH  15  30
ATOM     30  C   LIG d   1       6.213   0.380  -3.403  0.00  0.00     0.017 A 
ATOM     31  C   LIG d   1       6.193  -1.011  -3.291  0.00  0.00     0.131 A 
ATOM     32  C   LIG d   1       5.243  -1.622  -2.494  0.00  0.00    -0.026 A 
ATOM     33  F   LIG d   1       7.104  -1.756  -3.954  0.00  0.00    -0.205 F 
ATOM     34  C   LIG d   1       4.308  -0.860  -1.820  0.00  0.00    -0.059 A 
ATOM     35  H   LIG d   1       5.228  -2.698  -2.403  0.00  0.00     0.065 H 
ATOM     36  C   LIG d   1       4.320   0.519  -1.933  0.00  0.00    -0.061 A 
ATOM     37  H   LIG d   1       3.564  -1.342  -1.203  0.00  0.00     0.062 H 
ATOM     38  C   LIG d   1       5.266   1.142  -2.720  0.00  0.00    -0.051 A 
ATOM     39  H   LIG d   1       3.586   1.109  -1.404  0.00  0.00     0.062 H 
ATOM     40  H   LIG d   1       5.274   2.218  -2.808  0.00  0.00     0.062 H 
ENDBRANCH  15  30
BRANCH   1  41
ATOM     41  O   LIG d   1      10.367   8.865  -6.357  0.00  0.00    -0.372 OA
BRANCH  41  42
ATOM     42  C   LIG d   1      11.763   8.940  -6.655  0.00  0.00     0.066 C 
ATOM     43  H   LIG d   1      12.269   9.518  -5.882  0.00  0.00     0.060 H 
ATOM     44  H   LIG d   1      12.181   7.934  -6.689  0.00  0.00     0.060 H 
BRANCH  42  45
ATOM     45  C   LIG d   1      11.957   9.611  -7.990  0.00  0.00    -0.066 C 
ATOM     46  C   LIG d   1      11.239   9.238  -9.021  0.00  0.00    -0.101 C 
ATOM     47  H   LIG d   1      10.509   8.450  -8.914  0.00  0.00     0.053 H 
ATOM     48  H   LIG d   1      11.378   9.720  -9.977  0.00  0.00     0.053 H 
ATOM     49  H   LIG d   1      12.688  10.399  -8.097  0.00  0.00     0.059 H 
ENDBRANCH  42  45
ENDBRANCH  41  42
ENDBRANCH   1  41
TORSDOF 4
ENDMDL
MODEL 6
REMARK VINA RESULT:      -6.6      2.170      2.450
REMARK  4 active torsions:
REMARK  status: ('A' for Active; 'I' for Inactive)
REMARK    1  A    between atoms: C_2  and  C_3 
REMARK    2  A    between atoms: C_3  and  O_4 
REMARK    3  A    between atoms: O_4  and  C_5 
REMARK    4  A    between atoms: C_19  and  C_24 
ROOT
ATOM      1  C   LIG d   1       7.404  -9.686  -4.244  0.00  0.00     0.063 C 
ATOM      2  H   LIG d   1       6.416  -9.556  -3.802  0.00  0.00     0.060 H 
ATOM      3  C   LIG d   1       7.312  -9.575  -5.774  0.00  0.00    -0.011 C 
ATOM      4  C   LIG d   1       6.492  -8.327  -6.087  0.00  0.00     0.018 C 
ATOM      5  N   LIG d   1       6.981  -7.158  -5.355  0.00  0.00    -0.286 N 
ATOM      6  C   LIG d   1       7.885  -7.204  -4.221  0.00  0.00     0.105 C 
ATOM      7  H   LIG d   1       7.375  -6.744  -3.374  0.00  0.00     0.060 H 
ATOM      8  C   LIG d   1       8.336  -8.578  -3.768  0.00  0.00     0.001 C 
ATOM      9  C   LIG d   1       9.109  -6.373  -4.517  0.00  0.00     0.238 C 
ATOM     10  O   LIG d   1      10.175  -6.938  -4.639  0.00  0.00    -0.273 OA
ATOM     11  N   LIG d   1       9.074  -5.055  -4.648  0.00  0.00    -0.283 N 
ATOM     12  C   LIG d   1       7.931  -4.276  -4.562  0.00  0.00     0.046 A 
ATOM     13  C   LIG d   1       8.034  -3.042  -3.918  0.00  0.00    -0.039 A 
ATOM     14  C   LIG d   1       6.951  -2.199  -3.839  0.00  0.00    -0.052 A 
ATOM     15  C   LIG d   1       5.731  -2.578  -4.404  0.00  0.00    -0.014 A 
ATOM     16  C   LIG d   1       5.612  -3.806  -5.034  0.00  0.00    -0.040 A 
ATOM     17  C   LIG d   1       6.713  -4.677  -5.112  0.00  0.00     0.059 A 
ATOM     18  C   LIG d   1       6.507  -5.966  -5.768  0.00  0.00     0.249 C 
ATOM     19  O   LIG d   1       5.841  -5.963  -6.786  0.00  0.00    -0.270 OA
ATOM     20  H   LIG d   1       8.311  -9.480  -6.201  0.00  0.00     0.030 H 
ATOM     21  H   LIG d   1       6.815 -10.456  -6.182  0.00  0.00     0.030 H 
ATOM     22  H   LIG d   1       6.547  -8.125  -7.157  0.00  0.00     0.047 H 
ATOM     23  H   LIG d   1       5.453  -8.508  -5.813  0.00  0.00     0.047 H 
ATOM     24  H   LIG d   1       8.375  -8.594  -2.679  0.00  0.00     0.031 H 
ATOM     25  H   LIG d   1       9.336  -8.767  -4.158  0.00  0.00     0.031 H 
ATOM     26  H   LIG d   1       9.913  -4.599  -4.819  0.00  0.00     0.155 HD
ATOM     27  H   LIG d   1       8.975  -2.746  -3.479  0.00  0.00     0.064 H 
ATOM     28  H   LIG d   1       7.042  -1.245  -3.340  0.00  0.00     0.062 H 
ATOM     29  H   LIG d   1       4.668  -4.097  -5.467  0.00  0.00     0.063 H 
ENDROOT
BRANCH  15  30
ATOM     30  C   LIG d   1       4.563  -1.667  -4.330  0.00  0.00     0.017 A 
ATOM     31  C   LIG d   1       3.704  -1.718  -3.232  0.00  0.00     0.131 A 
ATOM     32  C   LIG d   1       2.620  -0.861  -3.167  0.00  0.00    -0.026 A 
ATOM     33  F   LIG d   1       3.934  -2.596  -2.232  0.00  0.00    -0.205 F 
ATOM     34  C   LIG d   1       2.381   0.035  -4.192  0.00  0.00    -0.059 A 
ATOM     35  H   LIG d   1       1.956  -0.896  -2.316  0.00  0.00     0.065 H 
ATOM     36  C   LIG d   1       3.227   0.084  -5.286  0.00  0.00    -0.061 A 
ATOM     37  H   LIG d   1       1.531   0.698  -4.140  0.00  0.00     0.062 H 
ATOM     38  C   LIG d   1       4.315  -0.761  -5.360  0.00  0.00    -0.051 A 
ATOM     39  H   LIG d   1       3.035   0.786  -6.084  0.00  0.00     0.062 H 
ATOM     40  H   LIG d   1       4.974  -0.721  -6.214  0.00  0.00     0.062 H 
ENDBRANCH  15  30
BRANCH   1  41
ATOM     41  O   LIG d   1       7.935 -10.962  -3.880  0.00  0.00    -0.372 OA
BRANCH  41  42
ATOM     42  C   LIG d   1       6.967 -11.862  -3.338  0.00  0.00     0.066 C 
ATOM     43  H   LIG d   1       5.965 -11.507  -3.579  0.00  0.00     0.060 H 
ATOM     44  H   LIG d   1       7.113 -12.854  -3.767  0.00  0.00     0.060 H 
BRANCH  42  45
ATOM     45  C   LIG d   1       7.127 -11.932  -1.842  0.00  0.00    -0.066 C 
ATOM     46  C   LIG d   1       6.322 -11.252  -1.064  0.00  0.00    -0.101 C 
ATOM     47  H   LIG d   1       5.543 -10.641  -1.495  0.00  0.00     0.053 H 
ATOM     48  H   LIG d   1       6.437 -11.303   0.009  0.00  0.00     0.053 H 
ATOM     49  H   LIG d   1       7.907 -12.543  -1.411  0.00  0.00     0.059 H 
ENDBRANCH  42  45
ENDBRANCH  41  42
ENDBRANCH   1  41
TORSDOF 4
ENDMDL
MODEL 7
REMARK VINA RESULT:      -6.5      4.924      6.318
REMARK  4 active torsions:
REMARK  status: ('A' for Active; 'I' for Inactive)
REMARK    1  A    between atoms: C_2  and  C_3 
REMARK    2  A    between atoms: C_3  and  O_4 
REMARK    3  A    between atoms: O_4  and  C_5 
REMARK    4  A    between atoms: C_19  and  C_24 
ROOT
ATOM      1  C   LIG d   1       0.540  -3.482 -11.186  0.00  0.00     0.063 C 
ATOM      2  H   LIG d   1      -0.111  -3.311 -10.329  0.00  0.00     0.060 H 
ATOM      3  C   LIG d   1       0.918  -2.139 -11.832  0.00  0.00    -0.011 C 
ATOM      4  C   LIG d   1       1.360  -1.207 -10.709  0.00  0.00     0.018 C 
ATOM      5  N   LIG d   1       2.353  -1.839  -9.838  0.00  0.00    -0.286 N 
ATOM      6  C   LIG d   1       2.643  -3.259  -9.799  0.00  0.00     0.105 C 
ATOM      7  H   LIG d   1       2.446  -3.609  -8.785  0.00  0.00     0.060 H 
ATOM      8  C   LIG d   1       1.836  -4.141 -10.731  0.00  0.00     0.001 C 
ATOM      9  C   LIG d   1       4.108  -3.483 -10.078  0.00  0.00     0.238 C 
ATOM     10  O   LIG d   1       4.421  -4.046 -11.106  0.00  0.00    -0.273 OA
ATOM     11  N   LIG d   1       5.069  -3.095  -9.253  0.00  0.00    -0.283 N 
ATOM     12  C   LIG d   1       4.869  -2.420  -8.060  0.00  0.00     0.046 A 
ATOM     13  C   LIG d   1       5.679  -2.764  -6.975  0.00  0.00    -0.039 A 
ATOM     14  C   LIG d   1       5.565  -2.102  -5.776  0.00  0.00    -0.052 A 
ATOM     15  C   LIG d   1       4.630  -1.075  -5.635  0.00  0.00    -0.014 A 
ATOM     16  C   LIG d   1       3.812  -0.733  -6.698  0.00  0.00    -0.040 A 
ATOM     17  C   LIG d   1       3.916  -1.410  -7.925  0.00  0.00     0.059 A 
ATOM     18  C   LIG d   1       3.002  -1.013  -8.994  0.00  0.00     0.249 C 
ATOM     19  O   LIG d   1       2.809   0.180  -9.135  0.00  0.00    -0.270 OA
ATOM     20  H   LIG d   1       1.735  -2.284 -12.539  0.00  0.00     0.030 H 
ATOM     21  H   LIG d   1       0.053  -1.717 -12.345  0.00  0.00     0.030 H 
ATOM     22  H   LIG d   1       1.791  -0.306 -11.144  0.00  0.00     0.047 H 
ATOM     23  H   LIG d   1       0.490  -0.932 -10.113  0.00  0.00     0.047 H 
ATOM     24  H   LIG d   1       1.596  -5.071 -10.215  0.00  0.00     0.031 H 
ATOM     25  H   LIG d   1       2.441  -4.374 -11.608  0.00  0.00     0.031 H 
ATOM     26  H   LIG d   1       5.984  -3.298  -9.504  0.00  0.00     0.155 HD
ATOM     27  H   LIG d   1       6.402  -3.559  -7.081  0.00  0.00     0.064 H 
ATOM     28  H   LIG d   1       6.198  -2.376  -4.945  0.00  0.00     0.062 H 
ATOM     29  H   LIG d   1       3.088   0.061  -6.584  0.00  0.00     0.063 H 
ENDROOT
BRANCH  15  30
ATOM     30  C   LIG d   1       4.512  -0.350  -4.345  0.00  0.00     0.017 A 
ATOM     31  C   LIG d   1       5.601   0.362  -3.840  0.00  0.00     0.131 A 
ATOM     32  C   LIG d   1       5.482   1.040  -2.641  0.00  0.00    -0.026 A 
ATOM     33  F   LIG d   1       6.765   0.396  -4.525  0.00  0.00    -0.205 F 
ATOM     34  C   LIG d   1       4.293   1.001  -1.937  0.00  0.00    -0.059 A 
ATOM     35  H   LIG d   1       6.322   1.595  -2.250  0.00  0.00     0.065 H 
ATOM     36  C   LIG d   1       3.213   0.290  -2.431  0.00  0.00    -0.061 A 
ATOM     37  H   LIG d   1       4.206   1.527  -0.997  0.00  0.00     0.062 H 
ATOM     38  C   LIG d   1       3.317  -0.385  -3.629  0.00  0.00    -0.051 A 
ATOM     39  H   LIG d   1       2.287   0.264  -1.876  0.00  0.00     0.062 H 
ATOM     40  H   LIG d   1       2.473  -0.939  -4.013  0.00  0.00     0.062 H 
ENDBRANCH  15  30
BRANCH   1  41
ATOM     41  O   LIG d   1      -0.122  -4.312 -12.143  0.00  0.00    -0.372 OA
BRANCH  41  42
ATOM     42  C   LIG d   1      -1.489  -4.585 -11.828  0.00  0.00     0.066 C 
ATOM     43  H   LIG d   1      -2.090  -3.696 -12.019  0.00  0.00     0.060 H 
ATOM     44  H   LIG d   1      -1.847  -5.406 -12.449  0.00  0.00     0.060 H 
BRANCH  42  45
ATOM     45  C   LIG d   1      -1.604  -4.967 -10.375  0.00  0.00    -0.066 C 
ATOM     46  C   LIG d   1      -2.761  -5.336  -9.884  0.00  0.00    -0.101 C 
ATOM     47  H   LIG d   1      -3.633  -5.366 -10.521  0.00  0.00     0.053 H 
ATOM     48  H   LIG d   1      -2.843  -5.609  -8.843  0.00  0.00     0.053 H 
ATOM     49  H   LIG d   1      -0.732  -4.936  -9.738  0.00  0.00     0.059 H 
ENDBRANCH  42  45
ENDBRANCH  41  42
ENDBRANCH   1  41
TORSDOF 4
ENDMDL
MODEL 8
REMARK VINA RESULT:      -6.5      6.636     10.769
REMARK  4 active torsions:
REMARK  status: ('A' for Active; 'I' for Inactive)
REMARK    1  A    between atoms: C_2  and  C_3 
REMARK    2  A    between atoms: C_3  and  O_4 
REMARK    3  A    between atoms: O_4  and  C_5 
REMARK    4  A    between atoms: C_19  and  C_24 
ROOT
ATOM      1  C   LIG d   1      10.279   5.716  -6.742  0.00  0.00     0.063 C 
ATOM      2  H   LIG d   1       9.218   5.955  -6.666  0.00  0.00     0.060 H 
ATOM      3  C   LIG d   1      10.908   5.681  -5.340  0.00  0.00    -0.011 C 
ATOM      4  C   LIG d   1       9.995   4.837  -4.457  0.00  0.00     0.018 C 
ATOM      5  N   LIG d   1       9.669   3.554  -5.082  0.00  0.00    -0.286 N 
ATOM      6  C   LIG d   1       9.873   3.234  -6.481  0.00  0.00     0.105 C 
ATOM      7  H   LIG d   1       8.901   2.979  -6.907  0.00  0.00     0.060 H 
ATOM      8  C   LIG d   1      10.458   4.330  -7.349  0.00  0.00     0.001 C 
ATOM      9  C   LIG d   1      10.750   2.012  -6.598  0.00  0.00     0.238 C 
ATOM     10  O   LIG d   1      11.858   2.141  -7.073  0.00  0.00    -0.273 OA
ATOM     11  N   LIG d   1      10.366   0.806  -6.205  0.00  0.00    -0.283 N 
ATOM     12  C   LIG d   1       9.145   0.509  -5.622  0.00  0.00     0.046 A 
ATOM     13  C   LIG d   1       8.526  -0.688  -5.986  0.00  0.00    -0.039 A 
ATOM     14  C   LIG d   1       7.336  -1.066  -5.410  0.00  0.00    -0.052 A 
ATOM     15  C   LIG d   1       6.735  -0.246  -4.453  0.00  0.00    -0.014 A 
ATOM     16  C   LIG d   1       7.332   0.951  -4.093  0.00  0.00    -0.040 A 
ATOM     17  C   LIG d   1       8.544   1.349  -4.683  0.00  0.00     0.059 A 
ATOM     18  C   LIG d   1       9.103   2.635  -4.274  0.00  0.00     0.249 C 
ATOM     19  O   LIG d   1       9.050   2.904  -3.089  0.00  0.00    -0.270 OA
ATOM     20  H   LIG d   1      11.899   5.228  -5.389  0.00  0.00     0.030 H 
ATOM     21  H   LIG d   1      10.981   6.692  -4.939  0.00  0.00     0.030 H 
ATOM     22  H   LIG d   1      10.492   4.653  -3.505  0.00  0.00     0.047 H 
ATOM     23  H   LIG d   1       9.072   5.387  -4.274  0.00  0.00     0.047 H 
ATOM     24  H   LIG d   1       9.969   4.306  -8.323  0.00  0.00     0.031 H 
ATOM     25  H   LIG d   1      11.522   4.140  -7.488  0.00  0.00     0.031 H 
ATOM     26  H   LIG d   1      10.989   0.074  -6.336  0.00  0.00     0.155 HD
ATOM     27  H   LIG d   1       8.987  -1.324  -6.727  0.00  0.00     0.064 H 
ATOM     28  H   LIG d   1       6.867  -1.995  -5.698  0.00  0.00     0.062 H 
ATOM     29  H   LIG d   1       6.864   1.583  -3.355  0.00  0.00     0.063 H 
ENDROOT
BRANCH  15  30
ATOM     30  C   LIG d   1       5.457  -0.656  -3.821  0.00  0.00     0.017 A 
ATOM     31  C   LIG d   1       4.248  -0.449  -4.488  0.00  0.00     0.131 A 
ATOM     32  C   LIG d   1       3.061  -0.839  -3.895  0.00  0.00    -0.026 A 
ATOM     33  F   LIG d   1       4.239   0.124  -5.711  0.00  0.00    -0.205 F 
ATOM     34  C   LIG d   1       3.070  -1.421  -2.642  0.00  0.00    -0.059 A 
ATOM     35  H   LIG d   1       2.125  -0.683  -4.411  0.00  0.00     0.065 H 
ATOM     36  C   LIG d   1       4.265  -1.622  -1.975  0.00  0.00    -0.061 A 
ATOM     37  H   LIG d   1       2.140  -1.719  -2.180  0.00  0.00     0.062 H 
ATOM     38  C   LIG d   1       5.457  -1.243  -2.557  0.00  0.00    -0.051 A 
ATOM     39  H   LIG d   1       4.265  -2.078  -0.995  0.00  0.00     0.062 H 
ATOM     40  H   LIG d   1       6.389  -1.401  -2.035  0.00  0.00     0.062 H 
ENDBRANCH  15  30
BRANCH   1  41
ATOM     41  O   LIG d   1      10.942   6.692  -7.548  0.00  0.00    -0.372 OA
BRANCH  41  42
ATOM     42  C   LIG d   1      10.398   6.828  -8.862  0.00  0.00     0.066 C 
ATOM     43  H   LIG d   1      11.188   6.688  -9.599  0.00  0.00     0.060 H 
ATOM     44  H   LIG d   1       9.623   6.076  -9.013  0.00  0.00     0.060 H 
BRANCH  42  45
ATOM     45  C   LIG d   1       9.803   8.203  -9.020  0.00  0.00    -0.066 C 
ATOM     46  C   LIG d   1       8.857   8.605  -8.208  0.00  0.00    -0.101 C 
ATOM     47  H   LIG d   1       8.504   7.952  -7.425  0.00  0.00     0.053 H 
ATOM     48  H   LIG d   1       8.432   9.591  -8.322  0.00  0.00     0.053 H 
ATOM     49  H   LIG d   1      10.156   8.857  -9.805  0.00  0.00     0.059 H 
ENDBRANCH  42  45
ENDBRANCH  41  42
ENDBRANCH   1  41
TORSDOF 4
ENDMDL
MODEL 9
REMARK VINA RESULT:      -6.4      4.666      7.572
REMARK  4 active torsions:
REMARK  status: ('A' for Active; 'I' for Inactive)
REMARK    1  A    between atoms: C_2  and  C_3 
REMARK    2  A    between atoms: C_3  and  O_4 
REMARK    3  A    between atoms: O_4  and  C_5 
REMARK    4  A    between atoms: C_19  and  C_24 
ROOT
ATOM      1  C   LIG d   1       3.431  -0.303  -7.671  0.00  0.00     0.063 C 
ATOM      2  H   LIG d   1       3.232  -1.375  -7.671  0.00  0.00     0.060 H 
ATOM      3  C   LIG d   1       3.119   0.288  -6.286  0.00  0.00    -0.011 C 
ATOM      4  C   LIG d   1       3.784  -0.614  -5.252  0.00  0.00     0.018 C 
ATOM      5  N   LIG d   1       5.189  -0.868  -5.575  0.00  0.00    -0.286 N 
ATOM      6  C   LIG d   1       5.807  -0.611  -6.862  0.00  0.00     0.105 C 
ATOM      7  H   LIG d   1       6.197  -1.558  -7.236  0.00  0.00     0.060 H 
ATOM      8  C   LIG d   1       4.908  -0.049  -7.945  0.00  0.00     0.001 C 
ATOM      9  C   LIG d   1       6.980   0.320  -6.682  0.00  0.00     0.238 C 
ATOM     10  O   LIG d   1       6.910   1.435  -7.155  0.00  0.00    -0.273 OA
ATOM     11  N   LIG d   1       8.084  -0.023  -6.033  0.00  0.00    -0.283 N 
ATOM     12  C   LIG d   1       8.299  -1.246  -5.420  0.00  0.00     0.046 A 
ATOM     13  C   LIG d   1       9.575  -1.804  -5.514  0.00  0.00    -0.039 A 
ATOM     14  C   LIG d   1       9.870  -2.992  -4.889  0.00  0.00    -0.052 A 
ATOM     15  C   LIG d   1       8.884  -3.654  -4.153  0.00  0.00    -0.014 A 
ATOM     16  C   LIG d   1       7.610  -3.119  -4.064  0.00  0.00    -0.040 A 
ATOM     17  C   LIG d   1       7.299  -1.908  -4.706  0.00  0.00     0.059 A 
ATOM     18  C   LIG d   1       5.928  -1.417  -4.591  0.00  0.00     0.249 C 
ATOM     19  O   LIG d   1       5.402  -1.514  -3.498  0.00  0.00    -0.270 OA
ATOM     20  H   LIG d   1       3.523   1.298  -6.214  0.00  0.00     0.030 H 
ATOM     21  H   LIG d   1       2.041   0.306  -6.124  0.00  0.00     0.030 H 
ATOM     22  H   LIG d   1       3.725  -0.136  -4.274  0.00  0.00     0.047 H 
ATOM     23  H   LIG d   1       3.252  -1.564  -5.215  0.00  0.00     0.047 H 
ATOM     24  H   LIG d   1       5.175  -0.509  -8.897  0.00  0.00     0.031 H 
ATOM     25  H   LIG d   1       5.074   1.026  -8.018  0.00  0.00     0.031 H 
ATOM     26  H   LIG d   1       8.796   0.634  -5.984  0.00  0.00     0.155 HD
ATOM     27  H   LIG d   1      10.339  -1.295  -6.083  0.00  0.00     0.064 H 
ATOM     28  H   LIG d   1      10.862  -3.413  -4.966  0.00  0.00     0.062 H 
ATOM     29  H   LIG d   1       6.851  -3.634  -3.496  0.00  0.00     0.063 H 
ENDROOT
BRANCH  15  30
ATOM     30  C   LIG d   1       9.202  -4.931  -3.468  0.00  0.00     0.017 A 
ATOM     31  C   LIG d   1       9.545  -4.934  -2.115  0.00  0.00     0.131 A 
ATOM     32  C   LIG d   1       9.834  -6.129  -1.482  0.00  0.00    -0.026 A 
ATOM     33  F   LIG d   1       9.588  -3.774  -1.425  0.00  0.00    -0.205 F 
ATOM     34  C   LIG d   1       9.796  -7.316  -2.189  0.00  0.00    -0.059 A 
ATOM     35  H   LIG d   1      10.096  -6.134  -0.434  0.00  0.00     0.065 H 
ATOM     36  C   LIG d   1       9.462  -7.317  -3.532  0.00  0.00    -0.061 A 
ATOM     37  H   LIG d   1      10.028  -8.247  -1.693  0.00  0.00     0.062 H 
ATOM     38  C   LIG d   1       9.166  -6.132  -4.174  0.00  0.00    -0.051 A 
ATOM     39  H   LIG d   1       9.434  -8.248  -4.079  0.00  0.00     0.062 H 
ATOM     40  H   LIG d   1       8.906  -6.135  -5.222  0.00  0.00     0.062 H 
ENDBRANCH  15  30
BRANCH   1  41
ATOM     41  O   LIG d   1       2.632   0.340  -8.666  0.00  0.00    -0.372 OA
BRANCH  41  42
ATOM     42  C   LIG d   1       1.796  -0.551  -9.406  0.00  0.00     0.066 C 
ATOM     43  H   LIG d   1       1.866  -1.553  -8.981  0.00  0.00     0.060 H 
ATOM     44  H   LIG d   1       0.763  -0.207  -9.356  0.00  0.00     0.060 H 
BRANCH  42  45
ATOM     45  C   LIG d   1       2.247  -0.585 -10.843  0.00  0.00    -0.066 C 
ATOM     46  C   LIG d   1       1.484  -1.133 -11.756  0.00  0.00    -0.101 C 
ATOM     47  H   LIG d   1       0.532  -1.561 -11.479  0.00  0.00     0.053 H 
ATOM     48  H   LIG d   1       1.807  -1.156 -12.787  0.00  0.00     0.053 H 
ATOM     49  H   LIG d   1       3.199  -0.157 -11.121  0.00  0.00     0.059 H 
ENDBRANCH  42  45
ENDBRANCH  41  42
ENDBRANCH   1  41
TORSDOF 4
ENDMDL
