MODEL 1
REMARK VINA RESULT:      -7.8      0.000      0.000
REMARK  8 active torsions:
REMARK  status: ('A' for Active; 'I' for Inactive)
REMARK    1  A    between atoms: C_1  and  C_2 
REMARK    2  A    between atoms: C_2  and  C_4 
REMARK    3  A    between atoms: C_2  and  O_19 
REMARK       I    between atoms: C_4  and  N_6 
REMARK       I    between atoms: N_6  and  CA_7 
REMARK    4  A    between atoms: CA_7  and  CB_9 
REMARK       I    between atoms: CA_7  and  C_17 
REMARK    5  A    between atoms: CB_9  and  CG_10 
REMARK    6  A    between atoms: CZ_13  and  OH_16 
REMARK    7  A    between atoms: O_19  and  C_20 
REMARK    8  A    between atoms: C_24  and  C_31 
ROOT
ATOM      1  C   UNK d   0       5.074  -4.535  -9.652  0.00  0.00     0.173 C 
ATOM      2  H   UNK d   0       5.899  -3.839  -9.501  0.00  0.00     0.083 H 
ENDROOT
BRANCH   1   3
ATOM      3  C   UNK d   0       5.598  -5.809 -10.319  0.00  0.00    -0.019 C 
ATOM      4  H   UNK d   0       5.600  -6.624  -9.596  0.00  0.00     0.027 H 
ATOM      5  H   UNK d   0       4.955  -6.069 -11.159  0.00  0.00     0.027 H 
ATOM      6  H   UNK d   0       6.613  -5.639 -10.679  0.00  0.00     0.027 H 
ENDBRANCH   1   3
BRANCH   1   7
ATOM      7  C   UNK d   0       4.034  -3.897 -10.537  0.00  0.00     0.254 C 
ATOM      8  O   UNK d   0       4.115  -4.005 -11.742  0.00  0.00    -0.272 OA
ATOM      9  N   TYR d   1       3.015  -3.207  -9.989  0.00  0.00    -0.304 N 
ATOM     10  CA  TYR d   1       2.004  -2.586 -10.849  0.00  0.00     0.067 C 
ATOM     11  H   TYR d   1       2.951  -3.120  -9.025  0.00  0.00     0.149 HD
ATOM     12  HA  TYR d   1       2.475  -2.232 -11.766  0.00  0.00     0.056 H 
ATOM     13  C   TYR d   1       0.943  -3.600 -11.190  0.00  0.00     0.062 C 
ATOM     14  O   TYR d   1       1.023  -4.726 -10.758  0.00  0.00    -0.548 OA
ATOM     15  OXT TYR d   1      -0.091  -3.254 -11.972  0.00  0.00    -0.548 OA
BRANCH  10  16
ATOM     16  CB  TYR d   1       1.365  -1.405 -10.115  0.00  0.00    -0.004 C 
ATOM     17  HB1 TYR d   1       0.535  -1.017 -10.706  0.00  0.00     0.034 H 
ATOM     18  HB2 TYR d   1       0.995  -1.739  -9.145  0.00  0.00     0.034 H 
BRANCH  16  19
ATOM     19  CG  TYR d   1       2.391  -0.321  -9.917  0.00  0.00    -0.045 A 
ATOM     20  CD1 TYR d   1       2.624   0.186  -8.651  0.00  0.00    -0.055 A 
ATOM     21  CE1 TYR d   1       3.565   1.181  -8.468  0.00  0.00    -0.020 A 
ATOM     22  HD1 TYR d   1       2.069  -0.194  -7.807  0.00  0.00     0.062 H 
ATOM     23  CZ  TYR d   1       4.277   1.670  -9.553  0.00  0.00     0.117 A 
ATOM     24  HE1 TYR d   1       3.745   1.578  -7.480  0.00  0.00     0.065 H 
ATOM     25  CE2 TYR d   1       4.043   1.159 -10.821  0.00  0.00    -0.020 A 
ATOM     26  CD2 TYR d   1       3.104   0.160 -10.999  0.00  0.00    -0.055 A 
ATOM     27  HE2 TYR d   1       4.595   1.538 -11.668  0.00  0.00     0.065 H 
ATOM     28  HD2 TYR d   1       2.924  -0.241 -11.986  0.00  0.00     0.062 H 
BRANCH  23  29
ATOM     29  OH  TYR d   1       5.203   2.648  -9.374  0.00  0.00    -0.507 OA
ATOM     30  HH  TYR d   1       5.268   2.966  -8.463  0.00  0.00     0.292 HD
ENDBRANCH  23  29
ENDBRANCH  16  19
ENDBRANCH  10  16
ENDBRANCH   1   7
BRANCH   1  31
ATOM     31  O   UNK d   0       4.490  -4.864  -8.390  0.00  0.00    -0.480 OA
BRANCH  31  32
ATOM     32  C   UNK d   0       5.011  -4.256  -7.293  0.00  0.00     0.125 A 
ATOM     33  C   UNK d   0       6.210  -4.704  -6.764  0.00  0.00     0.023 A 
ATOM     34  C   UNK d   0       6.743  -4.083  -5.644  0.00  0.00     0.143 A 
ATOM     35  H   UNK d   0       6.728  -5.534  -7.222  0.00  0.00     0.069 H 
ATOM     36  C   UNK d   0       6.057  -3.004  -5.061  0.00  0.00     0.025 A 
ATOM     37  O   UNK d   0       7.911  -4.506  -5.114  0.00  0.00    -0.422 OA
ATOM     38  C   UNK d   0       4.848  -2.565  -5.607  0.00  0.00    -0.047 A 
ATOM     39  C   UNK d   0       6.632  -2.354  -3.873  0.00  0.00    -0.001 A 
ATOM     40  C   UNK d   0       4.336  -3.186  -6.711  0.00  0.00    -0.019 A 
ATOM     41  H   UNK d   0       4.321  -1.736  -5.159  0.00  0.00     0.063 H 
ATOM     42  H   UNK d   0       3.404  -2.844  -7.135  0.00  0.00     0.065 H 
ATOM     43  C   UNK d   0       7.830  -2.841  -3.385  0.00  0.00     0.031 A 
ATOM     44  C   UNK d   0       8.450  -3.924  -4.030  0.00  0.00     0.338 A 
ATOM     45  H   UNK d   0       8.286  -2.392  -2.515  0.00  0.00     0.070 H 
ATOM     46  O   UNK d   0       9.506  -4.348  -3.595  0.00  0.00    -0.245 OA
BRANCH  39  47
ATOM     47  C   UNK d   0       5.950  -1.214  -3.220  0.00  0.00    -0.017 A 
ATOM     48  C   UNK d   0       6.362   0.093  -3.483  0.00  0.00    -0.054 A 
ATOM     49  C   UNK d   0       5.722   1.152  -2.872  0.00  0.00    -0.061 A 
ATOM     50  H   UNK d   0       7.182   0.276  -4.162  0.00  0.00     0.062 H 
ATOM     51  C   UNK d   0       4.672   0.919  -2.000  0.00  0.00    -0.062 A 
ATOM     52  H   UNK d   0       6.040   2.163  -3.074  0.00  0.00     0.062 H 
ATOM     53  C   UNK d   0       4.258  -0.374  -1.736  0.00  0.00    -0.061 A 
ATOM     54  H   UNK d   0       4.174   1.750  -1.525  0.00  0.00     0.062 H 
ATOM     55  C   UNK d   0       4.887  -1.441  -2.345  0.00  0.00    -0.054 A 
ATOM     56  H   UNK d   0       3.440  -0.550  -1.054  0.00  0.00     0.062 H 
ATOM     57  H   UNK d   0       4.560  -2.450  -2.140  0.00  0.00     0.062 H 
ENDBRANCH  39  47
ENDBRANCH  31  32
ENDBRANCH   1  31
TORSDOF 10
ENDMDL
MODEL 2
REMARK VINA RESULT:      -7.7      1.774      2.263
REMARK  8 active torsions:
REMARK  status: ('A' for Active; 'I' for Inactive)
REMARK    1  A    between atoms: C_1  and  C_2 
REMARK    2  A    between atoms: C_2  and  C_4 
REMARK    3  A    between atoms: C_2  and  O_19 
REMARK       I    between atoms: C_4  and  N_6 
REMARK       I    between atoms: N_6  and  CA_7 
REMARK    4  A    between atoms: CA_7  and  CB_9 
REMARK       I    between atoms: CA_7  and  C_17 
REMARK    5  A    between atoms: CB_9  and  CG_10 
REMARK    6  A    between atoms: CZ_13  and  OH_16 
REMARK    7  A    between atoms: O_19  and  C_20 
REMARK    8  A    between atoms: C_24  and  C_31 
ROOT
ATOM      1  C   UNK d   0       5.890  -4.495  -9.918  0.00  0.00     0.173 C 
ATOM      2  H   UNK d   0       6.860  -4.731  -9.480  0.00  0.00     0.083 H 
ENDROOT
BRANCH   1   3
ATOM      3  C   UNK d   0       5.474  -5.617 -10.871  0.00  0.00    -0.019 C 
ATOM      4  H   UNK d   0       4.615  -6.145 -10.459  0.00  0.00     0.027 H 
ATOM      5  H   UNK d   0       5.210  -5.192 -11.839  0.00  0.00     0.027 H 
ATOM      6  H   UNK d   0       6.303  -6.314 -10.996  0.00  0.00     0.027 H 
ENDBRANCH   1   3
BRANCH   1   7
ATOM      7  C   UNK d   0       5.984  -3.198 -10.680  0.00  0.00     0.254 C 
ATOM      8  O   UNK d   0       7.031  -2.586 -10.707  0.00  0.00    -0.272 OA
ATOM      9  N   TYR d   1       4.906  -2.719 -11.331  0.00  0.00    -0.304 N 
ATOM     10  CA  TYR d   1       4.998  -1.457 -12.071  0.00  0.00     0.067 C 
ATOM     11  H   TYR d   1       4.069  -3.207 -11.308  0.00  0.00     0.149 HD
ATOM     12  HA  TYR d   1       5.670  -0.777 -11.547  0.00  0.00     0.056 H 
ATOM     13  C   TYR d   1       5.534  -1.725 -13.454  0.00  0.00     0.062 C 
ATOM     14  O   TYR d   1       5.810  -2.854 -13.787  0.00  0.00    -0.548 OA
ATOM     15  OXT TYR d   1       5.704  -0.711 -14.316  0.00  0.00    -0.548 OA
BRANCH  10  16
ATOM     16  CB  TYR d   1       3.609  -0.825 -12.176  0.00  0.00    -0.004 C 
ATOM     17  HB1 TYR d   1       3.551  -0.224 -13.084  0.00  0.00     0.034 H 
ATOM     18  HB2 TYR d   1       2.855  -1.610 -12.210  0.00  0.00     0.034 H 
BRANCH  16  19
ATOM     19  CG  TYR d   1       3.367   0.054 -10.977  0.00  0.00    -0.045 A 
ATOM     20  CD1 TYR d   1       2.589  -0.406  -9.929  0.00  0.00    -0.055 A 
ATOM     21  CE1 TYR d   1       2.365   0.399  -8.829  0.00  0.00    -0.020 A 
ATOM     22  HD1 TYR d   1       2.157  -1.394  -9.972  0.00  0.00     0.062 H 
ATOM     23  CZ  TYR d   1       2.920   1.668  -8.775  0.00  0.00     0.117 A 
ATOM     24  HE1 TYR d   1       1.757   0.039  -8.012  0.00  0.00     0.065 H 
ATOM     25  CE2 TYR d   1       3.700   2.128  -9.826  0.00  0.00    -0.020 A 
ATOM     26  CD2 TYR d   1       3.926   1.317 -10.922  0.00  0.00    -0.055 A 
ATOM     27  HE2 TYR d   1       4.134   3.116  -9.786  0.00  0.00     0.065 H 
ATOM     28  HD2 TYR d   1       4.537   1.673 -11.739  0.00  0.00     0.062 H 
BRANCH  23  29
ATOM     29  OH  TYR d   1       2.701   2.461  -7.693  0.00  0.00    -0.507 OA
ATOM     30  HH  TYR d   1       3.414   3.091  -7.516  0.00  0.00     0.292 HD
ENDBRANCH  23  29
ENDBRANCH  16  19
ENDBRANCH  10  16
ENDBRANCH   1   7
BRANCH   1  31
ATOM     31  O   UNK d   0       4.917  -4.368  -8.878  0.00  0.00    -0.480 OA
BRANCH  31  32
ATOM     32  C   UNK d   0       5.346  -3.868  -7.691  0.00  0.00     0.125 A 
ATOM     33  C   UNK d   0       6.494  -4.376  -7.106  0.00  0.00     0.023 A 
ATOM     34  C   UNK d   0       6.933  -3.865  -5.894  0.00  0.00     0.143 A 
ATOM     35  H   UNK d   0       7.045  -5.168  -7.592  0.00  0.00     0.069 H 
ATOM     36  C   UNK d   0       6.205  -2.836  -5.275  0.00  0.00     0.025 A 
ATOM     37  O   UNK d   0       8.050  -4.348  -5.308  0.00  0.00    -0.422 OA
ATOM     38  C   UNK d   0       5.049  -2.334  -5.878  0.00  0.00    -0.047 A 
ATOM     39  C   UNK d   0       6.680  -2.302  -3.988  0.00  0.00    -0.001 A 
ATOM     40  C   UNK d   0       4.629  -2.847  -7.072  0.00  0.00    -0.019 A 
ATOM     41  H   UNK d   0       4.489  -1.543  -5.401  0.00  0.00     0.063 H 
ATOM     42  H   UNK d   0       3.737  -2.456  -7.541  0.00  0.00     0.065 H 
ATOM     43  C   UNK d   0       7.830  -2.845  -3.448  0.00  0.00     0.031 A 
ATOM     44  C   UNK d   0       8.498  -3.874  -4.134  0.00  0.00     0.338 A 
ATOM     45  H   UNK d   0       8.213  -2.483  -2.505  0.00  0.00     0.070 H 
ATOM     46  O   UNK d   0       9.512  -4.348  -3.652  0.00  0.00    -0.245 OA
BRANCH  39  47
ATOM     47  C   UNK d   0       5.950  -1.218  -3.294  0.00  0.00    -0.017 A 
ATOM     48  C   UNK d   0       6.314   0.114  -3.498  0.00  0.00    -0.054 A 
ATOM     49  C   UNK d   0       5.629   1.121  -2.849  0.00  0.00    -0.061 A 
ATOM     50  H   UNK d   0       7.130   0.356  -4.162  0.00  0.00     0.062 H 
ATOM     51  C   UNK d   0       4.583   0.812  -1.996  0.00  0.00    -0.062 A 
ATOM     52  H   UNK d   0       5.910   2.151  -3.006  0.00  0.00     0.062 H 
ATOM     53  C   UNK d   0       4.218  -0.507  -1.790  0.00  0.00    -0.061 A 
ATOM     54  H   UNK d   0       4.050   1.603  -1.491  0.00  0.00     0.062 H 
ATOM     55  C   UNK d   0       4.891  -1.522  -2.437  0.00  0.00    -0.054 A 
ATOM     56  H   UNK d   0       3.402  -0.741  -1.123  0.00  0.00     0.062 H 
ATOM     57  H   UNK d   0       4.602  -2.551  -2.278  0.00  0.00     0.062 H 
ENDBRANCH  39  47
ENDBRANCH  31  32
ENDBRANCH   1  31
TORSDOF 10
ENDMDL
MODEL 3
REMARK VINA RESULT:      -7.6      2.155      7.193
REMARK  8 active torsions:
REMARK  status: ('A' for Active; 'I' for Inactive)
REMARK    1  A    between atoms: C_1  and  C_2 
REMARK    2  A    between atoms: C_2  and  C_4 
REMARK    3  A    between atoms: C_2  and  O_19 
REMARK       I    between atoms: C_4  and  N_6 
REMARK       I    between atoms: N_6  and  CA_7 
REMARK    4  A    between atoms: CA_7  and  CB_9 
REMARK       I    between atoms: CA_7  and  C_17 
REMARK    5  A    between atoms: CB_9  and  CG_10 
REMARK    6  A    between atoms: CZ_13  and  OH_16 
REMARK    7  A    between atoms: O_19  and  C_20 
REMARK    8  A    between atoms: C_24  and  C_31 
ROOT
ATOM      1  C   UNK d   0       5.157  -5.652  -5.889  0.00  0.00     0.173 C 
ATOM      2  H   UNK d   0       4.279  -5.098  -5.557  0.00  0.00     0.083 H 
ENDROOT
BRANCH   1   3
ATOM      3  C   UNK d   0       5.039  -7.111  -5.440  0.00  0.00    -0.019 C 
ATOM      4  H   UNK d   0       4.831  -7.741  -6.305  0.00  0.00     0.027 H 
ATOM      5  H   UNK d   0       5.973  -7.425  -4.977  0.00  0.00     0.027 H 
ATOM      6  H   UNK d   0       4.226  -7.204  -4.720  0.00  0.00     0.027 H 
ENDBRANCH   1   3
BRANCH   1   7
ATOM      7  C   UNK d   0       6.395  -5.041  -5.284  0.00  0.00     0.254 C 
ATOM      8  O   UNK d   0       7.417  -5.690  -5.209  0.00  0.00    -0.272 OA
ATOM      9  N   TYR d   1       6.367  -3.773  -4.828  0.00  0.00    -0.304 N 
ATOM     10  CA  TYR d   1       7.570  -3.179  -4.239  0.00  0.00     0.067 C 
ATOM     11  H   TYR d   1       5.550  -3.255  -4.887  0.00  0.00     0.149 HD
ATOM     12  HA  TYR d   1       8.125  -3.945  -3.697  0.00  0.00     0.056 H 
ATOM     13  C   TYR d   1       8.437  -2.612  -5.334  0.00  0.00     0.062 C 
ATOM     14  O   TYR d   1       8.085  -2.696  -6.487  0.00  0.00    -0.548 OA
ATOM     15  OXT TYR d   1       9.599  -2.014  -5.029  0.00  0.00    -0.548 OA
BRANCH  10  16
ATOM     16  CB  TYR d   1       7.168  -2.061  -3.276  0.00  0.00    -0.004 C 
ATOM     17  HB1 TYR d   1       7.213  -2.431  -2.251  0.00  0.00     0.034 H 
ATOM     18  HB2 TYR d   1       7.854  -1.221  -3.389  0.00  0.00     0.034 H 
BRANCH  16  19
ATOM     19  CG  TYR d   1       5.765  -1.611  -3.586  0.00  0.00    -0.045 A 
ATOM     20  CD1 TYR d   1       4.729  -1.943  -2.732  0.00  0.00    -0.055 A 
ATOM     21  CE1 TYR d   1       3.440  -1.531  -3.015  0.00  0.00    -0.020 A 
ATOM     22  HD1 TYR d   1       4.926  -2.525  -1.845  0.00  0.00     0.062 H 
ATOM     23  CZ  TYR d   1       3.187  -0.784  -4.156  0.00  0.00     0.117 A 
ATOM     24  HE1 TYR d   1       2.631  -1.792  -2.349  0.00  0.00     0.065 H 
ATOM     25  CE2 TYR d   1       4.228  -0.451  -5.010  0.00  0.00    -0.020 A 
ATOM     26  CD2 TYR d   1       5.515  -0.861  -4.720  0.00  0.00    -0.055 A 
ATOM     27  HE2 TYR d   1       4.033   0.130  -5.899  0.00  0.00     0.065 H 
ATOM     28  HD2 TYR d   1       6.327  -0.598  -5.383  0.00  0.00     0.062 H 
BRANCH  23  29
ATOM     29  OH  TYR d   1       1.921  -0.378  -4.436  0.00  0.00    -0.507 OA
ATOM     30  HH  TYR d   1       1.428  -0.068  -3.664  0.00  0.00     0.292 HD
ENDBRANCH  23  29
ENDBRANCH  16  19
ENDBRANCH  10  16
ENDBRANCH   1   7
BRANCH   1  31
ATOM     31  O   UNK d   0       5.246  -5.597  -7.314  0.00  0.00    -0.480 OA
BRANCH  31  32
ATOM     32  C   UNK d   0       4.567  -4.598  -7.935  0.00  0.00     0.125 A 
ATOM     33  C   UNK d   0       3.486  -4.903  -8.747  0.00  0.00     0.023 A 
ATOM     34  C   UNK d   0       2.792  -3.882  -9.380  0.00  0.00     0.143 A 
ATOM     35  H   UNK d   0       3.186  -5.930  -8.886  0.00  0.00     0.069 H 
ATOM     36  C   UNK d   0       3.197  -2.550  -9.188  0.00  0.00     0.025 A 
ATOM     37  O   UNK d   0       1.737  -4.159 -10.176  0.00  0.00    -0.422 OA
ATOM     38  C   UNK d   0       4.289  -2.261  -8.366  0.00  0.00    -0.047 A 
ATOM     39  C   UNK d   0       2.453  -1.476  -9.866  0.00  0.00    -0.001 A 
ATOM     40  C   UNK d   0       4.962  -3.276  -7.748  0.00  0.00    -0.019 A 
ATOM     41  H   UNK d   0       4.599  -1.236  -8.219  0.00  0.00     0.063 H 
ATOM     42  H   UNK d   0       5.804  -3.051  -7.109  0.00  0.00     0.065 H 
ATOM     43  C   UNK d   0       1.384  -1.835 -10.665  0.00  0.00     0.031 A 
ATOM     44  C   UNK d   0       1.047  -3.192 -10.802  0.00  0.00     0.338 A 
ATOM     45  H   UNK d   0       0.812  -1.078 -11.181  0.00  0.00     0.070 H 
ATOM     46  O   UNK d   0       0.103  -3.501 -11.508  0.00  0.00    -0.245 OA
BRANCH  39  47
ATOM     47  C   UNK d   0       2.837  -0.057  -9.698  0.00  0.00    -0.017 A 
ATOM     48  C   UNK d   0       3.544   0.602 -10.705  0.00  0.00    -0.054 A 
ATOM     49  C   UNK d   0       3.900   1.925 -10.542  0.00  0.00    -0.061 A 
ATOM     50  H   UNK d   0       3.813   0.077 -11.609  0.00  0.00     0.062 H 
ATOM     51  C   UNK d   0       3.556   2.599  -9.382  0.00  0.00    -0.062 A 
ATOM     52  H   UNK d   0       4.446   2.435 -11.320  0.00  0.00     0.062 H 
ATOM     53  C   UNK d   0       2.855   1.951  -8.381  0.00  0.00    -0.061 A 
ATOM     54  H   UNK d   0       3.836   3.634  -9.260  0.00  0.00     0.062 H 
ATOM     55  C   UNK d   0       2.489   0.630  -8.533  0.00  0.00    -0.054 A 
ATOM     56  H   UNK d   0       2.591   2.482  -7.478  0.00  0.00     0.062 H 
ATOM     57  H   UNK d   0       1.939   0.127  -7.752  0.00  0.00     0.062 H 
ENDBRANCH  39  47
ENDBRANCH  31  32
ENDBRANCH   1  31
TORSDOF 10
ENDMDL
MODEL 4
REMARK VINA RESULT:      -7.4      6.550     10.704
REMARK  8 active torsions:
REMARK  status: ('A' for Active; 'I' for Inactive)
REMARK    1  A    between atoms: C_1  and  C_2 
REMARK    2  A    between atoms: C_2  and  C_4 
REMARK    3  A    between atoms: C_2  and  O_19 
REMARK       I    between atoms: C_4  and  N_6 
REMARK       I    between atoms: N_6  and  CA_7 
REMARK    4  A    between atoms: CA_7  and  CB_9 
REMARK       I    between atoms: CA_7  and  C_17 
REMARK    5  A    between atoms: CB_9  and  CG_10 
REMARK    6  A    between atoms: CZ_13  and  OH_16 
REMARK    7  A    between atoms: O_19  and  C_20 
REMARK    8  A    between atoms: C_24  and  C_31 
ROOT
ATOM      1  C   UNK d   0      10.746   2.476  -3.624  0.00  0.00     0.173 C 
ATOM      2  H   UNK d   0      10.171   2.165  -2.752  0.00  0.00     0.083 H 
ENDROOT
BRANCH   1   3
ATOM      3  C   UNK d   0      12.076   1.721  -3.655  0.00  0.00    -0.019 C 
ATOM      4  H   UNK d   0      12.324   1.461  -4.684  0.00  0.00     0.027 H 
ATOM      5  H   UNK d   0      12.862   2.353  -3.240  0.00  0.00     0.027 H 
ATOM      6  H   UNK d   0      11.991   0.811  -3.062  0.00  0.00     0.027 H 
ENDBRANCH   1   3
BRANCH   1   7
ATOM      7  C   UNK d   0      11.011   3.958  -3.548  0.00  0.00     0.254 C 
ATOM      8  O   UNK d   0      12.113   4.390  -3.814  0.00  0.00    -0.272 OA
ATOM      9  N   TYR d   1      10.025   4.801  -3.186  0.00  0.00    -0.304 N 
ATOM     10  CA  TYR d   1      10.284   6.242  -3.111  0.00  0.00     0.067 C 
ATOM     11  H   TYR d   1       9.145   4.456  -2.972  0.00  0.00     0.149 HD
ATOM     12  HA  TYR d   1      11.304   6.410  -2.766  0.00  0.00     0.056 H 
ATOM     13  C   TYR d   1      10.109   6.855  -4.477  0.00  0.00     0.062 C 
ATOM     14  O   TYR d   1       9.799   6.159  -5.415  0.00  0.00    -0.548 OA
ATOM     15  OXT TYR d   1      10.295   8.172  -4.651  0.00  0.00    -0.548 OA
BRANCH  10  16
ATOM     16  CB  TYR d   1       9.301   6.887  -2.132  0.00  0.00    -0.004 C 
ATOM     17  HB1 TYR d   1       8.814   7.736  -2.613  0.00  0.00     0.034 H 
ATOM     18  HB2 TYR d   1       8.549   6.155  -1.839  0.00  0.00     0.034 H 
BRANCH  16  19
ATOM     19  CG  TYR d   1      10.045   7.360  -0.912  0.00  0.00    -0.045 A 
ATOM     20  CD1 TYR d   1      10.568   6.440  -0.021  0.00  0.00    -0.055 A 
ATOM     21  CE1 TYR d   1      11.252   6.872   1.099  0.00  0.00    -0.020 A 
ATOM     22  HD1 TYR d   1      10.441   5.383  -0.202  0.00  0.00     0.062 H 
ATOM     23  CZ  TYR d   1      11.413   8.230   1.331  0.00  0.00     0.117 A 
ATOM     24  HE1 TYR d   1      11.658   6.152   1.795  0.00  0.00     0.065 H 
ATOM     25  CE2 TYR d   1      10.889   9.151   0.437  0.00  0.00    -0.020 A 
ATOM     26  CD2 TYR d   1      10.211   8.714  -0.686  0.00  0.00    -0.055 A 
ATOM     27  HE2 TYR d   1      11.013  10.209   0.615  0.00  0.00     0.065 H 
ATOM     28  HD2 TYR d   1       9.806   9.432  -1.385  0.00  0.00     0.062 H 
BRANCH  23  29
ATOM     29  OH  TYR d   1      12.085   8.657   2.432  0.00  0.00    -0.507 OA
ATOM     30  HH  TYR d   1      12.162   9.619   2.497  0.00  0.00     0.292 HD
ENDBRANCH  23  29
ENDBRANCH  16  19
ENDBRANCH  10  16
ENDBRANCH   1   7
BRANCH   1  31
ATOM     31  O   UNK d   0      10.005   2.185  -4.812  0.00  0.00    -0.480 OA
BRANCH  31  32
ATOM     32  C   UNK d   0       8.865   1.461  -4.664  0.00  0.00     0.125 A 
ATOM     33  C   UNK d   0       7.919   1.852  -3.731  0.00  0.00     0.023 A 
ATOM     34  C   UNK d   0       6.755   1.113  -3.581  0.00  0.00     0.143 A 
ATOM     35  H   UNK d   0       8.088   2.728  -3.123  0.00  0.00     0.069 H 
ATOM     36  C   UNK d   0       6.552  -0.025  -4.380  0.00  0.00     0.025 A 
ATOM     37  O   UNK d   0       5.821   1.478  -2.676  0.00  0.00    -0.422 OA
ATOM     38  C   UNK d   0       7.516  -0.405  -5.316  0.00  0.00    -0.047 A 
ATOM     39  C   UNK d   0       5.312  -0.801  -4.211  0.00  0.00    -0.001 A 
ATOM     40  C   UNK d   0       8.658   0.333  -5.454  0.00  0.00    -0.019 A 
ATOM     41  H   UNK d   0       7.360  -1.280  -5.931  0.00  0.00     0.063 H 
ATOM     42  H   UNK d   0       9.401   0.041  -6.181  0.00  0.00     0.065 H 
ATOM     43  C   UNK d   0       4.403  -0.368  -3.266  0.00  0.00     0.031 A 
ATOM     44  C   UNK d   0       4.685   0.782  -2.508  0.00  0.00     0.338 A 
ATOM     45  H   UNK d   0       3.480  -0.909  -3.110  0.00  0.00     0.070 H 
ATOM     46  O   UNK d   0       3.878   1.157  -1.677  0.00  0.00    -0.245 OA
BRANCH  39  47
ATOM     47  C   UNK d   0       5.049  -2.007  -5.028  0.00  0.00    -0.017 A 
ATOM     48  C   UNK d   0       5.195  -3.277  -4.468  0.00  0.00    -0.054 A 
ATOM     49  C   UNK d   0       4.948  -4.398  -5.235  0.00  0.00    -0.061 A 
ATOM     50  H   UNK d   0       5.501  -3.383  -3.439  0.00  0.00     0.062 H 
ATOM     51  C   UNK d   0       4.557  -4.263  -6.556  0.00  0.00    -0.062 A 
ATOM     52  H   UNK d   0       5.061  -5.381  -4.804  0.00  0.00     0.062 H 
ATOM     53  C   UNK d   0       4.410  -3.007  -7.116  0.00  0.00    -0.061 A 
ATOM     54  H   UNK d   0       4.364  -5.143  -7.151  0.00  0.00     0.062 H 
ATOM     55  C   UNK d   0       4.649  -1.879  -6.359  0.00  0.00    -0.054 A 
ATOM     56  H   UNK d   0       4.106  -2.909  -8.147  0.00  0.00     0.062 H 
ATOM     57  H   UNK d   0       4.530  -0.898  -6.796  0.00  0.00     0.062 H 
ENDBRANCH  39  47
ENDBRANCH  31  32
ENDBRANCH   1  31
TORSDOF 10
ENDMDL
MODEL 5
REMARK VINA RESULT:      -7.4      6.265      9.509
REMARK  8 active torsions:
REMARK  status: ('A' for Active; 'I' for Inactive)
REMARK    1  A    between atoms: C_1  and  C_2 
REMARK    2  A    between atoms: C_2  and  C_4 
REMARK    3  A    between atoms: C_2  and  O_19 
REMARK       I    between atoms: C_4  and  N_6 
REMARK       I    between atoms: N_6  and  CA_7 
REMARK    4  A    between atoms: CA_7  and  CB_9 
REMARK       I    between atoms: CA_7  and  C_17 
REMARK    5  A    between atoms: CB_9  and  CG_10 
REMARK    6  A    between atoms: CZ_13  and  OH_16 
REMARK    7  A    between atoms: O_19  and  C_20 
REMARK    8  A    between atoms: C_24  and  C_31 
ROOT
ATOM      1  C   UNK d   0      10.894   0.745  -5.273  0.00  0.00     0.173 C 
ATOM      2  H   UNK d   0      11.045   1.507  -6.038  0.00  0.00     0.083 H 
ENDROOT
BRANCH   1   3
ATOM      3  C   UNK d   0      12.053  -0.254  -5.314  0.00  0.00    -0.019 C 
ATOM      4  H   UNK d   0      11.682  -1.251  -5.078  0.00  0.00     0.027 H 
ATOM      5  H   UNK d   0      12.496  -0.256  -6.309  0.00  0.00     0.027 H 
ATOM      6  H   UNK d   0      12.807   0.035  -4.582  0.00  0.00     0.027 H 
ENDBRANCH   1   3
BRANCH   1   7
ATOM      7  C   UNK d   0       9.598   0.021  -5.535  0.00  0.00     0.254 C 
ATOM      8  O   UNK d   0       8.955   0.272  -6.532  0.00  0.00    -0.272 OA
ATOM      9  N   TYR d   1       9.155  -0.904  -4.661  0.00  0.00    -0.304 N 
ATOM     10  CA  TYR d   1       7.895  -1.607  -4.916  0.00  0.00     0.067 C 
ATOM     11  H   TYR d   1       9.669  -1.104  -3.864  0.00  0.00     0.149 HD
ATOM     12  HA  TYR d   1       7.192  -0.929  -5.400  0.00  0.00     0.056 H 
ATOM     13  C   TYR d   1       8.152  -2.789  -5.815  0.00  0.00     0.062 C 
ATOM     14  O   TYR d   1       9.273  -3.020  -6.202  0.00  0.00    -0.548 OA
ATOM     15  OXT TYR d   1       7.137  -3.585  -6.184  0.00  0.00    -0.548 OA
BRANCH  10  16
ATOM     16  CB  TYR d   1       7.305  -2.093  -3.590  0.00  0.00    -0.004 C 
ATOM     17  HB1 TYR d   1       6.878  -3.087  -3.725  0.00  0.00     0.034 H 
ATOM     18  HB2 TYR d   1       8.092  -2.134  -2.837  0.00  0.00     0.034 H 
BRANCH  16  19
ATOM     19  CG  TYR d   1       6.228  -1.141  -3.141  0.00  0.00    -0.045 A 
ATOM     20  CD1 TYR d   1       6.409   0.223  -3.281  0.00  0.00    -0.055 A 
ATOM     21  CE1 TYR d   1       5.422   1.098  -2.870  0.00  0.00    -0.020 A 
ATOM     22  HD1 TYR d   1       7.323   0.604  -3.712  0.00  0.00     0.062 H 
ATOM     23  CZ  TYR d   1       4.249   0.608  -2.316  0.00  0.00     0.117 A 
ATOM     24  HE1 TYR d   1       5.565   2.163  -2.979  0.00  0.00     0.065 H 
ATOM     25  CE2 TYR d   1       4.069  -0.760  -2.177  0.00  0.00    -0.020 A 
ATOM     26  CD2 TYR d   1       5.056  -1.632  -2.595  0.00  0.00    -0.055 A 
ATOM     27  HE2 TYR d   1       3.156  -1.144  -1.746  0.00  0.00     0.065 H 
ATOM     28  HD2 TYR d   1       4.914  -2.698  -2.490  0.00  0.00     0.062 H 
BRANCH  23  29
ATOM     29  OH  TYR d   1       3.277   1.467  -1.911  0.00  0.00    -0.507 OA
ATOM     30  HH  TYR d   1       2.417   1.048  -1.768  0.00  0.00     0.292 HD
ENDBRANCH  23  29
ENDBRANCH  16  19
ENDBRANCH  10  16
ENDBRANCH   1   7
BRANCH   1  31
ATOM     31  O   UNK d   0      10.843   1.365  -3.986  0.00  0.00    -0.480 OA
BRANCH  31  32
ATOM     32  C   UNK d   0      10.688   2.713  -3.958  0.00  0.00     0.125 A 
ATOM     33  C   UNK d   0      10.468   3.355  -2.750  0.00  0.00     0.023 A 
ATOM     34  C   UNK d   0      10.310   4.733  -2.721  0.00  0.00     0.143 A 
ATOM     35  H   UNK d   0      10.420   2.784  -1.835  0.00  0.00     0.069 H 
ATOM     36  C   UNK d   0      10.375   5.460  -3.922  0.00  0.00     0.025 A 
ATOM     37  O   UNK d   0      10.095   5.376  -1.553  0.00  0.00    -0.422 OA
ATOM     38  C   UNK d   0      10.597   4.797  -5.132  0.00  0.00    -0.047 A 
ATOM     39  C   UNK d   0      10.205   6.921  -3.879  0.00  0.00    -0.001 A 
ATOM     40  C   UNK d   0      10.751   3.440  -5.145  0.00  0.00    -0.019 A 
ATOM     41  H   UNK d   0      10.646   5.357  -6.054  0.00  0.00     0.063 H 
ATOM     42  H   UNK d   0      10.927   2.929  -6.080  0.00  0.00     0.065 H 
ATOM     43  C   UNK d   0       9.988   7.510  -2.648  0.00  0.00     0.031 A 
ATOM     44  C   UNK d   0       9.938   6.708  -1.495  0.00  0.00     0.338 A 
ATOM     45  H   UNK d   0       9.858   8.580  -2.571  0.00  0.00     0.070 H 
ATOM     46  O   UNK d   0       9.746   7.234  -0.413  0.00  0.00    -0.245 OA
BRANCH  39  47
ATOM     47  C   UNK d   0      10.265   7.734  -5.114  0.00  0.00    -0.017 A 
ATOM     48  C   UNK d   0       9.131   7.874  -5.916  0.00  0.00    -0.054 A 
ATOM     49  C   UNK d   0       9.193   8.634  -7.066  0.00  0.00    -0.061 A 
ATOM     50  H   UNK d   0       8.208   7.389  -5.636  0.00  0.00     0.062 H 
ATOM     51  C   UNK d   0      10.376   9.255  -7.425  0.00  0.00    -0.062 A 
ATOM     52  H   UNK d   0       8.317   8.743  -7.687  0.00  0.00     0.062 H 
ATOM     53  C   UNK d   0      11.503   9.120  -6.635  0.00  0.00    -0.061 A 
ATOM     54  H   UNK d   0      10.419   9.848  -8.326  0.00  0.00     0.062 H 
ATOM     55  C   UNK d   0      11.453   8.368  -5.479  0.00  0.00    -0.054 A 
ATOM     56  H   UNK d   0      12.424   9.606  -6.921  0.00  0.00     0.062 H 
ATOM     57  H   UNK d   0      12.333   8.267  -4.861  0.00  0.00     0.062 H 
ENDBRANCH  39  47
ENDBRANCH  31  32
ENDBRANCH   1  31
TORSDOF 10
ENDMDL
MODEL 6
REMARK VINA RESULT:      -7.3      5.178      7.856
REMARK  8 active torsions:
REMARK  status: ('A' for Active; 'I' for Inactive)
REMARK    1  A    between atoms: C_1  and  C_2 
REMARK    2  A    between atoms: C_2  and  C_4 
REMARK    3  A    between atoms: C_2  and  O_19 
REMARK       I    between atoms: C_4  and  N_6 
REMARK       I    between atoms: N_6  and  CA_7 
REMARK    4  A    between atoms: CA_7  and  CB_9 
REMARK       I    between atoms: CA_7  and  C_17 
REMARK    5  A    between atoms: CB_9  and  CG_10 
REMARK    6  A    between atoms: CZ_13  and  OH_16 
REMARK    7  A    between atoms: O_19  and  C_20 
REMARK    8  A    between atoms: C_24  and  C_31 
ROOT
ATOM      1  C   UNK d   0       8.495  -5.882  -6.671  0.00  0.00     0.173 C 
ATOM      2  H   UNK d   0       8.996  -6.141  -5.738  0.00  0.00     0.083 H 
ENDROOT
BRANCH   1   3
ATOM      3  C   UNK d   0       9.537  -5.701  -7.776  0.00  0.00    -0.019 C 
ATOM      4  H   UNK d   0       9.753  -4.640  -7.903  0.00  0.00     0.027 H 
ATOM      5  H   UNK d   0      10.451  -6.228  -7.503  0.00  0.00     0.027 H 
ATOM      6  H   UNK d   0       9.150  -6.107  -8.711  0.00  0.00     0.027 H 
ENDBRANCH   1   3
BRANCH   1   7
ATOM      7  C   UNK d   0       7.729  -4.597  -6.488  0.00  0.00     0.254 C 
ATOM      8  O   UNK d   0       8.189  -3.553  -6.901  0.00  0.00    -0.272 OA
ATOM      9  N   TYR d   1       6.533  -4.608  -5.868  0.00  0.00    -0.304 N 
ATOM     10  CA  TYR d   1       5.788  -3.358  -5.691  0.00  0.00     0.067 C 
ATOM     11  H   TYR d   1       6.165  -5.442  -5.538  0.00  0.00     0.149 HD
ATOM     12  HA  TYR d   1       6.487  -2.540  -5.519  0.00  0.00     0.056 H 
ATOM     13  C   TYR d   1       4.980  -3.075  -6.931  0.00  0.00     0.062 C 
ATOM     14  O   TYR d   1       5.022  -3.839  -7.867  0.00  0.00    -0.548 OA
ATOM     15  OXT TYR d   1       4.214  -1.975  -6.997  0.00  0.00    -0.548 OA
BRANCH  10  16
ATOM     16  CB  TYR d   1       4.850  -3.489  -4.489  0.00  0.00    -0.004 C 
ATOM     17  HB1 TYR d   1       3.833  -3.671  -4.841  0.00  0.00     0.034 H 
ATOM     18  HB2 TYR d   1       5.173  -4.323  -3.866  0.00  0.00     0.034 H 
BRANCH  16  19
ATOM     19  CG  TYR d   1       4.883  -2.217  -3.685  0.00  0.00    -0.045 A 
ATOM     20  CD1 TYR d   1       3.872  -1.945  -2.781  0.00  0.00    -0.055 A 
ATOM     21  CE1 TYR d   1       3.901  -0.777  -2.042  0.00  0.00    -0.020 A 
ATOM     22  HD1 TYR d   1       3.060  -2.644  -2.654  0.00  0.00     0.062 H 
ATOM     23  CZ  TYR d   1       4.945   0.121  -2.206  0.00  0.00     0.117 A 
ATOM     24  HE1 TYR d   1       3.110  -0.565  -1.337  0.00  0.00     0.065 H 
ATOM     25  CE2 TYR d   1       5.958  -0.154  -3.113  0.00  0.00    -0.020 A 
ATOM     26  CD2 TYR d   1       5.928  -1.325  -3.846  0.00  0.00    -0.055 A 
ATOM     27  HE2 TYR d   1       6.771   0.544  -3.243  0.00  0.00     0.065 H 
ATOM     28  HD2 TYR d   1       6.719  -1.542  -4.549  0.00  0.00     0.062 H 
BRANCH  23  29
ATOM     29  OH  TYR d   1       4.975   1.270  -1.480  0.00  0.00    -0.507 OA
ATOM     30  HH  TYR d   1       5.795   1.400  -0.985  0.00  0.00     0.292 HD
ENDBRANCH  23  29
ENDBRANCH  16  19
ENDBRANCH  10  16
ENDBRANCH   1   7
BRANCH   1  31
ATOM     31  O   UNK d   0       7.592  -6.929  -7.033  0.00  0.00    -0.480 OA
BRANCH  31  32
ATOM     32  C   UNK d   0       7.217  -7.786  -6.050  0.00  0.00     0.125 A 
ATOM     33  C   UNK d   0       5.872  -7.963  -5.768  0.00  0.00     0.023 A 
ATOM     34  C   UNK d   0       5.489  -8.840  -4.764  0.00  0.00     0.143 A 
ATOM     35  H   UNK d   0       5.125  -7.421  -6.329  0.00  0.00     0.069 H 
ATOM     36  C   UNK d   0       6.473  -9.538  -4.044  0.00  0.00     0.025 A 
ATOM     37  O   UNK d   0       4.182  -9.026  -4.475  0.00  0.00    -0.422 OA
ATOM     38  C   UNK d   0       7.825  -9.347  -4.340  0.00  0.00    -0.047 A 
ATOM     39  C   UNK d   0       6.054 -10.465  -2.980  0.00  0.00    -0.001 A 
ATOM     40  C   UNK d   0       8.188  -8.481  -5.332  0.00  0.00    -0.019 A 
ATOM     41  H   UNK d   0       8.582  -9.883  -3.786  0.00  0.00     0.063 H 
ATOM     42  H   UNK d   0       9.233  -8.337  -5.564  0.00  0.00     0.065 H 
ATOM     43  C   UNK d   0       4.701 -10.603  -2.740  0.00  0.00     0.031 A 
ATOM     44  C   UNK d   0       3.782  -9.867  -3.508  0.00  0.00     0.338 A 
ATOM     45  H   UNK d   0       4.350 -11.273  -1.968  0.00  0.00     0.070 H 
ATOM     46  O   UNK d   0       2.590  -9.995  -3.291  0.00  0.00    -0.245 OA
BRANCH  39  47
ATOM     47  C   UNK d   0       7.051 -11.224  -2.192  0.00  0.00    -0.017 A 
ATOM     48  C   UNK d   0       7.557 -10.692  -1.005  0.00  0.00    -0.054 A 
ATOM     49  C   UNK d   0       8.486 -11.405  -0.274  0.00  0.00    -0.061 A 
ATOM     50  H   UNK d   0       7.223  -9.726  -0.659  0.00  0.00     0.062 H 
ATOM     51  C   UNK d   0       8.916 -12.644  -0.718  0.00  0.00    -0.062 A 
ATOM     52  H   UNK d   0       8.878 -10.996   0.644  0.00  0.00     0.062 H 
ATOM     53  C   UNK d   0       8.418 -13.176  -1.894  0.00  0.00    -0.061 A 
ATOM     54  H   UNK d   0       9.642 -13.198  -0.143  0.00  0.00     0.062 H 
ATOM     55  C   UNK d   0       7.485 -12.476  -2.630  0.00  0.00    -0.054 A 
ATOM     56  H   UNK d   0       8.758 -14.142  -2.235  0.00  0.00     0.062 H 
ATOM     57  H   UNK d   0       7.094 -12.894  -3.546  0.00  0.00     0.062 H 
ENDBRANCH  39  47
ENDBRANCH  31  32
ENDBRANCH   1  31
TORSDOF 10
ENDMDL
MODEL 7
REMARK VINA RESULT:      -7.3      2.547      3.357
REMARK  8 active torsions:
REMARK  status: ('A' for Active; 'I' for Inactive)
REMARK    1  A    between atoms: C_1  and  C_2 
REMARK    2  A    between atoms: C_2  and  C_4 
REMARK    3  A    between atoms: C_2  and  O_19 
REMARK       I    between atoms: C_4  and  N_6 
REMARK       I    between atoms: N_6  and  CA_7 
REMARK    4  A    between atoms: CA_7  and  CB_9 
REMARK       I    between atoms: CA_7  and  C_17 
REMARK    5  A    between atoms: CB_9  and  CG_10 
REMARK    6  A    between atoms: CZ_13  and  OH_16 
REMARK    7  A    between atoms: O_19  and  C_20 
REMARK    8  A    between atoms: C_24  and  C_31 
ROOT
ATOM      1  C   UNK d   0       8.028  -0.383  -9.974  0.00  0.00     0.173 C 
ATOM      2  H   UNK d   0       7.519   0.435  -9.463  0.00  0.00     0.083 H 
ENDROOT
BRANCH   1   3
ATOM      3  C   UNK d   0       9.313   0.139 -10.619  0.00  0.00    -0.019 C 
ATOM      4  H   UNK d   0       9.398   1.212 -10.444  0.00  0.00     0.027 H 
ATOM      5  H   UNK d   0      10.171  -0.370 -10.183  0.00  0.00     0.027 H 
ATOM      6  H   UNK d   0       9.284  -0.051 -11.692  0.00  0.00     0.027 H 
ENDBRANCH   1   3
BRANCH   1   7
ATOM      7  C   UNK d   0       7.124  -0.948 -11.040  0.00  0.00     0.254 C 
ATOM      8  O   UNK d   0       7.595  -1.597 -11.951  0.00  0.00    -0.272 OA
ATOM      9  N   TYR d   1       5.796  -0.735 -10.980  0.00  0.00    -0.304 N 
ATOM     10  CA  TYR d   1       4.918  -1.284 -12.017  0.00  0.00     0.067 C 
ATOM     11  H   TYR d   1       5.420  -0.216 -10.253  0.00  0.00     0.149 HD
ATOM     12  HA  TYR d   1       5.434  -1.265 -12.977  0.00  0.00     0.056 H 
ATOM     13  C   TYR d   1       4.558  -2.706 -11.669  0.00  0.00     0.062 C 
ATOM     14  O   TYR d   1       4.990  -3.208 -10.658  0.00  0.00    -0.548 OA
ATOM     15  OXT TYR d   1       3.758  -3.414 -12.480  0.00  0.00    -0.548 OA
BRANCH  10  16
ATOM     16  CB  TYR d   1       3.643  -0.442 -12.106  0.00  0.00    -0.004 C 
ATOM     17  HB1 TYR d   1       3.758   0.308 -12.889  0.00  0.00     0.034 H 
ATOM     18  HB2 TYR d   1       2.798  -1.088 -12.342  0.00  0.00     0.034 H 
BRANCH  16  19
ATOM     19  CG  TYR d   1       3.401   0.243 -10.787  0.00  0.00    -0.045 A 
ATOM     20  CD1 TYR d   1       3.798   1.555 -10.607  0.00  0.00    -0.055 A 
ATOM     21  CE1 TYR d   1       3.576   2.185  -9.397  0.00  0.00    -0.020 A 
ATOM     22  HD1 TYR d   1       4.281   2.088 -11.412  0.00  0.00     0.062 H 
ATOM     23  CZ  TYR d   1       2.956   1.500  -8.363  0.00  0.00     0.117 A 
ATOM     24  HE1 TYR d   1       3.888   3.210  -9.257  0.00  0.00     0.065 H 
ATOM     25  CE2 TYR d   1       2.559   0.184  -8.545  0.00  0.00    -0.020 A 
ATOM     26  CD2 TYR d   1       2.777  -0.440  -9.759  0.00  0.00    -0.055 A 
ATOM     27  HE2 TYR d   1       2.076  -0.351  -7.741  0.00  0.00     0.065 H 
ATOM     28  HD2 TYR d   1       2.464  -1.464  -9.903  0.00  0.00     0.062 H 
BRANCH  23  29
ATOM     29  OH  TYR d   1       2.737   2.119  -7.172  0.00  0.00    -0.507 OA
ATOM     30  HH  TYR d   1       3.539   2.257  -6.649  0.00  0.00     0.292 HD
ENDBRANCH  23  29
ENDBRANCH  16  19
ENDBRANCH  10  16
ENDBRANCH   1   7
BRANCH   1  31
ATOM     31  O   UNK d   0       8.350  -1.406  -9.030  0.00  0.00    -0.480 OA
BRANCH  31  32
ATOM     32  C   UNK d   0       7.500  -1.569  -7.983  0.00  0.00     0.125 A 
ATOM     33  C   UNK d   0       6.986  -2.824  -7.703  0.00  0.00     0.023 A 
ATOM     34  C   UNK d   0       6.118  -2.990  -6.634  0.00  0.00     0.143 A 
ATOM     35  H   UNK d   0       7.260  -3.670  -8.316  0.00  0.00     0.069 H 
ATOM     36  C   UNK d   0       5.772  -1.878  -5.848  0.00  0.00     0.025 A 
ATOM     37  O   UNK d   0       5.607  -4.206  -6.346  0.00  0.00    -0.422 OA
ATOM     38  C   UNK d   0       6.299  -0.619  -6.144  0.00  0.00    -0.047 A 
ATOM     39  C   UNK d   0       4.850  -2.066  -4.716  0.00  0.00    -0.001 A 
ATOM     40  C   UNK d   0       7.153  -0.471  -7.200  0.00  0.00    -0.019 A 
ATOM     41  H   UNK d   0       6.033   0.236  -5.539  0.00  0.00     0.063 H 
ATOM     42  H   UNK d   0       7.564   0.503  -7.426  0.00  0.00     0.065 H 
ATOM     43  C   UNK d   0       4.366  -3.339  -4.481  0.00  0.00     0.031 A 
ATOM     44  C   UNK d   0       4.764  -4.396  -5.318  0.00  0.00     0.338 A 
ATOM     45  H   UNK d   0       3.687  -3.521  -3.661  0.00  0.00     0.070 H 
ATOM     46  O   UNK d   0       4.334  -5.516  -5.104  0.00  0.00    -0.245 OA
BRANCH  39  47
ATOM     47  C   UNK d   0       4.453  -0.929  -3.856  0.00  0.00    -0.017 A 
ATOM     48  C   UNK d   0       3.525   0.007  -4.316  0.00  0.00    -0.054 A 
ATOM     49  C   UNK d   0       3.159   1.065  -3.510  0.00  0.00    -0.061 A 
ATOM     50  H   UNK d   0       3.095  -0.097  -5.301  0.00  0.00     0.062 H 
ATOM     51  C   UNK d   0       3.711   1.200  -2.248  0.00  0.00    -0.062 A 
ATOM     52  H   UNK d   0       2.442   1.789  -3.865  0.00  0.00     0.062 H 
ATOM     53  C   UNK d   0       4.632   0.276  -1.786  0.00  0.00    -0.061 A 
ATOM     54  H   UNK d   0       3.421   2.030  -1.621  0.00  0.00     0.062 H 
ATOM     55  C   UNK d   0       5.002  -0.790  -2.580  0.00  0.00    -0.054 A 
ATOM     56  H   UNK d   0       5.059   0.387  -0.801  0.00  0.00     0.062 H 
ATOM     57  H   UNK d   0       5.717  -1.513  -2.217  0.00  0.00     0.062 H 
ENDBRANCH  39  47
ENDBRANCH  31  32
ENDBRANCH   1  31
TORSDOF 10
ENDMDL
MODEL 8
REMARK VINA RESULT:      -7.3      5.471      7.538
REMARK  8 active torsions:
REMARK  status: ('A' for Active; 'I' for Inactive)
REMARK    1  A    between atoms: C_1  and  C_2 
REMARK    2  A    between atoms: C_2  and  C_4 
REMARK    3  A    between atoms: C_2  and  O_19 
REMARK       I    between atoms: C_4  and  N_6 
REMARK       I    between atoms: N_6  and  CA_7 
REMARK    4  A    between atoms: CA_7  and  CB_9 
REMARK       I    between atoms: CA_7  and  C_17 
REMARK    5  A    between atoms: CB_9  and  CG_10 
REMARK    6  A    between atoms: CZ_13  and  OH_16 
REMARK    7  A    between atoms: O_19  and  C_20 
REMARK    8  A    between atoms: C_24  and  C_31 
ROOT
ATOM      1  C   UNK d   0       7.594  -0.037  -6.223  0.00  0.00     0.173 C 
ATOM      2  H   UNK d   0       7.488   0.840  -6.863  0.00  0.00     0.083 H 
ENDROOT
BRANCH   1   3
ATOM      3  C   UNK d   0       8.405  -1.108  -6.955  0.00  0.00    -0.019 C 
ATOM      4  H   UNK d   0       7.737  -1.720  -7.561  0.00  0.00     0.027 H 
ATOM      5  H   UNK d   0       9.143  -0.629  -7.598  0.00  0.00     0.027 H 
ATOM      6  H   UNK d   0       8.914  -1.739  -6.227  0.00  0.00     0.027 H 
ENDBRANCH   1   3
BRANCH   1   7
ATOM      7  C   UNK d   0       6.229  -0.582  -5.890  0.00  0.00     0.254 C 
ATOM      8  O   UNK d   0       6.105  -1.741  -5.554  0.00  0.00    -0.272 OA
ATOM      9  N   TYR d   1       5.147   0.218  -5.964  0.00  0.00    -0.304 N 
ATOM     10  CA  TYR d   1       3.820  -0.313  -5.640  0.00  0.00     0.067 C 
ATOM     11  H   TYR d   1       5.246   1.144  -6.233  0.00  0.00     0.149 HD
ATOM     12  HA  TYR d   1       3.756  -1.353  -5.961  0.00  0.00     0.056 H 
ATOM     13  C   TYR d   1       3.597  -0.233  -4.152  0.00  0.00     0.062 C 
ATOM     14  O   TYR d   1       4.458   0.221  -3.436  0.00  0.00    -0.548 OA
ATOM     15  OXT TYR d   1       2.442  -0.665  -3.622  0.00  0.00    -0.548 OA
BRANCH  10  16
ATOM     16  CB  TYR d   1       2.751   0.511  -6.362  0.00  0.00    -0.004 C 
ATOM     17  HB1 TYR d   1       1.780   0.029  -6.243  0.00  0.00     0.034 H 
ATOM     18  HB2 TYR d   1       2.715   1.512  -5.933  0.00  0.00     0.034 H 
BRANCH  16  19
ATOM     19  CG  TYR d   1       3.091   0.602  -7.826  0.00  0.00    -0.045 A 
ATOM     20  CD1 TYR d   1       3.288  -0.553  -8.562  0.00  0.00    -0.055 A 
ATOM     21  CE1 TYR d   1       3.600  -0.471  -9.906  0.00  0.00    -0.020 A 
ATOM     22  HD1 TYR d   1       3.199  -1.518  -8.086  0.00  0.00     0.062 H 
ATOM     23  CZ  TYR d   1       3.714   0.769 -10.516  0.00  0.00     0.117 A 
ATOM     24  HE1 TYR d   1       3.755  -1.373 -10.480  0.00  0.00     0.065 H 
ATOM     25  CE2 TYR d   1       3.516   1.925  -9.777  0.00  0.00    -0.020 A 
ATOM     26  CD2 TYR d   1       3.199   1.839  -8.434  0.00  0.00    -0.055 A 
ATOM     27  HE2 TYR d   1       3.605   2.892 -10.250  0.00  0.00     0.065 H 
ATOM     28  HD2 TYR d   1       3.039   2.739  -7.859  0.00  0.00     0.062 H 
BRANCH  23  29
ATOM     29  OH  TYR d   1       4.021   0.850 -11.838  0.00  0.00    -0.507 OA
ATOM     30  HH  TYR d   1       4.961   0.735 -12.031  0.00  0.00     0.292 HD
ENDBRANCH  23  29
ENDBRANCH  16  19
ENDBRANCH  10  16
ENDBRANCH   1   7
BRANCH   1  31
ATOM     31  O   UNK d   0       8.268   0.332  -5.018  0.00  0.00    -0.480 OA
BRANCH  31  32
ATOM     32  C   UNK d   0       8.681   1.620  -4.913  0.00  0.00     0.125 A 
ATOM     33  C   UNK d   0       9.039   2.129  -3.675  0.00  0.00     0.023 A 
ATOM     34  C   UNK d   0       9.463   3.446  -3.568  0.00  0.00     0.143 A 
ATOM     35  H   UNK d   0       8.989   1.503  -2.797  0.00  0.00     0.069 H 
ATOM     36  C   UNK d   0       9.522   4.247  -4.721  0.00  0.00     0.025 A 
ATOM     37  O   UNK d   0       9.816   3.959  -2.370  0.00  0.00    -0.422 OA
ATOM     38  C   UNK d   0       9.157   3.719  -5.962  0.00  0.00    -0.047 A 
ATOM     39  C   UNK d   0       9.972   5.643  -4.595  0.00  0.00    -0.001 A 
ATOM     40  C   UNK d   0       8.743   2.420  -6.052  0.00  0.00    -0.019 A 
ATOM     41  H   UNK d   0       9.202   4.335  -6.848  0.00  0.00     0.063 H 
ATOM     42  H   UNK d   0       8.465   2.011  -7.012  0.00  0.00     0.065 H 
ATOM     43  C   UNK d   0      10.316   6.100  -3.337  0.00  0.00     0.031 A 
ATOM     44  C   UNK d   0      10.228   5.230  -2.236  0.00  0.00     0.338 A 
ATOM     45  H   UNK d   0      10.652   7.117  -3.200  0.00  0.00     0.070 H 
ATOM     46  O   UNK d   0      10.534   5.640  -1.131  0.00  0.00    -0.245 OA
BRANCH  39  47
ATOM     47  C   UNK d   0      10.053   6.529  -5.777  0.00  0.00    -0.017 A 
ATOM     48  C   UNK d   0      11.037   6.319  -6.744  0.00  0.00    -0.054 A 
ATOM     49  C   UNK d   0      11.107   7.149  -7.844  0.00  0.00    -0.061 A 
ATOM     50  H   UNK d   0      11.743   5.510  -6.630  0.00  0.00     0.062 H 
ATOM     51  C   UNK d   0      10.204   8.187  -7.990  0.00  0.00    -0.062 A 
ATOM     52  H   UNK d   0      11.868   6.988  -8.592  0.00  0.00     0.062 H 
ATOM     53  C   UNK d   0       9.226   8.400  -7.035  0.00  0.00    -0.061 A 
ATOM     54  H   UNK d   0      10.263   8.833  -8.853  0.00  0.00     0.062 H 
ATOM     55  C   UNK d   0       9.141   7.575  -5.933  0.00  0.00    -0.054 A 
ATOM     56  H   UNK d   0       8.524   9.213  -7.154  0.00  0.00     0.062 H 
ATOM     57  H   UNK d   0       8.375   7.740  -5.191  0.00  0.00     0.062 H 
ENDBRANCH  39  47
ENDBRANCH  31  32
ENDBRANCH   1  31
TORSDOF 10
ENDMDL
MODEL 9
REMARK VINA RESULT:      -7.2      6.380      9.891
REMARK  8 active torsions:
REMARK  status: ('A' for Active; 'I' for Inactive)
REMARK    1  A    between atoms: C_1  and  C_2 
REMARK    2  A    between atoms: C_2  and  C_4 
REMARK    3  A    between atoms: C_2  and  O_19 
REMARK       I    between atoms: C_4  and  N_6 
REMARK       I    between atoms: N_6  and  CA_7 
REMARK    4  A    between atoms: CA_7  and  CB_9 
REMARK       I    between atoms: CA_7  and  C_17 
REMARK    5  A    between atoms: CB_9  and  CG_10 
REMARK    6  A    between atoms: CZ_13  and  OH_16 
REMARK    7  A    between atoms: O_19  and  C_20 
REMARK    8  A    between atoms: C_24  and  C_31 
ROOT
ATOM      1  C   UNK d   0      10.024   1.827  -4.808  0.00  0.00     0.173 C 
ATOM      2  H   UNK d   0      10.058   2.533  -5.638  0.00  0.00     0.083 H 
ENDROOT
BRANCH   1   3
ATOM      3  C   UNK d   0      11.426   1.269  -4.555  0.00  0.00    -0.019 C 
ATOM      4  H   UNK d   0      11.354   0.224  -4.257  0.00  0.00     0.027 H 
ATOM      5  H   UNK d   0      12.018   1.347  -5.466  0.00  0.00     0.027 H 
ATOM      6  H   UNK d   0      11.907   1.840  -3.760  0.00  0.00     0.027 H 
ENDBRANCH   1   3
BRANCH   1   7
ATOM      7  C   UNK d   0       9.088   0.696  -5.149  0.00  0.00     0.254 C 
ATOM      8  O   UNK d   0       8.741   0.523  -6.299  0.00  0.00    -0.272 OA
ATOM      9  N   TYR d   1       8.639  -0.123  -4.179  0.00  0.00    -0.304 N 
ATOM     10  CA  TYR d   1       7.728  -1.223  -4.511  0.00  0.00     0.067 C 
ATOM     11  H   TYR d   1       8.916   0.015  -3.260  0.00  0.00     0.149 HD
ATOM     12  HA  TYR d   1       7.065  -0.913  -5.319  0.00  0.00     0.056 H 
ATOM     13  C   TYR d   1       8.529  -2.421  -4.952  0.00  0.00     0.062 C 
ATOM     14  O   TYR d   1       9.735  -2.363  -4.984  0.00  0.00    -0.548 OA
ATOM     15  OXT TYR d   1       7.902  -3.553  -5.307  0.00  0.00    -0.548 OA
BRANCH  10  16
ATOM     16  CB  TYR d   1       6.898  -1.588  -3.279  0.00  0.00    -0.004 C 
ATOM     17  HB1 TYR d   1       7.005  -2.653  -3.072  0.00  0.00     0.034 H 
ATOM     18  HB2 TYR d   1       7.250  -1.014  -2.422  0.00  0.00     0.034 H 
BRANCH  16  19
ATOM     19  CG  TYR d   1       5.449  -1.270  -3.538  0.00  0.00    -0.045 A 
ATOM     20  CD1 TYR d   1       4.487  -1.632  -2.612  0.00  0.00    -0.055 A 
ATOM     21  CE1 TYR d   1       3.157  -1.341  -2.848  0.00  0.00    -0.020 A 
ATOM     22  HD1 TYR d   1       4.775  -2.143  -1.706  0.00  0.00     0.062 H 
ATOM     23  CZ  TYR d   1       2.787  -0.686  -4.013  0.00  0.00     0.117 A 
ATOM     24  HE1 TYR d   1       2.406  -1.625  -2.126  0.00  0.00     0.065 H 
ATOM     25  CE2 TYR d   1       3.753  -0.323  -4.939  0.00  0.00    -0.020 A 
ATOM     26  CD2 TYR d   1       5.083  -0.611  -4.697  0.00  0.00    -0.055 A 
ATOM     27  HE2 TYR d   1       3.468   0.187  -5.847  0.00  0.00     0.065 H 
ATOM     28  HD2 TYR d   1       5.836  -0.325  -5.416  0.00  0.00     0.062 H 
BRANCH  23  29
ATOM     29  OH  TYR d   1       1.479  -0.398  -4.246  0.00  0.00    -0.507 OA
ATOM     30  HH  TYR d   1       1.305  -0.047  -5.130  0.00  0.00     0.292 HD
ENDBRANCH  23  29
ENDBRANCH  16  19
ENDBRANCH  10  16
ENDBRANCH   1   7
BRANCH   1  31
ATOM     31  O   UNK d   0       9.557   2.494  -3.633  0.00  0.00    -0.480 OA
BRANCH  31  32
ATOM     32  C   UNK d   0       9.689   3.845  -3.599  0.00  0.00     0.125 A 
ATOM     33  C   UNK d   0       9.420   4.591  -4.735  0.00  0.00     0.023 A 
ATOM     34  C   UNK d   0       9.554   5.971  -4.699  0.00  0.00     0.143 A 
ATOM     35  H   UNK d   0       9.108   4.100  -5.644  0.00  0.00     0.069 H 
ATOM     36  C   UNK d   0       9.962   6.594  -3.508  0.00  0.00     0.025 A 
ATOM     37  O   UNK d   0       9.297   6.715  -5.797  0.00  0.00    -0.422 OA
ATOM     38  C   UNK d   0      10.229   5.827  -2.371  0.00  0.00    -0.047 A 
ATOM     39  C   UNK d   0      10.102   8.060  -3.483  0.00  0.00    -0.001 A 
ATOM     40  C   UNK d   0      10.092   4.469  -2.421  0.00  0.00    -0.019 A 
ATOM     41  H   UNK d   0      10.543   6.307  -1.456  0.00  0.00     0.063 H 
ATOM     42  H   UNK d   0      10.295   3.876  -1.541  0.00  0.00     0.065 H 
ATOM     43  C   UNK d   0       9.822   8.755  -4.644  0.00  0.00     0.031 A 
ATOM     44  C   UNK d   0       9.419   8.052  -5.792  0.00  0.00     0.338 A 
ATOM     45  H   UNK d   0       9.911   9.831  -4.668  0.00  0.00     0.070 H 
ATOM     46  O   UNK d   0       9.174   8.673  -6.812  0.00  0.00    -0.245 OA
BRANCH  39  47
ATOM     47  C   UNK d   0      10.528   8.765  -2.254  0.00  0.00    -0.017 A 
ATOM     48  C   UNK d   0      11.884   8.987  -2.008  0.00  0.00    -0.054 A 
ATOM     49  C   UNK d   0      12.275   9.646  -0.860  0.00  0.00    -0.061 A 
ATOM     50  H   UNK d   0      12.625   8.643  -2.713  0.00  0.00     0.062 H 
ATOM     51  C   UNK d   0      11.325  10.086   0.046  0.00  0.00    -0.062 A 
ATOM     52  H   UNK d   0      13.322   9.818  -0.669  0.00  0.00     0.062 H 
ATOM     53  C   UNK d   0       9.980   9.870  -0.193  0.00  0.00    -0.061 A 
ATOM     54  H   UNK d   0      11.636  10.602   0.942  0.00  0.00     0.062 H 
ATOM     55  C   UNK d   0       9.575   9.217  -1.339  0.00  0.00    -0.054 A 
ATOM     56  H   UNK d   0       9.244  10.215   0.518  0.00  0.00     0.062 H 
ATOM     57  H   UNK d   0       8.524   9.052  -1.526  0.00  0.00     0.062 H 
ENDBRANCH  39  47
ENDBRANCH  31  32
ENDBRANCH   1  31
TORSDOF 10
ENDMDL
MODEL 10
REMARK VINA RESULT:      -7.1      5.065      7.497
REMARK  8 active torsions:
REMARK  status: ('A' for Active; 'I' for Inactive)
REMARK    1  A    between atoms: C_1  and  C_2 
REMARK    2  A    between atoms: C_2  and  C_4 
REMARK    3  A    between atoms: C_2  and  O_19 
REMARK       I    between atoms: C_4  and  N_6 
REMARK       I    between atoms: N_6  and  CA_7 
REMARK    4  A    between atoms: CA_7  and  CB_9 
REMARK       I    between atoms: CA_7  and  C_17 
REMARK    5  A    between atoms: CB_9  and  CG_10 
REMARK    6  A    between atoms: CZ_13  and  OH_16 
REMARK    7  A    between atoms: O_19  and  C_20 
REMARK    8  A    between atoms: C_24  and  C_31 
ROOT
ATOM      1  C   UNK d   0       7.446   0.204  -6.413  0.00  0.00     0.173 C 
ATOM      2  H   UNK d   0       7.212   1.178  -6.844  0.00  0.00     0.083 H 
ENDROOT
BRANCH   1   3
ATOM      3  C   UNK d   0       7.821  -0.772  -7.529  0.00  0.00    -0.019 C 
ATOM      4  H   UNK d   0       6.915  -1.160  -7.993  0.00  0.00     0.027 H 
ATOM      5  H   UNK d   0       8.421  -0.255  -8.278  0.00  0.00     0.027 H 
ATOM      6  H   UNK d   0       8.397  -1.598  -7.111  0.00  0.00     0.027 H 
ENDBRANCH   1   3
BRANCH   1   7
ATOM      7  C   UNK d   0       6.241  -0.319  -5.673  0.00  0.00     0.254 C 
ATOM      8  O   UNK d   0       6.353  -1.274  -4.933  0.00  0.00    -0.272 OA
ATOM      9  N   TYR d   1       5.042   0.274  -5.832  0.00  0.00    -0.304 N 
ATOM     10  CA  TYR d   1       3.871  -0.235  -5.113  0.00  0.00     0.067 C 
ATOM     11  H   TYR d   1       4.953   1.037  -6.424  0.00  0.00     0.149 HD
ATOM     12  HA  TYR d   1       3.940  -1.320  -5.030  0.00  0.00     0.056 H 
ATOM     13  C   TYR d   1       3.826   0.372  -3.735  0.00  0.00     0.062 C 
ATOM     14  O   TYR d   1       4.683   1.150  -3.389  0.00  0.00    -0.548 OA
ATOM     15  OXT TYR d   1       2.833   0.049  -2.891  0.00  0.00    -0.548 OA
BRANCH  10  16
ATOM     16  CB  TYR d   1       2.600   0.139  -5.878  0.00  0.00    -0.004 C 
ATOM     17  HB1 TYR d   1       1.870  -0.666  -5.785  0.00  0.00     0.034 H 
ATOM     18  HB2 TYR d   1       2.184   1.056  -5.463  0.00  0.00     0.034 H 
BRANCH  16  19
ATOM     19  CG  TYR d   1       2.933   0.350  -7.332  0.00  0.00    -0.045 A 
ATOM     20  CD1 TYR d   1       3.188  -0.738  -8.147  0.00  0.00    -0.055 A 
ATOM     21  CE1 TYR d   1       3.494  -0.546  -9.481  0.00  0.00    -0.020 A 
ATOM     22  HD1 TYR d   1       3.150  -1.737  -7.740  0.00  0.00     0.062 H 
ATOM     23  CZ  TYR d   1       3.543   0.738 -10.002  0.00  0.00     0.117 A 
ATOM     24  HE1 TYR d   1       3.695  -1.396 -10.116  0.00  0.00     0.065 H 
ATOM     25  CE2 TYR d   1       3.286   1.827  -9.183  0.00  0.00    -0.020 A 
ATOM     26  CD2 TYR d   1       2.976   1.631  -7.851  0.00  0.00    -0.055 A 
ATOM     27  HE2 TYR d   1       3.324   2.829  -9.587  0.00  0.00     0.065 H 
ATOM     28  HD2 TYR d   1       2.771   2.479  -7.214  0.00  0.00     0.062 H 
BRANCH  23  29
ATOM     29  OH  TYR d   1       3.843   0.928 -11.314  0.00  0.00    -0.507 OA
ATOM     30  HH  TYR d   1       3.631   1.814 -11.641  0.00  0.00     0.292 HD
ENDBRANCH  23  29
ENDBRANCH  16  19
ENDBRANCH  10  16
ENDBRANCH   1   7
BRANCH   1  31
ATOM     31  O   UNK d   0       8.542   0.336  -5.505  0.00  0.00    -0.480 OA
BRANCH  31  32
ATOM     32  C   UNK d   0       8.930   1.598  -5.188  0.00  0.00     0.125 A 
ATOM     33  C   UNK d   0       9.138   2.527  -6.194  0.00  0.00     0.023 A 
ATOM     34  C   UNK d   0       9.533   3.817  -5.869  0.00  0.00     0.143 A 
ATOM     35  H   UNK d   0       8.992   2.248  -7.227  0.00  0.00     0.069 H 
ATOM     36  C   UNK d   0       9.718   4.162  -4.520  0.00  0.00     0.025 A 
ATOM     37  O   UNK d   0       9.740   4.736  -6.837  0.00  0.00    -0.422 OA
ATOM     38  C   UNK d   0       9.505   3.213  -3.518  0.00  0.00    -0.047 A 
ATOM     39  C   UNK d   0      10.139   5.534  -4.188  0.00  0.00    -0.001 A 
ATOM     40  C   UNK d   0       9.116   1.947  -3.852  0.00  0.00    -0.019 A 
ATOM     41  H   UNK d   0       9.648   3.479  -2.480  0.00  0.00     0.063 H 
ATOM     42  H   UNK d   0       8.947   1.215  -3.076  0.00  0.00     0.065 H 
ATOM     43  C   UNK d   0      10.332   6.420  -5.230  0.00  0.00     0.031 A 
ATOM     44  C   UNK d   0      10.124   5.991  -6.552  0.00  0.00     0.338 A 
ATOM     45  H   UNK d   0      10.641   7.436  -5.031  0.00  0.00     0.070 H 
ATOM     46  O   UNK d   0      10.296   6.779  -7.466  0.00  0.00    -0.245 OA
BRANCH  39  47
ATOM     47  C   UNK d   0      10.348   5.949  -2.784  0.00  0.00    -0.017 A 
ATOM     48  C   UNK d   0       9.443   6.815  -2.167  0.00  0.00    -0.054 A 
ATOM     49  C   UNK d   0       9.643   7.198  -0.857  0.00  0.00    -0.061 A 
ATOM     50  H   UNK d   0       8.588   7.183  -2.714  0.00  0.00     0.062 H 
ATOM     51  C   UNK d   0      10.739   6.727  -0.155  0.00  0.00    -0.062 A 
ATOM     52  H   UNK d   0       8.944   7.867  -0.379  0.00  0.00     0.062 H 
ATOM     53  C   UNK d   0      11.639   5.869  -0.760  0.00  0.00    -0.061 A 
ATOM     54  H   UNK d   0      10.891   7.030   0.870  0.00  0.00     0.062 H 
ATOM     55  C   UNK d   0      11.448   5.474  -2.068  0.00  0.00    -0.054 A 
ATOM     56  H   UNK d   0      12.493   5.506  -0.207  0.00  0.00     0.062 H 
ATOM     57  H   UNK d   0      12.150   4.801  -2.538  0.00  0.00     0.062 H 
ENDBRANCH  39  47
ENDBRANCH  31  32
ENDBRANCH   1  31
TORSDOF 10
ENDMDL
