MODEL 1
REMARK VINA RESULT:      -6.8      0.000      0.000
REMARK  4 active torsions:
REMARK  status: ('A' for Active; 'I' for Inactive)
REMARK    1  A    between atoms: C_4  and  C_7 
REMARK    2  A    between atoms: C_10  and  C_13 
REMARK    3  A    between atoms: C_13  and  C_15 
REMARK    4  A    between atoms: C_15  and  N_16 
ROOT
ATOM      1  C   LIG d   1       2.430  -1.132 -10.289  0.00  0.00    -0.018 A 
ATOM      2  C   LIG d   1       3.152  -2.029  -9.501  0.00  0.00    -0.053 A 
ATOM      3  C   LIG d   1       3.560  -1.664  -8.244  0.00  0.00    -0.051 A 
ATOM      4  C   LIG d   1       3.250  -0.391  -7.751  0.00  0.00     0.024 A 
ATOM      5  C   LIG d   1       2.525   0.507  -8.544  0.00  0.00    -0.051 A 
ATOM      6  C   LIG d   1       2.124   0.139  -9.802  0.00  0.00    -0.053 A 
ATOM      7  H   LIG d   1       3.390  -3.011  -9.882  0.00  0.00     0.062 H 
ATOM      8  H   LIG d   1       4.119  -2.359  -7.634  0.00  0.00     0.062 H 
ATOM      9  H   LIG d   1       2.284   1.490  -8.165  0.00  0.00     0.062 H 
ATOM     10  H   LIG d   1       1.568   0.833 -10.415  0.00  0.00     0.062 H 
ENDROOT
BRANCH   4  11
ATOM     11  C   LIG d   1       3.686   0.002  -6.403  0.00  0.00     0.228 C 
ATOM     12  O   LIG d   1       4.866   0.151  -6.167  0.00  0.00    -0.285 OA
BRANCH  11  13
ATOM     13  C   LIG d   1       2.666   0.220  -5.315  0.00  0.00     0.212 C 
ATOM     14  H   LIG d   1       2.317   1.252  -5.345  0.00  0.00     0.112 H 
ATOM     15  H   LIG d   1       1.822  -0.454  -5.469  0.00  0.00     0.112 H 
BRANCH  13  16
ATOM     16  N   LIG d   1       3.277  -0.052  -4.012  0.00  0.00    -0.196 N 
ATOM     17  C   LIG d   1       3.422  -1.303  -3.619  0.00  0.00     0.172 A 
ATOM     18  C   LIG d   1       3.998  -1.598  -2.398  0.00  0.00     0.002 A 
ATOM     19  H   LIG d   1       3.090  -2.105  -4.261  0.00  0.00     0.138 H 
ATOM     20  C   LIG d   1       4.416  -0.560  -1.580  0.00  0.00    -0.051 A 
ATOM     21  H   LIG d   1       4.118  -2.624  -2.084  0.00  0.00     0.068 H 
ATOM     22  C   LIG d   1       4.243   0.742  -2.025  0.00  0.00     0.002 A 
ATOM     23  H   LIG d   1       4.866  -0.760  -0.619  0.00  0.00     0.062 H 
ATOM     24  C   LIG d   1       3.663   0.961  -3.260  0.00  0.00     0.172 A 
ATOM     25  H   LIG d   1       4.557   1.576  -1.414  0.00  0.00     0.068 H 
ATOM     26  H   LIG d   1       3.525   1.971  -3.614  0.00  0.00     0.138 H 
ENDBRANCH  13  16
ENDBRANCH  11  13
ENDBRANCH   4  11
BRANCH   1  27
ATOM     27  C   LIG d   1       1.990  -1.529 -11.648  0.00  0.00    -0.018 A 
ATOM     28  C   LIG d   1       0.659  -1.872 -11.882  0.00  0.00    -0.054 A 
ATOM     29  C   LIG d   1       0.256  -2.241 -13.148  0.00  0.00    -0.061 A 
ATOM     30  H   LIG d   1      -0.056  -1.848 -11.072  0.00  0.00     0.062 H 
ATOM     31  C   LIG d   1       1.170  -2.273 -14.186  0.00  0.00    -0.062 A 
ATOM     32  H   LIG d   1      -0.775  -2.507 -13.330  0.00  0.00     0.062 H 
ATOM     33  C   LIG d   1       2.492  -1.934 -13.961  0.00  0.00    -0.061 A 
ATOM     34  H   LIG d   1       0.851  -2.566 -15.175  0.00  0.00     0.062 H 
ATOM     35  C   LIG d   1       2.906  -1.563 -12.698  0.00  0.00    -0.054 A 
ATOM     36  H   LIG d   1       3.201  -1.960 -14.775  0.00  0.00     0.062 H 
ATOM     37  H   LIG d   1       3.939  -1.299 -12.524  0.00  0.00     0.062 H 
ENDBRANCH   1  27
TORSDOF 4
ENDMDL
MODEL 2
REMARK VINA RESULT:      -6.6      2.504      7.609
REMARK  4 active torsions:
REMARK  status: ('A' for Active; 'I' for Inactive)
REMARK    1  A    between atoms: C_4  and  C_7 
REMARK    2  A    between atoms: C_10  and  C_13 
REMARK    3  A    between atoms: C_13  and  C_15 
REMARK    4  A    between atoms: C_15  and  N_16 
ROOT
ATOM      1  C   LIG d   1       3.940  -0.305  -6.242  0.00  0.00    -0.018 A 
ATOM      2  C   LIG d   1       5.109  -0.351  -7.003  0.00  0.00    -0.053 A 
ATOM      3  C   LIG d   1       5.119   0.157  -8.276  0.00  0.00    -0.051 A 
ATOM      4  C   LIG d   1       3.956   0.725  -8.811  0.00  0.00     0.024 A 
ATOM      5  C   LIG d   1       2.785   0.770  -8.045  0.00  0.00    -0.051 A 
ATOM      6  C   LIG d   1       2.779   0.255  -6.775  0.00  0.00    -0.053 A 
ATOM      7  H   LIG d   1       6.006  -0.789  -6.589  0.00  0.00     0.062 H 
ATOM      8  H   LIG d   1       6.024   0.122  -8.865  0.00  0.00     0.062 H 
ATOM      9  H   LIG d   1       1.887   1.207  -8.456  0.00  0.00     0.062 H 
ATOM     10  H   LIG d   1       1.874   0.286  -6.185  0.00  0.00     0.062 H 
ENDROOT
BRANCH   4  11
ATOM     11  C   LIG d   1       3.966   1.271 -10.176  0.00  0.00     0.228 C 
ATOM     12  O   LIG d   1       3.679   2.434 -10.365  0.00  0.00    -0.285 OA
BRANCH  11  13
ATOM     13  C   LIG d   1       4.331   0.386 -11.339  0.00  0.00     0.212 C 
ATOM     14  H   LIG d   1       4.192   0.934 -12.271  0.00  0.00     0.112 H 
ATOM     15  H   LIG d   1       5.374   0.081 -11.249  0.00  0.00     0.112 H 
BRANCH  13  16
ATOM     16  N   LIG d   1       3.473  -0.801 -11.338  0.00  0.00    -0.196 N 
ATOM     17  C   LIG d   1       2.174  -0.655 -11.506  0.00  0.00     0.172 A 
ATOM     18  C   LIG d   1       1.334  -1.752 -11.515  0.00  0.00     0.002 A 
ATOM     19  H   LIG d   1       1.761   0.334 -11.643  0.00  0.00     0.138 H 
ATOM     20  C   LIG d   1       1.873  -3.016 -11.334  0.00  0.00    -0.051 A 
ATOM     21  H   LIG d   1       0.271  -1.626 -11.657  0.00  0.00     0.068 H 
ATOM     22  C   LIG d   1       3.243  -3.131 -11.155  0.00  0.00     0.002 A 
ATOM     23  H   LIG d   1       1.240  -3.892 -11.333  0.00  0.00     0.062 H 
ATOM     24  C   LIG d   1       4.021  -1.989 -11.163  0.00  0.00     0.172 A 
ATOM     25  H   LIG d   1       3.697  -4.101 -11.012  0.00  0.00     0.068 H 
ATOM     26  H   LIG d   1       5.088  -2.069 -11.024  0.00  0.00     0.138 H 
ENDBRANCH  13  16
ENDBRANCH  11  13
ENDBRANCH   4  11
BRANCH   1  27
ATOM     27  C   LIG d   1       3.932  -0.857  -4.866  0.00  0.00    -0.018 A 
ATOM     28  C   LIG d   1       4.897  -1.785  -4.477  0.00  0.00    -0.054 A 
ATOM     29  C   LIG d   1       4.884  -2.294  -3.195  0.00  0.00    -0.061 A 
ATOM     30  H   LIG d   1       5.654  -2.104  -5.178  0.00  0.00     0.062 H 
ATOM     31  C   LIG d   1       3.915  -1.887  -2.295  0.00  0.00    -0.062 A 
ATOM     32  H   LIG d   1       5.631  -3.013  -2.893  0.00  0.00     0.062 H 
ATOM     33  C   LIG d   1       2.955  -0.966  -2.675  0.00  0.00    -0.061 A 
ATOM     34  H   LIG d   1       3.907  -2.292  -1.294  0.00  0.00     0.062 H 
ATOM     35  C   LIG d   1       2.958  -0.450  -3.954  0.00  0.00    -0.054 A 
ATOM     36  H   LIG d   1       2.201  -0.651  -1.969  0.00  0.00     0.062 H 
ATOM     37  H   LIG d   1       2.208   0.269  -4.249  0.00  0.00     0.062 H 
ENDBRANCH   1  27
TORSDOF 4
ENDMDL
MODEL 3
REMARK VINA RESULT:      -6.6      6.316      8.854
REMARK  4 active torsions:
REMARK  status: ('A' for Active; 'I' for Inactive)
REMARK    1  A    between atoms: C_4  and  C_7 
REMARK    2  A    between atoms: C_10  and  C_13 
REMARK    3  A    between atoms: C_13  and  C_15 
REMARK    4  A    between atoms: C_15  and  N_16 
ROOT
ATOM      1  C   LIG d   1       5.663  -2.308  -3.922  0.00  0.00    -0.018 A 
ATOM      2  C   LIG d   1       4.919  -3.283  -4.590  0.00  0.00    -0.053 A 
ATOM      3  C   LIG d   1       5.549  -4.367  -5.144  0.00  0.00    -0.051 A 
ATOM      4  C   LIG d   1       6.939  -4.498  -5.036  0.00  0.00     0.024 A 
ATOM      5  C   LIG d   1       7.682  -3.520  -4.365  0.00  0.00    -0.051 A 
ATOM      6  C   LIG d   1       7.048  -2.434  -3.819  0.00  0.00    -0.053 A 
ATOM      7  H   LIG d   1       3.847  -3.181  -4.672  0.00  0.00     0.062 H 
ATOM      8  H   LIG d   1       4.973  -5.121  -5.660  0.00  0.00     0.062 H 
ATOM      9  H   LIG d   1       8.754  -3.619  -4.281  0.00  0.00     0.062 H 
ATOM     10  H   LIG d   1       7.622  -1.677  -3.304  0.00  0.00     0.062 H 
ENDROOT
BRANCH   4  11
ATOM     11  C   LIG d   1       7.615  -5.661  -5.628  0.00  0.00     0.228 C 
ATOM     12  O   LIG d   1       8.812  -5.799  -5.495  0.00  0.00    -0.285 OA
BRANCH  11  13
ATOM     13  C   LIG d   1       6.820  -6.682  -6.401  0.00  0.00     0.212 C 
ATOM     14  H   LIG d   1       5.945  -6.204  -6.841  0.00  0.00     0.112 H 
ATOM     15  H   LIG d   1       7.441  -7.102  -7.193  0.00  0.00     0.112 H 
BRANCH  13  16
ATOM     16  N   LIG d   1       6.391  -7.752  -5.498  0.00  0.00    -0.196 N 
ATOM     17  C   LIG d   1       5.112  -8.065  -5.435  0.00  0.00     0.172 A 
ATOM     18  C   LIG d   1       4.670  -9.073  -4.599  0.00  0.00     0.002 A 
ATOM     19  H   LIG d   1       4.401  -7.531  -6.048  0.00  0.00     0.138 H 
ATOM     20  C   LIG d   1       5.590  -9.749  -3.813  0.00  0.00    -0.051 A 
ATOM     21  H   LIG d   1       3.622  -9.326  -4.555  0.00  0.00     0.068 H 
ATOM     22  C   LIG d   1       6.926  -9.389  -3.902  0.00  0.00     0.002 A 
ATOM     23  H   LIG d   1       5.273 -10.538  -3.147  0.00  0.00     0.062 H 
ATOM     24  C   LIG d   1       7.294  -8.375  -4.765  0.00  0.00     0.172 A 
ATOM     25  H   LIG d   1       7.670  -9.896  -3.304  0.00  0.00     0.068 H 
ATOM     26  H   LIG d   1       8.333  -8.089  -4.841  0.00  0.00     0.138 H 
ENDBRANCH  13  16
ENDBRANCH  11  13
ENDBRANCH   4  11
BRANCH   1  27
ATOM     27  C   LIG d   1       4.979  -1.136  -3.325  0.00  0.00    -0.018 A 
ATOM     28  C   LIG d   1       5.724  -0.058  -2.850  0.00  0.00    -0.054 A 
ATOM     29  C   LIG d   1       5.082   1.030  -2.295  0.00  0.00    -0.061 A 
ATOM     30  H   LIG d   1       6.802  -0.074  -2.916  0.00  0.00     0.062 H 
ATOM     31  C   LIG d   1       3.701   1.053  -2.210  0.00  0.00    -0.062 A 
ATOM     32  H   LIG d   1       5.658   1.866  -1.927  0.00  0.00     0.062 H 
ATOM     33  C   LIG d   1       2.956  -0.014  -2.680  0.00  0.00    -0.061 A 
ATOM     34  H   LIG d   1       3.203   1.904  -1.771  0.00  0.00     0.062 H 
ATOM     35  C   LIG d   1       3.588  -1.108  -3.237  0.00  0.00    -0.054 A 
ATOM     36  H   LIG d   1       1.879   0.008  -2.611  0.00  0.00     0.062 H 
ATOM     37  H   LIG d   1       3.005  -1.940  -3.603  0.00  0.00     0.062 H 
ENDBRANCH   1  27
TORSDOF 4
ENDMDL
MODEL 4
REMARK VINA RESULT:      -6.5      6.395      9.034
REMARK  4 active torsions:
REMARK  status: ('A' for Active; 'I' for Inactive)
REMARK    1  A    between atoms: C_4  and  C_7 
REMARK    2  A    between atoms: C_10  and  C_13 
REMARK    3  A    between atoms: C_13  and  C_15 
REMARK    4  A    between atoms: C_15  and  N_16 
ROOT
ATOM      1  C   LIG d   1       5.998  -2.620  -4.088  0.00  0.00    -0.018 A 
ATOM      2  C   LIG d   1       5.030  -3.472  -4.622  0.00  0.00    -0.053 A 
ATOM      3  C   LIG d   1       5.409  -4.604  -5.295  0.00  0.00    -0.051 A 
ATOM      4  C   LIG d   1       6.768  -4.907  -5.444  0.00  0.00     0.024 A 
ATOM      5  C   LIG d   1       7.737  -4.051  -4.907  0.00  0.00    -0.051 A 
ATOM      6  C   LIG d   1       7.353  -2.917  -4.240  0.00  0.00    -0.053 A 
ATOM      7  H   LIG d   1       3.982  -3.237  -4.506  0.00  0.00     0.062 H 
ATOM      8  H   LIG d   1       4.659  -5.264  -5.708  0.00  0.00     0.062 H 
ATOM      9  H   LIG d   1       8.785  -4.284  -5.021  0.00  0.00     0.062 H 
ATOM     10  H   LIG d   1       8.101  -2.254  -3.829  0.00  0.00     0.062 H 
ENDROOT
BRANCH   4  11
ATOM     11  C   LIG d   1       7.175  -6.122  -6.164  0.00  0.00     0.228 C 
ATOM     12  O   LIG d   1       6.463  -6.581  -7.031  0.00  0.00    -0.285 OA
BRANCH  11  13
ATOM     13  C   LIG d   1       8.479  -6.797  -5.824  0.00  0.00     0.212 C 
ATOM     14  H   LIG d   1       8.751  -7.487  -6.624  0.00  0.00     0.112 H 
ATOM     15  H   LIG d   1       9.260  -6.044  -5.714  0.00  0.00     0.112 H 
BRANCH  13  16
ATOM     16  N   LIG d   1       8.334  -7.537  -4.569  0.00  0.00    -0.196 N 
ATOM     17  C   LIG d   1       7.438  -8.502  -4.492  0.00  0.00     0.172 A 
ATOM     18  C   LIG d   1       7.275  -9.225  -3.326  0.00  0.00     0.002 A 
ATOM     19  H   LIG d   1       6.827  -8.732  -5.353  0.00  0.00     0.138 H 
ATOM     20  C   LIG d   1       8.061  -8.917  -2.226  0.00  0.00    -0.051 A 
ATOM     21  H   LIG d   1       6.542 -10.016  -3.271  0.00  0.00     0.068 H 
ATOM     22  C   LIG d   1       8.989  -7.894  -2.343  0.00  0.00     0.002 A 
ATOM     23  H   LIG d   1       7.953  -9.463  -1.300  0.00  0.00     0.062 H 
ATOM     24  C   LIG d   1       9.099  -7.218  -3.543  0.00  0.00     0.172 A 
ATOM     25  H   LIG d   1       9.618  -7.628  -1.506  0.00  0.00     0.068 H 
ATOM     26  H   LIG d   1       9.819  -6.420  -3.642  0.00  0.00     0.138 H 
ENDBRANCH  13  16
ENDBRANCH  11  13
ENDBRANCH   4  11
BRANCH   1  27
ATOM     27  C   LIG d   1       5.586  -1.395  -3.361  0.00  0.00    -0.018 A 
ATOM     28  C   LIG d   1       6.175  -0.168  -3.665  0.00  0.00    -0.054 A 
ATOM     29  C   LIG d   1       5.788   0.967  -2.985  0.00  0.00    -0.061 A 
ATOM     30  H   LIG d   1       6.934  -0.108  -4.431  0.00  0.00     0.062 H 
ATOM     31  C   LIG d   1       4.816   0.892  -2.003  0.00  0.00    -0.062 A 
ATOM     32  H   LIG d   1       6.243   1.918  -3.220  0.00  0.00     0.062 H 
ATOM     33  C   LIG d   1       4.227  -0.322  -1.697  0.00  0.00    -0.061 A 
ATOM     34  H   LIG d   1       4.519   1.783  -1.471  0.00  0.00     0.062 H 
ATOM     35  C   LIG d   1       4.608  -1.465  -2.371  0.00  0.00    -0.054 A 
ATOM     36  H   LIG d   1       3.469  -0.376  -0.930  0.00  0.00     0.062 H 
ATOM     37  H   LIG d   1       4.147  -2.412  -2.131  0.00  0.00     0.062 H 
ENDBRANCH   1  27
TORSDOF 4
ENDMDL
MODEL 5
REMARK VINA RESULT:      -6.4      6.263      8.848
REMARK  4 active torsions:
REMARK  status: ('A' for Active; 'I' for Inactive)
REMARK    1  A    between atoms: C_4  and  C_7 
REMARK    2  A    between atoms: C_10  and  C_13 
REMARK    3  A    between atoms: C_13  and  C_15 
REMARK    4  A    between atoms: C_15  and  N_16 
ROOT
ATOM      1  C   LIG d   1       6.666   0.386  -4.427  0.00  0.00    -0.018 A 
ATOM      2  C   LIG d   1       7.345   1.420  -3.782  0.00  0.00    -0.053 A 
ATOM      3  C   LIG d   1       8.223   2.207  -4.482  0.00  0.00    -0.051 A 
ATOM      4  C   LIG d   1       8.435   1.973  -5.846  0.00  0.00     0.024 A 
ATOM      5  C   LIG d   1       7.752   0.935  -6.491  0.00  0.00    -0.051 A 
ATOM      6  C   LIG d   1       6.880   0.148  -5.785  0.00  0.00    -0.053 A 
ATOM      7  H   LIG d   1       7.180   1.600  -2.729  0.00  0.00     0.062 H 
ATOM      8  H   LIG d   1       8.748   3.008  -3.982  0.00  0.00     0.062 H 
ATOM      9  H   LIG d   1       7.914   0.753  -7.543  0.00  0.00     0.062 H 
ATOM     10  H   LIG d   1       6.355  -0.656  -6.281  0.00  0.00     0.062 H 
ENDROOT
BRANCH   4  11
ATOM     11  C   LIG d   1       9.374   2.816  -6.599  0.00  0.00     0.228 C 
ATOM     12  O   LIG d   1       9.311   2.865  -7.809  0.00  0.00    -0.285 OA
BRANCH  11  13
ATOM     13  C   LIG d   1      10.418   3.620  -5.866  0.00  0.00     0.212 C 
ATOM     14  H   LIG d   1      10.518   3.244  -4.848  0.00  0.00     0.112 H 
ATOM     15  H   LIG d   1      11.374   3.530  -6.382  0.00  0.00     0.112 H 
BRANCH  13  16
ATOM     16  N   LIG d   1      10.013   5.027  -5.831  0.00  0.00    -0.196 N 
ATOM     17  C   LIG d   1      10.195   5.776  -6.901  0.00  0.00     0.172 A 
ATOM     18  C   LIG d   1       9.821   7.106  -6.906  0.00  0.00     0.002 A 
ATOM     19  H   LIG d   1      10.637   5.342  -7.786  0.00  0.00     0.138 H 
ATOM     20  C   LIG d   1       9.260   7.653  -5.764  0.00  0.00    -0.051 A 
ATOM     21  H   LIG d   1       9.970   7.712  -7.788  0.00  0.00     0.068 H 
ATOM     22  C   LIG d   1       9.088   6.838  -4.656  0.00  0.00     0.002 A 
ATOM     23  H   LIG d   1       8.961   8.691  -5.737  0.00  0.00     0.062 H 
ATOM     24  C   LIG d   1       9.481   5.515  -4.726  0.00  0.00     0.172 A 
ATOM     25  H   LIG d   1       8.652   7.231  -3.749  0.00  0.00     0.068 H 
ATOM     26  H   LIG d   1       9.351   4.873  -3.868  0.00  0.00     0.138 H 
ENDBRANCH  13  16
ENDBRANCH  11  13
ENDBRANCH   4  11
BRANCH   1  27
ATOM     27  C   LIG d   1       5.718  -0.464  -3.667  0.00  0.00    -0.018 A 
ATOM     28  C   LIG d   1       5.168  -0.003  -2.471  0.00  0.00    -0.054 A 
ATOM     29  C   LIG d   1       4.287  -0.798  -1.768  0.00  0.00    -0.061 A 
ATOM     30  H   LIG d   1       5.431   0.975  -2.096  0.00  0.00     0.062 H 
ATOM     31  C   LIG d   1       3.949  -2.052  -2.247  0.00  0.00    -0.062 A 
ATOM     32  H   LIG d   1       3.860  -0.442  -0.842  0.00  0.00     0.062 H 
ATOM     33  C   LIG d   1       4.491  -2.515  -3.432  0.00  0.00    -0.061 A 
ATOM     34  H   LIG d   1       3.262  -2.672  -1.691  0.00  0.00     0.062 H 
ATOM     35  C   LIG d   1       5.373  -1.728  -4.144  0.00  0.00    -0.054 A 
ATOM     36  H   LIG d   1       4.224  -3.494  -3.801  0.00  0.00     0.062 H 
ATOM     37  H   LIG d   1       5.796  -2.091  -5.069  0.00  0.00     0.062 H 
ENDBRANCH   1  27
TORSDOF 4
ENDMDL
MODEL 6
REMARK VINA RESULT:      -6.3      4.793      8.583
REMARK  4 active torsions:
REMARK  status: ('A' for Active; 'I' for Inactive)
REMARK    1  A    between atoms: C_4  and  C_7 
REMARK    2  A    between atoms: C_10  and  C_13 
REMARK    3  A    between atoms: C_13  and  C_15 
REMARK    4  A    between atoms: C_15  and  N_16 
ROOT
ATOM      1  C   LIG d   1       8.549   2.407  -4.748  0.00  0.00    -0.018 A 
ATOM      2  C   LIG d   1       8.033   1.526  -3.797  0.00  0.00    -0.053 A 
ATOM      3  C   LIG d   1       7.421   0.366  -4.195  0.00  0.00    -0.051 A 
ATOM      4  C   LIG d   1       7.316   0.065  -5.559  0.00  0.00     0.024 A 
ATOM      5  C   LIG d   1       7.834   0.950  -6.511  0.00  0.00    -0.051 A 
ATOM      6  C   LIG d   1       8.440   2.111  -6.107  0.00  0.00    -0.053 A 
ATOM      7  H   LIG d   1       8.116   1.759  -2.745  0.00  0.00     0.062 H 
ATOM      8  H   LIG d   1       7.023  -0.316  -3.459  0.00  0.00     0.062 H 
ATOM      9  H   LIG d   1       7.754   0.719  -7.564  0.00  0.00     0.062 H 
ATOM     10  H   LIG d   1       8.837   2.797  -6.843  0.00  0.00     0.062 H 
ENDROOT
BRANCH   4  11
ATOM     11  C   LIG d   1       6.660  -1.179  -5.988  0.00  0.00     0.228 C 
ATOM     12  O   LIG d   1       7.314  -2.189  -6.136  0.00  0.00    -0.285 OA
BRANCH  11  13
ATOM     13  C   LIG d   1       5.175  -1.197  -6.245  0.00  0.00     0.212 C 
ATOM     14  H   LIG d   1       4.894  -0.311  -6.814  0.00  0.00     0.112 H 
ATOM     15  H   LIG d   1       4.916  -2.091  -6.814  0.00  0.00     0.112 H 
BRANCH  13  16
ATOM     16  N   LIG d   1       4.459  -1.207  -4.968  0.00  0.00    -0.196 N 
ATOM     17  C   LIG d   1       4.671  -2.194  -4.120  0.00  0.00     0.172 A 
ATOM     18  C   LIG d   1       4.017  -2.233  -2.903  0.00  0.00     0.002 A 
ATOM     19  H   LIG d   1       5.368  -2.978  -4.377  0.00  0.00     0.138 H 
ATOM     20  C   LIG d   1       3.121  -1.225  -2.585  0.00  0.00    -0.051 A 
ATOM     21  H   LIG d   1       4.199  -3.042  -2.211  0.00  0.00     0.068 H 
ATOM     22  C   LIG d   1       2.920  -0.206  -3.504  0.00  0.00     0.002 A 
ATOM     23  H   LIG d   1       2.593  -1.232  -1.643  0.00  0.00     0.062 H 
ATOM     24  C   LIG d   1       3.613  -0.230  -4.699  0.00  0.00     0.172 A 
ATOM     25  H   LIG d   1       2.229   0.596  -3.289  0.00  0.00     0.068 H 
ATOM     26  H   LIG d   1       3.463   0.559  -5.420  0.00  0.00     0.138 H 
ENDBRANCH  13  16
ENDBRANCH  11  13
ENDBRANCH   4  11
BRANCH   1  27
ATOM     27  C   LIG d   1       9.210   3.661  -4.314  0.00  0.00    -0.018 A 
ATOM     28  C   LIG d   1       9.325   4.735  -5.196  0.00  0.00    -0.054 A 
ATOM     29  C   LIG d   1       9.941   5.898  -4.786  0.00  0.00    -0.061 A 
ATOM     30  H   LIG d   1       8.931   4.655  -6.199  0.00  0.00     0.062 H 
ATOM     31  C   LIG d   1      10.446   6.002  -3.502  0.00  0.00    -0.062 A 
ATOM     32  H   LIG d   1      10.030   6.731  -5.469  0.00  0.00     0.062 H 
ATOM     33  C   LIG d   1      10.336   4.941  -2.622  0.00  0.00    -0.061 A 
ATOM     34  H   LIG d   1      10.931   6.914  -3.187  0.00  0.00     0.062 H 
ATOM     35  C   LIG d   1       9.721   3.771  -3.022  0.00  0.00    -0.054 A 
ATOM     36  H   LIG d   1      10.732   5.026  -1.621  0.00  0.00     0.062 H 
ATOM     37  H   LIG d   1       9.636   2.943  -2.333  0.00  0.00     0.062 H 
ENDBRANCH   1  27
TORSDOF 4
ENDMDL
MODEL 7
REMARK VINA RESULT:      -6.3      6.489      9.169
REMARK  4 active torsions:
REMARK  status: ('A' for Active; 'I' for Inactive)
REMARK    1  A    between atoms: C_4  and  C_7 
REMARK    2  A    between atoms: C_10  and  C_13 
REMARK    3  A    between atoms: C_13  and  C_15 
REMARK    4  A    between atoms: C_15  and  N_16 
ROOT
ATOM      1  C   LIG d   1       6.046  -2.190  -3.776  0.00  0.00    -0.018 A 
ATOM      2  C   LIG d   1       5.533  -3.169  -4.628  0.00  0.00    -0.053 A 
ATOM      3  C   LIG d   1       6.349  -4.163  -5.103  0.00  0.00    -0.051 A 
ATOM      4  C   LIG d   1       7.699  -4.196  -4.729  0.00  0.00     0.024 A 
ATOM      5  C   LIG d   1       8.210  -3.213  -3.874  0.00  0.00    -0.051 A 
ATOM      6  C   LIG d   1       7.391  -2.218  -3.407  0.00  0.00    -0.053 A 
ATOM      7  H   LIG d   1       4.492  -3.143  -4.915  0.00  0.00     0.062 H 
ATOM      8  H   LIG d   1       5.952  -4.921  -5.762  0.00  0.00     0.062 H 
ATOM      9  H   LIG d   1       9.251  -3.237  -3.584  0.00  0.00     0.062 H 
ATOM     10  H   LIG d   1       7.787  -1.457  -2.750  0.00  0.00     0.062 H 
ENDROOT
BRANCH   4  11
ATOM     11  C   LIG d   1       8.576  -5.261  -5.236  0.00  0.00     0.228 C 
ATOM     12  O   LIG d   1       9.413  -5.009  -6.076  0.00  0.00    -0.285 OA
BRANCH  11  13
ATOM     13  C   LIG d   1       8.434  -6.667  -4.711  0.00  0.00     0.212 C 
ATOM     14  H   LIG d   1       7.473  -6.771  -4.206  0.00  0.00     0.112 H 
ATOM     15  H   LIG d   1       8.486  -7.372  -5.541  0.00  0.00     0.112 H 
BRANCH  13  16
ATOM     16  N   LIG d   1       9.516  -6.946  -3.765  0.00  0.00    -0.196 N 
ATOM     17  C   LIG d   1       9.418  -6.504  -2.527  0.00  0.00     0.172 A 
ATOM     18  C   LIG d   1      10.417  -6.753  -1.605  0.00  0.00     0.002 A 
ATOM     19  H   LIG d   1       8.544  -5.945  -2.228  0.00  0.00     0.138 H 
ATOM     20  C   LIG d   1      11.537  -7.467  -2.000  0.00  0.00    -0.051 A 
ATOM     21  H   LIG d   1      10.329  -6.392  -0.591  0.00  0.00     0.068 H 
ATOM     22  C   LIG d   1      11.608  -7.912  -3.312  0.00  0.00     0.002 A 
ATOM     23  H   LIG d   1      12.336  -7.674  -1.303  0.00  0.00     0.062 H 
ATOM     24  C   LIG d   1      10.568  -7.630  -4.176  0.00  0.00     0.172 A 
ATOM     25  H   LIG d   1      12.466  -8.473  -3.654  0.00  0.00     0.068 H 
ATOM     26  H   LIG d   1      10.615  -7.973  -5.198  0.00  0.00     0.138 H 
ENDBRANCH  13  16
ENDBRANCH  11  13
ENDBRANCH   4  11
BRANCH   1  27
ATOM     27  C   LIG d   1       5.160  -1.116  -3.265  0.00  0.00    -0.018 A 
ATOM     28  C   LIG d   1       5.705   0.083  -2.808  0.00  0.00    -0.054 A 
ATOM     29  C   LIG d   1       4.876   1.078  -2.334  0.00  0.00    -0.061 A 
ATOM     30  H   LIG d   1       6.774   0.232  -2.825  0.00  0.00     0.062 H 
ATOM     31  C   LIG d   1       3.505   0.888  -2.311  0.00  0.00    -0.062 A 
ATOM     32  H   LIG d   1       5.297   2.007  -1.980  0.00  0.00     0.062 H 
ATOM     33  C   LIG d   1       2.959  -0.299  -2.763  0.00  0.00    -0.061 A 
ATOM     34  H   LIG d   1       2.860   1.668  -1.935  0.00  0.00     0.062 H 
ATOM     35  C   LIG d   1       3.779  -1.302  -3.240  0.00  0.00    -0.054 A 
ATOM     36  H   LIG d   1       1.889  -0.443  -2.743  0.00  0.00     0.062 H 
ATOM     37  H   LIG d   1       3.350  -2.229  -3.592  0.00  0.00     0.062 H 
ENDBRANCH   1  27
TORSDOF 4
ENDMDL
MODEL 8
REMARK VINA RESULT:      -6.1      6.845      9.498
REMARK  4 active torsions:
REMARK  status: ('A' for Active; 'I' for Inactive)
REMARK    1  A    between atoms: C_4  and  C_7 
REMARK    2  A    between atoms: C_10  and  C_13 
REMARK    3  A    between atoms: C_13  and  C_15 
REMARK    4  A    between atoms: C_15  and  N_16 
ROOT
ATOM      1  C   LIG d   1       7.306   1.039  -4.252  0.00  0.00    -0.018 A 
ATOM      2  C   LIG d   1       8.073   2.095  -3.758  0.00  0.00    -0.053 A 
ATOM      3  C   LIG d   1       9.049   2.659  -4.539  0.00  0.00    -0.051 A 
ATOM      4  C   LIG d   1       9.273   2.177  -5.834  0.00  0.00     0.024 A 
ATOM      5  C   LIG d   1       8.501   1.117  -6.327  0.00  0.00    -0.051 A 
ATOM      6  C   LIG d   1       7.532   0.553  -5.540  0.00  0.00    -0.053 A 
ATOM      7  H   LIG d   1       7.899   2.468  -2.759  0.00  0.00     0.062 H 
ATOM      8  H   LIG d   1       9.642   3.477  -4.157  0.00  0.00     0.062 H 
ATOM      9  H   LIG d   1       8.673   0.744  -7.326  0.00  0.00     0.062 H 
ATOM     10  H   LIG d   1       6.938  -0.267  -5.919  0.00  0.00     0.062 H 
ENDROOT
BRANCH   4  11
ATOM     11  C   LIG d   1      10.318   2.781  -6.673  0.00  0.00     0.228 C 
ATOM     12  O   LIG d   1      11.367   3.130  -6.177  0.00  0.00    -0.285 OA
BRANCH  11  13
ATOM     13  C   LIG d   1      10.084   2.965  -8.151  0.00  0.00     0.212 C 
ATOM     14  H   LIG d   1      11.001   2.739  -8.695  0.00  0.00     0.112 H 
ATOM     15  H   LIG d   1       9.291   2.292  -8.480  0.00  0.00     0.112 H 
BRANCH  13  16
ATOM     16  N   LIG d   1       9.689   4.350  -8.413  0.00  0.00    -0.196 N 
ATOM     17  C   LIG d   1       8.898   4.610  -9.436  0.00  0.00     0.172 A 
ATOM     18  C   LIG d   1       8.500   5.904  -9.712  0.00  0.00     0.002 A 
ATOM     19  H   LIG d   1       8.553   3.801 -10.063  0.00  0.00     0.138 H 
ATOM     20  C   LIG d   1       8.951   6.936  -8.904  0.00  0.00    -0.051 A 
ATOM     21  H   LIG d   1       7.849   6.110 -10.548  0.00  0.00     0.068 H 
ATOM     22  C   LIG d   1       9.785   6.626  -7.840  0.00  0.00     0.002 A 
ATOM     23  H   LIG d   1       8.660   7.958  -9.097  0.00  0.00     0.062 H 
ATOM     24  C   LIG d   1      10.137   5.307  -7.623  0.00  0.00     0.172 A 
ATOM     25  H   LIG d   1      10.156   7.405  -7.190  0.00  0.00     0.068 H 
ATOM     26  H   LIG d   1      10.786   5.057  -6.798  0.00  0.00     0.138 H 
ENDBRANCH  13  16
ENDBRANCH  11  13
ENDBRANCH   4  11
BRANCH   1  27
ATOM     27  C   LIG d   1       6.252   0.431  -3.405  0.00  0.00    -0.018 A 
ATOM     28  C   LIG d   1       6.086  -0.953  -3.379  0.00  0.00    -0.054 A 
ATOM     29  C   LIG d   1       5.104  -1.513  -2.589  0.00  0.00    -0.061 A 
ATOM     30  H   LIG d   1       6.726  -1.585  -3.977  0.00  0.00     0.062 H 
ATOM     31  C   LIG d   1       4.283  -0.704  -1.823  0.00  0.00    -0.062 A 
ATOM     32  H   LIG d   1       4.975  -2.585  -2.569  0.00  0.00     0.062 H 
ATOM     33  C   LIG d   1       4.443   0.670  -1.844  0.00  0.00    -0.061 A 
ATOM     34  H   LIG d   1       3.513  -1.146  -1.210  0.00  0.00     0.062 H 
ATOM     35  C   LIG d   1       5.423   1.241  -2.631  0.00  0.00    -0.054 A 
ATOM     36  H   LIG d   1       3.800   1.297  -1.244  0.00  0.00     0.062 H 
ATOM     37  H   LIG d   1       5.546   2.314  -2.647  0.00  0.00     0.062 H 
ENDBRANCH   1  27
TORSDOF 4
ENDMDL
MODEL 9
REMARK VINA RESULT:      -6.0      5.603      6.725
REMARK  4 active torsions:
REMARK  status: ('A' for Active; 'I' for Inactive)
REMARK    1  A    between atoms: C_4  and  C_7 
REMARK    2  A    between atoms: C_10  and  C_13 
REMARK    3  A    between atoms: C_13  and  C_15 
REMARK    4  A    between atoms: C_15  and  N_16 
ROOT
ATOM      1  C   LIG d   1       5.604  -6.158  -5.622  0.00  0.00    -0.018 A 
ATOM      2  C   LIG d   1       6.950  -5.795  -5.544  0.00  0.00    -0.053 A 
ATOM      3  C   LIG d   1       7.297  -4.518  -5.189  0.00  0.00    -0.051 A 
ATOM      4  C   LIG d   1       6.301  -3.578  -4.901  0.00  0.00     0.024 A 
ATOM      5  C   LIG d   1       4.952  -3.944  -4.980  0.00  0.00    -0.051 A 
ATOM      6  C   LIG d   1       4.610  -5.220  -5.341  0.00  0.00    -0.053 A 
ATOM      7  H   LIG d   1       7.718  -6.522  -5.766  0.00  0.00     0.062 H 
ATOM      8  H   LIG d   1       8.339  -4.238  -5.128  0.00  0.00     0.062 H 
ATOM      9  H   LIG d   1       4.182  -3.219  -4.758  0.00  0.00     0.062 H 
ATOM     10  H   LIG d   1       3.568  -5.502  -5.406  0.00  0.00     0.062 H 
ENDROOT
BRANCH   4  11
ATOM     11  C   LIG d   1       6.672  -2.207  -4.518  0.00  0.00     0.228 C 
ATOM     12  O   LIG d   1       7.556  -2.022  -3.709  0.00  0.00    -0.285 OA
BRANCH  11  13
ATOM     13  C   LIG d   1       5.953  -1.033  -5.131  0.00  0.00     0.212 C 
ATOM     14  H   LIG d   1       6.681  -0.335  -5.542  0.00  0.00     0.112 H 
ATOM     15  H   LIG d   1       5.298  -1.385  -5.929  0.00  0.00     0.112 H 
BRANCH  13  16
ATOM     16  N   LIG d   1       5.154  -0.360  -4.106  0.00  0.00    -0.196 N 
ATOM     17  C   LIG d   1       3.871  -0.646  -4.000  0.00  0.00     0.172 A 
ATOM     18  C   LIG d   1       3.086  -0.035  -3.041  0.00  0.00     0.002 A 
ATOM     19  H   LIG d   1       3.429  -1.370  -4.668  0.00  0.00     0.138 H 
ATOM     20  C   LIG d   1       3.662   0.897  -2.192  0.00  0.00    -0.051 A 
ATOM     21  H   LIG d   1       2.037  -0.276  -2.957  0.00  0.00     0.068 H 
ATOM     22  C   LIG d   1       5.013   1.176  -2.335  0.00  0.00     0.002 A 
ATOM     23  H   LIG d   1       3.073   1.394  -1.435  0.00  0.00     0.062 H 
ATOM     24  C   LIG d   1       5.735   0.521  -3.314  0.00  0.00     0.172 A 
ATOM     25  H   LIG d   1       5.495   1.896  -1.690  0.00  0.00     0.068 H 
ATOM     26  H   LIG d   1       6.787   0.732  -3.433  0.00  0.00     0.138 H 
ENDBRANCH  13  16
ENDBRANCH  11  13
ENDBRANCH   4  11
BRANCH   1  27
ATOM     27  C   LIG d   1       5.231  -7.540  -6.008  0.00  0.00    -0.018 A 
ATOM     28  C   LIG d   1       5.024  -7.861  -7.349  0.00  0.00    -0.054 A 
ATOM     29  C   LIG d   1       4.677  -9.148  -7.701  0.00  0.00    -0.061 A 
ATOM     30  H   LIG d   1       5.135  -7.103  -8.110  0.00  0.00     0.062 H 
ATOM     31  C   LIG d   1       4.534 -10.121  -6.728  0.00  0.00    -0.062 A 
ATOM     32  H   LIG d   1       4.516  -9.398  -8.740  0.00  0.00     0.062 H 
ATOM     33  C   LIG d   1       4.739  -9.809  -5.396  0.00  0.00    -0.061 A 
ATOM     34  H   LIG d   1       4.259 -11.127  -7.008  0.00  0.00     0.062 H 
ATOM     35  C   LIG d   1       5.086  -8.524  -5.031  0.00  0.00    -0.054 A 
ATOM     36  H   LIG d   1       4.627 -10.572  -4.640  0.00  0.00     0.062 H 
ATOM     37  H   LIG d   1       5.246  -8.282  -3.991  0.00  0.00     0.062 H 
ENDBRANCH   1  27
TORSDOF 4
ENDMDL
MODEL 10
REMARK VINA RESULT:      -5.9      6.478      8.875
REMARK  4 active torsions:
REMARK  status: ('A' for Active; 'I' for Inactive)
REMARK    1  A    between atoms: C_4  and  C_7 
REMARK    2  A    between atoms: C_10  and  C_13 
REMARK    3  A    between atoms: C_13  and  C_15 
REMARK    4  A    between atoms: C_15  and  N_16 
ROOT
ATOM      1  C   LIG d   1       9.256   3.562  -5.267  0.00  0.00    -0.018 A 
ATOM      2  C   LIG d   1       8.932   3.123  -3.982  0.00  0.00    -0.053 A 
ATOM      3  C   LIG d   1       8.280   1.930  -3.808  0.00  0.00    -0.051 A 
ATOM      4  C   LIG d   1       7.941   1.151  -4.921  0.00  0.00     0.024 A 
ATOM      5  C   LIG d   1       8.266   1.593  -6.209  0.00  0.00    -0.051 A 
ATOM      6  C   LIG d   1       8.913   2.790  -6.377  0.00  0.00    -0.053 A 
ATOM      7  H   LIG d   1       9.195   3.725  -3.125  0.00  0.00     0.062 H 
ATOM      8  H   LIG d   1       8.030   1.591  -2.814  0.00  0.00     0.062 H 
ATOM      9  H   LIG d   1       8.005   0.993  -7.068  0.00  0.00     0.062 H 
ATOM     10  H   LIG d   1       9.161   3.133  -7.372  0.00  0.00     0.062 H 
ENDROOT
BRANCH   4  11
ATOM     11  C   LIG d   1       7.242  -0.129  -4.736  0.00  0.00     0.228 C 
ATOM     12  O   LIG d   1       6.874  -0.765  -5.701  0.00  0.00    -0.285 OA
BRANCH  11  13
ATOM     13  C   LIG d   1       6.983  -0.652  -3.346  0.00  0.00     0.212 C 
ATOM     14  H   LIG d   1       7.374  -1.666  -3.260  0.00  0.00     0.112 H 
ATOM     15  H   LIG d   1       7.478  -0.009  -2.618  0.00  0.00     0.112 H 
BRANCH  13  16
ATOM     16  N   LIG d   1       5.541  -0.661  -3.089  0.00  0.00    -0.196 N 
ATOM     17  C   LIG d   1       4.920  -1.816  -2.949  0.00  0.00     0.172 A 
ATOM     18  C   LIG d   1       3.562  -1.863  -2.701  0.00  0.00     0.002 A 
ATOM     19  H   LIG d   1       5.481  -2.736  -3.026  0.00  0.00     0.138 H 
ATOM     20  C   LIG d   1       2.851  -0.677  -2.609  0.00  0.00    -0.051 A 
ATOM     21  H   LIG d   1       3.060  -2.813  -2.584  0.00  0.00     0.068 H 
ATOM     22  C   LIG d   1       3.536   0.518  -2.766  0.00  0.00     0.002 A 
ATOM     23  H   LIG d   1       1.787  -0.684  -2.419  0.00  0.00     0.062 H 
ATOM     24  C   LIG d   1       4.896   0.487  -3.007  0.00  0.00     0.172 A 
ATOM     25  H   LIG d   1       3.013   1.461  -2.700  0.00  0.00     0.068 H 
ATOM     26  H   LIG d   1       5.437   1.413  -3.130  0.00  0.00     0.138 H 
ENDBRANCH  13  16
ENDBRANCH  11  13
ENDBRANCH   4  11
BRANCH   1  27
ATOM     27  C   LIG d   1       9.960   4.853  -5.452  0.00  0.00    -0.018 A 
ATOM     28  C   LIG d   1      10.068   5.417  -6.723  0.00  0.00    -0.054 A 
ATOM     29  C   LIG d   1      10.725   6.618  -6.889  0.00  0.00    -0.061 A 
ATOM     30  H   LIG d   1       9.637   4.913  -7.576  0.00  0.00     0.062 H 
ATOM     31  C   LIG d   1      11.278   7.264  -5.797  0.00  0.00    -0.062 A 
ATOM     32  H   LIG d   1      10.808   7.056  -7.873  0.00  0.00     0.062 H 
ATOM     33  C   LIG d   1      11.175   6.710  -4.534  0.00  0.00    -0.061 A 
ATOM     34  H   LIG d   1      11.795   8.202  -5.933  0.00  0.00     0.062 H 
ATOM     35  C   LIG d   1      10.520   5.508  -4.356  0.00  0.00    -0.054 A 
ATOM     36  H   LIG d   1      11.608   7.218  -3.686  0.00  0.00     0.062 H 
ATOM     37  H   LIG d   1      10.440   5.077  -3.369  0.00  0.00     0.062 H 
ENDBRANCH   1  27
TORSDOF 4
ENDMDL
