MODEL 1
REMARK VINA RESULT:      -6.5      0.000      0.000
REMARK  17 active torsions:
REMARK  status: ('A' for Active; 'I' for Inactive)
REMARK    1  A    between atoms: C_1  and  O_2 
REMARK    2  A    between atoms: O_2  and  C_3 
REMARK    3  A    between atoms: C_5  and  C_26 
REMARK    4  A    between atoms: C_8  and  O_9 
REMARK    5  A    between atoms: O_9  and  C_10 
REMARK    6  A    between atoms: C_12  and  O_25 
REMARK    7  A    between atoms: C_14  and  O_24 
REMARK    8  A    between atoms: C_16  and  O_23 
REMARK    9  A    between atoms: C_18  and  C_21 
REMARK   10  A    between atoms: C_21  and  O_22 
REMARK   11  A    between atoms: C_28  and  C_43 
REMARK   12  A    between atoms: C_32  and  C_39 
REMARK   13  A    between atoms: C_34  and  O_37 
REMARK   14  A    between atoms: O_37  and  C_38 
REMARK   15  A    between atoms: C_40  and  C_41 
REMARK   16  A    between atoms: C_41  and  O_42 
REMARK   17  A    between atoms: C_43  and  O_44 
ROOT
ATOM      1  C   LIG d   1       9.616   4.767  -4.197  0.00  0.00     0.162 A 
ATOM      2  C   LIG d   1       9.123   3.688  -4.913  0.00  0.00    -0.010 A 
ATOM      3  C   LIG d   1       9.462   2.400  -4.544  0.00  0.00    -0.003 A 
ATOM      4  C   LIG d   1      10.293   2.184  -3.460  0.00  0.00    -0.051 A 
ATOM      5  C   LIG d   1      10.789   3.256  -2.741  0.00  0.00    -0.016 A 
ATOM      6  C   LIG d   1      10.458   4.550  -3.110  0.00  0.00     0.165 A 
ATOM      7  H   LIG d   1       8.472   3.853  -5.759  0.00  0.00     0.066 H 
ATOM      8  H   LIG d   1      10.555   1.176  -3.174  0.00  0.00     0.062 H 
ATOM      9  H   LIG d   1      11.437   3.085  -1.895  0.00  0.00     0.066 H 
ENDROOT
BRANCH   3  10
ATOM     10  C   LIG d   1       8.924   1.228  -5.323  0.00  0.00     0.134 C 
ATOM     11  H   LIG d   1       8.997   1.413  -6.395  0.00  0.00     0.079 H 
ATOM     12  O   LIG d   1       9.616   0.019  -4.967  0.00  0.00    -0.480 OA
ATOM     13  C   LIG d   1       8.744  -1.030  -5.028  0.00  0.00     0.167 A 
ATOM     14  C   LIG d   1       7.427  -0.592  -4.990  0.00  0.00     0.008 A 
ATOM     15  C   LIG d   1       9.002  -2.401  -5.110  0.00  0.00     0.162 A 
ATOM     16  C   LIG d   1       7.463   0.923  -4.917  0.00  0.00     0.052 C 
ATOM     17  C   LIG d   1       6.383  -1.487  -5.021  0.00  0.00    -0.047 A 
ATOM     18  H   LIG d   1       6.762   1.364  -5.625  0.00  0.00     0.041 H 
ATOM     19  C   LIG d   1       6.640  -2.857  -5.099  0.00  0.00    -0.021 A 
ATOM     20  H   LIG d   1       5.364  -1.130  -4.986  0.00  0.00     0.063 H 
ATOM     21  C   LIG d   1       7.961  -3.306  -5.146  0.00  0.00    -0.009 A 
ATOM     22  H   LIG d   1       8.168  -4.365  -5.209  0.00  0.00     0.066 H 
BRANCH  16  23
ATOM     23  C   LIG d   1       7.179   1.409  -3.494  0.00  0.00     0.055 C 
ATOM     24  H   LIG d   1       7.571   0.687  -2.778  0.00  0.00     0.056 H 
ATOM     25  H   LIG d   1       7.658   2.375  -3.338  0.00  0.00     0.056 H 
BRANCH  23  26
ATOM     26  O   LIG d   1       5.768   1.542  -3.310  0.00  0.00    -0.394 OA
ATOM     27  H   LIG d   1       5.278   1.706  -4.128  0.00  0.00     0.209 HD
ENDBRANCH  23  26
ENDBRANCH  16  23
BRANCH  19  28
ATOM     28  C   LIG d   1       5.523  -3.824  -5.133  0.00  0.00    -0.056 C 
ATOM     29  C   LIG d   1       5.530  -4.815  -6.014  0.00  0.00    -0.058 C 
ATOM     30  H   LIG d   1       6.353  -4.916  -6.707  0.00  0.00     0.059 H 
ATOM     31  H   LIG d   1       4.701  -3.724  -4.441  0.00  0.00     0.062 H 
BRANCH  29  32
ATOM     32  C   LIG d   1       4.391  -5.801  -6.049  0.00  0.00     0.063 C 
ATOM     33  H   LIG d   1       4.553  -6.514  -6.857  0.00  0.00     0.060 H 
ATOM     34  H   LIG d   1       4.344  -6.334  -5.099  0.00  0.00     0.060 H 
BRANCH  32  35
ATOM     35  O   LIG d   1       3.164  -5.104  -6.266  0.00  0.00    -0.391 OA
ATOM     36  H   LIG d   1       2.600  -5.502  -6.944  0.00  0.00     0.210 HD
ENDBRANCH  32  35
ENDBRANCH  29  32
ENDBRANCH  19  28
BRANCH  15  37
ATOM     37  O   LIG d   1      10.287  -2.846  -5.154  0.00  0.00    -0.491 OA
BRANCH  37  38
ATOM     38  C   LIG d   1      10.801  -3.464  -3.972  0.00  0.00     0.079 C 
ATOM     39  H   LIG d   1      10.914  -2.714  -3.190  0.00  0.00     0.066 H 
ATOM     40  H   LIG d   1      10.110  -4.238  -3.637  0.00  0.00     0.066 H 
ATOM     41  H   LIG d   1      11.771  -3.912  -4.189  0.00  0.00     0.066 H 
ENDBRANCH  37  38
ENDBRANCH  15  37
ENDBRANCH   3  10
BRANCH   1  42
ATOM     42  O   LIG d   1       9.284   6.034  -4.559  0.00  0.00    -0.491 OA
BRANCH  42  43
ATOM     43  C   LIG d   1       9.777   6.501  -5.817  0.00  0.00     0.079 C 
ATOM     44  H   LIG d   1       9.027   6.330  -6.587  0.00  0.00     0.066 H 
ATOM     45  H   LIG d   1       9.992   7.567  -5.749  0.00  0.00     0.066 H 
ATOM     46  H   LIG d   1      10.689   5.961  -6.071  0.00  0.00     0.066 H 
ENDBRANCH  42  43
ENDBRANCH   1  42
BRANCH   6  47
ATOM     47  O   LIG d   1      10.949   5.606  -2.408  0.00  0.00    -0.457 OA
BRANCH  47  48
ATOM     48  C   LIG d   1      10.657   5.647  -1.009  0.00  0.00     0.231 C 
ATOM     49  H   LIG d   1      10.238   4.690  -0.697  0.00  0.00     0.108 H 
ATOM     50  O   LIG d   1       9.714   6.688  -0.749  0.00  0.00    -0.331 OA
ATOM     51  C   LIG d   1      10.155   7.988  -1.147  0.00  0.00     0.114 C 
ATOM     52  C   LIG d   1      11.422   8.355  -0.371  0.00  0.00     0.112 C 
ATOM     53  H   LIG d   1      10.371   7.988  -2.215  0.00  0.00     0.065 H 
ATOM     54  C   LIG d   1      12.494   7.292  -0.627  0.00  0.00     0.115 C 
ATOM     55  H   LIG d   1      11.785   9.327  -0.704  0.00  0.00     0.065 H 
ATOM     56  C   LIG d   1      11.945   5.920  -0.227  0.00  0.00     0.145 C 
ATOM     57  H   LIG d   1      12.756   7.286  -1.685  0.00  0.00     0.065 H 
ATOM     58  H   LIG d   1      12.681   5.150  -0.457  0.00  0.00     0.068 H 
BRANCH  51  59
ATOM     59  C   LIG d   1       9.059   9.013  -0.849  0.00  0.00     0.073 C 
ATOM     60  H   LIG d   1       9.232   9.455   0.132  0.00  0.00     0.058 H 
ATOM     61  H   LIG d   1       9.076   9.795  -1.608  0.00  0.00     0.058 H 
BRANCH  59  62
ATOM     62  O   LIG d   1       7.785   8.365  -0.861  0.00  0.00    -0.392 OA
ATOM     63  H   LIG d   1       7.719   7.616  -0.252  0.00  0.00     0.209 HD
ENDBRANCH  59  62
ENDBRANCH  51  59
BRANCH  52  64
ATOM     64  O   LIG d   1      11.128   8.409   1.027  0.00  0.00    -0.387 OA
ATOM     65  H   LIG d   1      11.236   9.286   1.418  0.00  0.00     0.210 HD
ENDBRANCH  52  64
BRANCH  54  66
ATOM     66  O   LIG d   1      13.658   7.586   0.150  0.00  0.00    -0.386 OA
ATOM     67  H   LIG d   1      13.538   7.456   1.101  0.00  0.00     0.210 HD
ENDBRANCH  54  66
BRANCH  56  68
ATOM     68  O   LIG d   1      11.663   5.907   1.174  0.00  0.00    -0.383 OA
ATOM     69  H   LIG d   1      10.844   5.449   1.407  0.00  0.00     0.210 HD
ENDBRANCH  56  68
ENDBRANCH  47  48
ENDBRANCH   6  47
TORSDOF 17
ENDMDL
MODEL 2
REMARK VINA RESULT:      -6.4      3.140      6.006
REMARK  17 active torsions:
REMARK  status: ('A' for Active; 'I' for Inactive)
REMARK    1  A    between atoms: C_1  and  O_2 
REMARK    2  A    between atoms: O_2  and  C_3 
REMARK    3  A    between atoms: C_5  and  C_26 
REMARK    4  A    between atoms: C_8  and  O_9 
REMARK    5  A    between atoms: O_9  and  C_10 
REMARK    6  A    between atoms: C_12  and  O_25 
REMARK    7  A    between atoms: C_14  and  O_24 
REMARK    8  A    between atoms: C_16  and  O_23 
REMARK    9  A    between atoms: C_18  and  C_21 
REMARK   10  A    between atoms: C_21  and  O_22 
REMARK   11  A    between atoms: C_28  and  C_43 
REMARK   12  A    between atoms: C_32  and  C_39 
REMARK   13  A    between atoms: C_34  and  O_37 
REMARK   14  A    between atoms: O_37  and  C_38 
REMARK   15  A    between atoms: C_40  and  C_41 
REMARK   16  A    between atoms: C_41  and  O_42 
REMARK   17  A    between atoms: C_43  and  O_44 
ROOT
ATOM      1  C   LIG d   1       9.362   5.244  -5.299  0.00  0.00     0.162 A 
ATOM      2  C   LIG d   1       9.012   4.079  -4.636  0.00  0.00    -0.010 A 
ATOM      3  C   LIG d   1       9.203   2.853  -5.245  0.00  0.00    -0.003 A 
ATOM      4  C   LIG d   1       9.742   2.786  -6.517  0.00  0.00    -0.051 A 
ATOM      5  C   LIG d   1      10.093   3.945  -7.184  0.00  0.00    -0.016 A 
ATOM      6  C   LIG d   1       9.899   5.177  -6.581  0.00  0.00     0.165 A 
ATOM      7  H   LIG d   1       8.592   4.128  -3.642  0.00  0.00     0.066 H 
ATOM      8  H   LIG d   1       9.890   1.826  -6.990  0.00  0.00     0.062 H 
ATOM      9  H   LIG d   1      10.514   3.890  -8.176  0.00  0.00     0.066 H 
ENDROOT
BRANCH   3  10
ATOM     10  C   LIG d   1       8.822   1.587  -4.523  0.00  0.00     0.134 C 
ATOM     11  H   LIG d   1       9.621   1.272  -3.852  0.00  0.00     0.079 H 
ATOM     12  O   LIG d   1       7.591   1.761  -3.802  0.00  0.00    -0.480 OA
ATOM     13  C   LIG d   1       6.896   0.586  -3.813  0.00  0.00     0.167 A 
ATOM     14  C   LIG d   1       7.344  -0.255  -4.823  0.00  0.00     0.008 A 
ATOM     15  C   LIG d   1       5.851   0.160  -2.988  0.00  0.00     0.162 A 
ATOM     16  C   LIG d   1       8.478   0.463  -5.530  0.00  0.00     0.052 C 
ATOM     17  C   LIG d   1       6.768  -1.488  -5.025  0.00  0.00    -0.047 A 
ATOM     18  H   LIG d   1       9.329  -0.201  -5.678  0.00  0.00     0.041 H 
ATOM     19  C   LIG d   1       5.722  -1.912  -4.203  0.00  0.00    -0.021 A 
ATOM     20  H   LIG d   1       7.126  -2.128  -5.818  0.00  0.00     0.063 H 
ATOM     21  C   LIG d   1       5.270  -1.077  -3.180  0.00  0.00    -0.009 A 
ATOM     22  H   LIG d   1       4.462  -1.399  -2.539  0.00  0.00     0.066 H 
BRANCH  16  23
ATOM     23  C   LIG d   1       8.007   1.050  -6.862  0.00  0.00     0.055 C 
ATOM     24  H   LIG d   1       8.424   2.049  -6.987  0.00  0.00     0.056 H 
ATOM     25  H   LIG d   1       8.340   0.411  -7.680  0.00  0.00     0.056 H 
BRANCH  23  26
ATOM     26  O   LIG d   1       6.579   1.127  -6.870  0.00  0.00    -0.394 OA
ATOM     27  H   LIG d   1       6.226   1.919  -6.442  0.00  0.00     0.209 HD
ENDBRANCH  23  26
ENDBRANCH  16  23
BRANCH  19  28
ATOM     28  C   LIG d   1       5.099  -3.235  -4.415  0.00  0.00    -0.056 C 
ATOM     29  C   LIG d   1       5.212  -3.841  -5.590  0.00  0.00    -0.058 C 
ATOM     30  H   LIG d   1       5.760  -3.366  -6.391  0.00  0.00     0.059 H 
ATOM     31  H   LIG d   1       4.552  -3.709  -3.615  0.00  0.00     0.062 H 
BRANCH  29  32
ATOM     32  C   LIG d   1       4.577  -5.190  -5.807  0.00  0.00     0.063 C 
ATOM     33  H   LIG d   1       5.117  -5.723  -6.589  0.00  0.00     0.060 H 
ATOM     34  H   LIG d   1       4.620  -5.764  -4.881  0.00  0.00     0.060 H 
BRANCH  32  35
ATOM     35  O   LIG d   1       3.215  -5.018  -6.199  0.00  0.00    -0.391 OA
ATOM     36  H   LIG d   1       3.042  -5.230  -7.127  0.00  0.00     0.210 HD
ENDBRANCH  32  35
ENDBRANCH  29  32
ENDBRANCH  19  28
BRANCH  15  37
ATOM     37  O   LIG d   1       5.404   0.969  -1.990  0.00  0.00    -0.491 OA
BRANCH  37  38
ATOM     38  C   LIG d   1       4.018   1.319  -2.009  0.00  0.00     0.079 C 
ATOM     39  H   LIG d   1       3.560   0.936  -2.921  0.00  0.00     0.066 H 
ATOM     40  H   LIG d   1       3.522   0.886  -1.142  0.00  0.00     0.066 H 
ATOM     41  H   LIG d   1       3.918   2.404  -1.981  0.00  0.00     0.066 H 
ENDBRANCH  37  38
ENDBRANCH  15  37
ENDBRANCH   3  10
BRANCH   1  42
ATOM     42  O   LIG d   1       9.174   6.451  -4.701  0.00  0.00    -0.491 OA
BRANCH  42  43
ATOM     43  C   LIG d   1       9.564   6.563  -3.330  0.00  0.00     0.079 C 
ATOM     44  H   LIG d   1       9.301   7.553  -2.958  0.00  0.00     0.066 H 
ATOM     45  H   LIG d   1       9.047   5.805  -2.742  0.00  0.00     0.066 H 
ATOM     46  H   LIG d   1      10.641   6.417  -3.246  0.00  0.00     0.066 H 
ENDBRANCH  42  43
ENDBRANCH   1  42
BRANCH   6  47
ATOM     47  O   LIG d   1      10.237   6.319  -7.238  0.00  0.00    -0.457 OA
BRANCH  47  48
ATOM     48  C   LIG d   1       9.184   7.025  -7.897  0.00  0.00     0.231 C 
ATOM     49  H   LIG d   1       8.259   6.909  -7.331  0.00  0.00     0.108 H 
ATOM     50  O   LIG d   1       9.007   6.496  -9.214  0.00  0.00    -0.331 OA
ATOM     51  C   LIG d   1      10.173   6.574 -10.036  0.00  0.00     0.114 C 
ATOM     52  C   LIG d   1      10.573   8.041 -10.213  0.00  0.00     0.112 C 
ATOM     53  H   LIG d   1      10.989   6.030  -9.561  0.00  0.00     0.065 H 
ATOM     54  C   LIG d   1      10.811   8.668  -8.837  0.00  0.00     0.115 C 
ATOM     55  H   LIG d   1      11.487   8.100 -10.804  0.00  0.00     0.065 H 
ATOM     56  C   LIG d   1       9.544   8.510  -7.990  0.00  0.00     0.145 C 
ATOM     57  H   LIG d   1      11.644   8.164  -8.346  0.00  0.00     0.065 H 
ATOM     58  H   LIG d   1       9.722   8.904  -6.990  0.00  0.00     0.068 H 
BRANCH  51  59
ATOM     59  C   LIG d   1       9.875   5.956 -11.403  0.00  0.00     0.073 C 
ATOM     60  H   LIG d   1      10.533   6.397 -12.152  0.00  0.00     0.058 H 
ATOM     61  H   LIG d   1      10.043   4.880 -11.361  0.00  0.00     0.058 H 
BRANCH  59  62
ATOM     62  O   LIG d   1       8.514   6.212 -11.755  0.00  0.00    -0.392 OA
ATOM     63  H   LIG d   1       8.398   6.959 -12.359  0.00  0.00     0.209 HD
ENDBRANCH  59  62
ENDBRANCH  51  59
BRANCH  52  64
ATOM     64  O   LIG d   1       9.526   8.745 -10.884  0.00  0.00    -0.387 OA
ATOM     65  H   LIG d   1       9.410   9.657 -10.586  0.00  0.00     0.210 HD
ENDBRANCH  52  64
BRANCH  54  66
ATOM     66  O   LIG d   1      11.114  10.057  -8.987  0.00  0.00    -0.386 OA
ATOM     67  H   LIG d   1      10.859  10.424  -9.844  0.00  0.00     0.210 HD
ENDBRANCH  54  66
BRANCH  56  68
ATOM     68  O   LIG d   1       8.468   9.225  -8.600  0.00  0.00    -0.383 OA
ATOM     69  H   LIG d   1       8.720  10.089  -8.953  0.00  0.00     0.210 HD
ENDBRANCH  56  68
ENDBRANCH  47  48
ENDBRANCH   6  47
TORSDOF 17
ENDMDL
MODEL 3
REMARK VINA RESULT:      -6.2      2.473     10.100
REMARK  17 active torsions:
REMARK  status: ('A' for Active; 'I' for Inactive)
REMARK    1  A    between atoms: C_1  and  O_2 
REMARK    2  A    between atoms: O_2  and  C_3 
REMARK    3  A    between atoms: C_5  and  C_26 
REMARK    4  A    between atoms: C_8  and  O_9 
REMARK    5  A    between atoms: O_9  and  C_10 
REMARK    6  A    between atoms: C_12  and  O_25 
REMARK    7  A    between atoms: C_14  and  O_24 
REMARK    8  A    between atoms: C_16  and  O_23 
REMARK    9  A    between atoms: C_18  and  C_21 
REMARK   10  A    between atoms: C_21  and  O_22 
REMARK   11  A    between atoms: C_28  and  C_43 
REMARK   12  A    between atoms: C_32  and  C_39 
REMARK   13  A    between atoms: C_34  and  O_37 
REMARK   14  A    between atoms: O_37  and  C_38 
REMARK   15  A    between atoms: C_40  and  C_41 
REMARK   16  A    between atoms: C_41  and  O_42 
REMARK   17  A    between atoms: C_43  and  O_44 
ROOT
ATOM      1  C   LIG d   1       8.251   1.462  -6.107  0.00  0.00     0.162 A 
ATOM      2  C   LIG d   1       9.071   2.532  -5.790  0.00  0.00    -0.010 A 
ATOM      3  C   LIG d   1       9.207   2.933  -4.475  0.00  0.00    -0.003 A 
ATOM      4  C   LIG d   1       8.526   2.267  -3.472  0.00  0.00    -0.051 A 
ATOM      5  C   LIG d   1       7.706   1.198  -3.782  0.00  0.00    -0.016 A 
ATOM      6  C   LIG d   1       7.561   0.796  -5.099  0.00  0.00     0.165 A 
ATOM      7  H   LIG d   1       9.605   3.054  -6.571  0.00  0.00     0.066 H 
ATOM      8  H   LIG d   1       8.635   2.583  -2.445  0.00  0.00     0.062 H 
ATOM      9  H   LIG d   1       7.175   0.680  -2.997  0.00  0.00     0.066 H 
ENDROOT
BRANCH   3  10
ATOM     10  C   LIG d   1      10.099   4.097  -4.131  0.00  0.00     0.134 C 
ATOM     11  H   LIG d   1      10.069   4.851  -4.918  0.00  0.00     0.079 H 
ATOM     12  O   LIG d   1       9.728   4.668  -2.865  0.00  0.00    -0.480 OA
ATOM     13  C   LIG d   1      10.850   5.120  -2.232  0.00  0.00     0.167 A 
ATOM     14  C   LIG d   1      11.995   4.540  -2.762  0.00  0.00     0.008 A 
ATOM     15  C   LIG d   1      10.974   6.030  -1.178  0.00  0.00     0.162 A 
ATOM     16  C   LIG d   1      11.551   3.621  -3.884  0.00  0.00     0.052 C 
ATOM     17  C   LIG d   1      13.239   4.842  -2.257  0.00  0.00    -0.047 A 
ATOM     18  H   LIG d   1      12.165   3.766  -4.773  0.00  0.00     0.041 H 
ATOM     19  C   LIG d   1      13.363   5.748  -1.203  0.00  0.00    -0.021 A 
ATOM     20  H   LIG d   1      14.119   4.379  -2.677  0.00  0.00     0.063 H 
ATOM     21  C   LIG d   1      12.218   6.342  -0.668  0.00  0.00    -0.009 A 
ATOM     22  H   LIG d   1      12.306   7.046   0.146  0.00  0.00     0.066 H 
BRANCH  16  23
ATOM     23  C   LIG d   1      11.577   2.159  -3.436  0.00  0.00     0.055 C 
ATOM     24  H   LIG d   1      11.140   2.075  -2.442  0.00  0.00     0.056 H 
ATOM     25  H   LIG d   1      11.004   1.553  -4.138  0.00  0.00     0.056 H 
BRANCH  23  26
ATOM     26  O   LIG d   1      12.929   1.696  -3.402  0.00  0.00    -0.394 OA
ATOM     27  H   LIG d   1      13.519   2.161  -4.011  0.00  0.00     0.209 HD
ENDBRANCH  23  26
ENDBRANCH  16  23
BRANCH  19  28
ATOM     28  C   LIG d   1      14.696   6.077  -0.656  0.00  0.00    -0.056 C 
ATOM     29  C   LIG d   1      15.649   5.154  -0.633  0.00  0.00    -0.058 C 
ATOM     30  H   LIG d   1      15.450   4.163  -1.015  0.00  0.00     0.059 H 
ATOM     31  H   LIG d   1      14.895   7.067  -0.276  0.00  0.00     0.062 H 
BRANCH  29  32
ATOM     32  C   LIG d   1      17.009   5.488  -0.077  0.00  0.00     0.063 C 
ATOM     33  H   LIG d   1      17.756   5.399  -0.865  0.00  0.00     0.060 H 
ATOM     34  H   LIG d   1      17.004   6.509   0.305  0.00  0.00     0.060 H 
BRANCH  32  35
ATOM     35  O   LIG d   1      17.324   4.584   0.984  0.00  0.00    -0.391 OA
ATOM     36  H   LIG d   1      17.168   4.945   1.868  0.00  0.00     0.210 HD
ENDBRANCH  32  35
ENDBRANCH  29  32
ENDBRANCH  19  28
BRANCH  15  37
ATOM     37  O   LIG d   1       9.862   6.612  -0.652  0.00  0.00    -0.491 OA
BRANCH  37  38
ATOM     38  C   LIG d   1       9.423   7.832  -1.253  0.00  0.00     0.079 C 
ATOM     39  H   LIG d   1       9.341   7.697  -2.331  0.00  0.00     0.066 H 
ATOM     40  H   LIG d   1       8.450   8.108  -0.845  0.00  0.00     0.066 H 
ATOM     41  H   LIG d   1      10.143   8.622  -1.039  0.00  0.00     0.066 H 
ENDBRANCH  37  38
ENDBRANCH  15  37
ENDBRANCH   3  10
BRANCH   1  42
ATOM     42  O   LIG d   1       8.116   1.066  -7.402  0.00  0.00    -0.491 OA
BRANCH  42  43
ATOM     43  C   LIG d   1       7.658   2.047  -8.336  0.00  0.00     0.079 C 
ATOM     44  H   LIG d   1       6.613   2.279  -8.136  0.00  0.00     0.066 H 
ATOM     45  H   LIG d   1       8.257   2.952  -8.234  0.00  0.00     0.066 H 
ATOM     46  H   LIG d   1       7.757   1.657  -9.348  0.00  0.00     0.066 H 
ENDBRANCH  42  43
ENDBRANCH   1  42
BRANCH   6  47
ATOM     47  O   LIG d   1       6.750  -0.252  -5.407  0.00  0.00    -0.457 OA
BRANCH  47  48
ATOM     48  C   LIG d   1       5.357   0.029  -5.560  0.00  0.00     0.231 C 
ATOM     49  H   LIG d   1       5.229   0.872  -6.241  0.00  0.00     0.108 H 
ATOM     50  O   LIG d   1       4.792   0.354  -4.288  0.00  0.00    -0.331 OA
ATOM     51  C   LIG d   1       4.930  -0.678  -3.308  0.00  0.00     0.114 C 
ATOM     52  C   LIG d   1       4.204  -1.937  -3.790  0.00  0.00     0.112 C 
ATOM     53  H   LIG d   1       5.986  -0.902  -3.162  0.00  0.00     0.065 H 
ATOM     54  C   LIG d   1       4.781  -2.363  -5.143  0.00  0.00     0.115 C 
ATOM     55  H   LIG d   1       4.344  -2.738  -3.065  0.00  0.00     0.065 H 
ATOM     56  C   LIG d   1       4.648  -1.201  -6.133  0.00  0.00     0.145 C 
ATOM     57  H   LIG d   1       5.833  -2.624  -5.025  0.00  0.00     0.065 H 
ATOM     58  H   LIG d   1       5.105  -1.476  -7.082  0.00  0.00     0.068 H 
BRANCH  51  59
ATOM     59  C   LIG d   1       4.318  -0.211  -1.986  0.00  0.00     0.073 C 
ATOM     60  H   LIG d   1       3.804  -1.045  -1.508  0.00  0.00     0.058 H 
ATOM     61  H   LIG d   1       5.108   0.153  -1.329  0.00  0.00     0.058 H 
BRANCH  59  62
ATOM     62  O   LIG d   1       3.386   0.842  -2.238  0.00  0.00    -0.392 OA
ATOM     63  H   LIG d   1       2.651   0.875  -1.610  0.00  0.00     0.209 HD
ENDBRANCH  59  62
ENDBRANCH  51  59
BRANCH  52  64
ATOM     64  O   LIG d   1       2.809  -1.660  -3.932  0.00  0.00    -0.387 OA
ATOM     65  H   LIG d   1       2.270  -1.961  -3.188  0.00  0.00     0.210 HD
ENDBRANCH  52  64
BRANCH  54  66
ATOM     66  O   LIG d   1       4.061  -3.496  -5.637  0.00  0.00    -0.386 OA
ATOM     67  H   LIG d   1       4.609  -4.280  -5.774  0.00  0.00     0.210 HD
ENDBRANCH  54  66
BRANCH  56  68
ATOM     68  O   LIG d   1       3.265  -0.903  -6.338  0.00  0.00    -0.383 OA
ATOM     69  H   LIG d   1       2.780  -0.705  -5.524  0.00  0.00     0.210 HD
ENDBRANCH  56  68
ENDBRANCH  47  48
ENDBRANCH   6  47
TORSDOF 17
ENDMDL
MODEL 4
REMARK VINA RESULT:      -5.8      4.207      6.067
REMARK  17 active torsions:
REMARK  status: ('A' for Active; 'I' for Inactive)
REMARK    1  A    between atoms: C_1  and  O_2 
REMARK    2  A    between atoms: O_2  and  C_3 
REMARK    3  A    between atoms: C_5  and  C_26 
REMARK    4  A    between atoms: C_8  and  O_9 
REMARK    5  A    between atoms: O_9  and  C_10 
REMARK    6  A    between atoms: C_12  and  O_25 
REMARK    7  A    between atoms: C_14  and  O_24 
REMARK    8  A    between atoms: C_16  and  O_23 
REMARK    9  A    between atoms: C_18  and  C_21 
REMARK   10  A    between atoms: C_21  and  O_22 
REMARK   11  A    between atoms: C_28  and  C_43 
REMARK   12  A    between atoms: C_32  and  C_39 
REMARK   13  A    between atoms: C_34  and  O_37 
REMARK   14  A    between atoms: O_37  and  C_38 
REMARK   15  A    between atoms: C_40  and  C_41 
REMARK   16  A    between atoms: C_41  and  O_42 
REMARK   17  A    between atoms: C_43  and  O_44 
ROOT
ATOM      1  C   LIG d   1      11.007   3.430  -6.931  0.00  0.00     0.162 A 
ATOM      2  C   LIG d   1      10.543   2.334  -6.222  0.00  0.00    -0.010 A 
ATOM      3  C   LIG d   1       9.531   2.489  -5.293  0.00  0.00    -0.003 A 
ATOM      4  C   LIG d   1       8.979   3.738  -5.069  0.00  0.00    -0.051 A 
ATOM      5  C   LIG d   1       9.438   4.835  -5.774  0.00  0.00    -0.016 A 
ATOM      6  C   LIG d   1      10.456   4.687  -6.702  0.00  0.00     0.165 A 
ATOM      7  H   LIG d   1      10.971   1.357  -6.395  0.00  0.00     0.066 H 
ATOM      8  H   LIG d   1       8.188   3.855  -4.343  0.00  0.00     0.062 H 
ATOM      9  H   LIG d   1       9.005   5.809  -5.598  0.00  0.00     0.066 H 
ENDROOT
BRANCH   3  10
ATOM     10  C   LIG d   1       9.027   1.297  -4.523  0.00  0.00     0.134 C 
ATOM     11  H   LIG d   1       9.772   0.963  -3.801  0.00  0.00     0.079 H 
ATOM     12  O   LIG d   1       7.784   1.600  -3.868  0.00  0.00    -0.480 OA
ATOM     13  C   LIG d   1       7.004   0.480  -3.848  0.00  0.00     0.167 A 
ATOM     14  C   LIG d   1       7.429  -0.447  -4.791  0.00  0.00     0.008 A 
ATOM     15  C   LIG d   1       5.896   0.178  -3.050  0.00  0.00     0.162 A 
ATOM     16  C   LIG d   1       8.641   0.146  -5.483  0.00  0.00     0.052 C 
ATOM     17  C   LIG d   1       6.771  -1.644  -4.952  0.00  0.00    -0.047 A 
ATOM     18  H   LIG d   1       9.445  -0.586  -5.557  0.00  0.00     0.041 H 
ATOM     19  C   LIG d   1       5.663  -1.944  -4.158  0.00  0.00    -0.021 A 
ATOM     20  H   LIG d   1       7.111  -2.352  -5.694  0.00  0.00     0.063 H 
ATOM     21  C   LIG d   1       5.232  -1.022  -3.202  0.00  0.00    -0.009 A 
ATOM     22  H   LIG d   1       4.377  -1.247  -2.582  0.00  0.00     0.066 H 
BRANCH  16  23
ATOM     23  C   LIG d   1       8.270   0.690  -6.865  0.00  0.00     0.055 C 
ATOM     24  H   LIG d   1       8.949   1.500  -7.131  0.00  0.00     0.056 H 
ATOM     25  H   LIG d   1       8.348  -0.108  -7.603  0.00  0.00     0.056 H 
BRANCH  23  26
ATOM     26  O   LIG d   1       6.929   1.184  -6.838  0.00  0.00    -0.394 OA
ATOM     27  H   LIG d   1       6.648   1.511  -5.972  0.00  0.00     0.209 HD
ENDBRANCH  23  26
ENDBRANCH  16  23
BRANCH  19  28
ATOM     28  C   LIG d   1       4.951  -3.228  -4.327  0.00  0.00    -0.056 C 
ATOM     29  C   LIG d   1       5.223  -4.005  -5.367  0.00  0.00    -0.058 C 
ATOM     30  H   LIG d   1       5.965  -3.698  -6.090  0.00  0.00     0.059 H 
ATOM     31  H   LIG d   1       4.210  -3.534  -3.605  0.00  0.00     0.062 H 
BRANCH  29  32
ATOM     32  C   LIG d   1       4.499  -5.314  -5.540  0.00  0.00     0.063 C 
ATOM     33  H   LIG d   1       5.093  -5.978  -6.169  0.00  0.00     0.060 H 
ATOM     34  H   LIG d   1       4.348  -5.777  -4.565  0.00  0.00     0.060 H 
BRANCH  32  35
ATOM     35  O   LIG d   1       3.232  -5.080  -6.158  0.00  0.00    -0.391 OA
ATOM     36  H   LIG d   1       3.215  -5.271  -7.106  0.00  0.00     0.210 HD
ENDBRANCH  32  35
ENDBRANCH  29  32
ENDBRANCH  19  28
BRANCH  15  37
ATOM     37  O   LIG d   1       5.471   1.073  -2.117  0.00  0.00    -0.491 OA
BRANCH  37  38
ATOM     38  C   LIG d   1       4.059   1.245  -1.979  0.00  0.00     0.079 C 
ATOM     39  H   LIG d   1       3.564   0.278  -2.074  0.00  0.00     0.066 H 
ATOM     40  H   LIG d   1       3.839   1.672  -1.002  0.00  0.00     0.066 H 
ATOM     41  H   LIG d   1       3.697   1.915  -2.759  0.00  0.00     0.066 H 
ENDBRANCH  37  38
ENDBRANCH  15  37
ENDBRANCH   3  10
BRANCH   1  42
ATOM     42  O   LIG d   1      12.002   3.279  -7.845  0.00  0.00    -0.491 OA
BRANCH  42  43
ATOM     43  C   LIG d   1      13.096   2.435  -7.479  0.00  0.00     0.079 C 
ATOM     44  H   LIG d   1      13.235   1.669  -8.241  0.00  0.00     0.066 H 
ATOM     45  H   LIG d   1      14.004   3.033  -7.397  0.00  0.00     0.066 H 
ATOM     46  H   LIG d   1      12.885   1.961  -6.521  0.00  0.00     0.066 H 
ENDBRANCH  42  43
ENDBRANCH   1  42
BRANCH   6  47
ATOM     47  O   LIG d   1      10.912   5.767  -7.392  0.00  0.00    -0.457 OA
BRANCH  47  48
ATOM     48  C   LIG d   1      10.525   5.871  -8.764  0.00  0.00     0.231 C 
ATOM     49  H   LIG d   1      10.342   4.874  -9.166  0.00  0.00     0.108 H 
ATOM     50  O   LIG d   1      11.571   6.500  -9.507  0.00  0.00    -0.331 OA
ATOM     51  C   LIG d   1      11.910   7.809  -9.044  0.00  0.00     0.114 C 
ATOM     52  C   LIG d   1      10.689   8.724  -9.163  0.00  0.00     0.112 C 
ATOM     53  H   LIG d   1      12.223   7.755  -8.001  0.00  0.00     0.065 H 
ATOM     54  C   LIG d   1       9.531   8.124  -8.361  0.00  0.00     0.115 C 
ATOM     55  H   LIG d   1      10.933   9.710  -8.769  0.00  0.00     0.065 H 
ATOM     56  C   LIG d   1       9.248   6.708  -8.872  0.00  0.00     0.145 C 
ATOM     57  H   LIG d   1       9.801   8.084  -7.305  0.00  0.00     0.065 H 
ATOM     58  H   LIG d   1       8.462   6.253  -8.270  0.00  0.00     0.068 H 
BRANCH  51  59
ATOM     59  C   LIG d   1      13.053   8.370  -9.891  0.00  0.00     0.073 C 
ATOM     60  H   LIG d   1      14.007   8.120  -9.427  0.00  0.00     0.058 H 
ATOM     61  H   LIG d   1      13.012   7.937 -10.891  0.00  0.00     0.058 H 
BRANCH  59  62
ATOM     62  O   LIG d   1      12.926   9.791  -9.983  0.00  0.00    -0.392 OA
ATOM     63  H   LIG d   1      12.476  10.094 -10.783  0.00  0.00     0.209 HD
ENDBRANCH  59  62
ENDBRANCH  51  59
BRANCH  52  64
ATOM     64  O   LIG d   1      10.309   8.839 -10.536  0.00  0.00    -0.387 OA
ATOM     65  H   LIG d   1      10.940   9.329 -11.080  0.00  0.00     0.210 HD
ENDBRANCH  52  64
BRANCH  54  66
ATOM     66  O   LIG d   1       8.363   8.933  -8.524  0.00  0.00    -0.386 OA
ATOM     67  H   LIG d   1       7.832   8.704  -9.298  0.00  0.00     0.210 HD
ENDBRANCH  54  66
BRANCH  56  68
ATOM     68  O   LIG d   1       8.831   6.767 -10.237  0.00  0.00    -0.383 OA
ATOM     69  H   LIG d   1       7.991   7.227 -10.373  0.00  0.00     0.210 HD
ENDBRANCH  56  68
ENDBRANCH  47  48
ENDBRANCH   6  47
TORSDOF 17
ENDMDL
MODEL 5
REMARK VINA RESULT:      -5.6      1.362      2.210
REMARK  17 active torsions:
REMARK  status: ('A' for Active; 'I' for Inactive)
REMARK    1  A    between atoms: C_1  and  O_2 
REMARK    2  A    between atoms: O_2  and  C_3 
REMARK    3  A    between atoms: C_5  and  C_26 
REMARK    4  A    between atoms: C_8  and  O_9 
REMARK    5  A    between atoms: O_9  and  C_10 
REMARK    6  A    between atoms: C_12  and  O_25 
REMARK    7  A    between atoms: C_14  and  O_24 
REMARK    8  A    between atoms: C_16  and  O_23 
REMARK    9  A    between atoms: C_18  and  C_21 
REMARK   10  A    between atoms: C_21  and  O_22 
REMARK   11  A    between atoms: C_28  and  C_43 
REMARK   12  A    between atoms: C_32  and  C_39 
REMARK   13  A    between atoms: C_34  and  O_37 
REMARK   14  A    between atoms: O_37  and  C_38 
REMARK   15  A    between atoms: C_40  and  C_41 
REMARK   16  A    between atoms: C_41  and  O_42 
REMARK   17  A    between atoms: C_43  and  O_44 
ROOT
ATOM      1  C   LIG d   1      11.388   3.601  -3.861  0.00  0.00     0.162 A 
ATOM      2  C   LIG d   1      10.849   2.459  -4.430  0.00  0.00    -0.010 A 
ATOM      3  C   LIG d   1       9.694   2.542  -5.184  0.00  0.00    -0.003 A 
ATOM      4  C   LIG d   1       9.073   3.764  -5.373  0.00  0.00    -0.051 A 
ATOM      5  C   LIG d   1       9.607   4.907  -4.807  0.00  0.00    -0.016 A 
ATOM      6  C   LIG d   1      10.761   4.829  -4.046  0.00  0.00     0.165 A 
ATOM      7  H   LIG d   1      11.332   1.503  -4.286  0.00  0.00     0.066 H 
ATOM      8  H   LIG d   1       8.170   3.825  -5.963  0.00  0.00     0.062 H 
ATOM      9  H   LIG d   1       9.121   5.860  -4.956  0.00  0.00     0.066 H 
ENDROOT
BRANCH   3  10
ATOM     10  C   LIG d   1       9.108   1.299  -5.803  0.00  0.00     0.134 C 
ATOM     11  H   LIG d   1       9.020   1.411  -6.883  0.00  0.00     0.079 H 
ATOM     12  O   LIG d   1       9.898   0.144  -5.473  0.00  0.00    -0.480 OA
ATOM     13  C   LIG d   1       9.076  -0.938  -5.341  0.00  0.00     0.167 A 
ATOM     14  C   LIG d   1       7.758  -0.548  -5.143  0.00  0.00     0.008 A 
ATOM     15  C   LIG d   1       9.385  -2.301  -5.371  0.00  0.00     0.162 A 
ATOM     16  C   LIG d   1       7.733   0.968  -5.173  0.00  0.00     0.052 C 
ATOM     17  C   LIG d   1       6.763  -1.481  -4.968  0.00  0.00    -0.047 A 
ATOM     18  H   LIG d   1       6.920   1.333  -5.801  0.00  0.00     0.041 H 
ATOM     19  C   LIG d   1       7.071  -2.843  -4.995  0.00  0.00    -0.021 A 
ATOM     20  H   LIG d   1       5.744  -1.161  -4.811  0.00  0.00     0.063 H 
ATOM     21  C   LIG d   1       8.392  -3.245  -5.200  0.00  0.00    -0.009 A 
ATOM     22  H   LIG d   1       8.638  -4.296  -5.225  0.00  0.00     0.066 H 
BRANCH  16  23
ATOM     23  C   LIG d   1       7.629   1.542  -3.758  0.00  0.00     0.055 C 
ATOM     24  H   LIG d   1       8.161   0.893  -3.063  0.00  0.00     0.056 H 
ATOM     25  H   LIG d   1       8.069   2.539  -3.736  0.00  0.00     0.056 H 
BRANCH  23  26
ATOM     26  O   LIG d   1       6.253   1.621  -3.377  0.00  0.00    -0.394 OA
ATOM     27  H   LIG d   1       6.019   2.439  -2.918  0.00  0.00     0.209 HD
ENDBRANCH  23  26
ENDBRANCH  16  23
BRANCH  19  28
ATOM     28  C   LIG d   1       6.007  -3.851  -4.807  0.00  0.00    -0.056 C 
ATOM     29  C   LIG d   1       5.537  -4.522  -5.850  0.00  0.00    -0.058 C 
ATOM     30  H   LIG d   1       5.934  -4.331  -6.837  0.00  0.00     0.059 H 
ATOM     31  H   LIG d   1       5.611  -4.041  -3.821  0.00  0.00     0.062 H 
BRANCH  29  32
ATOM     32  C   LIG d   1       4.452  -5.550  -5.660  0.00  0.00     0.063 C 
ATOM     33  H   LIG d   1       4.744  -6.480  -6.146  0.00  0.00     0.060 H 
ATOM     34  H   LIG d   1       4.304  -5.728  -4.594  0.00  0.00     0.060 H 
BRANCH  32  35
ATOM     35  O   LIG d   1       3.236  -5.071  -6.236  0.00  0.00    -0.391 OA
ATOM     36  H   LIG d   1       2.545  -5.744  -6.313  0.00  0.00     0.210 HD
ENDBRANCH  32  35
ENDBRANCH  29  32
ENDBRANCH  19  28
BRANCH  15  37
ATOM     37  O   LIG d   1      10.670  -2.700  -5.570  0.00  0.00    -0.491 OA
BRANCH  37  38
ATOM     38  C   LIG d   1      11.441  -3.009  -4.407  0.00  0.00     0.079 C 
ATOM     39  H   LIG d   1      11.601  -4.086  -4.353  0.00  0.00     0.066 H 
ATOM     40  H   LIG d   1      12.403  -2.500  -4.463  0.00  0.00     0.066 H 
ATOM     41  H   LIG d   1      10.905  -2.677  -3.518  0.00  0.00     0.066 H 
ENDBRANCH  37  38
ENDBRANCH  15  37
ENDBRANCH   3  10
BRANCH   1  42
ATOM     42  O   LIG d   1      12.525   3.521  -3.119  0.00  0.00    -0.491 OA
BRANCH  42  43
ATOM     43  C   LIG d   1      13.700   3.047  -3.780  0.00  0.00     0.079 C 
ATOM     44  H   LIG d   1      14.348   2.551  -3.059  0.00  0.00     0.066 H 
ATOM     45  H   LIG d   1      13.417   2.340  -4.560  0.00  0.00     0.066 H 
ATOM     46  H   LIG d   1      14.230   3.888  -4.227  0.00  0.00     0.066 H 
ENDBRANCH  42  43
ENDBRANCH   1  42
BRANCH   6  47
ATOM     47  O   LIG d   1      11.284   5.953  -3.484  0.00  0.00    -0.457 OA
BRANCH  47  48
ATOM     48  C   LIG d   1      10.357   6.929  -3.003  0.00  0.00     0.231 C 
ATOM     49  H   LIG d   1       9.556   7.059  -3.732  0.00  0.00     0.108 H 
ATOM     50  O   LIG d   1      11.033   8.173  -2.809  0.00  0.00    -0.331 OA
ATOM     51  C   LIG d   1      12.123   8.108  -1.888  0.00  0.00     0.114 C 
ATOM     52  C   LIG d   1      11.603   7.685  -0.513  0.00  0.00     0.112 C 
ATOM     53  H   LIG d   1      12.853   7.379  -2.240  0.00  0.00     0.065 H 
ATOM     54  C   LIG d   1      10.889   6.336  -0.638  0.00  0.00     0.115 C 
ATOM     55  H   LIG d   1      12.439   7.592   0.180  0.00  0.00     0.065 H 
ATOM     56  C   LIG d   1       9.765   6.458  -1.672  0.00  0.00     0.145 C 
ATOM     57  H   LIG d   1      11.601   5.575  -0.961  0.00  0.00     0.065 H 
ATOM     58  H   LIG d   1       9.287   5.488  -1.808  0.00  0.00     0.068 H 
BRANCH  51  59
ATOM     59  C   LIG d   1      12.785   9.483  -1.783  0.00  0.00     0.073 C 
ATOM     60  H   LIG d   1      13.233   9.596  -0.796  0.00  0.00     0.058 H 
ATOM     61  H   LIG d   1      13.559   9.574  -2.545  0.00  0.00     0.058 H 
BRANCH  59  62
ATOM     62  O   LIG d   1      11.801  10.501  -1.980  0.00  0.00    -0.392 OA
ATOM     63  H   LIG d   1      12.073  11.197  -2.594  0.00  0.00     0.209 HD
ENDBRANCH  59  62
ENDBRANCH  51  59
BRANCH  52  64
ATOM     64  O   LIG d   1      10.686   8.666  -0.025  0.00  0.00    -0.387 OA
ATOM     65  H   LIG d   1      10.990   9.578  -0.132  0.00  0.00     0.210 HD
ENDBRANCH  52  64
BRANCH  54  66
ATOM     66  O   LIG d   1      10.336   5.965   0.627  0.00  0.00    -0.386 OA
ATOM     67  H   LIG d   1      10.982   5.603   1.248  0.00  0.00     0.210 HD
ENDBRANCH  54  66
BRANCH  56  68
ATOM     68  O   LIG d   1       8.798   7.407  -1.217  0.00  0.00    -0.383 OA
ATOM     69  H   LIG d   1       9.076   8.329  -1.314  0.00  0.00     0.210 HD
ENDBRANCH  56  68
ENDBRANCH  47  48
ENDBRANCH   6  47
TORSDOF 17
ENDMDL
MODEL 6
REMARK VINA RESULT:      -5.6      2.621      4.557
REMARK  17 active torsions:
REMARK  status: ('A' for Active; 'I' for Inactive)
REMARK    1  A    between atoms: C_1  and  O_2 
REMARK    2  A    between atoms: O_2  and  C_3 
REMARK    3  A    between atoms: C_5  and  C_26 
REMARK    4  A    between atoms: C_8  and  O_9 
REMARK    5  A    between atoms: O_9  and  C_10 
REMARK    6  A    between atoms: C_12  and  O_25 
REMARK    7  A    between atoms: C_14  and  O_24 
REMARK    8  A    between atoms: C_16  and  O_23 
REMARK    9  A    between atoms: C_18  and  C_21 
REMARK   10  A    between atoms: C_21  and  O_22 
REMARK   11  A    between atoms: C_28  and  C_43 
REMARK   12  A    between atoms: C_32  and  C_39 
REMARK   13  A    between atoms: C_34  and  O_37 
REMARK   14  A    between atoms: O_37  and  C_38 
REMARK   15  A    between atoms: C_40  and  C_41 
REMARK   16  A    between atoms: C_41  and  O_42 
REMARK   17  A    between atoms: C_43  and  O_44 
ROOT
ATOM      1  C   LIG d   1       8.199   1.405  -5.965  0.00  0.00     0.162 A 
ATOM      2  C   LIG d   1       7.258   0.391  -6.037  0.00  0.00    -0.010 A 
ATOM      3  C   LIG d   1       6.539   0.033  -4.913  0.00  0.00    -0.003 A 
ATOM      4  C   LIG d   1       6.757   0.685  -3.713  0.00  0.00    -0.051 A 
ATOM      5  C   LIG d   1       7.695   1.698  -3.634  0.00  0.00    -0.016 A 
ATOM      6  C   LIG d   1       8.423   2.057  -4.757  0.00  0.00     0.165 A 
ATOM      7  H   LIG d   1       7.084  -0.119  -6.974  0.00  0.00     0.066 H 
ATOM      8  H   LIG d   1       6.193   0.403  -2.835  0.00  0.00     0.062 H 
ATOM      9  H   LIG d   1       7.863   2.206  -2.696  0.00  0.00     0.066 H 
ENDROOT
BRANCH   3  10
ATOM     10  C   LIG d   1       5.516  -1.070  -4.993  0.00  0.00     0.134 C 
ATOM     11  H   LIG d   1       4.622  -0.807  -4.429  0.00  0.00     0.079 H 
ATOM     12  O   LIG d   1       5.187  -1.362  -6.362  0.00  0.00    -0.480 OA
ATOM     13  C   LIG d   1       4.931  -2.697  -6.485  0.00  0.00     0.167 A 
ATOM     14  C   LIG d   1       5.456  -3.412  -5.417  0.00  0.00     0.008 A 
ATOM     15  C   LIG d   1       4.255  -3.386  -7.497  0.00  0.00     0.162 A 
ATOM     16  C   LIG d   1       6.110  -2.407  -4.487  0.00  0.00     0.052 C 
ATOM     17  C   LIG d   1       5.328  -4.780  -5.349  0.00  0.00    -0.047 A 
ATOM     18  H   LIG d   1       5.825  -2.591  -3.451  0.00  0.00     0.041 H 
ATOM     19  C   LIG d   1       4.656  -5.468  -6.361  0.00  0.00    -0.021 A 
ATOM     20  H   LIG d   1       5.746  -5.321  -4.513  0.00  0.00     0.063 H 
ATOM     21  C   LIG d   1       4.118  -4.758  -7.436  0.00  0.00    -0.009 A 
ATOM     22  H   LIG d   1       3.595  -5.283  -8.221  0.00  0.00     0.066 H 
BRANCH  16  23
ATOM     23  C   LIG d   1       7.631  -2.423  -4.646  0.00  0.00     0.055 C 
ATOM     24  H   LIG d   1       7.918  -3.229  -5.321  0.00  0.00     0.056 H 
ATOM     25  H   LIG d   1       7.965  -1.469  -5.054  0.00  0.00     0.056 H 
BRANCH  23  26
ATOM     26  O   LIG d   1       8.240  -2.633  -3.370  0.00  0.00    -0.394 OA
ATOM     27  H   LIG d   1       7.698  -2.342  -2.623  0.00  0.00     0.209 HD
ENDBRANCH  23  26
ENDBRANCH  16  23
BRANCH  19  28
ATOM     28  C   LIG d   1       4.515  -6.938  -6.294  0.00  0.00    -0.056 C 
ATOM     29  C   LIG d   1       5.037  -7.608  -5.275  0.00  0.00    -0.058 C 
ATOM     30  H   LIG d   1       5.564  -7.080  -4.495  0.00  0.00     0.059 H 
ATOM     31  H   LIG d   1       3.988  -7.466  -7.074  0.00  0.00     0.062 H 
BRANCH  29  32
ATOM     32  C   LIG d   1       4.893  -9.107  -5.206  0.00  0.00     0.063 C 
ATOM     33  H   LIG d   1       4.649  -9.494  -6.195  0.00  0.00     0.060 H 
ATOM     34  H   LIG d   1       5.831  -9.546  -4.866  0.00  0.00     0.060 H 
BRANCH  32  35
ATOM     35  O   LIG d   1       3.849  -9.443  -4.291  0.00  0.00    -0.391 OA
ATOM     36  H   LIG d   1       3.504  -8.689  -3.793  0.00  0.00     0.210 HD
ENDBRANCH  32  35
ENDBRANCH  29  32
ENDBRANCH  19  28
BRANCH  15  37
ATOM     37  O   LIG d   1       3.730  -2.700  -8.548  0.00  0.00    -0.491 OA
BRANCH  37  38
ATOM     38  C   LIG d   1       4.432  -2.778  -9.790  0.00  0.00     0.079 C 
ATOM     39  H   LIG d   1       3.915  -3.466 -10.458  0.00  0.00     0.066 H 
ATOM     40  H   LIG d   1       4.473  -1.789 -10.246  0.00  0.00     0.066 H 
ATOM     41  H   LIG d   1       5.446  -3.138  -9.612  0.00  0.00     0.066 H 
ENDBRANCH  37  38
ENDBRANCH  15  37
ENDBRANCH   3  10
BRANCH   1  42
ATOM     42  O   LIG d   1       8.906   1.759  -7.072  0.00  0.00    -0.491 OA
BRANCH  42  43
ATOM     43  C   LIG d   1       8.525   1.151  -8.308  0.00  0.00     0.079 C 
ATOM     44  H   LIG d   1       8.433   0.074  -8.170  0.00  0.00     0.066 H 
ATOM     45  H   LIG d   1       7.568   1.559  -8.632  0.00  0.00     0.066 H 
ATOM     46  H   LIG d   1       9.284   1.357  -9.062  0.00  0.00     0.066 H 
ENDBRANCH  42  43
ENDBRANCH   1  42
BRANCH   6  47
ATOM     47  O   LIG d   1       9.350   3.049  -4.679  0.00  0.00    -0.457 OA
BRANCH  47  48
ATOM     48  C   LIG d   1       9.567   3.636  -3.394  0.00  0.00     0.231 C 
ATOM     49  H   LIG d   1       8.738   3.378  -2.733  0.00  0.00     0.108 H 
ATOM     50  O   LIG d   1       9.649   5.057  -3.525  0.00  0.00    -0.331 OA
ATOM     51  C   LIG d   1      10.691   5.503  -4.396  0.00  0.00     0.114 C 
ATOM     52  C   LIG d   1      12.044   5.044  -3.846  0.00  0.00     0.112 C 
ATOM     53  H   LIG d   1      10.540   5.080  -5.389  0.00  0.00     0.065 H 
ATOM     54  C   LIG d   1      12.040   3.520  -3.707  0.00  0.00     0.115 C 
ATOM     55  H   LIG d   1      12.836   5.346  -4.531  0.00  0.00     0.065 H 
ATOM     56  C   LIG d   1      10.875   3.102  -2.804  0.00  0.00     0.145 C 
ATOM     57  H   LIG d   1      11.921   3.064  -4.690  0.00  0.00     0.065 H 
ATOM     58  H   LIG d   1      10.831   2.015  -2.743  0.00  0.00     0.068 H 
BRANCH  51  59
ATOM     59  C   LIG d   1      10.665   7.030  -4.481  0.00  0.00     0.073 C 
ATOM     60  H   LIG d   1       9.972   7.339  -5.264  0.00  0.00     0.058 H 
ATOM     61  H   LIG d   1      10.340   7.442  -3.526  0.00  0.00     0.058 H 
BRANCH  59  62
ATOM     62  O   LIG d   1      11.975   7.512  -4.788  0.00  0.00    -0.392 OA
ATOM     63  H   LIG d   1      12.000   8.147  -5.516  0.00  0.00     0.209 HD
ENDBRANCH  59  62
ENDBRANCH  51  59
BRANCH  52  64
ATOM     64  O   LIG d   1      12.267   5.640  -2.567  0.00  0.00    -0.387 OA
ATOM     65  H   LIG d   1      13.181   5.578  -2.257  0.00  0.00     0.210 HD
ENDBRANCH  52  64
BRANCH  54  66
ATOM     66  O   LIG d   1      13.273   3.087  -3.126  0.00  0.00    -0.386 OA
ATOM     67  H   LIG d   1      13.473   3.500  -2.276  0.00  0.00     0.210 HD
ENDBRANCH  54  66
BRANCH  56  68
ATOM     68  O   LIG d   1      11.065   3.646  -1.496  0.00  0.00    -0.383 OA
ATOM     69  H   LIG d   1      10.266   3.650  -0.951  0.00  0.00     0.210 HD
ENDBRANCH  56  68
ENDBRANCH  47  48
ENDBRANCH   6  47
TORSDOF 17
ENDMDL
MODEL 7
REMARK VINA RESULT:      -5.6      2.996      4.825
REMARK  17 active torsions:
REMARK  status: ('A' for Active; 'I' for Inactive)
REMARK    1  A    between atoms: C_1  and  O_2 
REMARK    2  A    between atoms: O_2  and  C_3 
REMARK    3  A    between atoms: C_5  and  C_26 
REMARK    4  A    between atoms: C_8  and  O_9 
REMARK    5  A    between atoms: O_9  and  C_10 
REMARK    6  A    between atoms: C_12  and  O_25 
REMARK    7  A    between atoms: C_14  and  O_24 
REMARK    8  A    between atoms: C_16  and  O_23 
REMARK    9  A    between atoms: C_18  and  C_21 
REMARK   10  A    between atoms: C_21  and  O_22 
REMARK   11  A    between atoms: C_28  and  C_43 
REMARK   12  A    between atoms: C_32  and  C_39 
REMARK   13  A    between atoms: C_34  and  O_37 
REMARK   14  A    between atoms: O_37  and  C_38 
REMARK   15  A    between atoms: C_40  and  C_41 
REMARK   16  A    between atoms: C_41  and  O_42 
REMARK   17  A    between atoms: C_43  and  O_44 
ROOT
ATOM      1  C   LIG d   1      10.716   6.055  -1.451  0.00  0.00     0.162 A 
ATOM      2  C   LIG d   1      10.447   4.903  -2.171  0.00  0.00    -0.010 A 
ATOM      3  C   LIG d   1      11.036   4.705  -3.405  0.00  0.00    -0.003 A 
ATOM      4  C   LIG d   1      11.895   5.656  -3.925  0.00  0.00    -0.051 A 
ATOM      5  C   LIG d   1      12.168   6.808  -3.212  0.00  0.00    -0.016 A 
ATOM      6  C   LIG d   1      11.576   7.015  -1.976  0.00  0.00     0.165 A 
ATOM      7  H   LIG d   1       9.776   4.157  -1.767  0.00  0.00     0.066 H 
ATOM      8  H   LIG d   1      12.354   5.498  -4.890  0.00  0.00     0.062 H 
ATOM      9  H   LIG d   1      12.840   7.549  -3.619  0.00  0.00     0.066 H 
ENDROOT
BRANCH   3  10
ATOM     10  C   LIG d   1      10.742   3.451  -4.187  0.00  0.00     0.134 C 
ATOM     11  H   LIG d   1      11.605   2.786  -4.187  0.00  0.00     0.079 H 
ATOM     12  O   LIG d   1       9.583   2.782  -3.661  0.00  0.00    -0.480 OA
ATOM     13  C   LIG d   1       8.905   2.189  -4.687  0.00  0.00     0.167 A 
ATOM     14  C   LIG d   1       9.264   2.736  -5.911  0.00  0.00     0.008 A 
ATOM     15  C   LIG d   1       7.949   1.169  -4.652  0.00  0.00     0.162 A 
ATOM     16  C   LIG d   1      10.315   3.795  -5.635  0.00  0.00     0.052 C 
ATOM     17  C   LIG d   1       8.686   2.297  -7.079  0.00  0.00    -0.047 A 
ATOM     18  H   LIG d   1      11.156   3.698  -6.322  0.00  0.00     0.041 H 
ATOM     19  C   LIG d   1       7.729   1.281  -7.045  0.00  0.00    -0.021 A 
ATOM     20  H   LIG d   1       8.972   2.737  -8.023  0.00  0.00     0.063 H 
ATOM     21  C   LIG d   1       7.367   0.719  -5.819  0.00  0.00    -0.009 A 
ATOM     22  H   LIG d   1       6.629  -0.069  -5.785  0.00  0.00     0.066 H 
BRANCH  16  23
ATOM     23  C   LIG d   1       9.711   5.198  -5.707  0.00  0.00     0.055 C 
ATOM     24  H   LIG d   1       8.652   5.152  -5.454  0.00  0.00     0.056 H 
ATOM     25  H   LIG d   1      10.225   5.852  -5.003  0.00  0.00     0.056 H 
BRANCH  23  26
ATOM     26  O   LIG d   1       9.861   5.713  -7.032  0.00  0.00    -0.394 OA
ATOM     27  H   LIG d   1      10.779   5.766  -7.331  0.00  0.00     0.209 HD
ENDBRANCH  23  26
ENDBRANCH  16  23
BRANCH  19  28
ATOM     28  C   LIG d   1       7.104   0.804  -8.297  0.00  0.00    -0.056 C 
ATOM     29  C   LIG d   1       5.904   1.247  -8.649  0.00  0.00    -0.058 C 
ATOM     30  H   LIG d   1       5.384   1.955  -8.020  0.00  0.00     0.059 H 
ATOM     31  H   LIG d   1       7.624   0.097  -8.924  0.00  0.00     0.062 H 
BRANCH  29  32
ATOM     32  C   LIG d   1       5.266   0.762  -9.925  0.00  0.00     0.063 C 
ATOM     33  H   LIG d   1       6.043   0.506 -10.645  0.00  0.00     0.060 H 
ATOM     34  H   LIG d   1       4.661  -0.120  -9.716  0.00  0.00     0.060 H 
BRANCH  32  35
ATOM     35  O   LIG d   1       4.437   1.792 -10.464  0.00  0.00    -0.391 OA
ATOM     36  H   LIG d   1       4.746   2.143 -11.311  0.00  0.00     0.210 HD
ENDBRANCH  32  35
ENDBRANCH  29  32
ENDBRANCH  19  28
BRANCH  15  37
ATOM     37  O   LIG d   1       7.591   0.617  -3.461  0.00  0.00    -0.491 OA
BRANCH  37  38
ATOM     38  C   LIG d   1       6.292   0.027  -3.384  0.00  0.00     0.079 C 
ATOM     39  H   LIG d   1       6.348  -0.902  -2.817  0.00  0.00     0.066 H 
ATOM     40  H   LIG d   1       5.609   0.716  -2.888  0.00  0.00     0.066 H 
ATOM     41  H   LIG d   1       5.928  -0.183  -4.390  0.00  0.00     0.066 H 
ENDBRANCH  37  38
ENDBRANCH  15  37
ENDBRANCH   3  10
BRANCH   1  42
ATOM     42  O   LIG d   1      10.136   6.251  -0.236  0.00  0.00    -0.491 OA
BRANCH  42  43
ATOM     43  C   LIG d   1      10.902   5.888   0.914  0.00  0.00     0.079 C 
ATOM     44  H   LIG d   1      10.682   4.857   1.187  0.00  0.00     0.066 H 
ATOM     45  H   LIG d   1      11.964   5.985   0.689  0.00  0.00     0.066 H 
ATOM     46  H   LIG d   1      10.645   6.547   1.744  0.00  0.00     0.066 H 
ENDBRANCH  42  43
ENDBRANCH   1  42
BRANCH   6  47
ATOM     47  O   LIG d   1      11.838   8.151  -1.276  0.00  0.00    -0.457 OA
BRANCH  47  48
ATOM     48  C   LIG d   1      11.679   9.391  -1.968  0.00  0.00     0.231 C 
ATOM     49  H   LIG d   1      12.231   9.356  -2.908  0.00  0.00     0.108 H 
ATOM     50  O   LIG d   1      12.182  10.457  -1.159  0.00  0.00    -0.331 OA
ATOM     51  C   LIG d   1      11.541  10.575   0.113  0.00  0.00     0.114 C 
ATOM     52  C   LIG d   1      10.051  10.859  -0.092  0.00  0.00     0.112 C 
ATOM     53  H   LIG d   1      11.661   9.646   0.668  0.00  0.00     0.065 H 
ATOM     54  C   LIG d   1       9.436   9.735  -0.930  0.00  0.00     0.115 C 
ATOM     55  H   LIG d   1       9.553  10.906   0.876  0.00  0.00     0.065 H 
ATOM     56  C   LIG d   1      10.194   9.627  -2.257  0.00  0.00     0.145 C 
ATOM     57  H   LIG d   1       9.512   8.792  -0.388  0.00  0.00     0.065 H 
ATOM     58  H   LIG d   1       9.799   8.794  -2.837  0.00  0.00     0.068 H 
BRANCH  51  59
ATOM     59  C   LIG d   1      12.176  11.724   0.898  0.00  0.00     0.073 C 
ATOM     60  H   LIG d   1      13.072  11.366   1.406  0.00  0.00     0.058 H 
ATOM     61  H   LIG d   1      12.445  12.528   0.213  0.00  0.00     0.058 H 
BRANCH  59  62
ATOM     62  O   LIG d   1      11.244  12.213   1.865  0.00  0.00    -0.392 OA
ATOM     63  H   LIG d   1      10.336  11.913   1.722  0.00  0.00     0.209 HD
ENDBRANCH  59  62
ENDBRANCH  51  59
BRANCH  52  64
ATOM     64  O   LIG d   1       9.890  12.105  -0.773  0.00  0.00    -0.387 OA
ATOM     65  H   LIG d   1       9.736  12.018  -1.723  0.00  0.00     0.210 HD
ENDBRANCH  52  64
BRANCH  54  66
ATOM     66  O   LIG d   1       8.060  10.026  -1.189  0.00  0.00    -0.386 OA
ATOM     67  H   LIG d   1       7.898  10.420  -2.057  0.00  0.00     0.210 HD
ENDBRANCH  54  66
BRANCH  56  68
ATOM     68  O   LIG d   1      10.039  10.840  -2.997  0.00  0.00    -0.383 OA
ATOM     69  H   LIG d   1       9.336  10.809  -3.660  0.00  0.00     0.210 HD
ENDBRANCH  56  68
ENDBRANCH  47  48
ENDBRANCH   6  47
TORSDOF 17
ENDMDL
MODEL 8
REMARK VINA RESULT:      -5.4      5.926      8.494
REMARK  17 active torsions:
REMARK  status: ('A' for Active; 'I' for Inactive)
REMARK    1  A    between atoms: C_1  and  O_2 
REMARK    2  A    between atoms: O_2  and  C_3 
REMARK    3  A    between atoms: C_5  and  C_26 
REMARK    4  A    between atoms: C_8  and  O_9 
REMARK    5  A    between atoms: O_9  and  C_10 
REMARK    6  A    between atoms: C_12  and  O_25 
REMARK    7  A    between atoms: C_14  and  O_24 
REMARK    8  A    between atoms: C_16  and  O_23 
REMARK    9  A    between atoms: C_18  and  C_21 
REMARK   10  A    between atoms: C_21  and  O_22 
REMARK   11  A    between atoms: C_28  and  C_43 
REMARK   12  A    between atoms: C_32  and  C_39 
REMARK   13  A    between atoms: C_34  and  O_37 
REMARK   14  A    between atoms: O_37  and  C_38 
REMARK   15  A    between atoms: C_40  and  C_41 
REMARK   16  A    between atoms: C_41  and  O_42 
REMARK   17  A    between atoms: C_43  and  O_44 
ROOT
ATOM      1  C   LIG d   1      11.771   6.829  -6.577  0.00  0.00     0.162 A 
ATOM      2  C   LIG d   1      11.434   7.109  -7.891  0.00  0.00    -0.010 A 
ATOM      3  C   LIG d   1      10.211   7.682  -8.185  0.00  0.00    -0.003 A 
ATOM      4  C   LIG d   1       9.321   7.977  -7.169  0.00  0.00    -0.051 A 
ATOM      5  C   LIG d   1       9.651   7.699  -5.855  0.00  0.00    -0.016 A 
ATOM      6  C   LIG d   1      10.872   7.120  -5.555  0.00  0.00     0.165 A 
ATOM      7  H   LIG d   1      12.128   6.881  -8.687  0.00  0.00     0.066 H 
ATOM      8  H   LIG d   1       8.366   8.425  -7.402  0.00  0.00     0.062 H 
ATOM      9  H   LIG d   1       8.954   7.931  -5.063  0.00  0.00     0.066 H 
ENDROOT
BRANCH   3  10
ATOM     10  C   LIG d   1       9.847   7.986  -9.615  0.00  0.00     0.134 C 
ATOM     11  H   LIG d   1       9.395   8.975  -9.694  0.00  0.00     0.079 H 
ATOM     12  O   LIG d   1      11.000   7.883 -10.468  0.00  0.00    -0.480 OA
ATOM     13  C   LIG d   1      10.611   7.413 -11.689  0.00  0.00     0.167 A 
ATOM     14  C   LIG d   1       9.370   6.795 -11.619  0.00  0.00     0.008 A 
ATOM     15  C   LIG d   1      11.275   7.468 -12.918  0.00  0.00     0.162 A 
ATOM     16  C   LIG d   1       8.899   6.902 -10.182  0.00  0.00     0.052 C 
ATOM     17  C   LIG d   1       8.796   6.233 -12.736  0.00  0.00    -0.047 A 
ATOM     18  H   LIG d   1       7.860   7.231 -10.135  0.00  0.00     0.041 H 
ATOM     19  C   LIG d   1       9.460   6.285 -13.963  0.00  0.00    -0.021 A 
ATOM     20  H   LIG d   1       7.831   5.752 -12.664  0.00  0.00     0.063 H 
ATOM     21  C   LIG d   1      10.705   6.910 -14.044  0.00  0.00    -0.009 A 
ATOM     22  H   LIG d   1      11.224   6.956 -14.991  0.00  0.00     0.066 H 
BRANCH  16  23
ATOM     23  C   LIG d   1       9.084   5.575  -9.444  0.00  0.00     0.055 C 
ATOM     24  H   LIG d   1       9.962   5.061  -9.836  0.00  0.00     0.056 H 
ATOM     25  H   LIG d   1       9.219   5.766  -8.380  0.00  0.00     0.056 H 
BRANCH  23  26
ATOM     26  O   LIG d   1       7.928   4.757  -9.639  0.00  0.00    -0.394 OA
ATOM     27  H   LIG d   1       7.896   3.979  -9.065  0.00  0.00     0.209 HD
ENDBRANCH  23  26
ENDBRANCH  16  23
BRANCH  19  28
ATOM     28  C   LIG d   1       8.848   5.682 -15.166  0.00  0.00    -0.056 C 
ATOM     29  C   LIG d   1       8.777   4.363 -15.284  0.00  0.00    -0.058 C 
ATOM     30  H   LIG d   1       9.166   3.729 -14.500  0.00  0.00     0.059 H 
ATOM     31  H   LIG d   1       8.460   6.315 -15.949  0.00  0.00     0.062 H 
BRANCH  29  32
ATOM     32  C   LIG d   1       8.154   3.748 -16.510  0.00  0.00     0.063 C 
ATOM     33  H   LIG d   1       8.638   4.145 -17.402  0.00  0.00     0.060 H 
ATOM     34  H   LIG d   1       8.283   2.666 -16.478  0.00  0.00     0.060 H 
BRANCH  32  35
ATOM     35  O   LIG d   1       6.760   4.061 -16.543  0.00  0.00    -0.391 OA
ATOM     36  H   LIG d   1       6.559   4.982 -16.325  0.00  0.00     0.210 HD
ENDBRANCH  32  35
ENDBRANCH  29  32
ENDBRANCH  19  28
BRANCH  15  37
ATOM     37  O   LIG d   1      12.489   8.075 -13.005  0.00  0.00    -0.491 OA
BRANCH  37  38
ATOM     38  C   LIG d   1      13.642   7.245 -12.847  0.00  0.00     0.079 C 
ATOM     39  H   LIG d   1      13.446   6.491 -12.085  0.00  0.00     0.066 H 
ATOM     40  H   LIG d   1      13.869   6.755 -13.794  0.00  0.00     0.066 H 
ATOM     41  H   LIG d   1      14.491   7.857 -12.542  0.00  0.00     0.066 H 
ENDBRANCH  37  38
ENDBRANCH  15  37
ENDBRANCH   3  10
BRANCH   1  42
ATOM     42  O   LIG d   1      12.974   6.265  -6.287  0.00  0.00    -0.491 OA
BRANCH  42  43
ATOM     43  C   LIG d   1      14.118   7.119  -6.329  0.00  0.00     0.079 C 
ATOM     44  H   LIG d   1      14.535   7.219  -5.328  0.00  0.00     0.066 H 
ATOM     45  H   LIG d   1      14.868   6.689  -6.993  0.00  0.00     0.066 H 
ATOM     46  H   LIG d   1      13.825   8.101  -6.700  0.00  0.00     0.066 H 
ENDBRANCH  42  43
ENDBRANCH   1  42
BRANCH   6  47
ATOM     47  O   LIG d   1      11.196   6.841  -4.263  0.00  0.00    -0.457 OA
BRANCH  47  48
ATOM     48  C   LIG d   1      10.281   6.025  -3.528  0.00  0.00     0.231 C 
ATOM     49  H   LIG d   1       9.624   5.500  -4.221  0.00  0.00     0.108 H 
ATOM     50  O   LIG d   1       9.499   6.849  -2.660  0.00  0.00    -0.331 OA
ATOM     51  C   LIG d   1      10.269   7.605  -1.723  0.00  0.00     0.114 C 
ATOM     52  C   LIG d   1      11.050   6.650  -0.818  0.00  0.00     0.112 C 
ATOM     53  H   LIG d   1      10.966   8.248  -2.260  0.00  0.00     0.065 H 
ATOM     54  C   LIG d   1      11.939   5.752  -1.682  0.00  0.00     0.115 C 
ATOM     55  H   LIG d   1      11.671   7.225  -0.131  0.00  0.00     0.065 H 
ATOM     56  C   LIG d   1      11.064   5.006  -2.694  0.00  0.00     0.145 C 
ATOM     57  H   LIG d   1      12.670   6.363  -2.212  0.00  0.00     0.065 H 
ATOM     58  H   LIG d   1      11.693   4.406  -3.350  0.00  0.00     0.068 H 
BRANCH  51  59
ATOM     59  C   LIG d   1       9.334   8.466  -0.872  0.00  0.00     0.073 C 
ATOM     60  H   LIG d   1       9.674   8.458   0.164  0.00  0.00     0.058 H 
ATOM     61  H   LIG d   1       9.339   9.489  -1.247  0.00  0.00     0.058 H 
BRANCH  59  62
ATOM     62  O   LIG d   1       8.007   7.939  -0.941  0.00  0.00    -0.392 OA
ATOM     63  H   LIG d   1       7.438   8.210  -0.208  0.00  0.00     0.209 HD
ENDBRANCH  59  62
ENDBRANCH  51  59
BRANCH  52  64
ATOM     64  O   LIG d   1      10.137   5.843  -0.072  0.00  0.00    -0.387 OA
ATOM     65  H   LIG d   1      10.557   5.298   0.608  0.00  0.00     0.210 HD
ENDBRANCH  52  64
BRANCH  54  66
ATOM     66  O   LIG d   1      12.619   4.807  -0.852  0.00  0.00    -0.386 OA
ATOM     67  H   LIG d   1      13.506   4.577  -1.162  0.00  0.00     0.210 HD
ENDBRANCH  54  66
BRANCH  56  68
ATOM     68  O   LIG d   1      10.149   4.155  -2.001  0.00  0.00    -0.383 OA
ATOM     69  H   LIG d   1       9.304   4.032  -2.454  0.00  0.00     0.210 HD
ENDBRANCH  56  68
ENDBRANCH  47  48
ENDBRANCH   6  47
TORSDOF 17
ENDMDL
MODEL 9
REMARK VINA RESULT:      -5.3      2.989     10.341
REMARK  17 active torsions:
REMARK  status: ('A' for Active; 'I' for Inactive)
REMARK    1  A    between atoms: C_1  and  O_2 
REMARK    2  A    between atoms: O_2  and  C_3 
REMARK    3  A    between atoms: C_5  and  C_26 
REMARK    4  A    between atoms: C_8  and  O_9 
REMARK    5  A    between atoms: O_9  and  C_10 
REMARK    6  A    between atoms: C_12  and  O_25 
REMARK    7  A    between atoms: C_14  and  O_24 
REMARK    8  A    between atoms: C_16  and  O_23 
REMARK    9  A    between atoms: C_18  and  C_21 
REMARK   10  A    between atoms: C_21  and  O_22 
REMARK   11  A    between atoms: C_28  and  C_43 
REMARK   12  A    between atoms: C_32  and  C_39 
REMARK   13  A    between atoms: C_34  and  O_37 
REMARK   14  A    between atoms: O_37  and  C_38 
REMARK   15  A    between atoms: C_40  and  C_41 
REMARK   16  A    between atoms: C_41  and  O_42 
REMARK   17  A    between atoms: C_43  and  O_44 
ROOT
ATOM      1  C   LIG d   1       7.819   1.273  -6.676  0.00  0.00     0.162 A 
ATOM      2  C   LIG d   1       8.466   2.493  -6.785  0.00  0.00    -0.010 A 
ATOM      3  C   LIG d   1       9.648   2.712  -6.104  0.00  0.00    -0.003 A 
ATOM      4  C   LIG d   1      10.189   1.715  -5.312  0.00  0.00    -0.051 A 
ATOM      5  C   LIG d   1       9.548   0.496  -5.199  0.00  0.00    -0.016 A 
ATOM      6  C   LIG d   1       8.359   0.272  -5.875  0.00  0.00     0.165 A 
ATOM      7  H   LIG d   1       8.048   3.273  -7.404  0.00  0.00     0.066 H 
ATOM      8  H   LIG d   1      11.113   1.890  -4.781  0.00  0.00     0.062 H 
ATOM      9  H   LIG d   1       9.972  -0.282  -4.580  0.00  0.00     0.066 H 
ENDROOT
BRANCH   3  10
ATOM     10  C   LIG d   1      10.351   4.039  -6.224  0.00  0.00     0.134 C 
ATOM     11  H   LIG d   1      11.385   3.900  -6.540  0.00  0.00     0.079 H 
ATOM     12  O   LIG d   1       9.653   4.906  -7.134  0.00  0.00    -0.480 OA
ATOM     13  C   LIG d   1       9.772   6.196  -6.704  0.00  0.00     0.167 A 
ATOM     14  C   LIG d   1      10.136   6.249  -5.365  0.00  0.00     0.008 A 
ATOM     15  C   LIG d   1       9.577   7.391  -7.403  0.00  0.00     0.162 A 
ATOM     16  C   LIG d   1      10.286   4.817  -4.887  0.00  0.00     0.052 C 
ATOM     17  C   LIG d   1      10.294   7.455  -4.722  0.00  0.00    -0.047 A 
ATOM     18  H   LIG d   1      11.208   4.690  -4.319  0.00  0.00     0.041 H 
ATOM     19  C   LIG d   1      10.095   8.648  -5.419  0.00  0.00    -0.021 A 
ATOM     20  H   LIG d   1      10.572   7.478  -3.679  0.00  0.00     0.063 H 
ATOM     21  C   LIG d   1       9.737   8.605  -6.767  0.00  0.00    -0.009 A 
ATOM     22  H   LIG d   1       9.584   9.524  -7.314  0.00  0.00     0.066 H 
BRANCH  16  23
ATOM     23  C   LIG d   1       9.073   4.384  -4.062  0.00  0.00     0.055 C 
ATOM     24  H   LIG d   1       8.362   5.208  -4.002  0.00  0.00     0.056 H 
ATOM     25  H   LIG d   1       8.598   3.526  -4.537  0.00  0.00     0.056 H 
BRANCH  23  26
ATOM     26  O   LIG d   1       9.497   4.025  -2.746  0.00  0.00    -0.394 OA
ATOM     27  H   LIG d   1      10.068   4.682  -2.324  0.00  0.00     0.209 HD
ENDBRANCH  23  26
ENDBRANCH  16  23
BRANCH  19  28
ATOM     28  C   LIG d   1      10.264   9.947  -4.733  0.00  0.00    -0.056 C 
ATOM     29  C   LIG d   1       9.234  10.776  -4.622  0.00  0.00    -0.058 C 
ATOM     30  H   LIG d   1       8.273  10.501  -5.032  0.00  0.00     0.059 H 
ATOM     31  H   LIG d   1      11.224  10.220  -4.323  0.00  0.00     0.062 H 
BRANCH  29  32
ATOM     32  C   LIG d   1       9.405  12.100  -3.923  0.00  0.00     0.063 C 
ATOM     33  H   LIG d   1      10.466  12.299  -3.777  0.00  0.00     0.060 H 
ATOM     34  H   LIG d   1       8.968  12.891  -4.533  0.00  0.00     0.060 H 
BRANCH  32  35
ATOM     35  O   LIG d   1       8.748  12.057  -2.656  0.00  0.00    -0.391 OA
ATOM     36  H   LIG d   1       7.849  12.413  -2.666  0.00  0.00     0.210 HD
ENDBRANCH  32  35
ENDBRANCH  29  32
ENDBRANCH  19  28
BRANCH  15  37
ATOM     37  O   LIG d   1       9.226   7.356  -8.717  0.00  0.00    -0.491 OA
BRANCH  37  38
ATOM     38  C   LIG d   1      10.283   7.464  -9.673  0.00  0.00     0.079 C 
ATOM     39  H   LIG d   1       9.961   7.033 -10.621  0.00  0.00     0.066 H 
ATOM     40  H   LIG d   1      10.537   8.513  -9.818  0.00  0.00     0.066 H 
ATOM     41  H   LIG d   1      11.158   6.926  -9.309  0.00  0.00     0.066 H 
ENDBRANCH  37  38
ENDBRANCH  15  37
ENDBRANCH   3  10
BRANCH   1  42
ATOM     42  O   LIG d   1       6.656   1.056  -7.346  0.00  0.00    -0.491 OA
BRANCH  42  43
ATOM     43  C   LIG d   1       6.705   1.127  -8.773  0.00  0.00     0.079 C 
ATOM     44  H   LIG d   1       5.691   1.124  -9.172  0.00  0.00     0.066 H 
ATOM     45  H   LIG d   1       7.211   2.045  -9.073  0.00  0.00     0.066 H 
ATOM     46  H   LIG d   1       7.251   0.267  -9.160  0.00  0.00     0.066 H 
ENDBRANCH  42  43
ENDBRANCH   1  42
BRANCH   6  47
ATOM     47  O   LIG d   1       7.724  -0.926  -5.759  0.00  0.00    -0.457 OA
BRANCH  47  48
ATOM     48  C   LIG d   1       7.264  -1.293  -4.457  0.00  0.00     0.231 C 
ATOM     49  H   LIG d   1       8.090  -1.223  -3.747  0.00  0.00     0.108 H 
ATOM     50  O   LIG d   1       6.771  -2.634  -4.486  0.00  0.00    -0.331 OA
ATOM     51  C   LIG d   1       5.700  -2.842  -5.408  0.00  0.00     0.114 C 
ATOM     52  C   LIG d   1       4.513  -1.958  -5.016  0.00  0.00     0.112 C 
ATOM     53  H   LIG d   1       6.030  -2.583  -6.413  0.00  0.00     0.065 H 
ATOM     54  C   LIG d   1       4.962  -0.494  -4.994  0.00  0.00     0.115 C 
ATOM     55  H   LIG d   1       3.711  -2.083  -5.743  0.00  0.00     0.065 H 
ATOM     56  C   LIG d   1       6.140  -0.346  -4.027  0.00  0.00     0.145 C 
ATOM     57  H   LIG d   1       5.271  -0.193  -5.995  0.00  0.00     0.065 H 
ATOM     58  H   LIG d   1       6.502   0.681  -4.046  0.00  0.00     0.068 H 
BRANCH  51  59
ATOM     59  C   LIG d   1       5.275  -4.312  -5.373  0.00  0.00     0.073 C 
ATOM     60  H   LIG d   1       5.876  -4.880  -6.083  0.00  0.00     0.058 H 
ATOM     61  H   LIG d   1       5.426  -4.710  -4.370  0.00  0.00     0.058 H 
BRANCH  59  62
ATOM     62  O   LIG d   1       3.894  -4.417  -5.725  0.00  0.00    -0.392 OA
ATOM     63  H   LIG d   1       3.287  -4.164  -5.016  0.00  0.00     0.209 HD
ENDBRANCH  59  62
ENDBRANCH  51  59
BRANCH  52  64
ATOM     64  O   LIG d   1       4.044  -2.333  -3.719  0.00  0.00    -0.387 OA
ATOM     65  H   LIG d   1       4.375  -1.774  -3.004  0.00  0.00     0.210 HD
ENDBRANCH  52  64
BRANCH  54  66
ATOM     66  O   LIG d   1       3.880   0.333  -4.560  0.00  0.00    -0.386 OA
ATOM     67  H   LIG d   1       3.523   0.091  -3.695  0.00  0.00     0.210 HD
ENDBRANCH  54  66
BRANCH  56  68
ATOM     68  O   LIG d   1       5.717  -0.679  -2.703  0.00  0.00    -0.383 OA
ATOM     69  H   LIG d   1       4.816  -1.027  -2.653  0.00  0.00     0.210 HD
ENDBRANCH  56  68
ENDBRANCH  47  48
ENDBRANCH   6  47
TORSDOF 17
ENDMDL
