MODEL 1
REMARK VINA RESULT:      -5.1      0.000      0.000
REMARK  6 active torsions:
REMARK  status: ('A' for Active; 'I' for Inactive)
REMARK    1  A    between atoms: C_3  and  N_17 
REMARK    2  A    between atoms: N_9  and  C_10 
REMARK    3  A    between atoms: C_10  and  C_11 
REMARK    4  A    between atoms: C_11  and  C_13 
REMARK    5  A    between atoms: C_11  and  O_15 
REMARK    6  A    between atoms: C_13  and  O_14 
ROOT
ATOM      1  C   LIG d   1      10.229   7.277  -1.277  0.00  0.00     0.100 A 
ATOM      2  N   LIG d   1      10.302   6.249  -0.472  0.00  0.00    -0.221 NA
ATOM      3  C   LIG d   1      10.785   6.355   0.769  0.00  0.00     0.147 A 
ATOM      4  C   LIG d   1      11.229   7.608   1.225  0.00  0.00     0.148 A 
ATOM      5  N   LIG d   1      11.755   8.074   2.371  0.00  0.00    -0.215 NA
ATOM      6  C   LIG d   1      11.983   9.362   2.223  0.00  0.00     0.200 A 
ATOM      7  N   LIG d   1      11.619   9.755   1.007  0.00  0.00    -0.202 NA
ATOM      8  C   LIG d   1      11.145   8.711   0.346  0.00  0.00     0.167 A 
ATOM      9  N   LIG d   1      10.633   8.505  -0.914  0.00  0.00    -0.312 N 
ATOM     10 BR   LIG d   1      12.721  10.489   3.550  0.00  0.00    -0.006 Br
ATOM     11  H   LIG d   1       9.834   7.131  -2.272  0.00  0.00     0.103 H 
ENDROOT
BRANCH   9  12
ATOM     12  C   LIG d   1      10.529   9.622  -1.856  0.00  0.00     0.054 C 
ATOM     13  H   LIG d   1      11.313  10.349  -1.645  0.00  0.00     0.052 H 
ATOM     14  H   LIG d   1      10.644   9.250  -2.875  0.00  0.00     0.052 H 
BRANCH  12  15
ATOM     15  C   LIG d   1       9.161  10.289  -1.708  0.00  0.00     0.096 C 
ATOM     16  H   LIG d   1       8.379   9.532  -1.769  0.00  0.00     0.063 H 
BRANCH  15  17
ATOM     17  C   LIG d   1       8.967  11.311  -2.830  0.00  0.00     0.072 C 
ATOM     18  H   LIG d   1       9.475  12.240  -2.567  0.00  0.00     0.058 H 
ATOM     19  H   LIG d   1       9.386  10.919  -3.756  0.00  0.00     0.058 H 
BRANCH  17  20
ATOM     20  O   LIG d   1       7.572  11.566  -3.008  0.00  0.00    -0.392 OA
ATOM     21  H   LIG d   1       7.227  11.284  -3.865  0.00  0.00     0.209 HD
ENDBRANCH  17  20
ENDBRANCH  15  17
BRANCH  15  22
ATOM     22  O   LIG d   1       9.087  10.950  -0.443  0.00  0.00    -0.388 OA
ATOM     23  H   LIG d   1       8.185  11.082  -0.121  0.00  0.00     0.210 HD
ENDBRANCH  15  22
ENDBRANCH  12  15
ENDBRANCH   9  12
BRANCH   3  24
ATOM     24  N   LIG d   1      10.847   5.255   1.588  0.00  0.00    -0.341 N 
ATOM     25  H   LIG d   1      10.316   5.225   2.400  0.00  0.00     0.144 HD
ATOM     26  H   LIG d   1      11.420   4.508   1.355  0.00  0.00     0.144 HD
ENDBRANCH   3  24
TORSDOF 6
ENDMDL
MODEL 2
REMARK VINA RESULT:      -4.9      2.857      3.812
REMARK  6 active torsions:
REMARK  status: ('A' for Active; 'I' for Inactive)
REMARK    1  A    between atoms: C_3  and  N_17 
REMARK    2  A    between atoms: N_9  and  C_10 
REMARK    3  A    between atoms: C_10  and  C_11 
REMARK    4  A    between atoms: C_11  and  C_13 
REMARK    5  A    between atoms: C_11  and  O_15 
REMARK    6  A    between atoms: C_13  and  O_14 
ROOT
ATOM      1  C   LIG d   1      11.110   8.684   0.119  0.00  0.00     0.100 A 
ATOM      2  N   LIG d   1      11.143   7.580   0.820  0.00  0.00    -0.221 NA
ATOM      3  C   LIG d   1      10.864   6.391   0.281  0.00  0.00     0.147 A 
ATOM      4  C   LIG d   1      10.522   6.320  -1.080  0.00  0.00     0.148 A 
ATOM      5  N   LIG d   1      10.192   5.333  -1.931  0.00  0.00    -0.215 NA
ATOM      6  C   LIG d   1       9.969   5.868  -3.113  0.00  0.00     0.200 A 
ATOM      7  N   LIG d   1      10.145   7.184  -3.061  0.00  0.00    -0.202 NA
ATOM      8  C   LIG d   1      10.489   7.519  -1.827  0.00  0.00     0.167 A 
ATOM      9  N   LIG d   1      10.792   8.698  -1.186  0.00  0.00    -0.312 N 
ATOM     10 BR   LIG d   1       9.472   4.903  -4.661  0.00  0.00    -0.006 Br
ATOM     11  H   LIG d   1      11.340   9.619   0.609  0.00  0.00     0.103 H 
ENDROOT
BRANCH   9  12
ATOM     12  C   LIG d   1      10.769   9.963  -1.923  0.00  0.00     0.054 C 
ATOM     13  H   LIG d   1      11.544  10.624  -1.535  0.00  0.00     0.052 H 
ATOM     14  H   LIG d   1      10.953   9.771  -2.981  0.00  0.00     0.052 H 
BRANCH  12  15
ATOM     15  C   LIG d   1       9.401  10.626  -1.757  0.00  0.00     0.096 C 
ATOM     16  H   LIG d   1       8.673   9.881  -1.437  0.00  0.00     0.063 H 
BRANCH  15  17
ATOM     17  C   LIG d   1       8.960  11.229  -3.092  0.00  0.00     0.072 C 
ATOM     18  H   LIG d   1       9.549  12.123  -3.299  0.00  0.00     0.058 H 
ATOM     19  H   LIG d   1       9.114  10.501  -3.888  0.00  0.00     0.058 H 
BRANCH  17  20
ATOM     20  O   LIG d   1       7.575  11.576  -3.024  0.00  0.00    -0.392 OA
ATOM     21  H   LIG d   1       7.377  12.469  -3.336  0.00  0.00     0.209 HD
ENDBRANCH  17  20
ENDBRANCH  15  17
BRANCH  15  22
ATOM     22  O   LIG d   1       9.489  11.660  -0.773  0.00  0.00    -0.388 OA
ATOM     23  H   LIG d   1      10.366  12.059  -0.700  0.00  0.00     0.210 HD
ENDBRANCH  15  22
ENDBRANCH  12  15
ENDBRANCH   9  12
BRANCH   3  24
ATOM     24  N   LIG d   1      10.910   5.252   1.046  0.00  0.00    -0.341 N 
ATOM     25  H   LIG d   1      11.579   5.162   1.743  0.00  0.00     0.144 HD
ATOM     26  H   LIG d   1      10.273   4.536   0.890  0.00  0.00     0.144 HD
ENDBRANCH   3  24
TORSDOF 6
ENDMDL
MODEL 3
REMARK VINA RESULT:      -4.7     13.310     14.914
REMARK  6 active torsions:
REMARK  status: ('A' for Active; 'I' for Inactive)
REMARK    1  A    between atoms: C_3  and  N_17 
REMARK    2  A    between atoms: N_9  and  C_10 
REMARK    3  A    between atoms: C_10  and  C_11 
REMARK    4  A    between atoms: C_11  and  C_13 
REMARK    5  A    between atoms: C_11  and  O_15 
REMARK    6  A    between atoms: C_13  and  O_14 
ROOT
ATOM      1  C   LIG d   1       4.818  -2.462  -4.124  0.00  0.00     0.100 A 
ATOM      2  N   LIG d   1       4.451  -1.424  -3.419  0.00  0.00    -0.221 NA
ATOM      3  C   LIG d   1       3.915  -0.339  -3.985  0.00  0.00     0.147 A 
ATOM      4  C   LIG d   1       3.741  -0.309  -5.379  0.00  0.00     0.148 A 
ATOM      5  N   LIG d   1       3.253   0.580  -6.261  0.00  0.00    -0.215 NA
ATOM      6  C   LIG d   1       3.341   0.054  -7.465  0.00  0.00     0.200 A 
ATOM      7  N   LIG d   1       3.875  -1.160  -7.396  0.00  0.00    -0.202 NA
ATOM      8  C   LIG d   1       4.142  -1.438  -6.129  0.00  0.00     0.167 A 
ATOM      9  N   LIG d   1       4.684  -2.510  -5.459  0.00  0.00    -0.312 N 
ATOM     10 BR   LIG d   1       2.787   0.905  -9.060  0.00  0.00    -0.006 Br
ATOM     11  H   LIG d   1       5.250  -3.311  -3.613  0.00  0.00     0.103 H 
ENDROOT
BRANCH   9  12
ATOM     12  C   LIG d   1       5.113  -3.698  -6.200  0.00  0.00     0.054 C 
ATOM     13  H   LIG d   1       4.873  -3.575  -7.256  0.00  0.00     0.052 H 
ATOM     14  H   LIG d   1       6.189  -3.829  -6.086  0.00  0.00     0.052 H 
BRANCH  12  15
ATOM     15  C   LIG d   1       4.388  -4.929  -5.652  0.00  0.00     0.096 C 
ATOM     16  H   LIG d   1       4.204  -4.798  -4.587  0.00  0.00     0.063 H 
BRANCH  15  17
ATOM     17  C   LIG d   1       5.256  -6.171  -5.870  0.00  0.00     0.072 C 
ATOM     18  H   LIG d   1       5.403  -6.329  -6.939  0.00  0.00     0.058 H 
ATOM     19  H   LIG d   1       6.223  -6.027  -5.388  0.00  0.00     0.058 H 
BRANCH  17  20
ATOM     20  O   LIG d   1       4.606  -7.311  -5.304  0.00  0.00    -0.392 OA
ATOM     21  H   LIG d   1       4.293  -7.177  -4.400  0.00  0.00     0.209 HD
ENDBRANCH  17  20
ENDBRANCH  15  17
BRANCH  15  22
ATOM     22  O   LIG d   1       3.144  -5.093  -6.336  0.00  0.00    -0.388 OA
ATOM     23  H   LIG d   1       3.000  -4.456  -7.049  0.00  0.00     0.210 HD
ENDBRANCH  15  22
ENDBRANCH  12  15
ENDBRANCH   9  12
BRANCH   3  24
ATOM     24  N   LIG d   1       3.539   0.734  -3.215  0.00  0.00    -0.341 N 
ATOM     25  H   LIG d   1       3.928   1.608  -3.378  0.00  0.00     0.144 HD
ATOM     26  H   LIG d   1       2.884   0.619  -2.509  0.00  0.00     0.144 HD
ENDBRANCH   3  24
TORSDOF 6
ENDMDL
MODEL 4
REMARK VINA RESULT:      -4.6     12.963     14.550
REMARK  6 active torsions:
REMARK  status: ('A' for Active; 'I' for Inactive)
REMARK    1  A    between atoms: C_3  and  N_17 
REMARK    2  A    between atoms: N_9  and  C_10 
REMARK    3  A    between atoms: C_10  and  C_11 
REMARK    4  A    between atoms: C_11  and  C_13 
REMARK    5  A    between atoms: C_11  and  O_15 
REMARK    6  A    between atoms: C_13  and  O_14 
ROOT
ATOM      1  C   LIG d   1       4.439  -2.166  -7.776  0.00  0.00     0.100 A 
ATOM      2  N   LIG d   1       3.781  -1.155  -8.282  0.00  0.00    -0.221 NA
ATOM      3  C   LIG d   1       3.369  -0.131  -7.530  0.00  0.00     0.147 A 
ATOM      4  C   LIG d   1       3.649  -0.137  -6.153  0.00  0.00     0.148 A 
ATOM      5  N   LIG d   1       3.400   0.692  -5.126  0.00  0.00    -0.215 NA
ATOM      6  C   LIG d   1       3.911   0.160  -4.035  0.00  0.00     0.200 A 
ATOM      7  N   LIG d   1       4.492  -1.000  -4.321  0.00  0.00    -0.202 NA
ATOM      8  C   LIG d   1       4.360  -1.234  -5.618  0.00  0.00     0.167 A 
ATOM      9  N   LIG d   1       4.744  -2.243  -6.470  0.00  0.00    -0.312 N 
ATOM     10 BR   LIG d   1       3.831   0.935  -2.313  0.00  0.00    -0.006 Br
ATOM     11  H   LIG d   1       4.744  -2.969  -8.430  0.00  0.00     0.103 H 
ENDROOT
BRANCH   9  12
ATOM     12  C   LIG d   1       5.483  -3.399  -5.955  0.00  0.00     0.054 C 
ATOM     13  H   LIG d   1       6.540  -3.144  -5.867  0.00  0.00     0.052 H 
ATOM     14  H   LIG d   1       5.093  -3.673  -4.975  0.00  0.00     0.052 H 
BRANCH  12  15
ATOM     15  C   LIG d   1       5.321  -4.578  -6.916  0.00  0.00     0.096 C 
ATOM     16  H   LIG d   1       4.866  -4.231  -7.843  0.00  0.00     0.063 H 
BRANCH  15  17
ATOM     17  C   LIG d   1       4.424  -5.639  -6.275  0.00  0.00     0.072 C 
ATOM     18  H   LIG d   1       4.481  -6.562  -6.854  0.00  0.00     0.058 H 
ATOM     19  H   LIG d   1       4.758  -5.829  -5.255  0.00  0.00     0.058 H 
BRANCH  17  20
ATOM     20  O   LIG d   1       3.073  -5.172  -6.255  0.00  0.00    -0.392 OA
ATOM     21  H   LIG d   1       2.676  -5.078  -7.131  0.00  0.00     0.209 HD
ENDBRANCH  17  20
ENDBRANCH  15  17
BRANCH  15  22
ATOM     22  O   LIG d   1       6.603  -5.145  -7.196  0.00  0.00    -0.388 OA
ATOM     23  H   LIG d   1       6.575  -6.080  -7.438  0.00  0.00     0.210 HD
ENDBRANCH  15  22
ENDBRANCH  12  15
ENDBRANCH   9  12
BRANCH   3  24
ATOM     24  N   LIG d   1       2.681   0.914  -8.095  0.00  0.00    -0.341 N 
ATOM     25  H   LIG d   1       2.813   1.817  -7.764  0.00  0.00     0.144 HD
ATOM     26  H   LIG d   1       2.064   0.750  -8.825  0.00  0.00     0.144 HD
ENDBRANCH   3  24
TORSDOF 6
ENDMDL
MODEL 5
REMARK VINA RESULT:      -4.5      4.186      5.976
REMARK  6 active torsions:
REMARK  status: ('A' for Active; 'I' for Inactive)
REMARK    1  A    between atoms: C_3  and  N_17 
REMARK    2  A    between atoms: N_9  and  C_10 
REMARK    3  A    between atoms: C_10  and  C_11 
REMARK    4  A    between atoms: C_11  and  C_13 
REMARK    5  A    between atoms: C_11  and  O_15 
REMARK    6  A    between atoms: C_13  and  O_14 
ROOT
ATOM      1  C   LIG d   1       9.978   7.656  -4.463  0.00  0.00     0.100 A 
ATOM      2  N   LIG d   1       9.605   7.774  -5.711  0.00  0.00    -0.221 NA
ATOM      3  C   LIG d   1       9.392   8.966  -6.276  0.00  0.00     0.147 A 
ATOM      4  C   LIG d   1       9.571  10.129  -5.509  0.00  0.00     0.148 A 
ATOM      5  N   LIG d   1       9.453  11.448  -5.735  0.00  0.00    -0.215 NA
ATOM      6  C   LIG d   1       9.755  12.084  -4.622  0.00  0.00     0.200 A 
ATOM      7  N   LIG d   1      10.071  11.214  -3.669  0.00  0.00    -0.202 NA
ATOM      8  C   LIG d   1       9.974   9.989  -4.162  0.00  0.00     0.167 A 
ATOM      9  N   LIG d   1      10.171   8.720  -3.667  0.00  0.00    -0.312 N 
ATOM     10 BR   LIG d   1       9.743  13.963  -4.412  0.00  0.00    -0.006 Br
ATOM     11  H   LIG d   1      10.132   6.667  -4.057  0.00  0.00     0.103 H 
ENDROOT
BRANCH   9  12
ATOM     12  C   LIG d   1      10.588   8.531  -2.275  0.00  0.00     0.054 C 
ATOM     13  H   LIG d   1      11.277   7.688  -2.214  0.00  0.00     0.052 H 
ATOM     14  H   LIG d   1      11.087   9.433  -1.919  0.00  0.00     0.052 H 
BRANCH  12  15
ATOM     15  C   LIG d   1       9.360   8.251  -1.408  0.00  0.00     0.096 C 
ATOM     16  H   LIG d   1       8.532   7.934  -2.041  0.00  0.00     0.063 H 
BRANCH  15  17
ATOM     17  C   LIG d   1       8.967   9.523  -0.654  0.00  0.00     0.072 C 
ATOM     18  H   LIG d   1       8.542   9.255   0.315  0.00  0.00     0.058 H 
ATOM     19  H   LIG d   1       9.850  10.144  -0.503  0.00  0.00     0.058 H 
BRANCH  17  20
ATOM     20  O   LIG d   1       7.998  10.248  -1.415  0.00  0.00    -0.392 OA
ATOM     21  H   LIG d   1       7.961   9.994  -2.347  0.00  0.00     0.209 HD
ENDBRANCH  17  20
ENDBRANCH  15  17
BRANCH  15  22
ATOM     22  O   LIG d   1       9.666   7.217  -0.469  0.00  0.00    -0.388 OA
ATOM     23  H   LIG d   1       8.893   6.861  -0.011  0.00  0.00     0.210 HD
ENDBRANCH  15  22
ENDBRANCH  12  15
ENDBRANCH   9  12
BRANCH   3  24
ATOM     24  N   LIG d   1       9.002   9.053  -7.590  0.00  0.00    -0.341 N 
ATOM     25  H   LIG d   1       8.085   8.853  -7.838  0.00  0.00     0.144 HD
ATOM     26  H   LIG d   1       9.642   9.316  -8.270  0.00  0.00     0.144 HD
ENDBRANCH   3  24
TORSDOF 6
ENDMDL
MODEL 6
REMARK VINA RESULT:      -4.5     12.625     14.190
REMARK  6 active torsions:
REMARK  status: ('A' for Active; 'I' for Inactive)
REMARK    1  A    between atoms: C_3  and  N_17 
REMARK    2  A    between atoms: N_9  and  C_10 
REMARK    3  A    between atoms: C_10  and  C_11 
REMARK    4  A    between atoms: C_11  and  C_13 
REMARK    5  A    between atoms: C_11  and  O_15 
REMARK    6  A    between atoms: C_13  and  O_14 
ROOT
ATOM      1  C   LIG d   1       4.765  -3.148  -5.715  0.00  0.00     0.100 A 
ATOM      2  N   LIG d   1       4.563  -3.743  -6.862  0.00  0.00    -0.221 NA
ATOM      3  C   LIG d   1       4.179  -3.071  -7.950  0.00  0.00     0.147 A 
ATOM      4  C   LIG d   1       3.983  -1.682  -7.862  0.00  0.00     0.148 A 
ATOM      5  N   LIG d   1       3.613  -0.715  -8.719  0.00  0.00    -0.215 NA
ATOM      6  C   LIG d   1       3.600   0.429  -8.067  0.00  0.00     0.200 A 
ATOM      7  N   LIG d   1       3.955   0.238  -6.801  0.00  0.00    -0.202 NA
ATOM      8  C   LIG d   1       4.204  -1.050  -6.618  0.00  0.00     0.167 A 
ATOM      9  N   LIG d   1       4.600  -1.825  -5.552  0.00  0.00    -0.312 N 
ATOM     10 BR   LIG d   1       3.145   2.100  -8.823  0.00  0.00    -0.006 Br
ATOM     11  H   LIG d   1       5.071  -3.742  -4.867  0.00  0.00     0.103 H 
ENDROOT
BRANCH   9  12
ATOM     12  C   LIG d   1       4.839  -1.209  -4.245  0.00  0.00     0.054 C 
ATOM     13  H   LIG d   1       5.613  -1.767  -3.717  0.00  0.00     0.052 H 
ATOM     14  H   LIG d   1       5.166  -0.178  -4.383  0.00  0.00     0.052 H 
BRANCH  12  15
ATOM     15  C   LIG d   1       3.547  -1.229  -3.427  0.00  0.00     0.096 C 
ATOM     16  H   LIG d   1       2.720  -1.549  -4.061  0.00  0.00     0.063 H 
BRANCH  15  17
ATOM     17  C   LIG d   1       3.262   0.174  -2.888  0.00  0.00     0.072 C 
ATOM     18  H   LIG d   1       2.296   0.180  -2.381  0.00  0.00     0.058 H 
ATOM     19  H   LIG d   1       4.043   0.458  -2.182  0.00  0.00     0.058 H 
BRANCH  17  20
ATOM     20  O   LIG d   1       3.237   1.105  -3.972  0.00  0.00    -0.392 OA
ATOM     21  H   LIG d   1       3.584   0.751  -4.802  0.00  0.00     0.209 HD
ENDBRANCH  17  20
ENDBRANCH  15  17
BRANCH  15  22
ATOM     22  O   LIG d   1       3.689  -2.140  -2.334  0.00  0.00    -0.388 OA
ATOM     23  H   LIG d   1       4.186  -2.940  -2.551  0.00  0.00     0.210 HD
ENDBRANCH  15  22
ENDBRANCH  12  15
ENDBRANCH   9  12
BRANCH   3  24
ATOM     24  N   LIG d   1       3.977  -3.727  -9.139  0.00  0.00    -0.341 N 
ATOM     25  H   LIG d   1       3.444  -4.538  -9.160  0.00  0.00     0.144 HD
ATOM     26  H   LIG d   1       4.366  -3.381  -9.957  0.00  0.00     0.144 HD
ENDBRANCH   3  24
TORSDOF 6
ENDMDL
MODEL 7
REMARK VINA RESULT:      -4.4      3.703      4.680
REMARK  6 active torsions:
REMARK  status: ('A' for Active; 'I' for Inactive)
REMARK    1  A    between atoms: C_3  and  N_17 
REMARK    2  A    between atoms: N_9  and  C_10 
REMARK    3  A    between atoms: C_10  and  C_11 
REMARK    4  A    between atoms: C_11  and  C_13 
REMARK    5  A    between atoms: C_11  and  O_15 
REMARK    6  A    between atoms: C_13  and  O_14 
ROOT
ATOM      1  C   LIG d   1      12.604   7.214   0.007  0.00  0.00     0.100 A 
ATOM      2  N   LIG d   1      13.630   6.477  -0.328  0.00  0.00    -0.221 NA
ATOM      3  C   LIG d   1      13.508   5.420  -1.137  0.00  0.00     0.147 A 
ATOM      4  C   LIG d   1      12.240   5.089  -1.643  0.00  0.00     0.148 A 
ATOM      5  N   LIG d   1      11.757   4.131  -2.453  0.00  0.00    -0.215 NA
ATOM      6  C   LIG d   1      10.459   4.318  -2.580  0.00  0.00     0.200 A 
ATOM      7  N   LIG d   1      10.077   5.376  -1.874  0.00  0.00    -0.202 NA
ATOM      8  C   LIG d   1      11.138   5.893  -1.273  0.00  0.00     0.167 A 
ATOM      9  N   LIG d   1      11.361   6.961  -0.435  0.00  0.00    -0.312 N 
ATOM     10 BR   LIG d   1       9.308   3.237  -3.619  0.00  0.00    -0.006 Br
ATOM     11  H   LIG d   1      12.760   8.054   0.668  0.00  0.00     0.103 H 
ENDROOT
BRANCH   9  12
ATOM     12  C   LIG d   1      10.246   7.820  -0.027  0.00  0.00     0.054 C 
ATOM     13  H   LIG d   1       9.557   7.249   0.595  0.00  0.00     0.052 H 
ATOM     14  H   LIG d   1      10.629   8.668   0.541  0.00  0.00     0.052 H 
BRANCH  12  15
ATOM     15  C   LIG d   1       9.512   8.328  -1.269  0.00  0.00     0.096 C 
ATOM     16  H   LIG d   1      10.059   8.027  -2.163  0.00  0.00     0.063 H 
BRANCH  15  17
ATOM     17  C   LIG d   1       9.420   9.854  -1.219  0.00  0.00     0.072 C 
ATOM     18  H   LIG d   1       9.748  10.206  -0.240  0.00  0.00     0.058 H 
ATOM     19  H   LIG d   1      10.059  10.283  -1.990  0.00  0.00     0.058 H 
BRANCH  17  20
ATOM     20  O   LIG d   1       8.067  10.257  -1.441  0.00  0.00    -0.392 OA
ATOM     21  H   LIG d   1       7.412   9.596  -1.181  0.00  0.00     0.209 HD
ENDBRANCH  17  20
ENDBRANCH  15  17
BRANCH  15  22
ATOM     22  O   LIG d   1       8.196   7.772  -1.306  0.00  0.00    -0.388 OA
ATOM     23  H   LIG d   1       7.785   7.679  -0.436  0.00  0.00     0.210 HD
ENDBRANCH  15  22
ENDBRANCH  12  15
ENDBRANCH   9  12
BRANCH   3  24
ATOM     24  N   LIG d   1      14.607   4.668  -1.470  0.00  0.00    -0.341 N 
ATOM     25  H   LIG d   1      14.709   3.773  -1.111  0.00  0.00     0.144 HD
ATOM     26  H   LIG d   1      15.282   5.032  -2.064  0.00  0.00     0.144 HD
ENDBRANCH   3  24
TORSDOF 6
ENDMDL
MODEL 8
REMARK VINA RESULT:      -4.3     10.636     12.052
REMARK  6 active torsions:
REMARK  status: ('A' for Active; 'I' for Inactive)
REMARK    1  A    between atoms: C_3  and  N_17 
REMARK    2  A    between atoms: N_9  and  C_10 
REMARK    3  A    between atoms: C_10  and  C_11 
REMARK    4  A    between atoms: C_11  and  C_13 
REMARK    5  A    between atoms: C_11  and  O_15 
REMARK    6  A    between atoms: C_13  and  O_14 
ROOT
ATOM      1  C   LIG d   1       6.075   1.116  -3.237  0.00  0.00     0.100 A 
ATOM      2  N   LIG d   1       7.018   1.628  -3.984  0.00  0.00    -0.221 NA
ATOM      3  C   LIG d   1       7.932   0.864  -4.591  0.00  0.00     0.147 A 
ATOM      4  C   LIG d   1       7.880  -0.529  -4.421  0.00  0.00     0.148 A 
ATOM      5  N   LIG d   1       8.606  -1.571  -4.862  0.00  0.00    -0.215 NA
ATOM      6  C   LIG d   1       8.082  -2.674  -4.370  0.00  0.00     0.200 A 
ATOM      7  N   LIG d   1       7.028  -2.383  -3.615  0.00  0.00    -0.202 NA
ATOM      8  C   LIG d   1       6.856  -1.070  -3.612  0.00  0.00     0.167 A 
ATOM      9  N   LIG d   1       5.960  -0.205  -3.028  0.00  0.00    -0.312 N 
ATOM     10 BR   LIG d   1       8.734  -4.419  -4.691  0.00  0.00    -0.006 Br
ATOM     11  H   LIG d   1       5.365   1.782  -2.767  0.00  0.00     0.103 H 
ENDROOT
BRANCH   9  12
ATOM     12  C   LIG d   1       4.883  -0.725  -2.181  0.00  0.00     0.054 C 
ATOM     13  H   LIG d   1       5.297  -1.428  -1.458  0.00  0.00     0.052 H 
ATOM     14  H   LIG d   1       4.407   0.101  -1.651  0.00  0.00     0.052 H 
BRANCH  12  15
ATOM     15  C   LIG d   1       3.847  -1.437  -3.052  0.00  0.00     0.096 C 
ATOM     16  H   LIG d   1       4.221  -1.514  -4.072  0.00  0.00     0.063 H 
BRANCH  15  17
ATOM     17  C   LIG d   1       2.541  -0.640  -3.046  0.00  0.00     0.072 C 
ATOM     18  H   LIG d   1       1.798  -1.164  -2.443  0.00  0.00     0.058 H 
ATOM     19  H   LIG d   1       2.720   0.348  -2.624  0.00  0.00     0.058 H 
BRANCH  17  20
ATOM     20  O   LIG d   1       2.059  -0.507  -4.385  0.00  0.00    -0.392 OA
ATOM     21  H   LIG d   1       2.300  -1.241  -4.965  0.00  0.00     0.209 HD
ENDBRANCH  17  20
ENDBRANCH  15  17
BRANCH  15  22
ATOM     22  O   LIG d   1       3.608  -2.747  -2.532  0.00  0.00    -0.388 OA
ATOM     23  H   LIG d   1       3.470  -3.421  -3.212  0.00  0.00     0.210 HD
ENDBRANCH  15  22
ENDBRANCH  12  15
ENDBRANCH   9  12
BRANCH   3  24
ATOM     24  N   LIG d   1       8.909   1.434  -5.369  0.00  0.00    -0.341 N 
ATOM     25  H   LIG d   1       9.778   1.009  -5.445  0.00  0.00     0.144 HD
ATOM     26  H   LIG d   1       8.730   2.262  -5.843  0.00  0.00     0.144 HD
ENDBRANCH   3  24
TORSDOF 6
ENDMDL
MODEL 9
REMARK VINA RESULT:      -4.3     11.701     13.337
REMARK  6 active torsions:
REMARK  status: ('A' for Active; 'I' for Inactive)
REMARK    1  A    between atoms: C_3  and  N_17 
REMARK    2  A    between atoms: N_9  and  C_10 
REMARK    3  A    between atoms: C_10  and  C_11 
REMARK    4  A    between atoms: C_11  and  C_13 
REMARK    5  A    between atoms: C_11  and  O_15 
REMARK    6  A    between atoms: C_13  and  O_14 
ROOT
ATOM      1  C   LIG d   1       5.714  -1.805  -7.473  0.00  0.00     0.100 A 
ATOM      2  N   LIG d   1       4.531  -1.362  -7.810  0.00  0.00    -0.221 NA
ATOM      3  C   LIG d   1       3.767  -0.668  -6.962  0.00  0.00     0.147 A 
ATOM      4  C   LIG d   1       4.246  -0.408  -5.667  0.00  0.00     0.148 A 
ATOM      5  N   LIG d   1       3.771   0.234  -4.585  0.00  0.00    -0.215 NA
ATOM      6  C   LIG d   1       4.677   0.157  -3.632  0.00  0.00     0.200 A 
ATOM      7  N   LIG d   1       5.737  -0.519  -4.061  0.00  0.00    -0.202 NA
ATOM      8  C   LIG d   1       5.525  -0.893  -5.314  0.00  0.00     0.167 A 
ATOM      9  N   LIG d   1       6.240  -1.597  -6.255  0.00  0.00    -0.312 N 
ATOM     10 BR   LIG d   1       4.495   0.904  -1.905  0.00  0.00    -0.006 Br
ATOM     11  H   LIG d   1       6.286  -2.365  -8.199  0.00  0.00     0.103 H 
ENDROOT
BRANCH   9  12
ATOM     12  C   LIG d   1       7.570  -2.117  -5.930  0.00  0.00     0.054 C 
ATOM     13  H   LIG d   1       8.145  -2.243  -6.848  0.00  0.00     0.052 H 
ATOM     14  H   LIG d   1       8.085  -1.415  -5.274  0.00  0.00     0.052 H 
BRANCH  12  15
ATOM     15  C   LIG d   1       7.432  -3.467  -5.225  0.00  0.00     0.096 C 
ATOM     16  H   LIG d   1       6.389  -3.630  -4.952  0.00  0.00     0.063 H 
BRANCH  15  17
ATOM     17  C   LIG d   1       8.295  -3.474  -3.962  0.00  0.00     0.072 C 
ATOM     18  H   LIG d   1       8.142  -4.410  -3.422  0.00  0.00     0.058 H 
ATOM     19  H   LIG d   1       9.345  -3.384  -4.239  0.00  0.00     0.058 H 
BRANCH  17  20
ATOM     20  O   LIG d   1       7.926  -2.375  -3.126  0.00  0.00    -0.392 OA
ATOM     21  H   LIG d   1       8.677  -1.875  -2.781  0.00  0.00     0.209 HD
ENDBRANCH  17  20
ENDBRANCH  15  17
BRANCH  15  22
ATOM     22  O   LIG d   1       7.863  -4.510  -6.103  0.00  0.00    -0.388 OA
ATOM     23  H   LIG d   1       7.992  -4.225  -7.018  0.00  0.00     0.210 HD
ENDBRANCH  15  22
ENDBRANCH  12  15
ENDBRANCH   9  12
BRANCH   3  24
ATOM     24  N   LIG d   1       2.530  -0.216  -7.349  0.00  0.00    -0.341 N 
ATOM     25  H   LIG d   1       1.739  -0.483  -6.854  0.00  0.00     0.144 HD
ATOM     26  H   LIG d   1       2.446   0.371  -8.117  0.00  0.00     0.144 HD
ENDBRANCH   3  24
TORSDOF 6
ENDMDL
MODEL 10
REMARK VINA RESULT:      -4.3     13.642     15.121
REMARK  6 active torsions:
REMARK  status: ('A' for Active; 'I' for Inactive)
REMARK    1  A    between atoms: C_3  and  N_17 
REMARK    2  A    between atoms: N_9  and  C_10 
REMARK    3  A    between atoms: C_10  and  C_11 
REMARK    4  A    between atoms: C_11  and  C_13 
REMARK    5  A    between atoms: C_11  and  O_15 
REMARK    6  A    between atoms: C_13  and  O_14 
ROOT
ATOM      1  C   LIG d   1       7.581  -4.996  -5.672  0.00  0.00     0.100 A 
ATOM      2  N   LIG d   1       8.423  -4.054  -5.336  0.00  0.00    -0.221 NA
ATOM      3  C   LIG d   1       8.034  -2.955  -4.683  0.00  0.00     0.147 A 
ATOM      4  C   LIG d   1       6.678  -2.804  -4.349  0.00  0.00     0.148 A 
ATOM      5  N   LIG d   1       5.950  -1.866  -3.717  0.00  0.00    -0.215 NA
ATOM      6  C   LIG d   1       4.696  -2.268  -3.693  0.00  0.00     0.200 A 
ATOM      7  N   LIG d   1       4.581  -3.448  -4.292  0.00  0.00    -0.202 NA
ATOM      8  C   LIG d   1       5.776  -3.828  -4.717  0.00  0.00     0.167 A 
ATOM      9  N   LIG d   1       6.270  -4.923  -5.387  0.00  0.00    -0.312 N 
ATOM     10 BR   LIG d   1       3.267  -1.305  -2.915  0.00  0.00    -0.006 Br
ATOM     11  H   LIG d   1       7.951  -5.860  -6.203  0.00  0.00     0.103 H 
ENDROOT
BRANCH   9  12
ATOM     12  C   LIG d   1       5.369  -6.007  -5.788  0.00  0.00     0.054 C 
ATOM     13  H   LIG d   1       5.834  -6.967  -5.563  0.00  0.00     0.052 H 
ATOM     14  H   LIG d   1       4.431  -5.921  -5.239  0.00  0.00     0.052 H 
BRANCH  12  15
ATOM     15  C   LIG d   1       5.093  -5.912  -7.289  0.00  0.00     0.096 C 
ATOM     16  H   LIG d   1       5.938  -5.435  -7.785  0.00  0.00     0.063 H 
BRANCH  15  17
ATOM     17  C   LIG d   1       3.830  -5.081  -7.524  0.00  0.00     0.072 C 
ATOM     18  H   LIG d   1       4.108  -4.048  -7.737  0.00  0.00     0.058 H 
ATOM     19  H   LIG d   1       3.278  -5.490  -8.370  0.00  0.00     0.058 H 
BRANCH  17  20
ATOM     20  O   LIG d   1       3.009  -5.121  -6.355  0.00  0.00    -0.392 OA
ATOM     21  H   LIG d   1       3.299  -5.763  -5.693  0.00  0.00     0.209 HD
ENDBRANCH  17  20
ENDBRANCH  15  17
BRANCH  15  22
ATOM     22  O   LIG d   1       4.905  -7.225  -7.823  0.00  0.00    -0.388 OA
ATOM     23  H   LIG d   1       4.243  -7.749  -7.353  0.00  0.00     0.210 HD
ENDBRANCH  15  22
ENDBRANCH  12  15
ENDBRANCH   9  12
BRANCH   3  24
ATOM     24  N   LIG d   1       8.946  -1.987  -4.345  0.00  0.00    -0.341 N 
ATOM     25  H   LIG d   1       9.883  -2.216  -4.248  0.00  0.00     0.144 HD
ATOM     26  H   LIG d   1       8.653  -1.072  -4.203  0.00  0.00     0.144 HD
ENDBRANCH   3  24
TORSDOF 6
ENDMDL
