MODEL 1
REMARK VINA RESULT:      -6.1      0.000      0.000
REMARK  12 active torsions:
REMARK  status: ('A' for Active; 'I' for Inactive)
REMARK    1  A    between atoms: C_1  and  O_2 
REMARK    2  A    between atoms: O_2  and  C_3 
REMARK    3  A    between atoms: C_3  and  C_4 
REMARK    4  A    between atoms: C_4  and  O_5 
REMARK    5  A    between atoms: O_5  and  C_6 
REMARK    6  A    between atoms: C_7  and  C_12 
REMARK    7  A    between atoms: C_14  and  C_17 
REMARK    8  A    between atoms: N_22  and  C_23 
REMARK    9  A    between atoms: C_23  and  C_24 
REMARK   10  A    between atoms: C_27  and  O_31 
REMARK   11  A    between atoms: C_29  and  O_30 
REMARK   12  A    between atoms: O_31  and  C_32 
ROOT
ATOM      1  C   LIG d   1       4.776  -1.894  -4.100  0.00  0.00     0.060 C 
ATOM      2  H   LIG d   1       5.560  -1.178  -3.856  0.00  0.00     0.095 H 
ATOM      3  C   LIG d   1       3.928  -2.225  -2.847  0.00  0.00     0.004 C 
ATOM      4  C   LIG d   1       2.947  -1.033  -2.769  0.00  0.00    -0.007 C 
ATOM      5  C   LIG d   1       2.902  -0.455  -4.196  0.00  0.00    -0.031 C 
ATOM      6  N   LIG d   1       3.789  -1.293  -5.034  0.00  0.00     0.247 N 
ATOM      7  H   LIG d   1       3.388  -3.162  -2.983  0.00  0.00     0.033 H 
ATOM      8  H   LIG d   1       4.555  -2.267  -1.957  0.00  0.00     0.033 H 
ATOM      9  H   LIG d   1       1.957  -1.377  -2.470  0.00  0.00     0.032 H 
ATOM     10  H   LIG d   1       3.316  -0.284  -2.068  0.00  0.00     0.032 H 
ATOM     11  H   LIG d   1       1.883  -0.490  -4.580  0.00  0.00     0.082 H 
ATOM     12  H   LIG d   1       3.264   0.574  -4.190  0.00  0.00     0.082 H 
ATOM     13  H   LIG d   1       3.254  -2.018  -5.489  0.00  0.00     0.204 HD
ENDROOT
BRANCH   1  14
ATOM     14  C   LIG d   1       5.368  -3.149  -4.689  0.00  0.00     0.276 A 
ATOM     15  N   LIG d   1       4.713  -4.237  -4.978  0.00  0.00    -0.186 NA
ATOM     16  C   LIG d   1       5.551  -5.158  -5.487  0.00  0.00     0.207 A 
ATOM     17  N   LIG d   1       6.760  -4.653  -5.519  0.00  0.00    -0.056 NA
ATOM     18  O   LIG d   1       6.657  -3.333  -5.003  0.00  0.00    -0.332 OA
BRANCH  16  19
ATOM     19  C   LIG d   1       5.171  -6.521  -5.932  0.00  0.00     0.084 A 
ATOM     20  C   LIG d   1       4.397  -6.703  -7.084  0.00  0.00     0.226 A 
ATOM     21  N   LIG d   1       4.055  -7.918  -7.476  0.00  0.00    -0.221 NA
ATOM     22  C   LIG d   1       4.434  -8.995  -6.812  0.00  0.00     0.031 A 
ATOM     23  C   LIG d   1       5.199  -8.894  -5.667  0.00  0.00    -0.043 A 
ATOM     24  H   LIG d   1       4.137  -9.970  -7.170  0.00  0.00     0.083 H 
ATOM     25  C   LIG d   1       5.579  -7.643  -5.210  0.00  0.00    -0.044 A 
ATOM     26  H   LIG d   1       5.498  -9.784  -5.132  0.00  0.00     0.063 H 
ATOM     27  H   LIG d   1       6.177  -7.538  -4.316  0.00  0.00     0.063 H 
BRANCH  20  28
ATOM     28  O   LIG d   1       3.990  -5.626  -7.800  0.00  0.00    -0.474 OA
BRANCH  28  29
ATOM     29  C   LIG d   1       3.944  -5.771  -9.221  0.00  0.00     0.115 C 
ATOM     30  H   LIG d   1       4.104  -6.817  -9.484  0.00  0.00     0.072 H 
ATOM     31  H   LIG d   1       4.723  -5.158  -9.674  0.00  0.00     0.072 H 
BRANCH  29  32
ATOM     32  C   LIG d   1       2.576  -5.320  -9.735  0.00  0.00     0.081 C 
ATOM     33  H   LIG d   1       2.660  -5.027 -10.782  0.00  0.00     0.059 H 
ATOM     34  H   LIG d   1       2.228  -4.471  -9.148  0.00  0.00     0.059 H 
BRANCH  32  35
ATOM     35  O   LIG d   1       1.644  -6.396  -9.615  0.00  0.00    -0.380 OA
BRANCH  35  36
ATOM     36  C   LIG d   1       0.372  -6.133 -10.211  0.00  0.00     0.037 C 
ATOM     37  H   LIG d   1       0.439  -6.275 -11.290  0.00  0.00     0.052 H 
ATOM     38  H   LIG d   1      -0.370  -6.819  -9.800  0.00  0.00     0.052 H 
ATOM     39  H   LIG d   1       0.075  -5.106  -9.997  0.00  0.00     0.052 H 
ENDBRANCH  35  36
ENDBRANCH  32  35
ENDBRANCH  29  32
ENDBRANCH  28  29
ENDBRANCH  20  28
ENDBRANCH  16  19
ENDBRANCH   1  14
BRANCH   6  40
ATOM     40  C   LIG d   1       4.478  -0.466  -6.035  0.00  0.00    -0.002 C 
ATOM     41  H   LIG d   1       4.580   0.551  -5.657  0.00  0.00     0.087 H 
ATOM     42  H   LIG d   1       5.465  -0.882  -6.232  0.00  0.00     0.087 H 
BRANCH  40  43
ATOM     43  C   LIG d   1       3.675  -0.450  -7.310  0.00  0.00     0.039 A 
ATOM     44  C   LIG d   1       3.420  -1.635  -7.984  0.00  0.00     0.129 A 
ATOM     45  C   LIG d   1       2.676  -1.620  -9.155  0.00  0.00     0.022 A 
ATOM     46  C   LIG d   1       2.199  -0.418  -9.654  0.00  0.00     0.124 A 
ATOM     47  H   LIG d   1       2.474  -2.542  -9.678  0.00  0.00     0.069 H 
ATOM     48  C   LIG d   1       2.461   0.766  -8.978  0.00  0.00    -0.019 A 
ATOM     49  C   LIG d   1       3.197   0.747  -7.810  0.00  0.00    -0.047 A 
ATOM     50  H   LIG d   1       2.089   1.703  -9.367  0.00  0.00     0.065 H 
ATOM     51  H   LIG d   1       3.400   1.670  -7.285  0.00  0.00     0.062 H 
BRANCH  44  52
ATOM     52  O   LIG d   1       3.895  -2.811  -7.495  0.00  0.00    -0.506 OA
ATOM     53  H   LIG d   1       3.450  -3.111  -6.690  0.00  0.00     0.292 HD
ENDBRANCH  44  52
BRANCH  46  54
ATOM     54  O   LIG d   1       1.475  -0.398 -10.804  0.00  0.00    -0.495 OA
BRANCH  54  55
ATOM     55  C   LIG d   1       1.443  -1.603 -11.572  0.00  0.00     0.079 C 
ATOM     56  H   LIG d   1       2.348  -1.672 -12.176  0.00  0.00     0.066 H 
ATOM     57  H   LIG d   1       1.388  -2.460 -10.901  0.00  0.00     0.066 H 
ATOM     58  H   LIG d   1       0.570  -1.594 -12.224  0.00  0.00     0.066 H 
ENDBRANCH  54  55
ENDBRANCH  46  54
ENDBRANCH  40  43
ENDBRANCH   6  40
TORSDOF 12
ENDMDL
MODEL 2
REMARK VINA RESULT:      -6.1      2.347      5.776
REMARK  12 active torsions:
REMARK  status: ('A' for Active; 'I' for Inactive)
REMARK    1  A    between atoms: C_1  and  O_2 
REMARK    2  A    between atoms: O_2  and  C_3 
REMARK    3  A    between atoms: C_3  and  C_4 
REMARK    4  A    between atoms: C_4  and  O_5 
REMARK    5  A    between atoms: O_5  and  C_6 
REMARK    6  A    between atoms: C_7  and  C_12 
REMARK    7  A    between atoms: C_14  and  C_17 
REMARK    8  A    between atoms: N_22  and  C_23 
REMARK    9  A    between atoms: C_23  and  C_24 
REMARK   10  A    between atoms: C_27  and  O_31 
REMARK   11  A    between atoms: C_29  and  O_30 
REMARK   12  A    between atoms: O_31  and  C_32 
ROOT
ATOM      1  C   LIG d   1       3.538  -0.027  -3.917  0.00  0.00     0.060 C 
ATOM      2  H   LIG d   1       2.638  -0.572  -3.634  0.00  0.00     0.095 H 
ATOM      3  C   LIG d   1       3.450   1.450  -3.459  0.00  0.00     0.004 C 
ATOM      4  C   LIG d   1       3.850   1.374  -1.968  0.00  0.00    -0.007 C 
ATOM      5  C   LIG d   1       4.650   0.065  -1.833  0.00  0.00    -0.031 C 
ATOM      6  N   LIG d   1       4.718  -0.546  -3.179  0.00  0.00     0.247 N 
ATOM      7  H   LIG d   1       4.153   2.069  -4.016  0.00  0.00     0.033 H 
ATOM      8  H   LIG d   1       2.433   1.827  -3.566  0.00  0.00     0.033 H 
ATOM      9  H   LIG d   1       4.473   2.227  -1.699  0.00  0.00     0.032 H 
ATOM     10  H   LIG d   1       2.961   1.341  -1.338  0.00  0.00     0.032 H 
ATOM     11  H   LIG d   1       5.655   0.279  -1.469  0.00  0.00     0.082 H 
ATOM     12  H   LIG d   1       4.141  -0.611  -1.146  0.00  0.00     0.082 H 
ATOM     13  H   LIG d   1       5.570  -0.267  -3.644  0.00  0.00     0.204 HD
ENDROOT
BRANCH   1  14
ATOM     14  C   LIG d   1       3.763  -0.110  -5.406  0.00  0.00     0.276 A 
ATOM     15  N   LIG d   1       2.937  -0.621  -6.273  0.00  0.00    -0.186 NA
ATOM     16  C   LIG d   1       3.453  -0.530  -7.511  0.00  0.00     0.207 A 
ATOM     17  N   LIG d   1       4.630   0.044  -7.433  0.00  0.00    -0.056 NA
ATOM     18  O   LIG d   1       4.845   0.330  -6.059  0.00  0.00    -0.332 OA
BRANCH  16  19
ATOM     19  C   LIG d   1       2.804  -1.004  -8.757  0.00  0.00     0.084 A 
ATOM     20  C   LIG d   1       2.875  -2.353  -9.127  0.00  0.00     0.226 A 
ATOM     21  N   LIG d   1       2.301  -2.773 -10.241  0.00  0.00    -0.221 NA
ATOM     22  C   LIG d   1       1.636  -1.952 -11.032  0.00  0.00     0.031 A 
ATOM     23  C   LIG d   1       1.523  -0.608 -10.733  0.00  0.00    -0.043 A 
ATOM     24  H   LIG d   1       1.176  -2.337 -11.931  0.00  0.00     0.083 H 
ATOM     25  C   LIG d   1       2.112  -0.115  -9.580  0.00  0.00    -0.044 A 
ATOM     26  H   LIG d   1       0.979   0.053 -11.392  0.00  0.00     0.063 H 
ATOM     27  H   LIG d   1       2.038   0.932  -9.325  0.00  0.00     0.063 H 
BRANCH  20  28
ATOM     28  O   LIG d   1       3.543  -3.233  -8.341  0.00  0.00    -0.474 OA
BRANCH  28  29
ATOM     29  C   LIG d   1       4.485  -4.093  -8.985  0.00  0.00     0.115 C 
ATOM     30  H   LIG d   1       5.482  -3.901  -8.587  0.00  0.00     0.072 H 
ATOM     31  H   LIG d   1       4.478  -3.900 -10.058  0.00  0.00     0.072 H 
BRANCH  29  32
ATOM     32  C   LIG d   1       4.105  -5.552  -8.726  0.00  0.00     0.081 C 
ATOM     33  H   LIG d   1       4.954  -6.195  -8.954  0.00  0.00     0.059 H 
ATOM     34  H   LIG d   1       3.262  -5.826  -9.359  0.00  0.00     0.059 H 
BRANCH  32  35
ATOM     35  O   LIG d   1       3.741  -5.712  -7.353  0.00  0.00    -0.380 OA
BRANCH  35  36
ATOM     36  C   LIG d   1       4.419  -6.783  -6.693  0.00  0.00     0.037 C 
ATOM     37  H   LIG d   1       3.693  -7.533  -6.378  0.00  0.00     0.052 H 
ATOM     38  H   LIG d   1       5.135  -7.236  -7.379  0.00  0.00     0.052 H 
ATOM     39  H   LIG d   1       4.945  -6.397  -5.820  0.00  0.00     0.052 H 
ENDBRANCH  35  36
ENDBRANCH  32  35
ENDBRANCH  29  32
ENDBRANCH  28  29
ENDBRANCH  20  28
ENDBRANCH  16  19
ENDBRANCH   1  14
BRANCH   6  40
ATOM     40  C   LIG d   1       4.650  -2.010  -3.080  0.00  0.00    -0.002 C 
ATOM     41  H   LIG d   1       4.783  -2.311  -2.041  0.00  0.00     0.087 H 
ATOM     42  H   LIG d   1       3.680  -2.353  -3.436  0.00  0.00     0.087 H 
BRANCH  40  43
ATOM     43  C   LIG d   1       5.740  -2.622  -3.923  0.00  0.00     0.039 A 
ATOM     44  C   LIG d   1       5.414  -3.340  -5.063  0.00  0.00     0.129 A 
ATOM     45  C   LIG d   1       6.418  -3.898  -5.841  0.00  0.00     0.022 A 
ATOM     46  C   LIG d   1       7.744  -3.745  -5.469  0.00  0.00     0.124 A 
ATOM     47  H   LIG d   1       6.165  -4.454  -6.732  0.00  0.00     0.069 H 
ATOM     48  C   LIG d   1       8.065  -3.029  -4.324  0.00  0.00    -0.019 A 
ATOM     49  C   LIG d   1       7.063  -2.470  -3.555  0.00  0.00    -0.047 A 
ATOM     50  H   LIG d   1       9.099  -2.909  -4.035  0.00  0.00     0.065 H 
ATOM     51  H   LIG d   1       7.315  -1.913  -2.664  0.00  0.00     0.062 H 
BRANCH  44  52
ATOM     52  O   LIG d   1       4.112  -3.494  -5.421  0.00  0.00    -0.506 OA
ATOM     53  H   LIG d   1       3.757  -2.759  -5.941  0.00  0.00     0.292 HD
ENDBRANCH  44  52
BRANCH  46  54
ATOM     54  O   LIG d   1       8.730  -4.294  -6.227  0.00  0.00    -0.495 OA
BRANCH  54  55
ATOM     55  C   LIG d   1      10.065  -4.194  -5.726  0.00  0.00     0.079 C 
ATOM     56  H   LIG d   1      10.762  -4.129  -6.562  0.00  0.00     0.066 H 
ATOM     57  H   LIG d   1      10.155  -3.302  -5.107  0.00  0.00     0.066 H 
ATOM     58  H   LIG d   1      10.295  -5.076  -5.129  0.00  0.00     0.066 H 
ENDBRANCH  54  55
ENDBRANCH  46  54
ENDBRANCH  40  43
ENDBRANCH   6  40
TORSDOF 12
ENDMDL
MODEL 3
REMARK VINA RESULT:      -6.0      1.124      1.881
REMARK  12 active torsions:
REMARK  status: ('A' for Active; 'I' for Inactive)
REMARK    1  A    between atoms: C_1  and  O_2 
REMARK    2  A    between atoms: O_2  and  C_3 
REMARK    3  A    between atoms: C_3  and  C_4 
REMARK    4  A    between atoms: C_4  and  O_5 
REMARK    5  A    between atoms: O_5  and  C_6 
REMARK    6  A    between atoms: C_7  and  C_12 
REMARK    7  A    between atoms: C_14  and  C_17 
REMARK    8  A    between atoms: N_22  and  C_23 
REMARK    9  A    between atoms: C_23  and  C_24 
REMARK   10  A    between atoms: C_27  and  O_31 
REMARK   11  A    between atoms: C_29  and  O_30 
REMARK   12  A    between atoms: O_31  and  C_32 
ROOT
ATOM      1  C   LIG d   1       4.745  -1.856  -4.090  0.00  0.00     0.060 C 
ATOM      2  H   LIG d   1       5.527  -1.138  -3.844  0.00  0.00     0.095 H 
ATOM      3  C   LIG d   1       3.880  -2.170  -2.844  0.00  0.00     0.004 C 
ATOM      4  C   LIG d   1       2.900  -0.976  -2.794  0.00  0.00    -0.007 C 
ATOM      5  C   LIG d   1       2.875  -0.416  -4.229  0.00  0.00    -0.031 C 
ATOM      6  N   LIG d   1       3.771  -1.265  -5.044  0.00  0.00     0.247 N 
ATOM      7  H   LIG d   1       3.340  -3.107  -2.975  0.00  0.00     0.033 H 
ATOM      8  H   LIG d   1       4.495  -2.200  -1.945  0.00  0.00     0.033 H 
ATOM      9  H   LIG d   1       1.905  -1.314  -2.503  0.00  0.00     0.032 H 
ATOM     10  H   LIG d   1       3.260  -0.218  -2.098  0.00  0.00     0.032 H 
ATOM     11  H   LIG d   1       1.861  -0.455  -4.625  0.00  0.00     0.082 H 
ATOM     12  H   LIG d   1       3.237   0.612  -4.231  0.00  0.00     0.082 H 
ATOM     13  H   LIG d   1       3.241  -1.996  -5.496  0.00  0.00     0.204 HD
ENDROOT
BRANCH   1  14
ATOM     14  C   LIG d   1       5.343  -3.119  -4.654  0.00  0.00     0.276 A 
ATOM     15  N   LIG d   1       4.680  -4.181  -5.014  0.00  0.00    -0.186 NA
ATOM     16  C   LIG d   1       5.527  -5.120  -5.474  0.00  0.00     0.207 A 
ATOM     17  N   LIG d   1       6.749  -4.652  -5.402  0.00  0.00    -0.056 NA
ATOM     18  O   LIG d   1       6.646  -3.338  -4.871  0.00  0.00    -0.332 OA
BRANCH  16  19
ATOM     19  C   LIG d   1       5.142  -6.461  -5.972  0.00  0.00     0.084 A 
ATOM     20  C   LIG d   1       4.532  -6.608  -7.224  0.00  0.00     0.226 A 
ATOM     21  N   LIG d   1       4.185  -7.805  -7.664  0.00  0.00    -0.221 NA
ATOM     22  C   LIG d   1       4.406  -8.897  -6.957  0.00  0.00     0.031 A 
ATOM     23  C   LIG d   1       5.005  -8.832  -5.713  0.00  0.00    -0.043 A 
ATOM     24  H   LIG d   1       4.112  -9.857  -7.355  0.00  0.00     0.083 H 
ATOM     25  C   LIG d   1       5.383  -7.601  -5.203  0.00  0.00    -0.044 A 
ATOM     26  H   LIG d   1       5.177  -9.734  -5.144  0.00  0.00     0.063 H 
ATOM     27  H   LIG d   1       5.852  -7.524  -4.232  0.00  0.00     0.063 H 
BRANCH  20  28
ATOM     28  O   LIG d   1       4.289  -5.514  -7.987  0.00  0.00    -0.474 OA
BRANCH  28  29
ATOM     29  C   LIG d   1       4.860  -5.497  -9.297  0.00  0.00     0.115 C 
ATOM     30  H   LIG d   1       4.256  -4.865  -9.948  0.00  0.00     0.072 H 
ATOM     31  H   LIG d   1       4.887  -6.511  -9.695  0.00  0.00     0.072 H 
BRANCH  29  32
ATOM     32  C   LIG d   1       6.284  -4.939  -9.225  0.00  0.00     0.081 C 
ATOM     33  H   LIG d   1       6.717  -4.921 -10.225  0.00  0.00     0.059 H 
ATOM     34  H   LIG d   1       6.889  -5.572  -8.578  0.00  0.00     0.059 H 
BRANCH  32  35
ATOM     35  O   LIG d   1       6.249  -3.612  -8.698  0.00  0.00    -0.380 OA
BRANCH  35  36
ATOM     36  C   LIG d   1       7.537  -3.013  -8.543  0.00  0.00     0.037 C 
ATOM     37  H   LIG d   1       7.476  -2.203  -7.816  0.00  0.00     0.052 H 
ATOM     38  H   LIG d   1       8.246  -3.764  -8.192  0.00  0.00     0.052 H 
ATOM     39  H   LIG d   1       7.871  -2.617  -9.502  0.00  0.00     0.052 H 
ENDBRANCH  35  36
ENDBRANCH  32  35
ENDBRANCH  29  32
ENDBRANCH  28  29
ENDBRANCH  20  28
ENDBRANCH  16  19
ENDBRANCH   1  14
BRANCH   6  40
ATOM     40  C   LIG d   1       4.474  -0.453  -6.046  0.00  0.00    -0.002 C 
ATOM     41  H   LIG d   1       4.588   0.565  -5.673  0.00  0.00     0.087 H 
ATOM     42  H   LIG d   1       5.456  -0.882  -6.238  0.00  0.00     0.087 H 
BRANCH  40  43
ATOM     43  C   LIG d   1       3.675  -0.432  -7.325  0.00  0.00     0.039 A 
ATOM     44  C   LIG d   1       3.404  -1.617  -7.991  0.00  0.00     0.129 A 
ATOM     45  C   LIG d   1       2.664  -1.598  -9.165  0.00  0.00     0.022 A 
ATOM     46  C   LIG d   1       2.209  -0.392  -9.674  0.00  0.00     0.124 A 
ATOM     47  H   LIG d   1       2.448  -2.521  -9.682  0.00  0.00     0.069 H 
ATOM     48  C   LIG d   1       2.488   0.792  -9.006  0.00  0.00    -0.019 A 
ATOM     49  C   LIG d   1       3.220   0.769  -7.834  0.00  0.00    -0.047 A 
ATOM     50  H   LIG d   1       2.133   1.732  -9.402  0.00  0.00     0.065 H 
ATOM     51  H   LIG d   1       3.436   1.692  -7.315  0.00  0.00     0.062 H 
BRANCH  44  52
ATOM     52  O   LIG d   1       3.857  -2.797  -7.492  0.00  0.00    -0.506 OA
ATOM     53  H   LIG d   1       3.887  -3.514  -8.142  0.00  0.00     0.292 HD
ENDBRANCH  44  52
BRANCH  46  54
ATOM     54  O   LIG d   1       1.488  -0.369 -10.826  0.00  0.00    -0.495 OA
BRANCH  54  55
ATOM     55  C   LIG d   1       1.950  -1.194 -11.897  0.00  0.00     0.079 C 
ATOM     56  H   LIG d   1       2.860  -0.767 -12.318  0.00  0.00     0.066 H 
ATOM     57  H   LIG d   1       2.158  -2.195 -11.520  0.00  0.00     0.066 H 
ATOM     58  H   LIG d   1       1.183  -1.249 -12.669  0.00  0.00     0.066 H 
ENDBRANCH  54  55
ENDBRANCH  46  54
ENDBRANCH  40  43
ENDBRANCH   6  40
TORSDOF 12
ENDMDL
MODEL 4
REMARK VINA RESULT:      -5.6      3.596      5.846
REMARK  12 active torsions:
REMARK  status: ('A' for Active; 'I' for Inactive)
REMARK    1  A    between atoms: C_1  and  O_2 
REMARK    2  A    between atoms: O_2  and  C_3 
REMARK    3  A    between atoms: C_3  and  C_4 
REMARK    4  A    between atoms: C_4  and  O_5 
REMARK    5  A    between atoms: O_5  and  C_6 
REMARK    6  A    between atoms: C_7  and  C_12 
REMARK    7  A    between atoms: C_14  and  C_17 
REMARK    8  A    between atoms: N_22  and  C_23 
REMARK    9  A    between atoms: C_23  and  C_24 
REMARK   10  A    between atoms: C_27  and  O_31 
REMARK   11  A    between atoms: C_29  and  O_30 
REMARK   12  A    between atoms: O_31  and  C_32 
ROOT
ATOM      1  C   LIG d   1       4.681  -0.867  -3.303  0.00  0.00     0.060 C 
ATOM      2  H   LIG d   1       5.121  -1.333  -2.422  0.00  0.00     0.095 H 
ATOM      3  C   LIG d   1       3.287  -0.278  -2.972  0.00  0.00     0.004 C 
ATOM      4  C   LIG d   1       3.633   1.076  -2.312  0.00  0.00    -0.007 C 
ATOM      5  C   LIG d   1       5.052   1.415  -2.807  0.00  0.00    -0.031 C 
ATOM      6  N   LIG d   1       5.469   0.323  -3.716  0.00  0.00     0.247 N 
ATOM      7  H   LIG d   1       2.706  -0.127  -3.881  0.00  0.00     0.033 H 
ATOM      8  H   LIG d   1       2.753  -0.922  -2.273  0.00  0.00     0.033 H 
ATOM      9  H   LIG d   1       2.928   1.844  -2.631  0.00  0.00     0.032 H 
ATOM     10  H   LIG d   1       3.624   0.982  -1.226  0.00  0.00     0.032 H 
ATOM     11  H   LIG d   1       5.042   2.363  -3.342  0.00  0.00     0.082 H 
ATOM     12  H   LIG d   1       5.736   1.471  -1.960  0.00  0.00     0.082 H 
ATOM     13  H   LIG d   1       5.255   0.567  -4.672  0.00  0.00     0.204 HD
ENDROOT
BRANCH   1  14
ATOM     14  C   LIG d   1       4.584  -1.859  -4.435  0.00  0.00     0.276 A 
ATOM     15  N   LIG d   1       4.771  -1.595  -5.696  0.00  0.00    -0.186 NA
ATOM     16  C   LIG d   1       4.607  -2.710  -6.430  0.00  0.00     0.207 A 
ATOM     17  N   LIG d   1       4.307  -3.700  -5.625  0.00  0.00    -0.056 NA
ATOM     18  O   LIG d   1       4.293  -3.160  -4.312  0.00  0.00    -0.332 OA
BRANCH  16  19
ATOM     19  C   LIG d   1       4.738  -2.803  -7.904  0.00  0.00     0.084 A 
ATOM     20  C   LIG d   1       3.839  -2.133  -8.742  0.00  0.00     0.226 A 
ATOM     21  N   LIG d   1       3.954  -2.222 -10.056  0.00  0.00    -0.221 NA
ATOM     22  C   LIG d   1       4.914  -2.927 -10.623  0.00  0.00     0.031 A 
ATOM     23  C   LIG d   1       5.839  -3.615  -9.862  0.00  0.00    -0.043 A 
ATOM     24  H   LIG d   1       4.977  -2.969 -11.701  0.00  0.00     0.083 H 
ATOM     25  C   LIG d   1       5.759  -3.560  -8.480  0.00  0.00    -0.044 A 
ATOM     26  H   LIG d   1       6.617  -4.192 -10.340  0.00  0.00     0.063 H 
ATOM     27  H   LIG d   1       6.470  -4.090  -7.862  0.00  0.00     0.063 H 
BRANCH  20  28
ATOM     28  O   LIG d   1       2.839  -1.392  -8.203  0.00  0.00    -0.474 OA
BRANCH  28  29
ATOM     29  C   LIG d   1       2.657  -0.073  -8.720  0.00  0.00     0.115 C 
ATOM     30  H   LIG d   1       1.597   0.101  -8.908  0.00  0.00     0.072 H 
ATOM     31  H   LIG d   1       3.214   0.032  -9.652  0.00  0.00     0.072 H 
BRANCH  29  32
ATOM     32  C   LIG d   1       3.168   0.949  -7.703  0.00  0.00     0.081 C 
ATOM     33  H   LIG d   1       3.037   0.556  -6.695  0.00  0.00     0.059 H 
ATOM     34  H   LIG d   1       2.607   1.877  -7.806  0.00  0.00     0.059 H 
BRANCH  32  35
ATOM     35  O   LIG d   1       4.555   1.203  -7.938  0.00  0.00    -0.380 OA
BRANCH  35  36
ATOM     36  C   LIG d   1       4.835   1.757  -9.224  0.00  0.00     0.037 C 
ATOM     37  H   LIG d   1       4.780   0.972  -9.979  0.00  0.00     0.052 H 
ATOM     38  H   LIG d   1       4.103   2.532  -9.453  0.00  0.00     0.052 H 
ATOM     39  H   LIG d   1       5.835   2.191  -9.223  0.00  0.00     0.052 H 
ENDBRANCH  35  36
ENDBRANCH  32  35
ENDBRANCH  29  32
ENDBRANCH  28  29
ENDBRANCH  20  28
ENDBRANCH  16  19
ENDBRANCH   1  14
BRANCH   6  40
ATOM     40  C   LIG d   1       6.905   0.056  -3.568  0.00  0.00    -0.002 C 
ATOM     41  H   LIG d   1       7.183   0.133  -2.517  0.00  0.00     0.087 H 
ATOM     42  H   LIG d   1       7.127  -0.948  -3.930  0.00  0.00     0.087 H 
BRANCH  40  43
ATOM     43  C   LIG d   1       7.688   1.064  -4.370  0.00  0.00     0.039 A 
ATOM     44  C   LIG d   1       7.647   1.030  -5.756  0.00  0.00     0.129 A 
ATOM     45  C   LIG d   1       8.363   1.961  -6.493  0.00  0.00     0.022 A 
ATOM     46  C   LIG d   1       9.128   2.916  -5.843  0.00  0.00     0.124 A 
ATOM     47  H   LIG d   1       8.328   1.938  -7.573  0.00  0.00     0.069 H 
ATOM     48  C   LIG d   1       9.170   2.943  -4.455  0.00  0.00    -0.019 A 
ATOM     49  C   LIG d   1       8.451   2.017  -3.724  0.00  0.00    -0.047 A 
ATOM     50  H   LIG d   1       9.766   3.687  -3.948  0.00  0.00     0.065 H 
ATOM     51  H   LIG d   1       8.485   2.039  -2.644  0.00  0.00     0.062 H 
BRANCH  44  52
ATOM     52  O   LIG d   1       6.901   0.088  -6.391  0.00  0.00    -0.506 OA
ATOM     53  H   LIG d   1       7.418  -0.643  -6.758  0.00  0.00     0.292 HD
ENDBRANCH  44  52
BRANCH  46  54
ATOM     54  O   LIG d   1       9.835   3.827  -6.562  0.00  0.00    -0.495 OA
BRANCH  54  55
ATOM     55  C   LIG d   1       9.543   3.921  -7.957  0.00  0.00     0.079 C 
ATOM     56  H   LIG d   1       9.593   4.965  -8.269  0.00  0.00     0.066 H 
ATOM     57  H   LIG d   1      10.271   3.338  -8.521  0.00  0.00     0.066 H 
ATOM     58  H   LIG d   1       8.542   3.533  -8.145  0.00  0.00     0.066 H 
ENDBRANCH  54  55
ENDBRANCH  46  54
ENDBRANCH  40  43
ENDBRANCH   6  40
TORSDOF 12
ENDMDL
MODEL 5
REMARK VINA RESULT:      -5.6      3.931      6.667
REMARK  12 active torsions:
REMARK  status: ('A' for Active; 'I' for Inactive)
REMARK    1  A    between atoms: C_1  and  O_2 
REMARK    2  A    between atoms: O_2  and  C_3 
REMARK    3  A    between atoms: C_3  and  C_4 
REMARK    4  A    between atoms: C_4  and  O_5 
REMARK    5  A    between atoms: O_5  and  C_6 
REMARK    6  A    between atoms: C_7  and  C_12 
REMARK    7  A    between atoms: C_14  and  C_17 
REMARK    8  A    between atoms: N_22  and  C_23 
REMARK    9  A    between atoms: C_23  and  C_24 
REMARK   10  A    between atoms: C_27  and  O_31 
REMARK   11  A    between atoms: C_29  and  O_30 
REMARK   12  A    between atoms: O_31  and  C_32 
ROOT
ATOM      1  C   LIG d   1       4.579  -0.593  -3.824  0.00  0.00     0.060 C 
ATOM      2  H   LIG d   1       4.953  -1.357  -3.143  0.00  0.00     0.095 H 
ATOM      3  C   LIG d   1       3.227  -0.028  -3.321  0.00  0.00     0.004 C 
ATOM      4  C   LIG d   1       3.659   1.001  -2.253  0.00  0.00    -0.007 C 
ATOM      5  C   LIG d   1       5.115   1.361  -2.605  0.00  0.00    -0.031 C 
ATOM      6  N   LIG d   1       5.471   0.595  -3.821  0.00  0.00     0.247 N 
ATOM      7  H   LIG d   1       2.688   0.460  -4.133  0.00  0.00     0.033 H 
ATOM      8  H   LIG d   1       2.622  -0.817  -2.874  0.00  0.00     0.033 H 
ATOM      9  H   LIG d   1       3.027   1.889  -2.304  0.00  0.00     0.032 H 
ATOM     10  H   LIG d   1       3.609   0.558  -1.258  0.00  0.00     0.032 H 
ATOM     11  H   LIG d   1       5.196   2.430  -2.800  0.00  0.00     0.082 H 
ATOM     12  H   LIG d   1       5.775   1.079  -1.785  0.00  0.00     0.082 H 
ATOM     13  H   LIG d   1       5.306   1.155  -4.644  0.00  0.00     0.204 HD
ENDROOT
BRANCH   1  14
ATOM     14  C   LIG d   1       4.438  -1.149  -5.219  0.00  0.00     0.276 A 
ATOM     15  N   LIG d   1       4.046  -0.483  -6.267  0.00  0.00    -0.186 NA
ATOM     16  C   LIG d   1       4.037  -1.286  -7.346  0.00  0.00     0.207 A 
ATOM     17  N   LIG d   1       4.423  -2.484  -6.980  0.00  0.00    -0.056 NA
ATOM     18  O   LIG d   1       4.696  -2.409  -5.588  0.00  0.00    -0.332 OA
BRANCH  16  19
ATOM     19  C   LIG d   1       3.647  -0.885  -8.719  0.00  0.00     0.084 A 
ATOM     20  C   LIG d   1       4.593  -0.344  -9.598  0.00  0.00     0.226 A 
ATOM     21  N   LIG d   1       4.243   0.018 -10.820  0.00  0.00    -0.221 NA
ATOM     22  C   LIG d   1       3.006  -0.124 -11.259  0.00  0.00     0.031 A 
ATOM     23  C   LIG d   1       2.018  -0.650 -10.450  0.00  0.00    -0.043 A 
ATOM     24  H   LIG d   1       2.762   0.179 -12.267  0.00  0.00     0.083 H 
ATOM     25  C   LIG d   1       2.332  -1.040  -9.158  0.00  0.00    -0.044 A 
ATOM     26  H   LIG d   1       1.009  -0.757 -10.822  0.00  0.00     0.063 H 
ATOM     27  H   LIG d   1       1.576  -1.454  -8.506  0.00  0.00     0.063 H 
BRANCH  20  28
ATOM     28  O   LIG d   1       5.877  -0.184  -9.191  0.00  0.00    -0.474 OA
BRANCH  28  29
ATOM     29  C   LIG d   1       6.893  -0.779 -10.001  0.00  0.00     0.115 C 
ATOM     30  H   LIG d   1       7.789  -0.159  -9.972  0.00  0.00     0.072 H 
ATOM     31  H   LIG d   1       6.538  -0.860 -11.028  0.00  0.00     0.072 H 
BRANCH  29  32
ATOM     32  C   LIG d   1       7.221  -2.174  -9.464  0.00  0.00     0.081 C 
ATOM     33  H   LIG d   1       8.031  -2.608 -10.050  0.00  0.00     0.059 H 
ATOM     34  H   LIG d   1       6.339  -2.809  -9.537  0.00  0.00     0.059 H 
BRANCH  32  35
ATOM     35  O   LIG d   1       7.624  -2.075  -8.096  0.00  0.00    -0.380 OA
BRANCH  35  36
ATOM     36  C   LIG d   1       8.933  -2.583  -7.837  0.00  0.00     0.037 C 
ATOM     37  H   LIG d   1       9.048  -2.765  -6.768  0.00  0.00     0.052 H 
ATOM     38  H   LIG d   1       9.074  -3.518  -8.381  0.00  0.00     0.052 H 
ATOM     39  H   LIG d   1       9.677  -1.857  -8.164  0.00  0.00     0.052 H 
ENDBRANCH  35  36
ENDBRANCH  32  35
ENDBRANCH  29  32
ENDBRANCH  28  29
ENDBRANCH  20  28
ENDBRANCH  16  19
ENDBRANCH   1  14
BRANCH   6  40
ATOM     40  C   LIG d   1       6.876   0.173  -3.765  0.00  0.00    -0.002 C 
ATOM     41  H   LIG d   1       7.194   0.102  -2.725  0.00  0.00     0.087 H 
ATOM     42  H   LIG d   1       6.983  -0.799  -4.245  0.00  0.00     0.087 H 
BRANCH  40  43
ATOM     43  C   LIG d   1       7.733   1.184  -4.483  0.00  0.00     0.039 A 
ATOM     44  C   LIG d   1       7.795   1.181  -5.869  0.00  0.00     0.129 A 
ATOM     45  C   LIG d   1       8.579   2.116  -6.529  0.00  0.00     0.022 A 
ATOM     46  C   LIG d   1       9.307   3.043  -5.801  0.00  0.00     0.124 A 
ATOM     47  H   LIG d   1       8.625   2.117  -7.608  0.00  0.00     0.069 H 
ATOM     48  C   LIG d   1       9.246   3.039  -4.414  0.00  0.00    -0.019 A 
ATOM     49  C   LIG d   1       8.459   2.111  -3.760  0.00  0.00    -0.047 A 
ATOM     50  H   LIG d   1       9.813   3.762  -3.846  0.00  0.00     0.065 H 
ATOM     51  H   LIG d   1       8.413   2.109  -2.680  0.00  0.00     0.062 H 
BRANCH  44  52
ATOM     52  O   LIG d   1       7.085   0.266  -6.579  0.00  0.00    -0.506 OA
ATOM     53  H   LIG d   1       6.192   0.556  -6.813  0.00  0.00     0.292 HD
ENDBRANCH  44  52
BRANCH  46  54
ATOM     54  O   LIG d   1      10.081   3.958  -6.444  0.00  0.00    -0.495 OA
BRANCH  54  55
ATOM     55  C   LIG d   1       9.954   5.320  -6.033  0.00  0.00     0.079 C 
ATOM     56  H   LIG d   1       8.900   5.600  -6.026  0.00  0.00     0.066 H 
ATOM     57  H   LIG d   1      10.367   5.436  -5.031  0.00  0.00     0.066 H 
ATOM     58  H   LIG d   1      10.496   5.961  -6.727  0.00  0.00     0.066 H 
ENDBRANCH  54  55
ENDBRANCH  46  54
ENDBRANCH  40  43
ENDBRANCH   6  40
TORSDOF 12
ENDMDL
MODEL 6
REMARK VINA RESULT:      -5.6      1.892      3.480
REMARK  12 active torsions:
REMARK  status: ('A' for Active; 'I' for Inactive)
REMARK    1  A    between atoms: C_1  and  O_2 
REMARK    2  A    between atoms: O_2  and  C_3 
REMARK    3  A    between atoms: C_3  and  C_4 
REMARK    4  A    between atoms: C_4  and  O_5 
REMARK    5  A    between atoms: O_5  and  C_6 
REMARK    6  A    between atoms: C_7  and  C_12 
REMARK    7  A    between atoms: C_14  and  C_17 
REMARK    8  A    between atoms: N_22  and  C_23 
REMARK    9  A    between atoms: C_23  and  C_24 
REMARK   10  A    between atoms: C_27  and  O_31 
REMARK   11  A    between atoms: C_29  and  O_30 
REMARK   12  A    between atoms: O_31  and  C_32 
ROOT
ATOM      1  C   LIG d   1       4.754  -2.007  -4.128  0.00  0.00     0.060 C 
ATOM      2  H   LIG d   1       5.593  -1.344  -3.915  0.00  0.00     0.095 H 
ATOM      3  C   LIG d   1       3.974  -2.334  -2.830  0.00  0.00     0.004 C 
ATOM      4  C   LIG d   1       3.071  -1.093  -2.648  0.00  0.00    -0.007 C 
ATOM      5  C   LIG d   1       2.965  -0.463  -4.049  0.00  0.00    -0.031 C 
ATOM      6  N   LIG d   1       3.744  -1.318  -4.972  0.00  0.00     0.247 N 
ATOM      7  H   LIG d   1       3.373  -3.234  -2.959  0.00  0.00     0.033 H 
ATOM      8  H   LIG d   1       4.656  -2.442  -1.987  0.00  0.00     0.033 H 
ATOM      9  H   LIG d   1       2.084  -1.392  -2.292  0.00  0.00     0.032 H 
ATOM     10  H   LIG d   1       3.528  -0.391  -1.950  0.00  0.00     0.032 H 
ATOM     11  H   LIG d   1       1.922  -0.428  -4.363  0.00  0.00     0.082 H 
ATOM     12  H   LIG d   1       3.384   0.543  -4.035  0.00  0.00     0.082 H 
ATOM     13  H   LIG d   1       3.138  -1.996  -5.412  0.00  0.00     0.204 HD
ENDROOT
BRANCH   1  14
ATOM     14  C   LIG d   1       5.233  -3.271  -4.795  0.00  0.00     0.276 A 
ATOM     15  N   LIG d   1       4.509  -4.062  -5.535  0.00  0.00    -0.186 NA
ATOM     16  C   LIG d   1       5.253  -5.095  -5.970  0.00  0.00     0.207 A 
ATOM     17  N   LIG d   1       6.468  -4.964  -5.496  0.00  0.00    -0.056 NA
ATOM     18  O   LIG d   1       6.473  -3.770  -4.727  0.00  0.00    -0.332 OA
BRANCH  16  19
ATOM     19  C   LIG d   1       4.776  -6.200  -6.835  0.00  0.00     0.084 A 
ATOM     20  C   LIG d   1       4.673  -7.503  -6.333  0.00  0.00     0.226 A 
ATOM     21  N   LIG d   1       4.254  -8.488  -7.107  0.00  0.00    -0.221 NA
ATOM     22  C   LIG d   1       3.909  -8.285  -8.365  0.00  0.00     0.031 A 
ATOM     23  C   LIG d   1       3.983  -7.027  -8.930  0.00  0.00    -0.043 A 
ATOM     24  H   LIG d   1       3.565  -9.117  -8.963  0.00  0.00     0.083 H 
ATOM     25  C   LIG d   1       4.422  -5.960  -8.163  0.00  0.00    -0.044 A 
ATOM     26  H   LIG d   1       3.701  -6.876  -9.962  0.00  0.00     0.063 H 
ATOM     27  H   LIG d   1       4.490  -4.967  -8.583  0.00  0.00     0.063 H 
BRANCH  20  28
ATOM     28  O   LIG d   1       5.012  -7.758  -5.045  0.00  0.00    -0.474 OA
BRANCH  28  29
ATOM     29  C   LIG d   1       5.159  -9.129  -4.671  0.00  0.00     0.115 C 
ATOM     30  H   LIG d   1       4.998  -9.762  -5.544  0.00  0.00     0.072 H 
ATOM     31  H   LIG d   1       4.426  -9.376  -3.902  0.00  0.00     0.072 H 
BRANCH  29  32
ATOM     32  C   LIG d   1       6.569  -9.362  -4.126  0.00  0.00     0.081 C 
ATOM     33  H   LIG d   1       7.102  -8.413  -4.079  0.00  0.00     0.059 H 
ATOM     34  H   LIG d   1       7.104 -10.046  -4.783  0.00  0.00     0.059 H 
BRANCH  32  35
ATOM     35  O   LIG d   1       6.486  -9.926  -2.816  0.00  0.00    -0.380 OA
BRANCH  35  36
ATOM     36  C   LIG d   1       5.217 -10.508  -2.512  0.00  0.00     0.037 C 
ATOM     37  H   LIG d   1       5.201 -10.819  -1.467  0.00  0.00     0.052 H 
ATOM     38  H   LIG d   1       4.430  -9.774  -2.685  0.00  0.00     0.052 H 
ATOM     39  H   LIG d   1       5.053 -11.375  -3.152  0.00  0.00     0.052 H 
ENDBRANCH  35  36
ENDBRANCH  32  35
ENDBRANCH  29  32
ENDBRANCH  28  29
ENDBRANCH  20  28
ENDBRANCH  16  19
ENDBRANCH   1  14
BRANCH   6  40
ATOM     40  C   LIG d   1       4.411  -0.497  -5.991  0.00  0.00    -0.002 C 
ATOM     41  H   LIG d   1       4.408   0.546  -5.675  0.00  0.00     0.087 H 
ATOM     42  H   LIG d   1       5.438  -0.836  -6.116  0.00  0.00     0.087 H 
BRANCH  40  43
ATOM     43  C   LIG d   1       3.675  -0.626  -7.300  0.00  0.00     0.039 A 
ATOM     44  C   LIG d   1       2.983   0.460  -7.816  0.00  0.00     0.129 A 
ATOM     45  C   LIG d   1       2.311   0.342  -9.024  0.00  0.00     0.022 A 
ATOM     46  C   LIG d   1       2.324  -0.864  -9.706  0.00  0.00     0.124 A 
ATOM     47  H   LIG d   1       1.776   1.188  -9.429  0.00  0.00     0.069 H 
ATOM     48  C   LIG d   1       3.013  -1.949  -9.183  0.00  0.00    -0.019 A 
ATOM     49  C   LIG d   1       3.686  -1.827  -7.983  0.00  0.00    -0.047 A 
ATOM     50  H   LIG d   1       3.023  -2.889  -9.714  0.00  0.00     0.065 H 
ATOM     51  H   LIG d   1       4.222  -2.673  -7.577  0.00  0.00     0.062 H 
BRANCH  44  52
ATOM     52  O   LIG d   1       2.968   1.640  -7.142  0.00  0.00    -0.506 OA
ATOM     53  H   LIG d   1       2.680   2.394  -7.674  0.00  0.00     0.292 HD
ENDBRANCH  44  52
BRANCH  46  54
ATOM     54  O   LIG d   1       1.662  -0.984 -10.887  0.00  0.00    -0.495 OA
BRANCH  54  55
ATOM     55  C   LIG d   1       1.534  -2.300 -11.429  0.00  0.00     0.079 C 
ATOM     56  H   LIG d   1       0.517  -2.445 -11.793  0.00  0.00     0.066 H 
ATOM     57  H   LIG d   1       2.237  -2.424 -12.253  0.00  0.00     0.066 H 
ATOM     58  H   LIG d   1       1.750  -3.034 -10.653  0.00  0.00     0.066 H 
ENDBRANCH  54  55
ENDBRANCH  46  54
ENDBRANCH  40  43
ENDBRANCH   6  40
TORSDOF 12
ENDMDL
MODEL 7
REMARK VINA RESULT:      -5.5      3.178      5.172
REMARK  12 active torsions:
REMARK  status: ('A' for Active; 'I' for Inactive)
REMARK    1  A    between atoms: C_1  and  O_2 
REMARK    2  A    between atoms: O_2  and  C_3 
REMARK    3  A    between atoms: C_3  and  C_4 
REMARK    4  A    between atoms: C_4  and  O_5 
REMARK    5  A    between atoms: O_5  and  C_6 
REMARK    6  A    between atoms: C_7  and  C_12 
REMARK    7  A    between atoms: C_14  and  C_17 
REMARK    8  A    between atoms: N_22  and  C_23 
REMARK    9  A    between atoms: C_23  and  C_24 
REMARK   10  A    between atoms: C_27  and  O_31 
REMARK   11  A    between atoms: C_29  and  O_30 
REMARK   12  A    between atoms: O_31  and  C_32 
ROOT
ATOM      1  C   LIG d   1       4.751  -1.086  -3.813  0.00  0.00     0.060 C 
ATOM      2  H   LIG d   1       5.233  -0.137  -3.582  0.00  0.00     0.095 H 
ATOM      3  C   LIG d   1       3.833  -1.530  -2.647  0.00  0.00     0.004 C 
ATOM      4  C   LIG d   1       2.546  -0.709  -2.888  0.00  0.00    -0.007 C 
ATOM      5  C   LIG d   1       2.583  -0.332  -4.382  0.00  0.00    -0.031 C 
ATOM      6  N   LIG d   1       3.810  -0.932  -4.952  0.00  0.00     0.247 N 
ATOM      7  H   LIG d   1       3.626  -2.599  -2.705  0.00  0.00     0.033 H 
ATOM      8  H   LIG d   1       4.279  -1.274  -1.686  0.00  0.00     0.033 H 
ATOM      9  H   LIG d   1       1.665  -1.314  -2.673  0.00  0.00     0.032 H 
ATOM     10  H   LIG d   1       2.549   0.190  -2.271  0.00  0.00     0.032 H 
ATOM     11  H   LIG d   1       1.703  -0.730  -4.886  0.00  0.00     0.082 H 
ATOM     12  H   LIG d   1       2.618   0.752  -4.489  0.00  0.00     0.082 H 
ATOM     13  H   LIG d   1       3.600  -1.834  -5.354  0.00  0.00     0.204 HD
ENDROOT
BRANCH   1  14
ATOM     14  C   LIG d   1       5.781  -2.145  -4.112  0.00  0.00     0.276 A 
ATOM     15  N   LIG d   1       7.018  -2.140  -3.706  0.00  0.00    -0.186 NA
ATOM     16  C   LIG d   1       7.655  -3.237  -4.155  0.00  0.00     0.207 A 
ATOM     17  N   LIG d   1       6.813  -3.950  -4.863  0.00  0.00    -0.056 NA
ATOM     18  O   LIG d   1       5.577  -3.250  -4.840  0.00  0.00    -0.332 OA
BRANCH  16  19
ATOM     19  C   LIG d   1       9.074  -3.579  -3.898  0.00  0.00     0.084 A 
ATOM     20  C   LIG d   1      10.098  -2.974  -4.637  0.00  0.00     0.226 A 
ATOM     21  N   LIG d   1      11.362  -3.284  -4.411  0.00  0.00    -0.221 NA
ATOM     22  C   LIG d   1      11.708  -4.157  -3.483  0.00  0.00     0.031 A 
ATOM     23  C   LIG d   1      10.754  -4.795  -2.714  0.00  0.00    -0.043 A 
ATOM     24  H   LIG d   1      12.753  -4.379  -3.326  0.00  0.00     0.083 H 
ATOM     25  C   LIG d   1       9.414  -4.510  -2.915  0.00  0.00    -0.044 A 
ATOM     26  H   LIG d   1      11.051  -5.511  -1.960  0.00  0.00     0.063 H 
ATOM     27  H   LIG d   1       8.649  -4.996  -2.326  0.00  0.00     0.063 H 
BRANCH  20  28
ATOM     28  O   LIG d   1       9.789  -2.067  -5.597  0.00  0.00    -0.474 OA
BRANCH  28  29
ATOM     29  C   LIG d   1      10.170  -0.711  -5.355  0.00  0.00     0.115 C 
ATOM     30  H   LIG d   1      11.233  -0.589  -5.566  0.00  0.00     0.072 H 
ATOM     31  H   LIG d   1       9.975  -0.459  -4.313  0.00  0.00     0.072 H 
BRANCH  29  32
ATOM     32  C   LIG d   1       9.361   0.216  -6.265  0.00  0.00     0.081 C 
ATOM     33  H   LIG d   1       9.326  -0.201  -7.271  0.00  0.00     0.059 H 
ATOM     34  H   LIG d   1       9.833   1.197  -6.295  0.00  0.00     0.059 H 
BRANCH  32  35
ATOM     35  O   LIG d   1       8.032   0.342  -5.755  0.00  0.00    -0.380 OA
BRANCH  35  36
ATOM     36  C   LIG d   1       7.918   1.229  -4.642  0.00  0.00     0.037 C 
ATOM     37  H   LIG d   1       7.286   0.775  -3.878  0.00  0.00     0.052 H 
ATOM     38  H   LIG d   1       8.908   1.421  -4.227  0.00  0.00     0.052 H 
ATOM     39  H   LIG d   1       7.473   2.169  -4.969  0.00  0.00     0.052 H 
ENDBRANCH  35  36
ENDBRANCH  32  35
ENDBRANCH  29  32
ENDBRANCH  28  29
ENDBRANCH  20  28
ENDBRANCH  16  19
ENDBRANCH   1  14
BRANCH   6  40
ATOM     40  C   LIG d   1       4.388  -0.044  -5.969  0.00  0.00    -0.002 C 
ATOM     41  H   LIG d   1       4.308   0.990  -5.636  0.00  0.00     0.087 H 
ATOM     42  H   LIG d   1       5.436  -0.298  -6.120  0.00  0.00     0.087 H 
BRANCH  40  43
ATOM     43  C   LIG d   1       3.638  -0.212  -7.266  0.00  0.00     0.039 A 
ATOM     44  C   LIG d   1       3.515  -1.469  -7.838  0.00  0.00     0.129 A 
ATOM     45  C   LIG d   1       2.819  -1.624  -9.028  0.00  0.00     0.022 A 
ATOM     46  C   LIG d   1       2.260  -0.519  -9.649  0.00  0.00     0.124 A 
ATOM     47  H   LIG d   1       2.719  -2.604  -9.472  0.00  0.00     0.069 H 
ATOM     48  C   LIG d   1       2.390   0.739  -9.076  0.00  0.00    -0.019 A 
ATOM     49  C   LIG d   1       3.078   0.888  -7.887  0.00  0.00    -0.047 A 
ATOM     50  H   LIG d   1       1.954   1.600  -9.559  0.00  0.00     0.065 H 
ATOM     51  H   LIG d   1       3.178   1.868  -7.442  0.00  0.00     0.062 H 
BRANCH  44  52
ATOM     52  O   LIG d   1       4.070  -2.550  -7.229  0.00  0.00    -0.506 OA
ATOM     53  H   LIG d   1       4.288  -2.409  -6.298  0.00  0.00     0.292 HD
ENDBRANCH  44  52
BRANCH  46  54
ATOM     54  O   LIG d   1       1.582  -0.666 -10.818  0.00  0.00    -0.495 OA
BRANCH  54  55
ATOM     55  C   LIG d   1       2.323  -1.145 -11.942  0.00  0.00     0.079 C 
ATOM     56  H   LIG d   1       1.927  -0.699 -12.855  0.00  0.00     0.066 H 
ATOM     57  H   LIG d   1       3.372  -0.870 -11.829  0.00  0.00     0.066 H 
ATOM     58  H   LIG d   1       2.235  -2.229 -11.999  0.00  0.00     0.066 H 
ENDBRANCH  54  55
ENDBRANCH  46  54
ENDBRANCH  40  43
ENDBRANCH   6  40
TORSDOF 12
ENDMDL
MODEL 8
REMARK VINA RESULT:      -5.5     12.226     15.453
REMARK  12 active torsions:
REMARK  status: ('A' for Active; 'I' for Inactive)
REMARK    1  A    between atoms: C_1  and  O_2 
REMARK    2  A    between atoms: O_2  and  C_3 
REMARK    3  A    between atoms: C_3  and  C_4 
REMARK    4  A    between atoms: C_4  and  O_5 
REMARK    5  A    between atoms: O_5  and  C_6 
REMARK    6  A    between atoms: C_7  and  C_12 
REMARK    7  A    between atoms: C_14  and  C_17 
REMARK    8  A    between atoms: N_22  and  C_23 
REMARK    9  A    between atoms: C_23  and  C_24 
REMARK   10  A    between atoms: C_27  and  O_31 
REMARK   11  A    between atoms: C_29  and  O_30 
REMARK   12  A    between atoms: O_31  and  C_32 
ROOT
ATOM      1  C   LIG d   1      10.591   5.910  -2.370  0.00  0.00     0.060 C 
ATOM      2  H   LIG d   1       9.962   5.037  -2.198  0.00  0.00     0.095 H 
ATOM      3  C   LIG d   1      12.019   5.673  -1.818  0.00  0.00     0.004 C 
ATOM      4  C   LIG d   1      12.691   4.849  -2.940  0.00  0.00    -0.007 C 
ATOM      5  C   LIG d   1      11.872   5.153  -4.208  0.00  0.00    -0.031 C 
ATOM      6  N   LIG d   1      10.815   6.116  -3.825  0.00  0.00     0.247 N 
ATOM      7  H   LIG d   1      12.538   6.620  -1.671  0.00  0.00     0.033 H 
ATOM      8  H   LIG d   1      11.984   5.103  -0.890  0.00  0.00     0.033 H 
ATOM      9  H   LIG d   1      13.726   5.165  -3.073  0.00  0.00     0.032 H 
ATOM     10  H   LIG d   1      12.647   3.785  -2.706  0.00  0.00     0.032 H 
ATOM     11  H   LIG d   1      12.517   5.590  -4.970  0.00  0.00     0.082 H 
ATOM     12  H   LIG d   1      11.418   4.237  -4.584  0.00  0.00     0.082 H 
ATOM     13  H   LIG d   1      11.127   7.060  -3.999  0.00  0.00     0.204 HD
ENDROOT
BRANCH   1  14
ATOM     14  C   LIG d   1       9.977   7.138  -1.748  0.00  0.00     0.276 A 
ATOM     15  N   LIG d   1      10.526   8.317  -1.689  0.00  0.00    -0.186 NA
ATOM     16  C   LIG d   1       9.702   9.179  -1.068  0.00  0.00     0.207 A 
ATOM     17  N   LIG d   1       8.612   8.539  -0.720  0.00  0.00    -0.056 NA
ATOM     18  O   LIG d   1       8.774   7.200  -1.164  0.00  0.00    -0.332 OA
BRANCH  16  19
ATOM     19  C   LIG d   1       9.981  10.612  -0.812  0.00  0.00     0.084 A 
ATOM     20  C   LIG d   1       9.883  11.552  -1.845  0.00  0.00     0.226 A 
ATOM     21  N   LIG d   1      10.138  12.829  -1.617  0.00  0.00    -0.221 NA
ATOM     22  C   LIG d   1      10.481  13.265  -0.419  0.00  0.00     0.031 A 
ATOM     23  C   LIG d   1      10.599  12.398   0.649  0.00  0.00    -0.043 A 
ATOM     24  H   LIG d   1      10.676  14.318  -0.273  0.00  0.00     0.083 H 
ATOM     25  C   LIG d   1      10.348  11.048   0.462  0.00  0.00    -0.044 A 
ATOM     26  H   LIG d   1      10.884  12.769   1.623  0.00  0.00     0.063 H 
ATOM     27  H   LIG d   1      10.434  10.350   1.282  0.00  0.00     0.063 H 
BRANCH  20  28
ATOM     28  O   LIG d   1       9.528  11.150  -3.091  0.00  0.00    -0.474 OA
BRANCH  28  29
ATOM     29  C   LIG d   1       8.917  12.124  -3.938  0.00  0.00     0.115 C 
ATOM     30  H   LIG d   1       9.000  13.109  -3.478  0.00  0.00     0.072 H 
ATOM     31  H   LIG d   1       7.866  11.875  -4.079  0.00  0.00     0.072 H 
BRANCH  29  32
ATOM     32  C   LIG d   1       9.625  12.135  -5.295  0.00  0.00     0.081 C 
ATOM     33  H   LIG d   1       9.937  13.152  -5.533  0.00  0.00     0.059 H 
ATOM     34  H   LIG d   1       8.942  11.775  -6.064  0.00  0.00     0.059 H 
BRANCH  32  35
ATOM     35  O   LIG d   1      10.773  11.286  -5.240  0.00  0.00    -0.380 OA
BRANCH  35  36
ATOM     36  C   LIG d   1      11.750  11.564  -6.244  0.00  0.00     0.037 C 
ATOM     37  H   LIG d   1      12.747  11.383  -5.841  0.00  0.00     0.052 H 
ATOM     38  H   LIG d   1      11.583  10.914  -7.103  0.00  0.00     0.052 H 
ATOM     39  H   LIG d   1      11.667  12.605  -6.555  0.00  0.00     0.052 H 
ENDBRANCH  35  36
ENDBRANCH  32  35
ENDBRANCH  29  32
ENDBRANCH  28  29
ENDBRANCH  20  28
ENDBRANCH  16  19
ENDBRANCH   1  14
BRANCH   6  40
ATOM     40  C   LIG d   1       9.580   5.842  -4.571  0.00  0.00    -0.002 C 
ATOM     41  H   LIG d   1       9.519   4.778  -4.795  0.00  0.00     0.087 H 
ATOM     42  H   LIG d   1       8.720   6.138  -3.971  0.00  0.00     0.087 H 
BRANCH  40  43
ATOM     43  C   LIG d   1       9.587   6.626  -5.859  0.00  0.00     0.039 A 
ATOM     44  C   LIG d   1       9.424   8.003  -5.833  0.00  0.00     0.129 A 
ATOM     45  C   LIG d   1       9.437   8.724  -7.018  0.00  0.00     0.022 A 
ATOM     46  C   LIG d   1       9.601   8.065  -8.225  0.00  0.00     0.124 A 
ATOM     47  H   LIG d   1       9.314   9.797  -6.998  0.00  0.00     0.069 H 
ATOM     48  C   LIG d   1       9.760   6.686  -8.246  0.00  0.00    -0.019 A 
ATOM     49  C   LIG d   1       9.752   5.971  -7.064  0.00  0.00    -0.047 A 
ATOM     50  H   LIG d   1       9.888   6.172  -9.187  0.00  0.00     0.065 H 
ATOM     51  H   LIG d   1       9.876   4.898  -7.082  0.00  0.00     0.062 H 
BRANCH  44  52
ATOM     52  O   LIG d   1       9.256   8.646  -4.647  0.00  0.00    -0.506 OA
ATOM     53  H   LIG d   1       8.763   8.136  -3.989  0.00  0.00     0.292 HD
ENDBRANCH  44  52
BRANCH  46  54
ATOM     54  O   LIG d   1       9.609   8.768  -9.388  0.00  0.00    -0.495 OA
BRANCH  54  55
ATOM     55  C   LIG d   1      10.233   8.150 -10.516  0.00  0.00     0.079 C 
ATOM     56  H   LIG d   1      10.925   7.381 -10.172  0.00  0.00     0.066 H 
ATOM     57  H   LIG d   1       9.470   7.696 -11.149  0.00  0.00     0.066 H 
ATOM     58  H   LIG d   1      10.778   8.902 -11.085  0.00  0.00     0.066 H 
ENDBRANCH  54  55
ENDBRANCH  46  54
ENDBRANCH  40  43
ENDBRANCH   6  40
TORSDOF 12
ENDMDL
MODEL 9
REMARK VINA RESULT:      -5.5      2.078      3.306
REMARK  12 active torsions:
REMARK  status: ('A' for Active; 'I' for Inactive)
REMARK    1  A    between atoms: C_1  and  O_2 
REMARK    2  A    between atoms: O_2  and  C_3 
REMARK    3  A    between atoms: C_3  and  C_4 
REMARK    4  A    between atoms: C_4  and  O_5 
REMARK    5  A    between atoms: O_5  and  C_6 
REMARK    6  A    between atoms: C_7  and  C_12 
REMARK    7  A    between atoms: C_14  and  C_17 
REMARK    8  A    between atoms: N_22  and  C_23 
REMARK    9  A    between atoms: C_23  and  C_24 
REMARK   10  A    between atoms: C_27  and  O_31 
REMARK   11  A    between atoms: C_29  and  O_30 
REMARK   12  A    between atoms: O_31  and  C_32 
ROOT
ATOM      1  C   LIG d   1       4.650  -1.902  -4.169  0.00  0.00     0.060 C 
ATOM      2  H   LIG d   1       5.556  -1.322  -3.997  0.00  0.00     0.095 H 
ATOM      3  C   LIG d   1       3.832  -2.042  -2.861  0.00  0.00     0.004 C 
ATOM      4  C   LIG d   1       3.071  -0.699  -2.784  0.00  0.00    -0.007 C 
ATOM      5  C   LIG d   1       3.042  -0.170  -4.230  0.00  0.00    -0.031 C 
ATOM      6  N   LIG d   1       3.725  -1.174  -5.076  0.00  0.00     0.247 N 
ATOM      7  H   LIG d   1       3.135  -2.877  -2.929  0.00  0.00     0.033 H 
ATOM      8  H   LIG d   1       4.494  -2.159  -2.003  0.00  0.00     0.033 H 
ATOM      9  H   LIG d   1       2.057  -0.859  -2.419  0.00  0.00     0.032 H 
ATOM     10  H   LIG d   1       3.601   0.000  -2.136  0.00  0.00     0.032 H 
ATOM     11  H   LIG d   1       2.011  -0.044  -4.559  0.00  0.00     0.082 H 
ATOM     12  H   LIG d   1       3.570   0.782  -4.287  0.00  0.00     0.082 H 
ATOM     13  H   LIG d   1       3.050  -1.812  -5.471  0.00  0.00     0.204 HD
ENDROOT
BRANCH   1  14
ATOM     14  C   LIG d   1       4.988  -3.259  -4.733  0.00  0.00     0.276 A 
ATOM     15  N   LIG d   1       6.183  -3.767  -4.829  0.00  0.00    -0.186 NA
ATOM     16  C   LIG d   1       6.120  -4.994  -5.377  0.00  0.00     0.207 A 
ATOM     17  N   LIG d   1       4.865  -5.272  -5.639  0.00  0.00    -0.056 NA
ATOM     18  O   LIG d   1       4.109  -4.146  -5.217  0.00  0.00    -0.332 OA
BRANCH  16  19
ATOM     19  C   LIG d   1       7.276  -5.882  -5.646  0.00  0.00     0.084 A 
ATOM     20  C   LIG d   1       7.184  -7.260  -5.418  0.00  0.00     0.226 A 
ATOM     21  N   LIG d   1       8.218  -8.049  -5.653  0.00  0.00    -0.221 NA
ATOM     22  C   LIG d   1       9.360  -7.578  -6.117  0.00  0.00     0.031 A 
ATOM     23  C   LIG d   1       9.527  -6.230  -6.366  0.00  0.00    -0.043 A 
ATOM     24  H   LIG d   1      10.179  -8.258  -6.301  0.00  0.00     0.083 H 
ATOM     25  C   LIG d   1       8.475  -5.358  -6.131  0.00  0.00    -0.044 A 
ATOM     26  H   LIG d   1      10.469  -5.857  -6.742  0.00  0.00     0.063 H 
ATOM     27  H   LIG d   1       8.582  -4.299  -6.318  0.00  0.00     0.063 H 
BRANCH  20  28
ATOM     28  O   LIG d   1       6.027  -7.789  -4.947  0.00  0.00    -0.474 OA
BRANCH  28  29
ATOM     29  C   LIG d   1       6.006  -9.198  -4.713  0.00  0.00     0.115 C 
ATOM     30  H   LIG d   1       6.108  -9.390  -3.644  0.00  0.00     0.072 H 
ATOM     31  H   LIG d   1       6.832  -9.667  -5.247  0.00  0.00     0.072 H 
BRANCH  29  32
ATOM     32  C   LIG d   1       4.681  -9.778  -5.211  0.00  0.00     0.081 C 
ATOM     33  H   LIG d   1       4.808 -10.837  -5.431  0.00  0.00     0.059 H 
ATOM     34  H   LIG d   1       4.371  -9.254  -6.114  0.00  0.00     0.059 H 
BRANCH  32  35
ATOM     35  O   LIG d   1       3.682  -9.619  -4.201  0.00  0.00    -0.380 OA
BRANCH  35  36
ATOM     36  C   LIG d   1       3.500 -10.771  -3.377  0.00  0.00     0.037 C 
ATOM     37  H   LIG d   1       4.447 -11.035  -2.906  0.00  0.00     0.052 H 
ATOM     38  H   LIG d   1       2.760 -10.552  -2.606  0.00  0.00     0.052 H 
ATOM     39  H   LIG d   1       3.152 -11.604  -3.987  0.00  0.00     0.052 H 
ENDBRANCH  35  36
ENDBRANCH  32  35
ENDBRANCH  29  32
ENDBRANCH  28  29
ENDBRANCH  20  28
ENDBRANCH  16  19
ENDBRANCH   1  14
BRANCH   6  40
ATOM     40  C   LIG d   1       4.483  -0.511  -6.145  0.00  0.00    -0.002 C 
ATOM     41  H   LIG d   1       4.706   0.515  -5.851  0.00  0.00     0.087 H 
ATOM     42  H   LIG d   1       5.414  -1.049  -6.319  0.00  0.00     0.087 H 
BRANCH  40  43
ATOM     43  C   LIG d   1       3.664  -0.503  -7.411  0.00  0.00     0.039 A 
ATOM     44  C   LIG d   1       3.422  -1.689  -8.087  0.00  0.00     0.129 A 
ATOM     45  C   LIG d   1       2.663  -1.681  -9.248  0.00  0.00     0.022 A 
ATOM     46  C   LIG d   1       2.158  -0.486  -9.735  0.00  0.00     0.124 A 
ATOM     47  H   LIG d   1       2.470  -2.605  -9.774  0.00  0.00     0.069 H 
ATOM     48  C   LIG d   1       2.407   0.699  -9.057  0.00  0.00    -0.019 A 
ATOM     49  C   LIG d   1       3.158   0.687  -7.898  0.00  0.00    -0.047 A 
ATOM     50  H   LIG d   1       2.013   1.630  -9.436  0.00  0.00     0.065 H 
ATOM     51  H   LIG d   1       3.351   1.611  -7.371  0.00  0.00     0.062 H 
BRANCH  44  52
ATOM     52  O   LIG d   1       3.924  -2.858  -7.611  0.00  0.00    -0.506 OA
ATOM     53  H   LIG d   1       4.720  -3.161  -8.069  0.00  0.00     0.292 HD
ENDBRANCH  44  52
BRANCH  46  54
ATOM     54  O   LIG d   1       1.418  -0.474 -10.875  0.00  0.00    -0.495 OA
BRANCH  54  55
ATOM     55  C   LIG d   1       1.894  -1.265 -11.966  0.00  0.00     0.079 C 
ATOM     56  H   LIG d   1       2.574  -0.669 -12.576  0.00  0.00     0.066 H 
ATOM     57  H   LIG d   1       2.421  -2.137 -11.580  0.00  0.00     0.066 H 
ATOM     58  H   LIG d   1       1.050  -1.589 -12.574  0.00  0.00     0.066 H 
ENDBRANCH  54  55
ENDBRANCH  46  54
ENDBRANCH  40  43
ENDBRANCH   6  40
TORSDOF 12
ENDMDL
