MODEL 1
REMARK VINA RESULT:      -5.4      0.000      0.000
REMARK  1 active torsions:
REMARK  status: ('A' for Active; 'I' for Inactive)
REMARK    1  A    between atoms: C_7  and  C_11 
ROOT
ATOM      1  C   LIG d   1       4.701   1.060  -2.209  0.00  0.00    -0.061 A 
ATOM      2  C   LIG d   1       3.351   0.787  -2.386  0.00  0.00    -0.060 A 
ATOM      3  C   LIG d   1       2.944  -0.381  -2.993  0.00  0.00    -0.038 A 
ATOM      4  C   LIG d   1       3.893  -1.297  -3.434  0.00  0.00     0.047 A 
ATOM      5  C   LIG d   1       5.259  -1.017  -3.252  0.00  0.00     0.005 A 
ATOM      6  C   LIG d   1       5.650   0.174  -2.635  0.00  0.00    -0.052 A 
ATOM      7  C   LIG d   1       5.986  -2.158  -3.814  0.00  0.00     0.008 A 
ATOM      8  C   LIG d   1       5.066  -3.018  -4.278  0.00  0.00     0.008 A 
ATOM      9  N   LIG d   1       3.810  -2.521  -4.059  0.00  0.00    -0.360 N 
ATOM     10  H   LIG d   1       2.984  -2.965  -4.309  0.00  0.00     0.165 HD
ATOM     11  H   LIG d   1       5.004   1.979  -1.731  0.00  0.00     0.062 H 
ATOM     12  H   LIG d   1       2.613   1.497  -2.044  0.00  0.00     0.062 H 
ATOM     13  H   LIG d   1       1.891  -0.584  -3.125  0.00  0.00     0.064 H 
ATOM     14  H   LIG d   1       6.698   0.394  -2.494  0.00  0.00     0.062 H 
ATOM     15  H   LIG d   1       5.285  -3.963  -4.754  0.00  0.00     0.081 H 
ENDROOT
BRANCH   7  16
ATOM     16  C   LIG d   1       7.482  -2.335  -3.857  0.00  0.00     0.109 A 
ATOM     17  H   LIG d   1       7.972  -2.451  -2.890  0.00  0.00     0.067 H 
ATOM     18  O   LIG d   1       8.039  -3.030  -4.975  0.00  0.00    -0.367 OA
ATOM     19  C   LIG d   1       8.253  -1.617  -4.966  0.00  0.00     0.079 A 
ATOM     20  H   LIG d   1       7.683  -1.012  -5.671  0.00  0.00     0.059 H 
ATOM     21  H   LIG d   1       9.256  -1.257  -4.735  0.00  0.00     0.059 H 
ENDBRANCH   7  16
TORSDOF 1
ENDMDL
MODEL 2
REMARK VINA RESULT:      -5.4      1.750      2.613
REMARK  1 active torsions:
REMARK  status: ('A' for Active; 'I' for Inactive)
REMARK    1  A    between atoms: C_7  and  C_11 
ROOT
ATOM      1  C   LIG d   1       3.070  -0.116  -2.667  0.00  0.00    -0.061 A 
ATOM      2  C   LIG d   1       3.839   0.946  -2.211  0.00  0.00    -0.060 A 
ATOM      3  C   LIG d   1       5.209   0.934  -2.354  0.00  0.00    -0.038 A 
ATOM      4  C   LIG d   1       5.830  -0.153  -2.961  0.00  0.00     0.047 A 
ATOM      5  C   LIG d   1       5.047  -1.226  -3.421  0.00  0.00     0.005 A 
ATOM      6  C   LIG d   1       3.660  -1.194  -3.266  0.00  0.00    -0.052 A 
ATOM      7  C   LIG d   1       5.984  -2.193  -4.000  0.00  0.00     0.008 A 
ATOM      8  C   LIG d   1       7.215  -1.675  -3.864  0.00  0.00     0.008 A 
ATOM      9  N   LIG d   1       7.143  -0.456  -3.246  0.00  0.00    -0.360 N 
ATOM     10  H   LIG d   1       7.904   0.108  -3.039  0.00  0.00     0.165 HD
ATOM     11  H   LIG d   1       1.997  -0.091  -2.547  0.00  0.00     0.062 H 
ATOM     12  H   LIG d   1       3.359   1.790  -1.739  0.00  0.00     0.062 H 
ATOM     13  H   LIG d   1       5.799   1.766  -1.997  0.00  0.00     0.064 H 
ATOM     14  H   LIG d   1       3.055  -2.016  -3.617  0.00  0.00     0.062 H 
ATOM     15  H   LIG d   1       8.127  -2.151  -4.194  0.00  0.00     0.081 H 
ENDROOT
BRANCH   7  16
ATOM     16  C   LIG d   1       5.632  -3.515  -4.633  0.00  0.00     0.109 A 
ATOM     17  H   LIG d   1       6.309  -4.340  -4.411  0.00  0.00     0.067 H 
ATOM     18  O   LIG d   1       4.248  -3.818  -4.817  0.00  0.00    -0.367 OA
ATOM     19  C   LIG d   1       4.964  -3.490  -6.009  0.00  0.00     0.079 A 
ATOM     20  H   LIG d   1       4.775  -2.518  -6.465  0.00  0.00     0.059 H 
ATOM     21  H   LIG d   1       5.197  -4.300  -6.701  0.00  0.00     0.059 H 
ENDBRANCH   7  16
TORSDOF 1
ENDMDL
MODEL 3
REMARK VINA RESULT:      -5.3      1.904      4.036
REMARK  1 active torsions:
REMARK  status: ('A' for Active; 'I' for Inactive)
REMARK    1  A    between atoms: C_7  and  C_11 
ROOT
ATOM      1  C   LIG d   1       7.714  -2.587  -3.819  0.00  0.00    -0.061 A 
ATOM      2  C   LIG d   1       7.148  -3.514  -4.683  0.00  0.00    -0.060 A 
ATOM      3  C   LIG d   1       5.784  -3.561  -4.869  0.00  0.00    -0.038 A 
ATOM      4  C   LIG d   1       4.964  -2.670  -4.185  0.00  0.00     0.047 A 
ATOM      5  C   LIG d   1       5.541  -1.732  -3.311  0.00  0.00     0.005 A 
ATOM      6  C   LIG d   1       6.927  -1.702  -3.137  0.00  0.00    -0.052 A 
ATOM      7  C   LIG d   1       4.430  -0.955  -2.758  0.00  0.00     0.008 A 
ATOM      8  C   LIG d   1       3.302  -1.442  -3.300  0.00  0.00     0.008 A 
ATOM      9  N   LIG d   1       3.602  -2.467  -4.156  0.00  0.00    -0.360 N 
ATOM     10  H   LIG d   1       2.951  -2.975  -4.665  0.00  0.00     0.165 HD
ATOM     11  H   LIG d   1       8.785  -2.563  -3.685  0.00  0.00     0.062 H 
ATOM     12  H   LIG d   1       7.784  -4.207  -5.215  0.00  0.00     0.062 H 
ATOM     13  H   LIG d   1       5.353  -4.286  -5.544  0.00  0.00     0.064 H 
ATOM     14  H   LIG d   1       7.374  -0.984  -2.467  0.00  0.00     0.062 H 
ATOM     15  H   LIG d   1       2.307  -1.078  -3.092  0.00  0.00     0.081 H 
ENDROOT
BRANCH   7  16
ATOM     16  C   LIG d   1       4.532   0.180  -1.771  0.00  0.00     0.109 A 
ATOM     17  H   LIG d   1       4.462  -0.100  -0.719  0.00  0.00     0.067 H 
ATOM     18  O   LIG d   1       5.369   1.286  -2.112  0.00  0.00    -0.367 OA
ATOM     19  C   LIG d   1       3.964   1.539  -2.186  0.00  0.00     0.079 A 
ATOM     20  H   LIG d   1       3.514   1.620  -3.176  0.00  0.00     0.059 H 
ATOM     21  H   LIG d   1       3.518   2.161  -1.410  0.00  0.00     0.059 H 
ENDBRANCH   7  16
TORSDOF 1
ENDMDL
MODEL 4
REMARK VINA RESULT:      -5.2      3.056      3.687
REMARK  1 active torsions:
REMARK  status: ('A' for Active; 'I' for Inactive)
REMARK    1  A    between atoms: C_7  and  C_11 
ROOT
ATOM      1  C   LIG d   1       3.602   1.233  -2.392  0.00  0.00    -0.061 A 
ATOM      2  C   LIG d   1       4.496   0.387  -1.750  0.00  0.00    -0.060 A 
ATOM      3  C   LIG d   1       5.087  -0.657  -2.429  0.00  0.00    -0.038 A 
ATOM      4  C   LIG d   1       4.785  -0.865  -3.771  0.00  0.00     0.047 A 
ATOM      5  C   LIG d   1       3.879  -0.005  -4.417  0.00  0.00     0.005 A 
ATOM      6  C   LIG d   1       3.292   1.046  -3.709  0.00  0.00    -0.052 A 
ATOM      7  C   LIG d   1       3.779  -0.484  -5.797  0.00  0.00     0.008 A 
ATOM      8  C   LIG d   1       4.587  -1.550  -5.902  0.00  0.00     0.008 A 
ATOM      9  N   LIG d   1       5.198  -1.793  -4.702  0.00  0.00    -0.360 N 
ATOM     10  H   LIG d   1       5.826  -2.512  -4.532  0.00  0.00     0.165 HD
ATOM     11  H   LIG d   1       3.148   2.047  -1.845  0.00  0.00     0.062 H 
ATOM     12  H   LIG d   1       4.731   0.547  -0.708  0.00  0.00     0.062 H 
ATOM     13  H   LIG d   1       5.782  -1.309  -1.921  0.00  0.00     0.064 H 
ATOM     14  H   LIG d   1       2.595   1.708  -4.201  0.00  0.00     0.062 H 
ATOM     15  H   LIG d   1       4.735  -2.130  -6.802  0.00  0.00     0.081 H 
ENDROOT
BRANCH   7  16
ATOM     16  C   LIG d   1       2.933   0.111  -6.894  0.00  0.00     0.109 A 
ATOM     17  H   LIG d   1       1.962  -0.360  -7.050  0.00  0.00     0.067 H 
ATOM     18  O   LIG d   1       3.038   1.516  -7.128  0.00  0.00    -0.367 OA
ATOM     19  C   LIG d   1       3.652   0.686  -8.116  0.00  0.00     0.079 A 
ATOM     20  H   LIG d   1       4.741   0.638  -8.134  0.00  0.00     0.059 H 
ATOM     21  H   LIG d   1       3.158   0.598  -9.084  0.00  0.00     0.059 H 
ENDBRANCH   7  16
TORSDOF 1
ENDMDL
MODEL 5
REMARK VINA RESULT:      -5.2      2.691      3.170
REMARK  1 active torsions:
REMARK  status: ('A' for Active; 'I' for Inactive)
REMARK    1  A    between atoms: C_7  and  C_11 
ROOT
ATOM      1  C   LIG d   1       4.446   0.640  -1.877  0.00  0.00    -0.061 A 
ATOM      2  C   LIG d   1       4.189  -0.723  -1.882  0.00  0.00    -0.060 A 
ATOM      3  C   LIG d   1       4.990  -1.587  -2.597  0.00  0.00    -0.038 A 
ATOM      4  C   LIG d   1       6.067  -1.088  -3.322  0.00  0.00     0.047 A 
ATOM      5  C   LIG d   1       6.324   0.294  -3.313  0.00  0.00     0.005 A 
ATOM      6  C   LIG d   1       5.500   1.152  -2.581  0.00  0.00    -0.052 A 
ATOM      7  C   LIG d   1       7.505   0.493  -4.156  0.00  0.00     0.008 A 
ATOM      8  C   LIG d   1       7.876  -0.717  -4.604  0.00  0.00     0.008 A 
ATOM      9  N   LIG d   1       7.029  -1.675  -4.115  0.00  0.00    -0.360 N 
ATOM     10  H   LIG d   1       7.096  -2.624  -4.301  0.00  0.00     0.165 HD
ATOM     11  H   LIG d   1       3.809   1.304  -1.310  0.00  0.00     0.062 H 
ATOM     12  H   LIG d   1       3.353  -1.112  -1.320  0.00  0.00     0.062 H 
ATOM     13  H   LIG d   1       4.782  -2.647  -2.595  0.00  0.00     0.064 H 
ATOM     14  H   LIG d   1       5.692   2.214  -2.573  0.00  0.00     0.062 H 
ATOM     15  H   LIG d   1       8.718  -0.907  -5.253  0.00  0.00     0.081 H 
ENDROOT
BRANCH   7  16
ATOM     16  C   LIG d   1       8.180   1.806  -4.460  0.00  0.00     0.109 A 
ATOM     17  H   LIG d   1       7.871   2.293  -5.385  0.00  0.00     0.067 H 
ATOM     18  O   LIG d   1       8.547   2.637  -3.358  0.00  0.00    -0.367 OA
ATOM     19  C   LIG d   1       9.633   1.980  -4.013  0.00  0.00     0.079 A 
ATOM     20  H   LIG d   1      10.110   1.147  -3.497  0.00  0.00     0.059 H 
ATOM     21  H   LIG d   1      10.288   2.585  -4.641  0.00  0.00     0.059 H 
ENDBRANCH   7  16
TORSDOF 1
ENDMDL
MODEL 6
REMARK VINA RESULT:      -5.1      2.204      2.609
REMARK  1 active torsions:
REMARK  status: ('A' for Active; 'I' for Inactive)
REMARK    1  A    between atoms: C_7  and  C_11 
ROOT
ATOM      1  C   LIG d   1       4.448  -0.498  -1.677  0.00  0.00    -0.061 A 
ATOM      2  C   LIG d   1       3.945   0.740  -2.052  0.00  0.00    -0.060 A 
ATOM      3  C   LIG d   1       3.713   1.033  -3.378  0.00  0.00    -0.038 A 
ATOM      4  C   LIG d   1       3.987   0.080  -4.353  0.00  0.00     0.047 A 
ATOM      5  C   LIG d   1       4.496  -1.174  -3.969  0.00  0.00     0.005 A 
ATOM      6  C   LIG d   1       4.723  -1.450  -2.619  0.00  0.00    -0.052 A 
ATOM      7  C   LIG d   1       4.673  -1.937  -5.207  0.00  0.00     0.008 A 
ATOM      8  C   LIG d   1       4.281  -1.143  -6.216  0.00  0.00     0.008 A 
ATOM      9  N   LIG d   1       3.867   0.066  -5.725  0.00  0.00    -0.360 N 
ATOM     10  H   LIG d   1       3.539   0.803  -6.264  0.00  0.00     0.165 HD
ATOM     11  H   LIG d   1       4.623  -0.712  -0.633  0.00  0.00     0.062 H 
ATOM     12  H   LIG d   1       3.732   1.482  -1.296  0.00  0.00     0.062 H 
ATOM     13  H   LIG d   1       3.321   2.000  -3.659  0.00  0.00     0.064 H 
ATOM     14  H   LIG d   1       5.115  -2.410  -2.319  0.00  0.00     0.062 H 
ATOM     15  H   LIG d   1       4.290  -1.418  -7.260  0.00  0.00     0.081 H 
ENDROOT
BRANCH   7  16
ATOM     16  C   LIG d   1       5.191  -3.347  -5.325  0.00  0.00     0.109 A 
ATOM     17  H   LIG d   1       6.275  -3.457  -5.285  0.00  0.00     0.067 H 
ATOM     18  O   LIG d   1       4.392  -4.398  -4.778  0.00  0.00    -0.367 OA
ATOM     19  C   LIG d   1       4.406  -4.323  -6.205  0.00  0.00     0.079 A 
ATOM     20  H   LIG d   1       3.511  -3.951  -6.703  0.00  0.00     0.059 H 
ATOM     21  H   LIG d   1       4.970  -5.082  -6.748  0.00  0.00     0.059 H 
ENDBRANCH   7  16
TORSDOF 1
ENDMDL
MODEL 7
REMARK VINA RESULT:      -5.1      1.892      2.557
REMARK  1 active torsions:
REMARK  status: ('A' for Active; 'I' for Inactive)
REMARK    1  A    between atoms: C_7  and  C_11 
ROOT
ATOM      1  C   LIG d   1       4.276  -1.004  -1.949  0.00  0.00    -0.061 A 
ATOM      2  C   LIG d   1       4.182   0.373  -1.800  0.00  0.00    -0.060 A 
ATOM      3  C   LIG d   1       5.062   1.212  -2.447  0.00  0.00    -0.038 A 
ATOM      4  C   LIG d   1       6.057   0.675  -3.258  0.00  0.00     0.047 A 
ATOM      5  C   LIG d   1       6.148  -0.721  -3.406  0.00  0.00     0.005 A 
ATOM      6  C   LIG d   1       5.245  -1.553  -2.740  0.00  0.00    -0.052 A 
ATOM      7  C   LIG d   1       7.278  -0.960  -4.307  0.00  0.00     0.008 A 
ATOM      8  C   LIG d   1       7.779   0.241  -4.636  0.00  0.00     0.008 A 
ATOM      9  N   LIG d   1       7.062   1.230  -4.019  0.00  0.00    -0.360 N 
ATOM     10  H   LIG d   1       7.237   2.180  -4.105  0.00  0.00     0.165 HD
ATOM     11  H   LIG d   1       3.577  -1.647  -1.435  0.00  0.00     0.062 H 
ATOM     12  H   LIG d   1       3.410   0.792  -1.171  0.00  0.00     0.062 H 
ATOM     13  H   LIG d   1       4.981   2.282  -2.326  0.00  0.00     0.064 H 
ATOM     14  H   LIG d   1       5.312  -2.624  -2.850  0.00  0.00     0.062 H 
ATOM     15  H   LIG d   1       8.623   0.402  -5.291  0.00  0.00     0.081 H 
ENDROOT
BRANCH   7  16
ATOM     16  C   LIG d   1       7.779  -2.301  -4.780  0.00  0.00     0.109 A 
ATOM     17  H   LIG d   1       7.203  -2.765  -5.582  0.00  0.00     0.067 H 
ATOM     18  O   LIG d   1       9.189  -2.533  -4.751  0.00  0.00    -0.367 OA
ATOM     19  C   LIG d   1       8.436  -3.221  -3.749  0.00  0.00     0.079 A 
ATOM     20  H   LIG d   1       8.510  -2.862  -2.722  0.00  0.00     0.059 H 
ATOM     21  H   LIG d   1       8.297  -4.295  -3.866  0.00  0.00     0.059 H 
ENDBRANCH   7  16
TORSDOF 1
ENDMDL
MODEL 8
REMARK VINA RESULT:      -4.9      2.876      3.445
REMARK  1 active torsions:
REMARK  status: ('A' for Active; 'I' for Inactive)
REMARK    1  A    between atoms: C_7  and  C_11 
ROOT
ATOM      1  C   LIG d   1       4.961  -2.294  -3.034  0.00  0.00    -0.061 A 
ATOM      2  C   LIG d   1       3.869  -1.865  -2.292  0.00  0.00    -0.060 A 
ATOM      3  C   LIG d   1       2.920  -1.038  -2.852  0.00  0.00    -0.038 A 
ATOM      4  C   LIG d   1       3.056  -0.627  -4.174  0.00  0.00     0.047 A 
ATOM      5  C   LIG d   1       4.164  -1.064  -4.922  0.00  0.00     0.005 A 
ATOM      6  C   LIG d   1       5.115  -1.902  -4.334  0.00  0.00    -0.052 A 
ATOM      7  C   LIG d   1       4.018  -0.467  -6.251  0.00  0.00     0.008 A 
ATOM      8  C   LIG d   1       2.889   0.259  -6.233  0.00  0.00     0.008 A 
ATOM      9  N   LIG d   1       2.300   0.175  -5.000  0.00  0.00    -0.360 N 
ATOM     10  H   LIG d   1       1.474   0.616  -4.746  0.00  0.00     0.165 HD
ATOM     11  H   LIG d   1       5.695  -2.943  -2.580  0.00  0.00     0.062 H 
ATOM     12  H   LIG d   1       3.761  -2.183  -1.266  0.00  0.00     0.062 H 
ATOM     13  H   LIG d   1       2.073  -0.710  -2.267  0.00  0.00     0.064 H 
ATOM     14  H   LIG d   1       5.967  -2.239  -4.904  0.00  0.00     0.062 H 
ATOM     15  H   LIG d   1       2.502   0.825  -7.067  0.00  0.00     0.081 H 
ENDROOT
BRANCH   7  16
ATOM     16  C   LIG d   1       4.954  -0.639  -7.420  0.00  0.00     0.109 A 
ATOM     17  H   LIG d   1       4.988  -1.638  -7.855  0.00  0.00     0.067 H 
ATOM     18  O   LIG d   1       5.140   0.476  -8.294  0.00  0.00    -0.367 OA
ATOM     19  C   LIG d   1       6.241   0.188  -7.430  0.00  0.00     0.079 A 
ATOM     20  H   LIG d   1       6.419   0.861  -6.591  0.00  0.00     0.059 H 
ATOM     21  H   LIG d   1       7.130  -0.262  -7.872  0.00  0.00     0.059 H 
ENDBRANCH   7  16
TORSDOF 1
ENDMDL
MODEL 9
REMARK VINA RESULT:      -4.5      2.480      3.483
REMARK  1 active torsions:
REMARK  status: ('A' for Active; 'I' for Inactive)
REMARK    1  A    between atoms: C_7  and  C_11 
ROOT
ATOM      1  C   LIG d   1       5.037  -2.947  -3.970  0.00  0.00    -0.061 A 
ATOM      2  C   LIG d   1       4.042  -2.866  -3.006  0.00  0.00    -0.060 A 
ATOM      3  C   LIG d   1       3.832  -1.696  -2.309  0.00  0.00    -0.038 A 
ATOM      4  C   LIG d   1       4.625  -0.584  -2.574  0.00  0.00     0.047 A 
ATOM      5  C   LIG d   1       5.631  -0.671  -3.552  0.00  0.00     0.005 A 
ATOM      6  C   LIG d   1       5.828  -1.867  -4.246  0.00  0.00    -0.052 A 
ATOM      7  C   LIG d   1       6.275   0.644  -3.590  0.00  0.00     0.008 A 
ATOM      8  C   LIG d   1       5.653   1.412  -2.681  0.00  0.00     0.008 A 
ATOM      9  N   LIG d   1       4.663   0.695  -2.064  0.00  0.00    -0.360 N 
ATOM     10  H   LIG d   1       4.078   1.037  -1.371  0.00  0.00     0.165 HD
ATOM     11  H   LIG d   1       5.189  -3.872  -4.507  0.00  0.00     0.062 H 
ATOM     12  H   LIG d   1       3.426  -3.729  -2.799  0.00  0.00     0.062 H 
ATOM     13  H   LIG d   1       3.054  -1.643  -1.562  0.00  0.00     0.064 H 
ATOM     14  H   LIG d   1       6.600  -1.939  -4.996  0.00  0.00     0.062 H 
ATOM     15  H   LIG d   1       5.897   2.442  -2.468  0.00  0.00     0.081 H 
ENDROOT
BRANCH   7  16
ATOM     16  C   LIG d   1       7.415   1.060  -4.484  0.00  0.00     0.109 A 
ATOM     17  H   LIG d   1       7.575   0.438  -5.366  0.00  0.00     0.067 H 
ATOM     18  O   LIG d   1       7.704   2.455  -4.590  0.00  0.00    -0.367 OA
ATOM     19  C   LIG d   1       8.642   1.693  -3.826  0.00  0.00     0.079 A 
ATOM     20  H   LIG d   1       8.632   1.814  -2.743  0.00  0.00     0.059 H 
ATOM     21  H   LIG d   1       9.617   1.494  -4.271  0.00  0.00     0.059 H 
ENDBRANCH   7  16
TORSDOF 1
ENDMDL
MODEL 10
REMARK VINA RESULT:      -4.4      2.470      4.628
REMARK  1 active torsions:
REMARK  status: ('A' for Active; 'I' for Inactive)
REMARK    1  A    between atoms: C_7  and  C_11 
ROOT
ATOM      1  C   LIG d   1       5.416  -3.831  -4.872  0.00  0.00    -0.061 A 
ATOM      2  C   LIG d   1       6.803  -3.856  -4.815  0.00  0.00    -0.060 A 
ATOM      3  C   LIG d   1       7.507  -2.776  -4.329  0.00  0.00    -0.038 A 
ATOM      4  C   LIG d   1       6.821  -1.647  -3.891  0.00  0.00     0.047 A 
ATOM      5  C   LIG d   1       5.417  -1.626  -3.951  0.00  0.00     0.005 A 
ATOM      6  C   LIG d   1       4.723  -2.732  -4.448  0.00  0.00    -0.052 A 
ATOM      7  C   LIG d   1       5.008  -0.321  -3.427  0.00  0.00     0.008 A 
ATOM      8  C   LIG d   1       6.130   0.338  -3.096  0.00  0.00     0.008 A 
ATOM      9  N   LIG d   1       7.224  -0.439  -3.366  0.00  0.00    -0.360 N 
ATOM     10  H   LIG d   1       8.144  -0.177  -3.212  0.00  0.00     0.165 HD
ATOM     11  H   LIG d   1       4.880  -4.687  -5.255  0.00  0.00     0.062 H 
ATOM     12  H   LIG d   1       7.336  -4.732  -5.154  0.00  0.00     0.062 H 
ATOM     13  H   LIG d   1       8.585  -2.806  -4.287  0.00  0.00     0.064 H 
ATOM     14  H   LIG d   1       3.645  -2.720  -4.496  0.00  0.00     0.062 H 
ATOM     15  H   LIG d   1       6.164   1.334  -2.679  0.00  0.00     0.081 H 
ENDROOT
BRANCH   7  16
ATOM     16  C   LIG d   1       3.595   0.185  -3.280  0.00  0.00     0.109 A 
ATOM     17  H   LIG d   1       3.039  -0.209  -2.428  0.00  0.00     0.067 H 
ATOM     18  O   LIG d   1       3.320   1.523  -3.696  0.00  0.00    -0.367 OA
ATOM     19  C   LIG d   1       2.815   0.500  -4.557  0.00  0.00     0.079 A 
ATOM     20  H   LIG d   1       3.318   0.345  -5.511  0.00  0.00     0.059 H 
ATOM     21  H   LIG d   1       1.740   0.318  -4.554  0.00  0.00     0.059 H 
ENDBRANCH   7  16
TORSDOF 1
ENDMDL
