MODEL 1
REMARK VINA RESULT:      -7.2      0.000      0.000
REMARK  5 active torsions:
REMARK  status: ('A' for Active; 'I' for Inactive)
REMARK    1  A    between atoms: C_6  and  C_7 
REMARK    2  A    between atoms: C_13  and  N_18 
REMARK       I    between atoms: N_18  and  C_19 
REMARK    3  A    between atoms: C_19  and  C_21 
REMARK    4  A    between atoms: C_21  and  C_22 
REMARK    5  A    between atoms: C_22  and  C_23 
ROOT
ATOM      1  C   LIG d   1       2.022  -1.830 -11.328  0.00  0.00     0.139 A 
ATOM      2  C   LIG d   1       2.461  -2.925 -10.649  0.00  0.00     0.029 A 
ATOM      3  C   LIG d   1       2.955  -2.776  -9.333  0.00  0.00     0.193 A 
ATOM      4  O   LIG d   1       3.357  -3.735  -8.694  0.00  0.00    -0.287 OA
ATOM      5  C   LIG d   1       2.966  -1.414  -8.762  0.00  0.00     0.066 A 
ATOM      6  C   LIG d   1       3.437  -1.174  -7.472  0.00  0.00    -0.026 A 
ATOM      7  C   LIG d   1       3.431   0.117  -6.974  0.00  0.00     0.034 A 
ATOM      8  C   LIG d   1       2.958   1.167  -7.758  0.00  0.00    -0.037 A 
ATOM      9  C   LIG d   1       2.491   0.936  -9.034  0.00  0.00    -0.017 A 
ATOM     10  C   LIG d   1       2.490  -0.355  -9.550  0.00  0.00     0.139 A 
ATOM     11  O   LIG d   1       2.042  -0.597 -10.800  0.00  0.00    -0.455 OA
ATOM     12  H   LIG d   1       2.431  -3.900 -11.112  0.00  0.00     0.069 H 
ATOM     13  H   LIG d   1       3.803  -1.990  -6.866  0.00  0.00     0.064 H 
ATOM     14  H   LIG d   1       2.956   2.171  -7.362  0.00  0.00     0.064 H 
ATOM     15  H   LIG d   1       2.126   1.758  -9.632  0.00  0.00     0.066 H 
ENDROOT
BRANCH   7  16
ATOM     16  N   LIG d   1       3.902   0.368  -5.679  0.00  0.00    -0.285 N 
ATOM     17  C   LIG d   1       3.032   0.468  -4.653  0.00  0.00     0.218 C 
ATOM     18  O   LIG d   1       1.853   0.246  -4.834  0.00  0.00    -0.276 OA
ATOM     19  H   LIG d   1       4.853   0.469  -5.520  0.00  0.00     0.155 HD
BRANCH  17  20
ATOM     20  C   LIG d   1       3.525   0.855  -3.283  0.00  0.00     0.031 C 
ATOM     21  H   LIG d   1       4.514   1.307  -3.367  0.00  0.00     0.036 H 
ATOM     22  H   LIG d   1       2.834   1.570  -2.837  0.00  0.00     0.036 H 
BRANCH  20  23
ATOM     23  C   LIG d   1       3.609  -0.393  -2.401  0.00  0.00     0.017 C 
ATOM     24  H   LIG d   1       4.177  -0.164  -1.499  0.00  0.00     0.035 H 
ATOM     25  H   LIG d   1       2.603  -0.711  -2.125  0.00  0.00     0.035 H 
BRANCH  23  26
ATOM     26  C   LIG d   1       4.295  -1.499  -3.160  0.00  0.00     0.139 A 
ATOM     27  O   LIG d   1       3.688  -2.465  -3.867  0.00  0.00    -0.358 OA
ATOM     28  N   LIG d   1       4.692  -3.295  -4.421  0.00  0.00    -0.066 NA
ATOM     29  C   LIG d   1       5.850  -2.833  -4.041  0.00  0.00     0.172 A 
ATOM     30  C   LIG d   1       5.624  -1.696  -3.242  0.00  0.00     0.019 A 
ATOM     31 CL   LIG d   1       7.400  -3.500  -4.450  0.00  0.00    -0.059 Cl
ATOM     32  H   LIG d   1       6.386  -1.087  -2.776  0.00  0.00     0.068 H 
ENDBRANCH  23  26
ENDBRANCH  20  23
ENDBRANCH  17  20
ENDBRANCH   7  16
BRANCH   1  33
ATOM     33  C   LIG d   1       1.510  -2.005 -12.702  0.00  0.00     0.018 A 
ATOM     34  C   LIG d   1       0.134  -2.089 -12.932  0.00  0.00    -0.050 A 
ATOM     35  C   LIG d   1      -0.337  -2.253 -14.216  0.00  0.00    -0.043 A 
ATOM     36  H   LIG d   1      -0.557  -2.020 -12.106  0.00  0.00     0.062 H 
ATOM     37  C   LIG d   1       0.548  -2.337 -15.278  0.00  0.00     0.041 A 
ATOM     38  H   LIG d   1      -1.401  -2.317 -14.395  0.00  0.00     0.063 H 
ATOM     39  C   LIG d   1       1.913  -2.255 -15.057  0.00  0.00    -0.043 A 
ATOM     40 CL   LIG d   1      -0.055  -2.543 -16.893  0.00  0.00    -0.084 Cl
ATOM     41  C   LIG d   1       2.398  -2.091 -13.777  0.00  0.00    -0.050 A 
ATOM     42  H   LIG d   1       2.599  -2.321 -15.889  0.00  0.00     0.063 H 
ATOM     43  H   LIG d   1       3.463  -2.029 -13.605  0.00  0.00     0.062 H 
ENDBRANCH   1  33
TORSDOF 5
ENDMDL
MODEL 2
REMARK VINA RESULT:      -6.7      8.990     13.551
REMARK  5 active torsions:
REMARK  status: ('A' for Active; 'I' for Inactive)
REMARK    1  A    between atoms: C_6  and  C_7 
REMARK    2  A    between atoms: C_13  and  N_18 
REMARK       I    between atoms: N_18  and  C_19 
REMARK    3  A    between atoms: C_19  and  C_21 
REMARK    4  A    between atoms: C_21  and  C_22 
REMARK    5  A    between atoms: C_22  and  C_23 
ROOT
ATOM      1  C   LIG d   1      10.381   8.128  -1.363  0.00  0.00     0.139 A 
ATOM      2  C   LIG d   1      10.883   7.196  -0.506  0.00  0.00     0.029 A 
ATOM      3  C   LIG d   1      10.872   5.832  -0.879  0.00  0.00     0.193 A 
ATOM      4  O   LIG d   1      11.314   4.969  -0.137  0.00  0.00    -0.287 OA
ATOM      5  C   LIG d   1      10.305   5.493  -2.199  0.00  0.00     0.066 A 
ATOM      6  C   LIG d   1      10.253   4.174  -2.647  0.00  0.00    -0.026 A 
ATOM      7  C   LIG d   1       9.713   3.897  -3.890  0.00  0.00     0.034 A 
ATOM      8  C   LIG d   1       9.226   4.931  -4.687  0.00  0.00    -0.037 A 
ATOM      9  C   LIG d   1       9.275   6.237  -4.250  0.00  0.00    -0.017 A 
ATOM     10  C   LIG d   1       9.813   6.533  -3.003  0.00  0.00     0.139 A 
ATOM     11  O   LIG d   1       9.863   7.806  -2.557  0.00  0.00    -0.455 OA
ATOM     12  H   LIG d   1      11.288   7.497   0.448  0.00  0.00     0.069 H 
ATOM     13  H   LIG d   1      10.632   3.374  -2.027  0.00  0.00     0.064 H 
ATOM     14  H   LIG d   1       8.806   4.708  -5.656  0.00  0.00     0.064 H 
ATOM     15  H   LIG d   1       8.894   7.030  -4.876  0.00  0.00     0.066 H 
ENDROOT
BRANCH   7  16
ATOM     16  N   LIG d   1       9.656   2.575  -4.349  0.00  0.00    -0.285 N 
ATOM     17  C   LIG d   1       8.601   1.797  -4.035  0.00  0.00     0.218 C 
ATOM     18  O   LIG d   1       7.656   2.269  -3.437  0.00  0.00    -0.276 OA
ATOM     19  H   LIG d   1      10.376   2.219  -4.893  0.00  0.00     0.155 HD
BRANCH  17  20
ATOM     20  C   LIG d   1       8.595   0.342  -4.427  0.00  0.00     0.031 C 
ATOM     21  H   LIG d   1       9.555   0.082  -4.873  0.00  0.00     0.036 H 
ATOM     22  H   LIG d   1       8.426  -0.272  -3.542  0.00  0.00     0.036 H 
BRANCH  20  23
ATOM     23  C   LIG d   1       7.477   0.093  -5.443  0.00  0.00     0.017 C 
ATOM     24  H   LIG d   1       7.337   0.984  -6.055  0.00  0.00     0.035 H 
ATOM     25  H   LIG d   1       7.747  -0.748  -6.082  0.00  0.00     0.035 H 
BRANCH  23  26
ATOM     26  C   LIG d   1       6.197  -0.221  -4.713  0.00  0.00     0.139 A 
ATOM     27  O   LIG d   1       5.090   0.537  -4.699  0.00  0.00    -0.358 OA
ATOM     28  N   LIG d   1       4.123  -0.119  -3.899  0.00  0.00    -0.066 NA
ATOM     29  C   LIG d   1       4.653  -1.223  -3.453  0.00  0.00     0.172 A 
ATOM     30  C   LIG d   1       5.965  -1.310  -3.955  0.00  0.00     0.019 A 
ATOM     31 CL   LIG d   1       3.876  -2.384  -2.422  0.00  0.00    -0.059 Cl
ATOM     32  H   LIG d   1       6.665  -2.111  -3.766  0.00  0.00     0.068 H 
ENDBRANCH  23  26
ENDBRANCH  20  23
ENDBRANCH  17  20
ENDBRANCH   7  16
BRANCH   1  33
ATOM     33  C   LIG d   1      10.401   9.548  -0.956  0.00  0.00     0.018 A 
ATOM     34  C   LIG d   1      10.611   9.891   0.381  0.00  0.00    -0.050 A 
ATOM     35  C   LIG d   1      10.629  11.218   0.754  0.00  0.00    -0.043 A 
ATOM     36  H   LIG d   1      10.766   9.119   1.120  0.00  0.00     0.062 H 
ATOM     37  C   LIG d   1      10.437  12.210  -0.193  0.00  0.00     0.041 A 
ATOM     38  H   LIG d   1      10.793  11.484   1.788  0.00  0.00     0.063 H 
ATOM     39  C   LIG d   1      10.226  11.876  -1.521  0.00  0.00    -0.043 A 
ATOM     40 CL   LIG d   1      10.461  13.878   0.285  0.00  0.00    -0.084 Cl
ATOM     41  C   LIG d   1      10.207  10.553  -1.907  0.00  0.00    -0.050 A 
ATOM     42  H   LIG d   1      10.077  12.654  -2.255  0.00  0.00     0.063 H 
ATOM     43  H   LIG d   1      10.041  10.293  -2.943  0.00  0.00     0.062 H 
ENDBRANCH   1  33
TORSDOF 5
ENDMDL
MODEL 3
REMARK VINA RESULT:      -6.7      6.843      9.779
REMARK  5 active torsions:
REMARK  status: ('A' for Active; 'I' for Inactive)
REMARK    1  A    between atoms: C_6  and  C_7 
REMARK    2  A    between atoms: C_13  and  N_18 
REMARK       I    between atoms: N_18  and  C_19 
REMARK    3  A    between atoms: C_19  and  C_21 
REMARK    4  A    between atoms: C_21  and  C_22 
REMARK    5  A    between atoms: C_22  and  C_23 
ROOT
ATOM      1  C   LIG d   1       6.689  -1.776  -4.580  0.00  0.00     0.139 A 
ATOM      2  C   LIG d   1       5.981  -1.118  -3.620  0.00  0.00     0.029 A 
ATOM      3  C   LIG d   1       6.320   0.217  -3.299  0.00  0.00     0.193 A 
ATOM      4  O   LIG d   1       5.709   0.838  -2.444  0.00  0.00    -0.287 OA
ATOM      5  C   LIG d   1       7.443   0.829  -4.037  0.00  0.00     0.066 A 
ATOM      6  C   LIG d   1       7.847   2.139  -3.783  0.00  0.00    -0.026 A 
ATOM      7  C   LIG d   1       8.904   2.676  -4.496  0.00  0.00     0.034 A 
ATOM      8  C   LIG d   1       9.559   1.911  -5.459  0.00  0.00    -0.037 A 
ATOM      9  C   LIG d   1       9.165   0.616  -5.713  0.00  0.00    -0.017 A 
ATOM     10  C   LIG d   1       8.105   0.060  -5.006  0.00  0.00     0.139 A 
ATOM     11  O   LIG d   1       7.710  -1.210  -5.240  0.00  0.00    -0.455 OA
ATOM     12  H   LIG d   1       5.168  -1.611  -3.111  0.00  0.00     0.069 H 
ATOM     13  H   LIG d   1       7.337   2.730  -3.037  0.00  0.00     0.064 H 
ATOM     14  H   LIG d   1      10.383   2.338  -6.011  0.00  0.00     0.064 H 
ATOM     15  H   LIG d   1       9.680   0.032  -6.462  0.00  0.00     0.066 H 
ENDROOT
BRANCH   7  16
ATOM     16  N   LIG d   1       9.317   3.992  -4.249  0.00  0.00    -0.285 N 
ATOM     17  C   LIG d   1      10.099   4.265  -3.186  0.00  0.00     0.218 C 
ATOM     18  O   LIG d   1      10.524   3.360  -2.497  0.00  0.00    -0.276 OA
ATOM     19  H   LIG d   1       9.040   4.706  -4.844  0.00  0.00     0.155 HD
BRANCH  17  20
ATOM     20  C   LIG d   1      10.444   5.693  -2.852  0.00  0.00     0.031 C 
ATOM     21  H   LIG d   1      11.496   5.874  -3.077  0.00  0.00     0.036 H 
ATOM     22  H   LIG d   1       9.824   6.365  -3.445  0.00  0.00     0.036 H 
BRANCH  20  23
ATOM     23  C   LIG d   1      10.190   5.944  -1.363  0.00  0.00     0.017 C 
ATOM     24  H   LIG d   1       9.403   5.278  -1.011  0.00  0.00     0.035 H 
ATOM     25  H   LIG d   1      11.105   5.754  -0.801  0.00  0.00     0.035 H 
BRANCH  23  26
ATOM     26  C   LIG d   1       9.765   7.375  -1.162  0.00  0.00     0.139 A 
ATOM     27  O   LIG d   1       8.523   7.797  -0.878  0.00  0.00    -0.358 OA
ATOM     28  N   LIG d   1       8.556   9.208  -0.768  0.00  0.00    -0.066 NA
ATOM     29  C   LIG d   1       9.780   9.599  -0.989  0.00  0.00     0.172 A 
ATOM     30  C   LIG d   1      10.563   8.457  -1.240  0.00  0.00     0.019 A 
ATOM     31 CL   LIG d   1      10.345  11.240  -0.975  0.00  0.00    -0.059 Cl
ATOM     32  H   LIG d   1      11.622   8.449  -1.457  0.00  0.00     0.068 H 
ENDBRANCH  23  26
ENDBRANCH  20  23
ENDBRANCH  17  20
ENDBRANCH   7  16
BRANCH   1  33
ATOM     33  C   LIG d   1       6.320  -3.169  -4.902  0.00  0.00     0.018 A 
ATOM     34  C   LIG d   1       4.976  -3.527  -5.025  0.00  0.00    -0.050 A 
ATOM     35  C   LIG d   1       4.638  -4.829  -5.326  0.00  0.00    -0.043 A 
ATOM     36  H   LIG d   1       4.203  -2.785  -4.890  0.00  0.00     0.062 H 
ATOM     37  C   LIG d   1       5.628  -5.782  -5.506  0.00  0.00     0.041 A 
ATOM     38  H   LIG d   1       3.599  -5.107  -5.422  0.00  0.00     0.063 H 
ATOM     39  C   LIG d   1       6.962  -5.433  -5.384  0.00  0.00    -0.043 A 
ATOM     40 CL   LIG d   1       5.194  -7.419  -5.884  0.00  0.00    -0.084 Cl
ATOM     41  C   LIG d   1       7.314  -4.134  -5.083  0.00  0.00    -0.050 A 
ATOM     42  H   LIG d   1       7.730  -6.180  -5.525  0.00  0.00     0.063 H 
ATOM     43  H   LIG d   1       8.355  -3.863  -4.987  0.00  0.00     0.062 H 
ENDBRANCH   1  33
TORSDOF 5
ENDMDL
MODEL 4
REMARK VINA RESULT:      -6.7      5.986      7.017
REMARK  5 active torsions:
REMARK  status: ('A' for Active; 'I' for Inactive)
REMARK    1  A    between atoms: C_6  and  C_7 
REMARK    2  A    between atoms: C_13  and  N_18 
REMARK       I    between atoms: N_18  and  C_19 
REMARK    3  A    between atoms: C_19  and  C_21 
REMARK    4  A    between atoms: C_21  and  C_22 
REMARK    5  A    between atoms: C_22  and  C_23 
ROOT
ATOM      1  C   LIG d   1       5.112   0.433  -9.022  0.00  0.00     0.139 A 
ATOM      2  C   LIG d   1       5.838   1.486  -9.491  0.00  0.00     0.029 A 
ATOM      3  C   LIG d   1       6.952   1.945  -8.753  0.00  0.00     0.193 A 
ATOM      4  O   LIG d   1       7.625   2.886  -9.142  0.00  0.00    -0.287 OA
ATOM      5  C   LIG d   1       7.270   1.243  -7.494  0.00  0.00     0.066 A 
ATOM      6  C   LIG d   1       8.350   1.629  -6.702  0.00  0.00    -0.026 A 
ATOM      7  C   LIG d   1       8.614   0.945  -5.529  0.00  0.00     0.034 A 
ATOM      8  C   LIG d   1       7.805  -0.121  -5.143  0.00  0.00    -0.037 A 
ATOM      9  C   LIG d   1       6.735  -0.508  -5.922  0.00  0.00    -0.017 A 
ATOM     10  C   LIG d   1       6.456   0.169  -7.103  0.00  0.00     0.139 A 
ATOM     11  O   LIG d   1       5.408  -0.194  -7.874  0.00  0.00    -0.455 OA
ATOM     12  H   LIG d   1       5.564   1.965 -10.419  0.00  0.00     0.069 H 
ATOM     13  H   LIG d   1       8.977   2.456  -7.003  0.00  0.00     0.064 H 
ATOM     14  H   LIG d   1       8.018  -0.650  -4.226  0.00  0.00     0.064 H 
ATOM     15  H   LIG d   1       6.115  -1.336  -5.613  0.00  0.00     0.066 H 
ENDROOT
BRANCH   7  16
ATOM     16  N   LIG d   1       9.698   1.326  -4.727  0.00  0.00    -0.285 N 
ATOM     17  C   LIG d   1       9.519   2.215  -3.729  0.00  0.00     0.218 C 
ATOM     18  O   LIG d   1       8.404   2.613  -3.464  0.00  0.00    -0.276 OA
ATOM     19  H   LIG d   1      10.577   0.949  -4.888  0.00  0.00     0.155 HD
BRANCH  17  20
ATOM     20  C   LIG d   1      10.704   2.714  -2.944  0.00  0.00     0.031 C 
ATOM     21  H   LIG d   1      10.478   2.669  -1.878  0.00  0.00     0.036 H 
ATOM     22  H   LIG d   1      11.571   2.090  -3.159  0.00  0.00     0.036 H 
BRANCH  20  23
ATOM     23  C   LIG d   1      11.004   4.162  -3.340  0.00  0.00     0.017 C 
ATOM     24  H   LIG d   1      12.060   4.257  -3.595  0.00  0.00     0.035 H 
ATOM     25  H   LIG d   1      10.397   4.436  -4.203  0.00  0.00     0.035 H 
BRANCH  23  26
ATOM     26  C   LIG d   1      10.681   5.075  -2.187  0.00  0.00     0.139 A 
ATOM     27  O   LIG d   1       9.775   6.066  -2.195  0.00  0.00    -0.358 OA
ATOM     28  N   LIG d   1       9.783   6.673  -0.916  0.00  0.00    -0.066 NA
ATOM     29  C   LIG d   1      10.672   6.061  -0.186  0.00  0.00     0.172 A 
ATOM     30  C   LIG d   1      11.253   5.045  -0.968  0.00  0.00     0.019 A 
ATOM     31 CL   LIG d   1      11.069   6.430   1.464  0.00  0.00    -0.059 Cl
ATOM     32  H   LIG d   1      12.024   4.360  -0.647  0.00  0.00     0.068 H 
ENDBRANCH  23  26
ENDBRANCH  20  23
ENDBRANCH  17  20
ENDBRANCH   7  16
BRANCH   1  33
ATOM     33  C   LIG d   1       3.951  -0.033  -9.807  0.00  0.00     0.018 A 
ATOM     34  C   LIG d   1       2.707  -0.190  -9.191  0.00  0.00    -0.050 A 
ATOM     35  C   LIG d   1       1.627  -0.625  -9.929  0.00  0.00    -0.043 A 
ATOM     36  H   LIG d   1       2.591   0.034  -8.142  0.00  0.00     0.062 H 
ATOM     37  C   LIG d   1       1.773  -0.908 -11.278  0.00  0.00     0.041 A 
ATOM     38  H   LIG d   1       0.665  -0.745  -9.455  0.00  0.00     0.063 H 
ATOM     39  C   LIG d   1       3.004  -0.755 -11.893  0.00  0.00    -0.043 A 
ATOM     40 CL   LIG d   1       0.408  -1.455 -12.199  0.00  0.00    -0.084 Cl
ATOM     41  C   LIG d   1       4.093  -0.321 -11.167  0.00  0.00    -0.050 A 
ATOM     42  H   LIG d   1       3.112  -0.977 -12.945  0.00  0.00     0.063 H 
ATOM     43  H   LIG d   1       5.053  -0.203 -11.647  0.00  0.00     0.062 H 
ENDBRANCH   1  33
TORSDOF 5
ENDMDL
MODEL 5
REMARK VINA RESULT:      -6.7      8.222     11.416
REMARK  5 active torsions:
REMARK  status: ('A' for Active; 'I' for Inactive)
REMARK    1  A    between atoms: C_6  and  C_7 
REMARK    2  A    between atoms: C_13  and  N_18 
REMARK       I    between atoms: N_18  and  C_19 
REMARK    3  A    between atoms: C_19  and  C_21 
REMARK    4  A    between atoms: C_21  and  C_22 
REMARK    5  A    between atoms: C_22  and  C_23 
ROOT
ATOM      1  C   LIG d   1       7.772   1.638  -4.200  0.00  0.00     0.139 A 
ATOM      2  C   LIG d   1       8.023   1.629  -5.538  0.00  0.00     0.029 A 
ATOM      3  C   LIG d   1       8.950   2.549  -6.078  0.00  0.00     0.193 A 
ATOM      4  O   LIG d   1       9.200   2.570  -7.272  0.00  0.00    -0.287 OA
ATOM      5  C   LIG d   1       9.603   3.485  -5.140  0.00  0.00     0.066 A 
ATOM      6  C   LIG d   1      10.529   4.427  -5.586  0.00  0.00    -0.026 A 
ATOM      7  C   LIG d   1      11.118   5.286  -4.675  0.00  0.00     0.034 A 
ATOM      8  C   LIG d   1      10.786   5.208  -3.324  0.00  0.00    -0.037 A 
ATOM      9  C   LIG d   1       9.872   4.279  -2.878  0.00  0.00    -0.017 A 
ATOM     10  C   LIG d   1       9.270   3.409  -3.779  0.00  0.00     0.139 A 
ATOM     11  O   LIG d   1       8.367   2.497  -3.359  0.00  0.00    -0.455 OA
ATOM     12  H   LIG d   1       7.519   0.923  -6.181  0.00  0.00     0.069 H 
ATOM     13  H   LIG d   1      10.785   4.485  -6.633  0.00  0.00     0.064 H 
ATOM     14  H   LIG d   1      11.251   5.882  -2.620  0.00  0.00     0.064 H 
ATOM     15  H   LIG d   1       9.623   4.228  -1.829  0.00  0.00     0.066 H 
ENDROOT
BRANCH   7  16
ATOM     16  N   LIG d   1      12.050   6.236  -5.113  0.00  0.00    -0.285 N 
ATOM     17  C   LIG d   1      11.666   7.511  -5.322  0.00  0.00     0.218 C 
ATOM     18  O   LIG d   1      10.537   7.858  -5.041  0.00  0.00    -0.276 OA
ATOM     19  H   LIG d   1      12.972   5.977  -5.264  0.00  0.00     0.155 HD
BRANCH  17  20
ATOM     20  C   LIG d   1      12.637   8.504  -5.905  0.00  0.00     0.031 C 
ATOM     21  H   LIG d   1      12.199   9.502  -5.873  0.00  0.00     0.036 H 
ATOM     22  H   LIG d   1      13.560   8.492  -5.326  0.00  0.00     0.036 H 
BRANCH  20  23
ATOM     23  C   LIG d   1      12.941   8.127  -7.357  0.00  0.00     0.017 C 
ATOM     24  H   LIG d   1      13.605   8.872  -7.795  0.00  0.00     0.035 H 
ATOM     25  H   LIG d   1      13.422   7.150  -7.386  0.00  0.00     0.035 H 
BRANCH  23  26
ATOM     26  C   LIG d   1      11.655   8.077  -8.142  0.00  0.00     0.139 A 
ATOM     27  O   LIG d   1      10.855   9.121  -8.412  0.00  0.00    -0.358 OA
ATOM     28  N   LIG d   1       9.759   8.643  -9.171  0.00  0.00    -0.066 NA
ATOM     29  C   LIG d   1       9.911   7.359  -9.331  0.00  0.00     0.172 A 
ATOM     30  C   LIG d   1      11.104   6.978  -8.689  0.00  0.00     0.019 A 
ATOM     31 CL   LIG d   1       8.832   6.302 -10.189  0.00  0.00    -0.059 Cl
ATOM     32  H   LIG d   1      11.508   5.976  -8.643  0.00  0.00     0.068 H 
ENDBRANCH  23  26
ENDBRANCH  20  23
ENDBRANCH  17  20
ENDBRANCH   7  16
BRANCH   1  33
ATOM     33  C   LIG d   1       6.800   0.669  -3.654  0.00  0.00     0.018 A 
ATOM     34  C   LIG d   1       5.697   1.118  -2.924  0.00  0.00    -0.050 A 
ATOM     35  C   LIG d   1       4.794   0.208  -2.417  0.00  0.00    -0.043 A 
ATOM     36  H   LIG d   1       5.550   2.175  -2.761  0.00  0.00     0.062 H 
ATOM     37  C   LIG d   1       4.978  -1.148  -2.630  0.00  0.00     0.041 A 
ATOM     38  H   LIG d   1       3.941   0.554  -1.853  0.00  0.00     0.063 H 
ATOM     39  C   LIG d   1       6.070  -1.599  -3.353  0.00  0.00    -0.043 A 
ATOM     40 CL   LIG d   1       3.836  -2.287  -1.989  0.00  0.00    -0.084 Cl
ATOM     41  C   LIG d   1       6.981  -0.700  -3.865  0.00  0.00    -0.050 A 
ATOM     42  H   LIG d   1       6.208  -2.658  -3.515  0.00  0.00     0.063 H 
ATOM     43  H   LIG d   1       7.833  -1.053  -4.427  0.00  0.00     0.062 H 
ENDBRANCH   1  33
TORSDOF 5
ENDMDL
MODEL 6
REMARK VINA RESULT:      -6.5      8.989     11.583
REMARK  5 active torsions:
REMARK  status: ('A' for Active; 'I' for Inactive)
REMARK    1  A    between atoms: C_6  and  C_7 
REMARK    2  A    between atoms: C_13  and  N_18 
REMARK       I    between atoms: N_18  and  C_19 
REMARK    3  A    between atoms: C_19  and  C_21 
REMARK    4  A    between atoms: C_21  and  C_22 
REMARK    5  A    between atoms: C_22  and  C_23 
ROOT
ATOM      1  C   LIG d   1      -3.999   5.903 -14.343  0.00  0.00     0.139 A 
ATOM      2  C   LIG d   1      -5.324   5.837 -14.037  0.00  0.00     0.029 A 
ATOM      3  C   LIG d   1      -5.887   4.602 -13.641  0.00  0.00     0.193 A 
ATOM      4  O   LIG d   1      -7.070   4.506 -13.360  0.00  0.00    -0.287 OA
ATOM      5  C   LIG d   1      -4.986   3.433 -13.584  0.00  0.00     0.066 A 
ATOM      6  C   LIG d   1      -5.455   2.176 -13.206  0.00  0.00    -0.026 A 
ATOM      7  C   LIG d   1      -4.579   1.106 -13.165  0.00  0.00     0.034 A 
ATOM      8  C   LIG d   1      -3.239   1.286 -13.499  0.00  0.00    -0.037 A 
ATOM      9  C   LIG d   1      -2.769   2.526 -13.874  0.00  0.00    -0.017 A 
ATOM     10  C   LIG d   1      -3.636   3.612 -13.921  0.00  0.00     0.139 A 
ATOM     11  O   LIG d   1      -3.193   4.833 -14.292  0.00  0.00    -0.455 OA
ATOM     12  H   LIG d   1      -5.940   6.722 -14.095  0.00  0.00     0.069 H 
ATOM     13  H   LIG d   1      -6.495   2.039 -12.946  0.00  0.00     0.064 H 
ATOM     14  H   LIG d   1      -2.561   0.446 -13.464  0.00  0.00     0.064 H 
ATOM     15  H   LIG d   1      -1.728   2.654 -14.131  0.00  0.00     0.066 H 
ENDROOT
BRANCH   7  16
ATOM     16  N   LIG d   1      -5.041  -0.161 -12.785  0.00  0.00    -0.285 N 
ATOM     17  C   LIG d   1      -5.534  -1.004 -13.714  0.00  0.00     0.218 C 
ATOM     18  O   LIG d   1      -5.490  -0.705 -14.890  0.00  0.00    -0.276 OA
ATOM     19  H   LIG d   1      -5.005  -0.431 -11.855  0.00  0.00     0.155 HD
BRANCH  17  20
ATOM     20  C   LIG d   1      -6.139  -2.318 -13.293  0.00  0.00     0.031 C 
ATOM     21  H   LIG d   1      -6.574  -2.215 -12.298  0.00  0.00     0.036 H 
ATOM     22  H   LIG d   1      -6.916  -2.605 -14.002  0.00  0.00     0.036 H 
BRANCH  20  23
ATOM     23  C   LIG d   1      -5.051  -3.395 -13.264  0.00  0.00     0.017 C 
ATOM     24  H   LIG d   1      -5.386  -4.265 -13.828  0.00  0.00     0.035 H 
ATOM     25  H   LIG d   1      -4.139  -3.001 -13.712  0.00  0.00     0.035 H 
BRANCH  23  26
ATOM     26  C   LIG d   1      -4.779  -3.794 -11.838  0.00  0.00     0.139 A 
ATOM     27  O   LIG d   1      -5.215  -3.154 -10.742  0.00  0.00    -0.358 OA
ATOM     28  N   LIG d   1      -4.739  -3.856  -9.609  0.00  0.00    -0.066 NA
ATOM     29  C   LIG d   1      -4.038  -4.871 -10.030  0.00  0.00     0.172 A 
ATOM     30  C   LIG d   1      -4.050  -4.853 -11.438  0.00  0.00     0.019 A 
ATOM     31 CL   LIG d   1      -3.234  -6.042  -9.032  0.00  0.00    -0.059 Cl
ATOM     32  H   LIG d   1      -3.558  -5.566 -12.085  0.00  0.00     0.068 H 
ENDBRANCH  23  26
ENDBRANCH  20  23
ENDBRANCH  17  20
ENDBRANCH   7  16
BRANCH   1  33
ATOM     33  C   LIG d   1      -3.430   7.202 -14.754  0.00  0.00     0.018 A 
ATOM     34  C   LIG d   1      -4.272   8.238 -15.163  0.00  0.00    -0.050 A 
ATOM     35  C   LIG d   1      -3.735   9.449 -15.545  0.00  0.00    -0.043 A 
ATOM     36  H   LIG d   1      -5.342   8.093 -15.175  0.00  0.00     0.062 H 
ATOM     37  C   LIG d   1      -2.363   9.639 -15.526  0.00  0.00     0.041 A 
ATOM     38  H   LIG d   1      -4.386  10.251 -15.861  0.00  0.00     0.063 H 
ATOM     39  C   LIG d   1      -1.522   8.614 -15.122  0.00  0.00    -0.043 A 
ATOM     40 CL   LIG d   1      -1.695  11.166 -16.009  0.00  0.00    -0.084 Cl
ATOM     41  C   LIG d   1      -2.047   7.399 -14.737  0.00  0.00    -0.050 A 
ATOM     42  H   LIG d   1      -0.453   8.769 -15.109  0.00  0.00     0.063 H 
ATOM     43  H   LIG d   1      -1.390   6.600 -14.424  0.00  0.00     0.062 H 
ENDBRANCH   1  33
TORSDOF 5
ENDMDL
MODEL 7
REMARK VINA RESULT:      -6.5      7.844     12.986
REMARK  5 active torsions:
REMARK  status: ('A' for Active; 'I' for Inactive)
REMARK    1  A    between atoms: C_6  and  C_7 
REMARK    2  A    between atoms: C_13  and  N_18 
REMARK       I    between atoms: N_18  and  C_19 
REMARK    3  A    between atoms: C_19  and  C_21 
REMARK    4  A    between atoms: C_21  and  C_22 
REMARK    5  A    between atoms: C_22  and  C_23 
ROOT
ATOM      1  C   LIG d   1      10.241   6.014  -2.091  0.00  0.00     0.139 A 
ATOM      2  C   LIG d   1       9.849   6.740  -3.175  0.00  0.00     0.029 A 
ATOM      3  C   LIG d   1       9.494   6.071  -4.368  0.00  0.00     0.193 A 
ATOM      4  O   LIG d   1       9.139   6.689  -5.359  0.00  0.00    -0.287 OA
ATOM      5  C   LIG d   1       9.572   4.597  -4.370  0.00  0.00     0.066 A 
ATOM      6  C   LIG d   1       9.242   3.856  -5.504  0.00  0.00    -0.026 A 
ATOM      7  C   LIG d   1       9.328   2.476  -5.465  0.00  0.00     0.034 A 
ATOM      8  C   LIG d   1       9.742   1.833  -4.300  0.00  0.00    -0.037 A 
ATOM      9  C   LIG d   1      10.070   2.560  -3.176  0.00  0.00    -0.017 A 
ATOM     10  C   LIG d   1       9.989   3.948  -3.198  0.00  0.00     0.139 A 
ATOM     11  O   LIG d   1      10.313   4.675  -2.107  0.00  0.00    -0.455 OA
ATOM     12  H   LIG d   1       9.809   7.817  -3.121  0.00  0.00     0.069 H 
ATOM     13  H   LIG d   1       8.921   4.356  -6.406  0.00  0.00     0.064 H 
ATOM     14  H   LIG d   1       9.807   0.756  -4.277  0.00  0.00     0.064 H 
ATOM     15  H   LIG d   1      10.389   2.052  -2.279  0.00  0.00     0.066 H 
ENDROOT
BRANCH   7  16
ATOM     16  N   LIG d   1       8.998   1.722  -6.599  0.00  0.00    -0.285 N 
ATOM     17  C   LIG d   1       7.821   1.068  -6.654  0.00  0.00     0.218 C 
ATOM     18  O   LIG d   1       7.007   1.207  -5.765  0.00  0.00    -0.276 OA
ATOM     19  H   LIG d   1       9.616   1.673  -7.344  0.00  0.00     0.155 HD
BRANCH  17  20
ATOM     20  C   LIG d   1       7.516   0.163  -7.820  0.00  0.00     0.031 C 
ATOM     21  H   LIG d   1       8.420  -0.376  -8.107  0.00  0.00     0.036 H 
ATOM     22  H   LIG d   1       6.742  -0.549  -7.535  0.00  0.00     0.036 H 
BRANCH  20  23
ATOM     23  C   LIG d   1       7.026   1.004  -9.002  0.00  0.00     0.017 C 
ATOM     24  H   LIG d   1       7.469   1.998  -8.949  0.00  0.00     0.035 H 
ATOM     25  H   LIG d   1       7.321   0.524  -9.936  0.00  0.00     0.035 H 
BRANCH  23  26
ATOM     26  C   LIG d   1       5.525   1.118  -8.947  0.00  0.00     0.139 A 
ATOM     27  O   LIG d   1       4.830   2.149  -8.441  0.00  0.00    -0.358 OA
ATOM     28  N   LIG d   1       3.452   1.860  -8.587  0.00  0.00    -0.066 NA
ATOM     29  C   LIG d   1       3.346   0.691  -9.154  0.00  0.00     0.172 A 
ATOM     30  C   LIG d   1       4.644   0.203  -9.392  0.00  0.00     0.019 A 
ATOM     31 CL   LIG d   1       1.863  -0.121  -9.549  0.00  0.00    -0.059 Cl
ATOM     32  H   LIG d   1       4.892  -0.743  -9.853  0.00  0.00     0.068 H 
ENDBRANCH  23  26
ENDBRANCH  20  23
ENDBRANCH  17  20
ENDBRANCH   7  16
BRANCH   1  33
ATOM     33  C   LIG d   1      10.608   6.730  -0.853  0.00  0.00     0.018 A 
ATOM     34  C   LIG d   1      10.903   6.014   0.309  0.00  0.00    -0.050 A 
ATOM     35  C   LIG d   1      11.245   6.688   1.462  0.00  0.00    -0.043 A 
ATOM     36  H   LIG d   1      10.868   4.935   0.304  0.00  0.00     0.062 H 
ATOM     37  C   LIG d   1      11.296   8.073   1.470  0.00  0.00     0.041 A 
ATOM     38  H   LIG d   1      11.474   6.136   2.361  0.00  0.00     0.063 H 
ATOM     39  C   LIG d   1      11.004   8.788   0.320  0.00  0.00    -0.043 A 
ATOM     40 CL   LIG d   1      11.727   8.914   2.925  0.00  0.00    -0.084 Cl
ATOM     41  C   LIG d   1      10.661   8.126  -0.839  0.00  0.00    -0.050 A 
ATOM     42  H   LIG d   1      11.045   9.868   0.333  0.00  0.00     0.063 H 
ATOM     43  H   LIG d   1      10.431   8.685  -1.735  0.00  0.00     0.062 H 
ENDBRANCH   1  33
TORSDOF 5
ENDMDL
MODEL 8
REMARK VINA RESULT:      -6.5      9.188     12.246
REMARK  5 active torsions:
REMARK  status: ('A' for Active; 'I' for Inactive)
REMARK    1  A    between atoms: C_6  and  C_7 
REMARK    2  A    between atoms: C_13  and  N_18 
REMARK       I    between atoms: N_18  and  C_19 
REMARK    3  A    between atoms: C_19  and  C_21 
REMARK    4  A    between atoms: C_21  and  C_22 
REMARK    5  A    between atoms: C_22  and  C_23 
ROOT
ATOM      1  C   LIG d   1       7.816   1.739  -4.192  0.00  0.00     0.139 A 
ATOM      2  C   LIG d   1       8.060   1.758  -5.532  0.00  0.00     0.029 A 
ATOM      3  C   LIG d   1       8.978   2.695  -6.057  0.00  0.00     0.193 A 
ATOM      4  O   LIG d   1       9.222   2.742  -7.253  0.00  0.00    -0.287 OA
ATOM      5  C   LIG d   1       9.631   3.616  -5.105  0.00  0.00     0.066 A 
ATOM      6  C   LIG d   1      10.548   4.573  -5.536  0.00  0.00    -0.026 A 
ATOM      7  C   LIG d   1      11.137   5.417  -4.611  0.00  0.00     0.034 A 
ATOM      8  C   LIG d   1      10.813   5.309  -3.260  0.00  0.00    -0.037 A 
ATOM      9  C   LIG d   1       9.907   4.365  -2.828  0.00  0.00    -0.017 A 
ATOM     10  C   LIG d   1       9.306   3.510  -3.744  0.00  0.00     0.139 A 
ATOM     11  O   LIG d   1       8.411   2.584  -3.337  0.00  0.00    -0.455 OA
ATOM     12  H   LIG d   1       7.557   1.062  -6.186  0.00  0.00     0.069 H 
ATOM     13  H   LIG d   1      10.798   4.653  -6.583  0.00  0.00     0.064 H 
ATOM     14  H   LIG d   1      11.278   5.971  -2.545  0.00  0.00     0.064 H 
ATOM     15  H   LIG d   1       9.665   4.291  -1.779  0.00  0.00     0.066 H 
ENDROOT
BRANCH   7  16
ATOM     16  N   LIG d   1      12.061   6.381  -5.034  0.00  0.00    -0.285 N 
ATOM     17  C   LIG d   1      11.642   7.625  -5.343  0.00  0.00     0.218 C 
ATOM     18  O   LIG d   1      10.484   7.937  -5.165  0.00  0.00    -0.276 OA
ATOM     19  H   LIG d   1      13.001   6.154  -5.104  0.00  0.00     0.155 HD
BRANCH  17  20
ATOM     20  C   LIG d   1      12.614   8.627  -5.911  0.00  0.00     0.031 C 
ATOM     21  H   LIG d   1      12.520   9.570  -5.373  0.00  0.00     0.036 H 
ATOM     22  H   LIG d   1      13.631   8.247  -5.805  0.00  0.00     0.036 H 
BRANCH  20  23
ATOM     23  C   LIG d   1      12.306   8.852  -7.394  0.00  0.00     0.017 C 
ATOM     24  H   LIG d   1      13.237   8.865  -7.961  0.00  0.00     0.035 H 
ATOM     25  H   LIG d   1      11.669   8.046  -7.759  0.00  0.00     0.035 H 
BRANCH  23  26
ATOM     26  C   LIG d   1      11.595  10.169  -7.563  0.00  0.00     0.139 A 
ATOM     27  O   LIG d   1      11.073  10.642  -8.706  0.00  0.00    -0.358 OA
ATOM     28  N   LIG d   1      10.497  11.906  -8.431  0.00  0.00    -0.066 NA
ATOM     29  C   LIG d   1      10.686  12.167  -7.167  0.00  0.00     0.172 A 
ATOM     30  C   LIG d   1      11.378  11.082  -6.598  0.00  0.00     0.019 A 
ATOM     31 CL   LIG d   1      10.171  13.600  -6.333  0.00  0.00    -0.059 Cl
ATOM     32  H   LIG d   1      11.682  10.996  -5.564  0.00  0.00     0.068 H 
ENDBRANCH  23  26
ENDBRANCH  20  23
ENDBRANCH  17  20
ENDBRANCH   7  16
BRANCH   1  33
ATOM     33  C   LIG d   1       6.854   0.752  -3.661  0.00  0.00     0.018 A 
ATOM     34  C   LIG d   1       7.062  -0.613  -3.870  0.00  0.00    -0.050 A 
ATOM     35  C   LIG d   1       6.160  -1.528  -3.372  0.00  0.00    -0.043 A 
ATOM     36  H   LIG d   1       7.931  -0.950  -4.416  0.00  0.00     0.062 H 
ATOM     37  C   LIG d   1       5.048  -1.098  -2.666  0.00  0.00     0.041 A 
ATOM     38  H   LIG d   1       6.321  -2.584  -3.532  0.00  0.00     0.063 H 
ATOM     39  C   LIG d   1       4.836   0.255  -2.457  0.00  0.00    -0.043 A 
ATOM     40 CL   LIG d   1       3.918  -2.257  -2.043  0.00  0.00    -0.084 Cl
ATOM     41  C   LIG d   1       5.730   1.181  -2.950  0.00  0.00    -0.050 A 
ATOM     42  H   LIG d   1       3.967   0.584  -1.906  0.00  0.00     0.063 H 
ATOM     43  H   LIG d   1       5.563   2.235  -2.787  0.00  0.00     0.062 H 
ENDBRANCH   1  33
TORSDOF 5
ENDMDL
MODEL 9
REMARK VINA RESULT:      -6.4      6.844     10.131
REMARK  5 active torsions:
REMARK  status: ('A' for Active; 'I' for Inactive)
REMARK    1  A    between atoms: C_6  and  C_7 
REMARK    2  A    between atoms: C_13  and  N_18 
REMARK       I    between atoms: N_18  and  C_19 
REMARK    3  A    between atoms: C_19  and  C_21 
REMARK    4  A    between atoms: C_21  and  C_22 
REMARK    5  A    between atoms: C_22  and  C_23 
ROOT
ATOM      1  C   LIG d   1       8.671   2.823  -4.430  0.00  0.00     0.139 A 
ATOM      2  C   LIG d   1       8.876   2.434  -5.719  0.00  0.00     0.029 A 
ATOM      3  C   LIG d   1       8.250   1.260  -6.199  0.00  0.00     0.193 A 
ATOM      4  O   LIG d   1       8.411   0.881  -7.348  0.00  0.00    -0.287 OA
ATOM      5  C   LIG d   1       7.396   0.511  -5.256  0.00  0.00     0.066 A 
ATOM      6  C   LIG d   1       6.742  -0.657  -5.644  0.00  0.00    -0.026 A 
ATOM      7  C   LIG d   1       5.950  -1.330  -4.730  0.00  0.00     0.034 A 
ATOM      8  C   LIG d   1       5.810  -0.841  -3.433  0.00  0.00    -0.037 A 
ATOM      9  C   LIG d   1       6.454   0.313  -3.044  0.00  0.00    -0.017 A 
ATOM     10  C   LIG d   1       7.253   1.001  -3.949  0.00  0.00     0.139 A 
ATOM     11  O   LIG d   1       7.896   2.131  -3.582  0.00  0.00    -0.455 OA
ATOM     12  H   LIG d   1       9.510   3.018  -6.368  0.00  0.00     0.069 H 
ATOM     13  H   LIG d   1       6.852  -1.033  -6.651  0.00  0.00     0.064 H 
ATOM     14  H   LIG d   1       5.190  -1.372  -2.726  0.00  0.00     0.064 H 
ATOM     15  H   LIG d   1       6.337   0.682  -2.036  0.00  0.00     0.066 H 
ENDROOT
BRANCH   7  16
ATOM     16  N   LIG d   1       5.288  -2.504  -5.111  0.00  0.00    -0.285 N 
ATOM     17  C   LIG d   1       5.922  -3.691  -5.030  0.00  0.00     0.218 C 
ATOM     18  O   LIG d   1       7.030  -3.755  -4.539  0.00  0.00    -0.276 OA
ATOM     19  H   LIG d   1       4.374  -2.464  -5.431  0.00  0.00     0.155 HD
BRANCH  17  20
ATOM     20  C   LIG d   1       5.255  -4.938  -5.549  0.00  0.00     0.031 C 
ATOM     21  H   LIG d   1       4.509  -5.278  -4.830  0.00  0.00     0.036 H 
ATOM     22  H   LIG d   1       4.770  -4.722  -6.501  0.00  0.00     0.036 H 
BRANCH  20  23
ATOM     23  C   LIG d   1       6.306  -6.033  -5.748  0.00  0.00     0.017 C 
ATOM     24  H   LIG d   1       6.594  -6.074  -6.799  0.00  0.00     0.035 H 
ATOM     25  H   LIG d   1       7.182  -5.811  -5.140  0.00  0.00     0.035 H 
BRANCH  23  26
ATOM     26  C   LIG d   1       5.730  -7.363  -5.334  0.00  0.00     0.139 A 
ATOM     27  O   LIG d   1       4.425  -7.653  -5.210  0.00  0.00    -0.358 OA
ATOM     28  N   LIG d   1       4.317  -9.004  -4.804  0.00  0.00    -0.066 NA
ATOM     29  C   LIG d   1       5.522  -9.486  -4.686  0.00  0.00     0.172 A 
ATOM     30  C   LIG d   1       6.433  -8.466  -5.017  0.00  0.00     0.019 A 
ATOM     31 CL   LIG d   1       5.932 -11.104  -4.207  0.00  0.00    -0.059 Cl
ATOM     32  H   LIG d   1       7.510  -8.553  -5.016  0.00  0.00     0.068 H 
ENDBRANCH  23  26
ENDBRANCH  20  23
ENDBRANCH  17  20
ENDBRANCH   7  16
BRANCH   1  33
ATOM     33  C   LIG d   1       9.332   4.051  -3.947  0.00  0.00     0.018 A 
ATOM     34  C   LIG d   1       9.283   5.220  -4.709  0.00  0.00    -0.050 A 
ATOM     35  C   LIG d   1       9.903   6.363  -4.252  0.00  0.00    -0.043 A 
ATOM     36  H   LIG d   1       8.756   5.230  -5.651  0.00  0.00     0.062 H 
ATOM     37  C   LIG d   1      10.574   6.355  -3.041  0.00  0.00     0.041 A 
ATOM     38  H   LIG d   1       9.864   7.268  -4.840  0.00  0.00     0.063 H 
ATOM     39  C   LIG d   1      10.628   5.198  -2.281  0.00  0.00    -0.043 A 
ATOM     40 CL   LIG d   1      11.352   7.799  -2.473  0.00  0.00    -0.084 Cl
ATOM     41  C   LIG d   1      10.012   4.048  -2.726  0.00  0.00    -0.050 A 
ATOM     42  H   LIG d   1      11.153   5.197  -1.337  0.00  0.00     0.063 H 
ATOM     43  H   LIG d   1      10.056   3.146  -2.133  0.00  0.00     0.062 H 
ENDBRANCH   1  33
TORSDOF 5
ENDMDL
