MODEL 1
REMARK VINA RESULT:      -5.8      0.000      0.000
REMARK  14 active torsions:
REMARK  status: ('A' for Active; 'I' for Inactive)
REMARK    1  A    between atoms: C_1  and  C_2 
REMARK    2  A    between atoms: C_2  and  C_3 
REMARK    3  A    between atoms: C_3  and  C_4 
REMARK    4  A    between atoms: C_4  and  C_5 
REMARK    5  A    between atoms: C_5  and  O_7 
REMARK    6  A    between atoms: O_7  and  C_8 
REMARK    7  A    between atoms: C_8  and  C_9 
REMARK    8  A    between atoms: C_9  and  C_10 
REMARK    9  A    between atoms: C_10  and  C_12 
REMARK   10  A    between atoms: C_10  and  C_13 
REMARK   11  A    between atoms: C_13  and  C_14 
REMARK   12  A    between atoms: C_14  and  C_15 
REMARK   13  A    between atoms: C_16  and  C_17 
REMARK   14  A    between atoms: C_16  and  C_18 
ROOT
ATOM      1  C   LIG d   1       3.306   0.487  -2.386  0.00  0.00    -0.041 C 
ATOM      2  H   LIG d   1       2.557   0.895  -1.706  0.00  0.00     0.030 H 
ENDROOT
BRANCH   1   3
ATOM      3  C   LIG d   1       3.320   1.306  -3.678  0.00  0.00    -0.016 C 
ATOM      4  H   LIG d   1       4.349   1.436  -4.014  0.00  0.00     0.030 H 
ATOM      5  H   LIG d   1       2.872   2.283  -3.493  0.00  0.00     0.030 H 
BRANCH   3   6
ATOM      6  C   LIG d   1       2.519   0.573  -4.756  0.00  0.00     0.093 C 
ATOM      7  H   LIG d   1       1.454   0.720  -4.580  0.00  0.00     0.070 H 
ATOM      8  H   LIG d   1       2.750  -0.491  -4.718  0.00  0.00     0.070 H 
BRANCH   6   9
ATOM      9  O   LIG d   1       2.871   1.100  -6.062  0.00  0.00    -0.465 OA
BRANCH   9  10
ATOM     10  C   LIG d   1       3.178   0.207  -7.016  0.00  0.00     0.307 C 
ATOM     11  O   LIG d   1       3.782  -0.800  -6.730  0.00  0.00    -0.251 OA
BRANCH  10  12
ATOM     12  C   LIG d   1       2.768   0.460  -8.444  0.00  0.00     0.045 C 
ATOM     13  H   LIG d   1       3.475  -0.026  -9.116  0.00  0.00     0.038 H 
ATOM     14  H   LIG d   1       1.770   0.054  -8.613  0.00  0.00     0.038 H 
BRANCH  12  15
ATOM     15  C   LIG d   1       2.759   1.965  -8.715  0.00  0.00    -0.043 C 
ATOM     16  H   LIG d   1       1.796   2.252  -9.138  0.00  0.00     0.027 H 
ATOM     17  H   LIG d   1       2.920   2.503  -7.780  0.00  0.00     0.027 H 
BRANCH  15  18
ATOM     18  C   LIG d   1       3.875   2.313  -9.703  0.00  0.00    -0.055 C 
ATOM     19  H   LIG d   1       3.698   3.305 -10.116  0.00  0.00     0.026 H 
ATOM     20  H   LIG d   1       4.835   2.301  -9.186  0.00  0.00     0.026 H 
BRANCH  18  21
ATOM     21  C   LIG d   1       3.893   1.285 -10.836  0.00  0.00    -0.065 C 
ATOM     22  H   LIG d   1       4.618   1.588 -11.591  0.00  0.00     0.023 H 
ATOM     23  H   LIG d   1       4.171   0.309 -10.437  0.00  0.00     0.023 H 
ATOM     24  H   LIG d   1       2.903   1.224 -11.287  0.00  0.00     0.023 H 
ENDBRANCH  18  21
ENDBRANCH  15  18
ENDBRANCH  12  15
ENDBRANCH  10  12
ENDBRANCH   9  10
ENDBRANCH   6   9
ENDBRANCH   3   6
ENDBRANCH   1   3
BRANCH   1  25
ATOM     25  C   LIG d   1       4.684   0.552  -1.725  0.00  0.00    -0.062 C 
ATOM     26  H   LIG d   1       5.028  -0.458  -1.499  0.00  0.00     0.023 H 
ATOM     27  H   LIG d   1       5.391   1.033  -2.403  0.00  0.00     0.023 H 
ATOM     28  H   LIG d   1       4.618   1.128  -0.802  0.00  0.00     0.023 H 
ENDBRANCH   1  25
BRANCH   1  29
ATOM     29  C   LIG d   1       2.963  -0.969  -2.707  0.00  0.00    -0.047 C 
ATOM     30  H   LIG d   1       2.109  -1.282  -2.106  0.00  0.00     0.027 H 
ATOM     31  H   LIG d   1       2.715  -1.058  -3.765  0.00  0.00     0.027 H 
BRANCH  29  32
ATOM     32  C   LIG d   1       4.165  -1.859  -2.390  0.00  0.00    -0.034 C 
ATOM     33  H   LIG d   1       5.032  -1.235  -2.170  0.00  0.00     0.031 H 
ATOM     34  H   LIG d   1       3.937  -2.483  -1.525  0.00  0.00     0.031 H 
BRANCH  32  35
ATOM     35  C   LIG d   1       4.468  -2.738  -3.576  0.00  0.00    -0.085 C 
ATOM     36  C   LIG d   1       5.674  -2.757  -4.086  0.00  0.00    -0.080 C 
ATOM     37  H   LIG d   1       3.690  -3.352  -4.004  0.00  0.00     0.057 H 
BRANCH  36  38
ATOM     38  C   LIG d   1       6.722  -1.799  -3.580  0.00  0.00    -0.044 C 
ATOM     39  H   LIG d   1       6.752  -0.921  -4.224  0.00  0.00     0.027 H 
ATOM     40  H   LIG d   1       6.476  -1.496  -2.562  0.00  0.00     0.027 H 
ATOM     41  H   LIG d   1       7.695  -2.289  -3.589  0.00  0.00     0.027 H 
ENDBRANCH  36  38
BRANCH  36  42
ATOM     42  C   LIG d   1       6.013  -3.737  -5.180  0.00  0.00    -0.044 C 
ATOM     43  H   LIG d   1       5.468  -4.667  -5.016  0.00  0.00     0.027 H 
ATOM     44  H   LIG d   1       5.733  -3.316  -6.145  0.00  0.00     0.027 H 
ATOM     45  H   LIG d   1       7.085  -3.938  -5.168  0.00  0.00     0.027 H 
ENDBRANCH  36  42
ENDBRANCH  32  35
ENDBRANCH  29  32
ENDBRANCH   1  29
TORSDOF 14
ENDMDL
MODEL 2
REMARK VINA RESULT:      -5.3      0.941      3.161
REMARK  14 active torsions:
REMARK  status: ('A' for Active; 'I' for Inactive)
REMARK    1  A    between atoms: C_1  and  C_2 
REMARK    2  A    between atoms: C_2  and  C_3 
REMARK    3  A    between atoms: C_3  and  C_4 
REMARK    4  A    between atoms: C_4  and  C_5 
REMARK    5  A    between atoms: C_5  and  O_7 
REMARK    6  A    between atoms: O_7  and  C_8 
REMARK    7  A    between atoms: C_8  and  C_9 
REMARK    8  A    between atoms: C_9  and  C_10 
REMARK    9  A    between atoms: C_10  and  C_12 
REMARK   10  A    between atoms: C_10  and  C_13 
REMARK   11  A    between atoms: C_13  and  C_14 
REMARK   12  A    between atoms: C_14  and  C_15 
REMARK   13  A    between atoms: C_16  and  C_17 
REMARK   14  A    between atoms: C_16  and  C_18 
ROOT
ATOM      1  C   LIG d   1       5.479  -1.818  -4.160  0.00  0.00    -0.041 C 
ATOM      2  H   LIG d   1       5.165  -0.777  -4.253  0.00  0.00     0.030 H 
ENDROOT
BRANCH   1   3
ATOM      3  C   LIG d   1       5.700  -2.409  -5.554  0.00  0.00    -0.016 C 
ATOM      4  H   LIG d   1       5.635  -3.495  -5.502  0.00  0.00     0.030 H 
ATOM      5  H   LIG d   1       6.686  -2.120  -5.918  0.00  0.00     0.030 H 
BRANCH   3   6
ATOM      6  C   LIG d   1       4.628  -1.878  -6.509  0.00  0.00     0.093 C 
ATOM      7  H   LIG d   1       3.704  -2.437  -6.365  0.00  0.00     0.070 H 
ATOM      8  H   LIG d   1       4.968  -1.998  -7.538  0.00  0.00     0.070 H 
BRANCH   6   9
ATOM      9  O   LIG d   1       4.391  -0.472  -6.237  0.00  0.00    -0.465 OA
BRANCH   9  10
ATOM     10  C   LIG d   1       3.321   0.089  -6.821  0.00  0.00     0.307 C 
ATOM     11  O   LIG d   1       2.787   1.046  -6.311  0.00  0.00    -0.251 OA
BRANCH  10  12
ATOM     12  C   LIG d   1       2.784  -0.475  -8.112  0.00  0.00     0.045 C 
ATOM     13  H   LIG d   1       3.506  -1.175  -8.530  0.00  0.00     0.038 H 
ATOM     14  H   LIG d   1       1.845  -0.993  -7.918  0.00  0.00     0.038 H 
BRANCH  12  15
ATOM     15  C   LIG d   1       2.544   0.663  -9.104  0.00  0.00    -0.043 C 
ATOM     16  H   LIG d   1       1.959   0.293  -9.947  0.00  0.00     0.027 H 
ATOM     17  H   LIG d   1       2.000   1.469  -8.610  0.00  0.00     0.027 H 
BRANCH  15  18
ATOM     18  C   LIG d   1       3.889   1.191  -9.611  0.00  0.00    -0.055 C 
ATOM     19  H   LIG d   1       4.699   0.679  -9.093  0.00  0.00     0.026 H 
ATOM     20  H   LIG d   1       3.970   1.008 -10.683  0.00  0.00     0.026 H 
BRANCH  18  21
ATOM     21  C   LIG d   1       3.981   2.695  -9.341  0.00  0.00    -0.065 C 
ATOM     22  H   LIG d   1       3.908   3.238 -10.282  0.00  0.00     0.023 H 
ATOM     23  H   LIG d   1       3.167   2.996  -8.683  0.00  0.00     0.023 H 
ATOM     24  H   LIG d   1       4.935   2.919  -8.865  0.00  0.00     0.023 H 
ENDBRANCH  18  21
ENDBRANCH  15  18
ENDBRANCH  12  15
ENDBRANCH  10  12
ENDBRANCH   9  10
ENDBRANCH   6   9
ENDBRANCH   3   6
ENDBRANCH   1   3
BRANCH   1  25
ATOM     25  C   LIG d   1       6.783  -1.887  -3.364  0.00  0.00    -0.062 C 
ATOM     26  H   LIG d   1       6.690  -1.285  -2.460  0.00  0.00     0.023 H 
ATOM     27  H   LIG d   1       6.989  -2.923  -3.091  0.00  0.00     0.023 H 
ATOM     28  H   LIG d   1       7.602  -1.504  -3.974  0.00  0.00     0.023 H 
ENDBRANCH   1  25
BRANCH   1  29
ATOM     29  C   LIG d   1       4.394  -2.615  -3.433  0.00  0.00    -0.047 C 
ATOM     30  H   LIG d   1       3.599  -2.870  -4.134  0.00  0.00     0.027 H 
ATOM     31  H   LIG d   1       4.828  -3.529  -3.026  0.00  0.00     0.027 H 
BRANCH  29  32
ATOM     32  C   LIG d   1       3.820  -1.773  -2.293  0.00  0.00    -0.034 C 
ATOM     33  H   LIG d   1       3.051  -2.344  -1.770  0.00  0.00     0.031 H 
ATOM     34  H   LIG d   1       4.617  -1.514  -1.595  0.00  0.00     0.031 H 
BRANCH  32  35
ATOM     35  C   LIG d   1       3.214  -0.512  -2.854  0.00  0.00    -0.085 C 
ATOM     36  C   LIG d   1       3.696   0.655  -2.509  0.00  0.00    -0.080 C 
ATOM     37  H   LIG d   1       2.384  -0.573  -3.541  0.00  0.00     0.057 H 
BRANCH  36  38
ATOM     38  C   LIG d   1       4.760   0.747  -1.445  0.00  0.00    -0.044 C 
ATOM     39  H   LIG d   1       4.625   1.666  -0.875  0.00  0.00     0.027 H 
ATOM     40  H   LIG d   1       4.682  -0.111  -0.777  0.00  0.00     0.027 H 
ATOM     41  H   LIG d   1       5.743   0.753  -1.915  0.00  0.00     0.027 H 
ENDBRANCH  36  38
BRANCH  36  42
ATOM     42  C   LIG d   1       3.186   1.907  -3.175  0.00  0.00    -0.044 C 
ATOM     43  H   LIG d   1       2.096   1.900  -3.176  0.00  0.00     0.027 H 
ATOM     44  H   LIG d   1       3.544   2.780  -2.630  0.00  0.00     0.027 H 
ATOM     45  H   LIG d   1       3.550   1.946  -4.202  0.00  0.00     0.027 H 
ENDBRANCH  36  42
ENDBRANCH  32  35
ENDBRANCH  29  32
ENDBRANCH   1  29
TORSDOF 14
ENDMDL
MODEL 3
REMARK VINA RESULT:      -5.3      1.568      2.221
REMARK  14 active torsions:
REMARK  status: ('A' for Active; 'I' for Inactive)
REMARK    1  A    between atoms: C_1  and  C_2 
REMARK    2  A    between atoms: C_2  and  C_3 
REMARK    3  A    between atoms: C_3  and  C_4 
REMARK    4  A    between atoms: C_4  and  C_5 
REMARK    5  A    between atoms: C_5  and  O_7 
REMARK    6  A    between atoms: O_7  and  C_8 
REMARK    7  A    between atoms: C_8  and  C_9 
REMARK    8  A    between atoms: C_9  and  C_10 
REMARK    9  A    between atoms: C_10  and  C_12 
REMARK   10  A    between atoms: C_10  and  C_13 
REMARK   11  A    between atoms: C_13  and  C_14 
REMARK   12  A    between atoms: C_14  and  C_15 
REMARK   13  A    between atoms: C_16  and  C_17 
REMARK   14  A    between atoms: C_16  and  C_18 
ROOT
ATOM      1  C   LIG d   1       3.238   0.440  -2.471  0.00  0.00    -0.041 C 
ATOM      2  H   LIG d   1       2.434   0.869  -1.871  0.00  0.00     0.030 H 
ENDROOT
BRANCH   1   3
ATOM      3  C   LIG d   1       3.358   1.210  -3.787  0.00  0.00    -0.016 C 
ATOM      4  H   LIG d   1       4.394   1.191  -4.125  0.00  0.00     0.030 H 
ATOM      5  H   LIG d   1       3.045   2.243  -3.633  0.00  0.00     0.030 H 
BRANCH   3   6
ATOM      6  C   LIG d   1       2.465   0.557  -4.844  0.00  0.00     0.093 C 
ATOM      7  H   LIG d   1       1.426   0.835  -4.664  0.00  0.00     0.070 H 
ATOM      8  H   LIG d   1       2.565  -0.527  -4.785  0.00  0.00     0.070 H 
BRANCH   6   9
ATOM      9  O   LIG d   1       2.866   1.010  -6.164  0.00  0.00    -0.465 OA
BRANCH   9  10
ATOM     10  C   LIG d   1       3.104   0.065  -7.086  0.00  0.00     0.307 C 
ATOM     11  O   LIG d   1       2.492   0.071  -8.129  0.00  0.00    -0.251 OA
BRANCH  10  12
ATOM     12  C   LIG d   1       4.133  -1.004  -6.822  0.00  0.00     0.045 C 
ATOM     13  H   LIG d   1       5.000  -0.560  -6.334  0.00  0.00     0.038 H 
ATOM     14  H   LIG d   1       3.704  -1.768  -6.174  0.00  0.00     0.038 H 
BRANCH  12  15
ATOM     15  C   LIG d   1       4.561  -1.638  -8.146  0.00  0.00    -0.043 C 
ATOM     16  H   LIG d   1       4.090  -1.106  -8.973  0.00  0.00     0.027 H 
ATOM     17  H   LIG d   1       5.645  -1.577  -8.244  0.00  0.00     0.027 H 
BRANCH  15  18
ATOM     18  C   LIG d   1       4.128  -3.106  -8.172  0.00  0.00    -0.055 C 
ATOM     19  H   LIG d   1       4.988  -3.734  -8.402  0.00  0.00     0.026 H 
ATOM     20  H   LIG d   1       3.726  -3.384  -7.198  0.00  0.00     0.026 H 
BRANCH  18  21
ATOM     21  C   LIG d   1       3.053  -3.302  -9.244  0.00  0.00    -0.065 C 
ATOM     22  H   LIG d   1       3.027  -2.430  -9.896  0.00  0.00     0.023 H 
ATOM     23  H   LIG d   1       3.284  -4.189  -9.832  0.00  0.00     0.023 H 
ATOM     24  H   LIG d   1       2.082  -3.425  -8.765  0.00  0.00     0.023 H 
ENDBRANCH  18  21
ENDBRANCH  15  18
ENDBRANCH  12  15
ENDBRANCH  10  12
ENDBRANCH   9  10
ENDBRANCH   6   9
ENDBRANCH   3   6
ENDBRANCH   1   3
BRANCH   1  25
ATOM     25  C   LIG d   1       4.556   0.537  -1.700  0.00  0.00    -0.062 C 
ATOM     26  H   LIG d   1       4.638   1.524  -1.243  0.00  0.00     0.023 H 
ATOM     27  H   LIG d   1       4.581  -0.227  -0.923  0.00  0.00     0.023 H 
ATOM     28  H   LIG d   1       5.390   0.384  -2.386  0.00  0.00     0.023 H 
ENDBRANCH   1  25
BRANCH   1  29
ATOM     29  C   LIG d   1       2.926  -1.029  -2.764  0.00  0.00    -0.047 C 
ATOM     30  H   LIG d   1       2.059  -1.340  -2.181  0.00  0.00     0.027 H 
ATOM     31  H   LIG d   1       2.712  -1.149  -3.826  0.00  0.00     0.027 H 
BRANCH  29  32
ATOM     32  C   LIG d   1       4.131  -1.892  -2.387  0.00  0.00    -0.034 C 
ATOM     33  H   LIG d   1       4.963  -1.250  -2.096  0.00  0.00     0.031 H 
ATOM     34  H   LIG d   1       3.865  -2.543  -1.553  0.00  0.00     0.031 H 
BRANCH  32  35
ATOM     35  C   LIG d   1       4.538  -2.733  -3.570  0.00  0.00    -0.085 C 
ATOM     36  C   LIG d   1       5.775  -2.707  -3.998  0.00  0.00    -0.080 C 
ATOM     37  H   LIG d   1       3.808  -3.357  -4.063  0.00  0.00     0.057 H 
BRANCH  36  38
ATOM     38  C   LIG d   1       6.759  -1.734  -3.401  0.00  0.00    -0.044 C 
ATOM     39  H   LIG d   1       7.575  -2.284  -2.934  0.00  0.00     0.027 H 
ATOM     40  H   LIG d   1       7.156  -1.091  -4.187  0.00  0.00     0.027 H 
ATOM     41  H   LIG d   1       6.256  -1.123  -2.651  0.00  0.00     0.027 H 
ENDBRANCH  36  38
BRANCH  36  42
ATOM     42  C   LIG d   1       6.214  -3.650  -5.088  0.00  0.00    -0.044 C 
ATOM     43  H   LIG d   1       5.983  -3.216  -6.060  0.00  0.00     0.027 H 
ATOM     44  H   LIG d   1       7.288  -3.819  -5.010  0.00  0.00     0.027 H 
ATOM     45  H   LIG d   1       5.689  -4.600  -4.981  0.00  0.00     0.027 H 
ENDBRANCH  36  42
ENDBRANCH  32  35
ENDBRANCH  29  32
ENDBRANCH   1  29
TORSDOF 14
ENDMDL
MODEL 4
REMARK VINA RESULT:      -5.2      1.623      2.490
REMARK  14 active torsions:
REMARK  status: ('A' for Active; 'I' for Inactive)
REMARK    1  A    between atoms: C_1  and  C_2 
REMARK    2  A    between atoms: C_2  and  C_3 
REMARK    3  A    between atoms: C_3  and  C_4 
REMARK    4  A    between atoms: C_4  and  C_5 
REMARK    5  A    between atoms: C_5  and  O_7 
REMARK    6  A    between atoms: O_7  and  C_8 
REMARK    7  A    between atoms: C_8  and  C_9 
REMARK    8  A    between atoms: C_9  and  C_10 
REMARK    9  A    between atoms: C_10  and  C_12 
REMARK   10  A    between atoms: C_10  and  C_13 
REMARK   11  A    between atoms: C_13  and  C_14 
REMARK   12  A    between atoms: C_14  and  C_15 
REMARK   13  A    between atoms: C_16  and  C_17 
REMARK   14  A    between atoms: C_16  and  C_18 
ROOT
ATOM      1  C   LIG d   1       3.834  -0.771  -3.027  0.00  0.00    -0.041 C 
ATOM      2  H   LIG d   1       4.524  -0.820  -3.870  0.00  0.00     0.030 H 
ENDROOT
BRANCH   1   3
ATOM      3  C   LIG d   1       2.425  -0.469  -3.540  0.00  0.00    -0.016 C 
ATOM      4  H   LIG d   1       1.838  -0.013  -2.743  0.00  0.00     0.030 H 
ATOM      5  H   LIG d   1       1.947  -1.397  -3.858  0.00  0.00     0.030 H 
BRANCH   3   6
ATOM      6  C   LIG d   1       2.508   0.494  -4.727  0.00  0.00     0.093 C 
ATOM      7  H   LIG d   1       3.013   1.409  -4.417  0.00  0.00     0.070 H 
ATOM      8  H   LIG d   1       1.503   0.733  -5.071  0.00  0.00     0.070 H 
BRANCH   6   9
ATOM      9  O   LIG d   1       3.255  -0.130  -5.804  0.00  0.00    -0.465 OA
BRANCH   9  10
ATOM     10  C   LIG d   1       3.050   0.346  -7.042  0.00  0.00     0.307 C 
ATOM     11  O   LIG d   1       3.057   1.538  -7.239  0.00  0.00    -0.251 OA
BRANCH  10  12
ATOM     12  C   LIG d   1       2.812  -0.606  -8.186  0.00  0.00     0.045 C 
ATOM     13  H   LIG d   1       3.760  -1.043  -8.499  0.00  0.00     0.038 H 
ATOM     14  H   LIG d   1       2.135  -1.398  -7.864  0.00  0.00     0.038 H 
BRANCH  12  15
ATOM     15  C   LIG d   1       2.188   0.152  -9.359  0.00  0.00    -0.043 C 
ATOM     16  H   LIG d   1       1.215  -0.280  -9.595  0.00  0.00     0.027 H 
ATOM     17  H   LIG d   1       2.064   1.202  -9.089  0.00  0.00     0.027 H 
BRANCH  15  18
ATOM     18  C   LIG d   1       3.104   0.045 -10.581  0.00  0.00    -0.055 C 
ATOM     19  H   LIG d   1       3.793  -0.788 -10.446  0.00  0.00     0.026 H 
ATOM     20  H   LIG d   1       2.500  -0.125 -11.473  0.00  0.00     0.026 H 
BRANCH  18  21
ATOM     21  C   LIG d   1       3.898   1.343 -10.740  0.00  0.00    -0.065 C 
ATOM     22  H   LIG d   1       3.217   2.193 -10.693  0.00  0.00     0.023 H 
ATOM     23  H   LIG d   1       4.631   1.421  -9.938  0.00  0.00     0.023 H 
ATOM     24  H   LIG d   1       4.409   1.340 -11.702  0.00  0.00     0.023 H 
ENDBRANCH  18  21
ENDBRANCH  15  18
ENDBRANCH  12  15
ENDBRANCH  10  12
ENDBRANCH   9  10
ENDBRANCH   6   9
ENDBRANCH   3   6
ENDBRANCH   1   3
BRANCH   1  25
ATOM     25  C   LIG d   1       3.832  -2.113  -2.292  0.00  0.00    -0.062 C 
ATOM     26  H   LIG d   1       4.374  -2.012  -1.351  0.00  0.00     0.023 H 
ATOM     27  H   LIG d   1       2.805  -2.415  -2.088  0.00  0.00     0.023 H 
ATOM     28  H   LIG d   1       4.317  -2.867  -2.911  0.00  0.00     0.023 H 
ENDBRANCH   1  25
BRANCH   1  29
ATOM     29  C   LIG d   1       4.277   0.336  -2.068  0.00  0.00    -0.047 C 
ATOM     30  H   LIG d   1       3.449   1.025  -1.902  0.00  0.00     0.027 H 
ATOM     31  H   LIG d   1       4.579  -0.107  -1.119  0.00  0.00     0.027 H 
BRANCH  29  32
ATOM     32  C   LIG d   1       5.459   1.094  -2.675  0.00  0.00    -0.034 C 
ATOM     33  H   LIG d   1       5.091   1.953  -3.236  0.00  0.00     0.031 H 
ATOM     34  H   LIG d   1       6.119   1.436  -1.877  0.00  0.00     0.031 H 
BRANCH  32  35
ATOM     35  C   LIG d   1       6.222   0.180  -3.600  0.00  0.00    -0.085 C 
ATOM     36  C   LIG d   1       7.378   0.557  -4.085  0.00  0.00    -0.080 C 
ATOM     37  H   LIG d   1       5.814  -0.784  -3.861  0.00  0.00     0.057 H 
BRANCH  36  38
ATOM     38  C   LIG d   1       7.882   1.955  -3.834  0.00  0.00    -0.044 C 
ATOM     39  H   LIG d   1       7.035   2.631  -3.719  0.00  0.00     0.027 H 
ATOM     40  H   LIG d   1       8.483   1.967  -2.924  0.00  0.00     0.027 H 
ATOM     41  H   LIG d   1       8.492   2.278  -4.677  0.00  0.00     0.027 H 
ENDBRANCH  36  38
BRANCH  36  42
ATOM     42  C   LIG d   1       8.205  -0.409  -4.894  0.00  0.00    -0.044 C 
ATOM     43  H   LIG d   1       7.547  -1.111  -5.406  0.00  0.00     0.027 H 
ATOM     44  H   LIG d   1       8.791   0.143  -5.629  0.00  0.00     0.027 H 
ATOM     45  H   LIG d   1       8.876  -0.956  -4.232  0.00  0.00     0.027 H 
ENDBRANCH  36  42
ENDBRANCH  32  35
ENDBRANCH  29  32
ENDBRANCH   1  29
TORSDOF 14
ENDMDL
MODEL 5
REMARK VINA RESULT:      -5.1      1.616      6.169
REMARK  14 active torsions:
REMARK  status: ('A' for Active; 'I' for Inactive)
REMARK    1  A    between atoms: C_1  and  C_2 
REMARK    2  A    between atoms: C_2  and  C_3 
REMARK    3  A    between atoms: C_3  and  C_4 
REMARK    4  A    between atoms: C_4  and  C_5 
REMARK    5  A    between atoms: C_5  and  O_7 
REMARK    6  A    between atoms: O_7  and  C_8 
REMARK    7  A    between atoms: C_8  and  C_9 
REMARK    8  A    between atoms: C_9  and  C_10 
REMARK    9  A    between atoms: C_10  and  C_12 
REMARK   10  A    between atoms: C_10  and  C_13 
REMARK   11  A    between atoms: C_13  and  C_14 
REMARK   12  A    between atoms: C_14  and  C_15 
REMARK   13  A    between atoms: C_16  and  C_17 
REMARK   14  A    between atoms: C_16  and  C_18 
ROOT
ATOM      1  C   LIG d   1       3.907  -0.680  -6.812  0.00  0.00    -0.041 C 
ATOM      2  H   LIG d   1       3.849  -1.346  -5.950  0.00  0.00     0.030 H 
ENDROOT
BRANCH   1   3
ATOM      3  C   LIG d   1       3.027   0.548  -6.567  0.00  0.00    -0.016 C 
ATOM      4  H   LIG d   1       2.240   0.586  -7.320  0.00  0.00     0.030 H 
ATOM      5  H   LIG d   1       3.636   1.450  -6.633  0.00  0.00     0.030 H 
BRANCH   3   6
ATOM      6  C   LIG d   1       2.398   0.456  -5.175  0.00  0.00     0.093 C 
ATOM      7  H   LIG d   1       2.183  -0.586  -4.942  0.00  0.00     0.070 H 
ATOM      8  H   LIG d   1       1.472   1.031  -5.157  0.00  0.00     0.070 H 
BRANCH   6   9
ATOM      9  O   LIG d   1       3.321   0.992  -4.191  0.00  0.00    -0.465 OA
BRANCH   9  10
ATOM     10  C   LIG d   1       3.274   0.461  -2.960  0.00  0.00     0.307 C 
ATOM     11  O   LIG d   1       3.628   1.114  -2.006  0.00  0.00    -0.251 OA
BRANCH  10  12
ATOM     12  C   LIG d   1       2.780  -0.949  -2.765  0.00  0.00     0.045 C 
ATOM     13  H   LIG d   1       2.008  -0.961  -1.997  0.00  0.00     0.038 H 
ATOM     14  H   LIG d   1       2.366  -1.321  -3.702  0.00  0.00     0.038 H 
BRANCH  12  15
ATOM     15  C   LIG d   1       3.944  -1.842  -2.332  0.00  0.00    -0.043 C 
ATOM     16  H   LIG d   1       4.695  -1.239  -1.822  0.00  0.00     0.027 H 
ATOM     17  H   LIG d   1       3.577  -2.615  -1.655  0.00  0.00     0.027 H 
BRANCH  15  18
ATOM     18  C   LIG d   1       4.570  -2.500  -3.564  0.00  0.00    -0.055 C 
ATOM     19  H   LIG d   1       4.561  -3.582  -3.442  0.00  0.00     0.026 H 
ATOM     20  H   LIG d   1       3.995  -2.230  -4.451  0.00  0.00     0.026 H 
BRANCH  18  21
ATOM     21  C   LIG d   1       6.013  -2.016  -3.724  0.00  0.00    -0.065 C 
ATOM     22  H   LIG d   1       6.331  -1.516  -2.809  0.00  0.00     0.023 H 
ATOM     23  H   LIG d   1       6.662  -2.870  -3.916  0.00  0.00     0.023 H 
ATOM     24  H   LIG d   1       6.071  -1.319  -4.558  0.00  0.00     0.023 H 
ENDBRANCH  18  21
ENDBRANCH  15  18
ENDBRANCH  12  15
ENDBRANCH  10  12
ENDBRANCH   9  10
ENDBRANCH   6   9
ENDBRANCH   3   6
ENDBRANCH   1   3
BRANCH   1  25
ATOM     25  C   LIG d   1       5.357  -0.236  -7.015  0.00  0.00    -0.062 C 
ATOM     26  H   LIG d   1       5.797  -0.796  -7.840  0.00  0.00     0.023 H 
ATOM     27  H   LIG d   1       5.382   0.830  -7.246  0.00  0.00     0.023 H 
ATOM     28  H   LIG d   1       5.926  -0.423  -6.105  0.00  0.00     0.023 H 
ENDBRANCH   1  25
BRANCH   1  29
ATOM     29  C   LIG d   1       3.420  -1.418  -8.061  0.00  0.00    -0.047 C 
ATOM     30  H   LIG d   1       4.278  -1.774  -8.631  0.00  0.00     0.027 H 
ATOM     31  H   LIG d   1       2.804  -2.267  -7.762  0.00  0.00     0.027 H 
BRANCH  29  32
ATOM     32  C   LIG d   1       2.591  -0.466  -8.925  0.00  0.00    -0.034 C 
ATOM     33  H   LIG d   1       1.530  -0.668  -8.775  0.00  0.00     0.031 H 
ATOM     34  H   LIG d   1       2.809   0.564  -8.642  0.00  0.00     0.031 H 
BRANCH  32  35
ATOM     35  C   LIG d   1       2.940  -0.673 -10.377  0.00  0.00    -0.085 C 
ATOM     36  C   LIG d   1       3.668   0.215 -11.008  0.00  0.00    -0.080 C 
ATOM     37  H   LIG d   1       2.590  -1.552 -10.895  0.00  0.00     0.057 H 
BRANCH  36  38
ATOM     38  C   LIG d   1       4.039   1.507 -10.327  0.00  0.00    -0.044 C 
ATOM     39  H   LIG d   1       3.240   2.234 -10.468  0.00  0.00     0.027 H 
ATOM     40  H   LIG d   1       4.184   1.328  -9.261  0.00  0.00     0.027 H 
ATOM     41  H   LIG d   1       4.961   1.893 -10.759  0.00  0.00     0.027 H 
ENDBRANCH  36  38
BRANCH  36  42
ATOM     42  C   LIG d   1       4.135  -0.058 -12.414  0.00  0.00    -0.044 C 
ATOM     43  H   LIG d   1       5.079   0.458 -12.590  0.00  0.00     0.027 H 
ATOM     44  H   LIG d   1       4.276  -1.130 -12.549  0.00  0.00     0.027 H 
ATOM     45  H   LIG d   1       3.388   0.302 -13.122  0.00  0.00     0.027 H 
ENDBRANCH  36  42
ENDBRANCH  32  35
ENDBRANCH  29  32
ENDBRANCH   1  29
TORSDOF 14
ENDMDL
MODEL 6
REMARK VINA RESULT:      -5.1      1.844      6.570
REMARK  14 active torsions:
REMARK  status: ('A' for Active; 'I' for Inactive)
REMARK    1  A    between atoms: C_1  and  C_2 
REMARK    2  A    between atoms: C_2  and  C_3 
REMARK    3  A    between atoms: C_3  and  C_4 
REMARK    4  A    between atoms: C_4  and  C_5 
REMARK    5  A    between atoms: C_5  and  O_7 
REMARK    6  A    between atoms: O_7  and  C_8 
REMARK    7  A    between atoms: C_8  and  C_9 
REMARK    8  A    between atoms: C_9  and  C_10 
REMARK    9  A    between atoms: C_10  and  C_12 
REMARK   10  A    between atoms: C_10  and  C_13 
REMARK   11  A    between atoms: C_13  and  C_14 
REMARK   12  A    between atoms: C_14  and  C_15 
REMARK   13  A    between atoms: C_16  and  C_17 
REMARK   14  A    between atoms: C_16  and  C_18 
ROOT
ATOM      1  C   LIG d   1       3.392   0.341  -7.678  0.00  0.00    -0.041 C 
ATOM      2  H   LIG d   1       4.445   0.228  -7.939  0.00  0.00     0.030 H 
ENDROOT
BRANCH   1   3
ATOM      3  C   LIG d   1       3.214   0.116  -6.175  0.00  0.00    -0.016 C 
ATOM      4  H   LIG d   1       2.396  -0.585  -6.008  0.00  0.00     0.030 H 
ATOM      5  H   LIG d   1       2.983   1.065  -5.691  0.00  0.00     0.030 H 
BRANCH   3   6
ATOM      6  C   LIG d   1       4.505  -0.457  -5.587  0.00  0.00     0.093 C 
ATOM      7  H   LIG d   1       4.749   0.068  -4.664  0.00  0.00     0.070 H 
ATOM      8  H   LIG d   1       5.317  -0.329  -6.303  0.00  0.00     0.070 H 
BRANCH   6   9
ATOM      9  O   LIG d   1       4.324  -1.870  -5.307  0.00  0.00    -0.465 OA
BRANCH   9  10
ATOM     10  C   LIG d   1       4.551  -2.274  -4.047  0.00  0.00     0.307 C 
ATOM     11  O   LIG d   1       4.154  -3.356  -3.679  0.00  0.00    -0.251 OA
BRANCH  10  12
ATOM     12  C   LIG d   1       5.299  -1.381  -3.092  0.00  0.00     0.045 C 
ATOM     13  H   LIG d   1       6.144  -1.926  -2.672  0.00  0.00     0.038 H 
ATOM     14  H   LIG d   1       5.662  -0.502  -3.625  0.00  0.00     0.038 H 
BRANCH  12  15
ATOM     15  C   LIG d   1       4.364  -0.944  -1.963  0.00  0.00    -0.043 C 
ATOM     16  H   LIG d   1       3.329  -1.109  -2.265  0.00  0.00     0.027 H 
ATOM     17  H   LIG d   1       4.578  -1.526  -1.067  0.00  0.00     0.027 H 
BRANCH  15  18
ATOM     18  C   LIG d   1       4.578   0.543  -1.670  0.00  0.00    -0.055 C 
ATOM     19  H   LIG d   1       4.423   0.729  -0.608  0.00  0.00     0.026 H 
ATOM     20  H   LIG d   1       5.595   0.824  -1.943  0.00  0.00     0.026 H 
BRANCH  18  21
ATOM     21  C   LIG d   1       3.583   1.373  -2.484  0.00  0.00    -0.065 C 
ATOM     22  H   LIG d   1       2.681   1.539  -1.895  0.00  0.00     0.023 H 
ATOM     23  H   LIG d   1       4.032   2.332  -2.738  0.00  0.00     0.023 H 
ATOM     24  H   LIG d   1       3.326   0.838  -3.397  0.00  0.00     0.023 H 
ENDBRANCH  18  21
ENDBRANCH  15  18
ENDBRANCH  12  15
ENDBRANCH  10  12
ENDBRANCH   9  10
ENDBRANCH   6   9
ENDBRANCH   3   6
ENDBRANCH   1   3
BRANCH   1  25
ATOM     25  C   LIG d   1       2.926   1.752  -8.040  0.00  0.00    -0.062 C 
ATOM     26  H   LIG d   1       2.543   1.758  -9.061  0.00  0.00     0.023 H 
ATOM     27  H   LIG d   1       2.137   2.063  -7.355  0.00  0.00     0.023 H 
ATOM     28  H   LIG d   1       3.766   2.443  -7.964  0.00  0.00     0.023 H 
ENDBRANCH   1  25
BRANCH   1  29
ATOM     29  C   LIG d   1       2.561  -0.685  -8.451  0.00  0.00    -0.047 C 
ATOM     30  H   LIG d   1       3.207  -1.498  -8.785  0.00  0.00     0.027 H 
ATOM     31  H   LIG d   1       1.781  -1.083  -7.801  0.00  0.00     0.027 H 
BRANCH  29  32
ATOM     32  C   LIG d   1       1.918  -0.012  -9.664  0.00  0.00    -0.034 C 
ATOM     33  H   LIG d   1       0.842   0.071  -9.508  0.00  0.00     0.031 H 
ATOM     34  H   LIG d   1       2.344   0.984  -9.795  0.00  0.00     0.031 H 
BRANCH  32  35
ATOM     35  C   LIG d   1       2.184  -0.837 -10.897  0.00  0.00    -0.085 C 
ATOM     36  C   LIG d   1       3.194  -0.542 -11.677  0.00  0.00    -0.080 C 
ATOM     37  H   LIG d   1       1.541  -1.670 -11.137  0.00  0.00     0.057 H 
BRANCH  36  38
ATOM     38  C   LIG d   1       4.006   0.702 -11.421  0.00  0.00    -0.044 C 
ATOM     39  H   LIG d   1       4.152   0.826 -10.349  0.00  0.00     0.027 H 
ATOM     40  H   LIG d   1       4.976   0.610 -11.912  0.00  0.00     0.027 H 
ATOM     41  H   LIG d   1       3.478   1.568 -11.819  0.00  0.00     0.027 H 
ENDBRANCH  36  38
BRANCH  36  42
ATOM     42  C   LIG d   1       3.545  -1.448 -12.829  0.00  0.00    -0.044 C 
ATOM     43  H   LIG d   1       4.585  -1.761 -12.741  0.00  0.00     0.027 H 
ATOM     44  H   LIG d   1       2.898  -2.325 -12.811  0.00  0.00     0.027 H 
ATOM     45  H   LIG d   1       3.405  -0.913 -13.768  0.00  0.00     0.027 H 
ENDBRANCH  36  42
ENDBRANCH  32  35
ENDBRANCH  29  32
ENDBRANCH   1  29
TORSDOF 14
ENDMDL
MODEL 7
REMARK VINA RESULT:      -5.0      1.860      6.184
REMARK  14 active torsions:
REMARK  status: ('A' for Active; 'I' for Inactive)
REMARK    1  A    between atoms: C_1  and  C_2 
REMARK    2  A    between atoms: C_2  and  C_3 
REMARK    3  A    between atoms: C_3  and  C_4 
REMARK    4  A    between atoms: C_4  and  C_5 
REMARK    5  A    between atoms: C_5  and  O_7 
REMARK    6  A    between atoms: O_7  and  C_8 
REMARK    7  A    between atoms: C_8  and  C_9 
REMARK    8  A    between atoms: C_9  and  C_10 
REMARK    9  A    between atoms: C_10  and  C_12 
REMARK   10  A    between atoms: C_10  and  C_13 
REMARK   11  A    between atoms: C_13  and  C_14 
REMARK   12  A    between atoms: C_14  and  C_15 
REMARK   13  A    between atoms: C_16  and  C_17 
REMARK   14  A    between atoms: C_16  and  C_18 
ROOT
ATOM      1  C   LIG d   1       4.510  -0.815  -7.230  0.00  0.00    -0.041 C 
ATOM      2  H   LIG d   1       4.731  -0.705  -8.292  0.00  0.00     0.030 H 
ENDROOT
BRANCH   1   3
ATOM      3  C   LIG d   1       4.223  -2.286  -6.920  0.00  0.00    -0.016 C 
ATOM      4  H   LIG d   1       4.425  -2.889  -7.805  0.00  0.00     0.030 H 
ATOM      5  H   LIG d   1       3.177  -2.398  -6.633  0.00  0.00     0.030 H 
BRANCH   3   6
ATOM      6  C   LIG d   1       5.121  -2.749  -5.771  0.00  0.00     0.093 C 
ATOM      7  H   LIG d   1       5.886  -1.997  -5.580  0.00  0.00     0.070 H 
ATOM      8  H   LIG d   1       5.598  -3.691  -6.041  0.00  0.00     0.070 H 
BRANCH   6   9
ATOM      9  O   LIG d   1       4.318  -2.937  -4.576  0.00  0.00    -0.465 OA
BRANCH   9  10
ATOM     10  C   LIG d   1       4.718  -2.296  -3.467  0.00  0.00     0.307 C 
ATOM     11  O   LIG d   1       5.896  -2.105  -3.271  0.00  0.00    -0.251 OA
BRANCH  10  12
ATOM     12  C   LIG d   1       3.700  -1.816  -2.465  0.00  0.00     0.045 C 
ATOM     13  H   LIG d   1       3.090  -2.656  -2.136  0.00  0.00     0.038 H 
ATOM     14  H   LIG d   1       4.213  -1.382  -1.606  0.00  0.00     0.038 H 
BRANCH  12  15
ATOM     15  C   LIG d   1       2.806  -0.758  -3.113  0.00  0.00    -0.043 C 
ATOM     16  H   LIG d   1       2.534  -1.080  -4.119  0.00  0.00     0.027 H 
ATOM     17  H   LIG d   1       1.902  -0.630  -2.517  0.00  0.00     0.027 H 
BRANCH  15  18
ATOM     18  C   LIG d   1       3.560   0.572  -3.189  0.00  0.00    -0.055 C 
ATOM     19  H   LIG d   1       4.308   0.520  -3.980  0.00  0.00     0.026 H 
ATOM     20  H   LIG d   1       2.856   1.376  -3.408  0.00  0.00     0.026 H 
BRANCH  18  21
ATOM     21  C   LIG d   1       4.249   0.845  -1.851  0.00  0.00    -0.065 C 
ATOM     22  H   LIG d   1       3.842   1.756  -1.413  0.00  0.00     0.023 H 
ATOM     23  H   LIG d   1       4.075   0.008  -1.175  0.00  0.00     0.023 H 
ATOM     24  H   LIG d   1       5.319   0.966  -2.012  0.00  0.00     0.023 H 
ENDBRANCH  18  21
ENDBRANCH  15  18
ENDBRANCH  12  15
ENDBRANCH  10  12
ENDBRANCH   9  10
ENDBRANCH   6   9
ENDBRANCH   3   6
ENDBRANCH   1   3
BRANCH   1  25
ATOM     25  C   LIG d   1       5.711  -0.345  -6.408  0.00  0.00    -0.062 C 
ATOM     26  H   LIG d   1       5.900  -1.054  -5.602  0.00  0.00     0.023 H 
ATOM     27  H   LIG d   1       6.590  -0.282  -7.050  0.00  0.00     0.023 H 
ATOM     28  H   LIG d   1       5.500   0.638  -5.985  0.00  0.00     0.023 H 
ENDBRANCH   1  25
BRANCH   1  29
ATOM     29  C   LIG d   1       3.285   0.030  -6.874  0.00  0.00    -0.047 C 
ATOM     30  H   LIG d   1       2.440  -0.625  -6.664  0.00  0.00     0.027 H 
ATOM     31  H   LIG d   1       3.505   0.634  -5.993  0.00  0.00     0.027 H 
BRANCH  29  32
ATOM     32  C   LIG d   1       2.940   0.949  -8.047  0.00  0.00    -0.034 C 
ATOM     33  H   LIG d   1       2.199   1.683  -7.729  0.00  0.00     0.031 H 
ATOM     34  H   LIG d   1       3.841   1.464  -8.382  0.00  0.00     0.031 H 
BRANCH  32  35
ATOM     35  C   LIG d   1       2.380   0.129  -9.181  0.00  0.00    -0.085 C 
ATOM     36  C   LIG d   1       2.890   0.237 -10.382  0.00  0.00    -0.080 C 
ATOM     37  H   LIG d   1       1.558  -0.548  -9.001  0.00  0.00     0.057 H 
BRANCH  36  38
ATOM     38  C   LIG d   1       3.940   1.281 -10.664  0.00  0.00    -0.044 C 
ATOM     39  H   LIG d   1       3.529   2.040 -11.328  0.00  0.00     0.027 H 
ATOM     40  H   LIG d   1       4.250   1.747  -9.727  0.00  0.00     0.027 H 
ATOM     41  H   LIG d   1       4.801   0.811 -11.138  0.00  0.00     0.027 H 
ENDBRANCH  36  38
BRANCH  36  42
ATOM     42  C   LIG d   1       2.426  -0.682 -11.482  0.00  0.00    -0.044 C 
ATOM     43  H   LIG d   1       1.601  -0.217 -12.021  0.00  0.00     0.027 H 
ATOM     44  H   LIG d   1       3.251  -0.870 -12.170  0.00  0.00     0.027 H 
ATOM     45  H   LIG d   1       2.091  -1.625 -11.051  0.00  0.00     0.027 H 
ENDBRANCH  36  42
ENDBRANCH  32  35
ENDBRANCH  29  32
ENDBRANCH   1  29
TORSDOF 14
ENDMDL
MODEL 8
REMARK VINA RESULT:      -5.0      1.566      2.586
REMARK  14 active torsions:
REMARK  status: ('A' for Active; 'I' for Inactive)
REMARK    1  A    between atoms: C_1  and  C_2 
REMARK    2  A    between atoms: C_2  and  C_3 
REMARK    3  A    between atoms: C_3  and  C_4 
REMARK    4  A    between atoms: C_4  and  C_5 
REMARK    5  A    between atoms: C_5  and  O_7 
REMARK    6  A    between atoms: O_7  and  C_8 
REMARK    7  A    between atoms: C_8  and  C_9 
REMARK    8  A    between atoms: C_9  and  C_10 
REMARK    9  A    between atoms: C_10  and  C_12 
REMARK   10  A    between atoms: C_10  and  C_13 
REMARK   11  A    between atoms: C_13  and  C_14 
REMARK   12  A    between atoms: C_14  and  C_15 
REMARK   13  A    between atoms: C_16  and  C_17 
REMARK   14  A    between atoms: C_16  and  C_18 
ROOT
ATOM      1  C   LIG d   1       3.297   0.104  -3.740  0.00  0.00    -0.041 C 
ATOM      2  H   LIG d   1       4.220  -0.264  -4.191  0.00  0.00     0.030 H 
ENDROOT
BRANCH   1   3
ATOM      3  C   LIG d   1       2.399   0.696  -4.827  0.00  0.00    -0.016 C 
ATOM      4  H   LIG d   1       2.441   1.784  -4.780  0.00  0.00     0.030 H 
ATOM      5  H   LIG d   1       1.372   0.365  -4.670  0.00  0.00     0.030 H 
BRANCH   3   6
ATOM      6  C   LIG d   1       2.882   0.226  -6.201  0.00  0.00     0.093 C 
ATOM      7  H   LIG d   1       2.202  -0.534  -6.585  0.00  0.00     0.070 H 
ATOM      8  H   LIG d   1       3.883  -0.196  -6.109  0.00  0.00     0.070 H 
BRANCH   6   9
ATOM      9  O   LIG d   1       2.914   1.354  -7.115  0.00  0.00    -0.465 OA
BRANCH   9  10
ATOM     10  C   LIG d   1       3.651   1.215  -8.228  0.00  0.00     0.307 C 
ATOM     11  O   LIG d   1       4.858   1.214  -8.156  0.00  0.00    -0.251 OA
BRANCH  10  12
ATOM     12  C   LIG d   1       2.976   1.062  -9.566  0.00  0.00     0.045 C 
ATOM     13  H   LIG d   1       2.664   0.026  -9.698  0.00  0.00     0.038 H 
ATOM     14  H   LIG d   1       2.102   1.712  -9.608  0.00  0.00     0.038 H 
BRANCH  12  15
ATOM     15  C   LIG d   1       3.953   1.446 -10.678  0.00  0.00    -0.043 C 
ATOM     16  H   LIG d   1       3.604   2.354 -11.170  0.00  0.00     0.027 H 
ATOM     17  H   LIG d   1       4.940   1.621 -10.250  0.00  0.00     0.027 H 
BRANCH  15  18
ATOM     18  C   LIG d   1       4.034   0.311 -11.701  0.00  0.00    -0.055 C 
ATOM     19  H   LIG d   1       4.031   0.729 -12.708  0.00  0.00     0.026 H 
ATOM     20  H   LIG d   1       4.953  -0.254 -11.545  0.00  0.00     0.026 H 
BRANCH  18  21
ATOM     21  C   LIG d   1       2.829  -0.617 -11.531  0.00  0.00    -0.065 C 
ATOM     22  H   LIG d   1       2.186  -0.542 -12.408  0.00  0.00     0.023 H 
ATOM     23  H   LIG d   1       3.175  -1.645 -11.422  0.00  0.00     0.023 H 
ATOM     24  H   LIG d   1       2.269  -0.325 -10.644  0.00  0.00     0.023 H 
ENDBRANCH  18  21
ENDBRANCH  15  18
ENDBRANCH  12  15
ENDBRANCH  10  12
ENDBRANCH   9  10
ENDBRANCH   6   9
ENDBRANCH   3   6
ENDBRANCH   1   3
BRANCH   1  25
ATOM     25  C   LIG d   1       2.570  -1.052  -3.052  0.00  0.00    -0.062 C 
ATOM     26  H   LIG d   1       2.384  -0.796  -2.008  0.00  0.00     0.023 H 
ATOM     27  H   LIG d   1       1.621  -1.237  -3.555  0.00  0.00     0.023 H 
ATOM     28  H   LIG d   1       3.187  -1.950  -3.100  0.00  0.00     0.023 H 
ENDBRANCH   1  25
BRANCH   1  29
ATOM     29  C   LIG d   1       3.630   1.184  -2.708  0.00  0.00    -0.047 C 
ATOM     30  H   LIG d   1       3.644   2.159  -3.194  0.00  0.00     0.027 H 
ATOM     31  H   LIG d   1       2.874   1.180  -1.923  0.00  0.00     0.027 H 
BRANCH  29  32
ATOM     32  C   LIG d   1       5.002   0.899  -2.095  0.00  0.00    -0.034 C 
ATOM     33  H   LIG d   1       5.129   1.496  -1.191  0.00  0.00     0.031 H 
ATOM     34  H   LIG d   1       5.075  -0.160  -1.844  0.00  0.00     0.031 H 
BRANCH  32  35
ATOM     35  C   LIG d   1       6.080   1.254  -3.086  0.00  0.00    -0.085 C 
ATOM     36  C   LIG d   1       6.813   0.311  -3.623  0.00  0.00    -0.080 C 
ATOM     37  H   LIG d   1       6.247   2.287  -3.354  0.00  0.00     0.057 H 
BRANCH  36  38
ATOM     38  C   LIG d   1       6.676  -1.113  -3.148  0.00  0.00    -0.044 C 
ATOM     39  H   LIG d   1       6.925  -1.167  -2.089  0.00  0.00     0.027 H 
ATOM     40  H   LIG d   1       5.650  -1.449  -3.299  0.00  0.00     0.027 H 
ATOM     41  H   LIG d   1       7.354  -1.751  -3.714  0.00  0.00     0.027 H 
ENDBRANCH  36  38
BRANCH  36  42
ATOM     42  C   LIG d   1       7.793   0.650  -4.717  0.00  0.00    -0.044 C 
ATOM     43  H   LIG d   1       8.734   0.131  -4.536  0.00  0.00     0.027 H 
ATOM     44  H   LIG d   1       7.385   0.340  -5.679  0.00  0.00     0.027 H 
ATOM     45  H   LIG d   1       7.968   1.726  -4.727  0.00  0.00     0.027 H 
ENDBRANCH  36  42
ENDBRANCH  32  35
ENDBRANCH  29  32
ENDBRANCH   1  29
TORSDOF 14
ENDMDL
MODEL 9
REMARK VINA RESULT:      -5.0      1.947      3.667
REMARK  14 active torsions:
REMARK  status: ('A' for Active; 'I' for Inactive)
REMARK    1  A    between atoms: C_1  and  C_2 
REMARK    2  A    between atoms: C_2  and  C_3 
REMARK    3  A    between atoms: C_3  and  C_4 
REMARK    4  A    between atoms: C_4  and  C_5 
REMARK    5  A    between atoms: C_5  and  O_7 
REMARK    6  A    between atoms: O_7  and  C_8 
REMARK    7  A    between atoms: C_8  and  C_9 
REMARK    8  A    between atoms: C_9  and  C_10 
REMARK    9  A    between atoms: C_10  and  C_12 
REMARK   10  A    between atoms: C_10  and  C_13 
REMARK   11  A    between atoms: C_13  and  C_14 
REMARK   12  A    between atoms: C_14  and  C_15 
REMARK   13  A    between atoms: C_16  and  C_17 
REMARK   14  A    between atoms: C_16  and  C_18 
ROOT
ATOM      1  C   LIG d   1       3.853  -0.768  -3.004  0.00  0.00    -0.041 C 
ATOM      2  H   LIG d   1       4.534  -0.793  -3.856  0.00  0.00     0.030 H 
ENDROOT
BRANCH   1   3
ATOM      3  C   LIG d   1       2.440  -0.445  -3.493  0.00  0.00    -0.016 C 
ATOM      4  H   LIG d   1       1.886   0.057  -2.700  0.00  0.00     0.030 H 
ATOM      5  H   LIG d   1       1.929  -1.370  -3.764  0.00  0.00     0.030 H 
BRANCH   3   6
ATOM      6  C   LIG d   1       2.519   0.471  -4.717  0.00  0.00     0.093 C 
ATOM      7  H   LIG d   1       2.549   1.511  -4.391  0.00  0.00     0.070 H 
ATOM      8  H   LIG d   1       1.644   0.313  -5.346  0.00  0.00     0.070 H 
BRANCH   6   9
ATOM      9  O   LIG d   1       3.721   0.166  -5.472  0.00  0.00    -0.465 OA
BRANCH   9  10
ATOM     10  C   LIG d   1       3.556  -0.244  -6.739  0.00  0.00     0.307 C 
ATOM     11  O   LIG d   1       2.503  -0.058  -7.302  0.00  0.00    -0.251 OA
BRANCH  10  12
ATOM     12  C   LIG d   1       4.684  -0.937  -7.460  0.00  0.00     0.045 C 
ATOM     13  H   LIG d   1       4.276  -1.579  -8.240  0.00  0.00     0.038 H 
ATOM     14  H   LIG d   1       5.339  -0.191  -7.911  0.00  0.00     0.038 H 
BRANCH  12  15
ATOM     15  C   LIG d   1       5.481  -1.784  -6.467  0.00  0.00    -0.043 C 
ATOM     16  H   LIG d   1       6.451  -2.033  -6.899  0.00  0.00     0.027 H 
ATOM     17  H   LIG d   1       5.628  -1.221  -5.545  0.00  0.00     0.027 H 
BRANCH  15  18
ATOM     18  C   LIG d   1       4.713  -3.072  -6.162  0.00  0.00    -0.055 C 
ATOM     19  H   LIG d   1       3.710  -2.823  -5.815  0.00  0.00     0.026 H 
ATOM     20  H   LIG d   1       4.644  -3.677  -7.067  0.00  0.00     0.026 H 
BRANCH  18  21
ATOM     21  C   LIG d   1       5.448  -3.859  -5.075  0.00  0.00    -0.065 C 
ATOM     22  H   LIG d   1       6.432  -3.421  -4.912  0.00  0.00     0.023 H 
ATOM     23  H   LIG d   1       4.875  -3.821  -4.149  0.00  0.00     0.023 H 
ATOM     24  H   LIG d   1       5.559  -4.896  -5.391  0.00  0.00     0.023 H 
ENDBRANCH  18  21
ENDBRANCH  15  18
ENDBRANCH  12  15
ENDBRANCH  10  12
ENDBRANCH   9  10
ENDBRANCH   6   9
ENDBRANCH   3   6
ENDBRANCH   1   3
BRANCH   1  25
ATOM     25  C   LIG d   1       3.853  -2.131  -2.310  0.00  0.00    -0.062 C 
ATOM     26  H   LIG d   1       3.251  -2.833  -2.887  0.00  0.00     0.023 H 
ATOM     27  H   LIG d   1       4.876  -2.503  -2.239  0.00  0.00     0.023 H 
ATOM     28  H   LIG d   1       3.434  -2.029  -1.309  0.00  0.00     0.023 H 
ENDBRANCH   1  25
BRANCH   1  29
ATOM     29  C   LIG d   1       4.310   0.308  -2.017  0.00  0.00    -0.047 C 
ATOM     30  H   LIG d   1       3.495   1.010  -1.841  0.00  0.00     0.027 H 
ATOM     31  H   LIG d   1       4.596  -0.162  -1.076  0.00  0.00     0.027 H 
BRANCH  29  32
ATOM     32  C   LIG d   1       5.512   1.056  -2.598  0.00  0.00    -0.034 C 
ATOM     33  H   LIG d   1       5.162   1.884  -3.215  0.00  0.00     0.031 H 
ATOM     34  H   LIG d   1       6.125   1.444  -1.784  0.00  0.00     0.031 H 
BRANCH  32  35
ATOM     35  C   LIG d   1       6.333   0.113  -3.439  0.00  0.00    -0.085 C 
ATOM     36  C   LIG d   1       7.445   0.529  -3.992  0.00  0.00    -0.080 C 
ATOM     37  H   LIG d   1       6.003  -0.904  -3.586  0.00  0.00     0.057 H 
BRANCH  36  38
ATOM     38  C   LIG d   1       7.833   1.982  -3.905  0.00  0.00    -0.044 C 
ATOM     39  H   LIG d   1       6.942   2.587  -3.742  0.00  0.00     0.027 H 
ATOM     40  H   LIG d   1       8.526   2.124  -3.074  0.00  0.00     0.027 H 
ATOM     41  H   LIG d   1       8.314   2.286  -4.834  0.00  0.00     0.027 H 
ENDBRANCH  36  38
BRANCH  36  42
ATOM     42  C   LIG d   1       8.337  -0.448  -4.715  0.00  0.00    -0.044 C 
ATOM     43  H   LIG d   1       9.361  -0.335  -4.361  0.00  0.00     0.027 H 
ATOM     44  H   LIG d   1       7.994  -1.464  -4.520  0.00  0.00     0.027 H 
ATOM     45  H   LIG d   1       8.298  -0.250  -5.786  0.00  0.00     0.027 H 
ENDBRANCH  36  42
ENDBRANCH  32  35
ENDBRANCH  29  32
ENDBRANCH   1  29
TORSDOF 14
ENDMDL
MODEL 10
REMARK VINA RESULT:      -4.9      2.257      6.469
REMARK  14 active torsions:
REMARK  status: ('A' for Active; 'I' for Inactive)
REMARK    1  A    between atoms: C_1  and  C_2 
REMARK    2  A    between atoms: C_2  and  C_3 
REMARK    3  A    between atoms: C_3  and  C_4 
REMARK    4  A    between atoms: C_4  and  C_5 
REMARK    5  A    between atoms: C_5  and  O_7 
REMARK    6  A    between atoms: O_7  and  C_8 
REMARK    7  A    between atoms: C_8  and  C_9 
REMARK    8  A    between atoms: C_9  and  C_10 
REMARK    9  A    between atoms: C_10  and  C_12 
REMARK   10  A    between atoms: C_10  and  C_13 
REMARK   11  A    between atoms: C_13  and  C_14 
REMARK   12  A    between atoms: C_14  and  C_15 
REMARK   13  A    between atoms: C_16  and  C_17 
REMARK   14  A    between atoms: C_16  and  C_18 
ROOT
ATOM      1  C   LIG d   1       3.811  -0.017  -6.744  0.00  0.00    -0.041 C 
ATOM      2  H   LIG d   1       4.413   0.830  -7.077  0.00  0.00     0.030 H 
ENDROOT
BRANCH   1   3
ATOM      3  C   LIG d   1       4.665  -0.933  -5.866  0.00  0.00    -0.016 C 
ATOM      4  H   LIG d   1       4.916  -1.837  -6.421  0.00  0.00     0.030 H 
ATOM      5  H   LIG d   1       4.104  -1.201  -4.970  0.00  0.00     0.030 H 
BRANCH   3   6
ATOM      6  C   LIG d   1       5.950  -0.206  -5.465  0.00  0.00     0.093 C 
ATOM      7  H   LIG d   1       5.829   0.864  -5.632  0.00  0.00     0.070 H 
ATOM      8  H   LIG d   1       6.779  -0.576  -6.069  0.00  0.00     0.070 H 
BRANCH   6   9
ATOM      9  O   LIG d   1       6.226  -0.449  -4.061  0.00  0.00    -0.465 OA
BRANCH   9  10
ATOM     10  C   LIG d   1       5.834   0.495  -3.191  0.00  0.00     0.307 C 
ATOM     11  O   LIG d   1       6.211   1.636  -3.328  0.00  0.00    -0.251 OA
BRANCH  10  12
ATOM     12  C   LIG d   1       4.926   0.135  -2.045  0.00  0.00     0.045 C 
ATOM     13  H   LIG d   1       5.078  -0.910  -1.775  0.00  0.00     0.038 H 
ATOM     14  H   LIG d   1       5.155   0.768  -1.187  0.00  0.00     0.038 H 
BRANCH  12  15
ATOM     15  C   LIG d   1       3.470   0.347  -2.461  0.00  0.00    -0.043 C 
ATOM     16  H   LIG d   1       2.931   0.849  -1.657  0.00  0.00     0.027 H 
ATOM     17  H   LIG d   1       3.434   0.961  -3.361  0.00  0.00     0.027 H 
BRANCH  15  18
ATOM     18  C   LIG d   1       2.816  -1.009  -2.742  0.00  0.00    -0.055 C 
ATOM     19  H   LIG d   1       1.888  -1.088  -2.178  0.00  0.00     0.026 H 
ATOM     20  H   LIG d   1       2.602  -1.094  -3.808  0.00  0.00     0.026 H 
BRANCH  18  21
ATOM     21  C   LIG d   1       3.767  -2.131  -2.321  0.00  0.00    -0.065 C 
ATOM     22  H   LIG d   1       3.745  -2.925  -3.067  0.00  0.00     0.023 H 
ATOM     23  H   LIG d   1       4.780  -1.738  -2.239  0.00  0.00     0.023 H 
ATOM     24  H   LIG d   1       3.453  -2.530  -1.357  0.00  0.00     0.023 H 
ENDBRANCH  18  21
ENDBRANCH  15  18
ENDBRANCH  12  15
ENDBRANCH  10  12
ENDBRANCH   9  10
ENDBRANCH   6   9
ENDBRANCH   3   6
ENDBRANCH   1   3
BRANCH   1  25
ATOM     25  C   LIG d   1       2.615   0.493  -5.939  0.00  0.00    -0.062 C 
ATOM     26  H   LIG d   1       1.791  -0.216  -6.023  0.00  0.00     0.023 H 
ATOM     27  H   LIG d   1       2.899   0.598  -4.891  0.00  0.00     0.023 H 
ATOM     28  H   LIG d   1       2.301   1.462  -6.328  0.00  0.00     0.023 H 
ENDBRANCH   1  25
BRANCH   1  29
ATOM     29  C   LIG d   1       3.311  -0.796  -7.962  0.00  0.00    -0.047 C 
ATOM     30  H   LIG d   1       4.139  -1.352  -8.403  0.00  0.00     0.027 H 
ATOM     31  H   LIG d   1       2.531  -1.492  -7.652  0.00  0.00     0.027 H 
BRANCH  29  32
ATOM     32  C   LIG d   1       2.744   0.179  -8.995  0.00  0.00    -0.034 C 
ATOM     33  H   LIG d   1       2.290   1.028  -8.484  0.00  0.00     0.031 H 
ATOM     34  H   LIG d   1       3.548   0.532  -9.641  0.00  0.00     0.031 H 
BRANCH  32  35
ATOM     35  C   LIG d   1       1.701  -0.521  -9.828  0.00  0.00    -0.085 C 
ATOM     36  C   LIG d   1       1.964  -0.846 -11.070  0.00  0.00    -0.080 C 
ATOM     37  H   LIG d   1       0.738  -0.756  -9.401  0.00  0.00     0.057 H 
BRANCH  36  38
ATOM     38  C   LIG d   1       3.253  -0.396 -11.709  0.00  0.00    -0.044 C 
ATOM     39  H   LIG d   1       3.595  -1.157 -12.410  0.00  0.00     0.027 H 
ATOM     40  H   LIG d   1       3.087   0.541 -12.242  0.00  0.00     0.027 H 
ATOM     41  H   LIG d   1       4.008  -0.247 -10.938  0.00  0.00     0.027 H 
ENDBRANCH  36  38
BRANCH  36  42
ATOM     42  C   LIG d   1       0.978  -1.668 -11.858  0.00  0.00    -0.044 C 
ATOM     43  H   LIG d   1       1.304  -1.729 -12.896  0.00  0.00     0.027 H 
ATOM     44  H   LIG d   1       0.922  -2.671 -11.435  0.00  0.00     0.027 H 
ATOM     45  H   LIG d   1      -0.005  -1.199 -11.813  0.00  0.00     0.027 H 
ENDBRANCH  36  42
ENDBRANCH  32  35
ENDBRANCH  29  32
ENDBRANCH   1  29
TORSDOF 14
ENDMDL
