MODEL 1
REMARK VINA RESULT:      -6.7      0.000      0.000
REMARK  7 active torsions:
REMARK  status: ('A' for Active; 'I' for Inactive)
REMARK    1  A    between atoms: C_4  and  C_7 
REMARK    2  A    between atoms: C_7  and  N_8 
REMARK       I    between atoms: N_8  and  C_9 
REMARK    3  A    between atoms: C_9  and  C_11 
REMARK    4  A    between atoms: C_11  and  C_12 
REMARK    5  A    between atoms: C_12  and  N_13 
REMARK    6  A    between atoms: N_13  and  N_14 
REMARK       I    between atoms: N_14  and  C_15 
REMARK    7  A    between atoms: C_15  and  C_17 
ROOT
ATOM      1  C   LIG d   1       2.891  -0.667  -8.322  0.00  0.00     0.038 C 
ATOM      2  H   LIG d   1       2.157  -1.463  -8.194  0.00  0.00     0.037 H 
ATOM      3  H   LIG d   1       2.675  -0.116  -9.237  0.00  0.00     0.037 H 
ENDROOT
BRANCH   1   4
ATOM      4  C   LIG d   1       2.824   0.271  -7.144  0.00  0.00     0.214 C 
ATOM      5  N   LIG d   1       2.390  -0.178  -5.949  0.00  0.00    -0.311 N 
ATOM      6  H   LIG d   1       2.120  -1.103  -5.847  0.00  0.00     0.149 HD
ATOM      7  O   LIG d   1       3.162   1.429  -7.271  0.00  0.00    -0.276 OA
BRANCH   5   8
ATOM      8  C   LIG d   1       2.325   0.734  -4.804  0.00  0.00     0.037 C 
ATOM      9  H   LIG d   1       1.286   0.859  -4.497  0.00  0.00     0.051 H 
ATOM     10  H   LIG d   1       2.740   1.701  -5.086  0.00  0.00     0.051 H 
BRANCH   8  11
ATOM     11  C   LIG d   1       3.122   0.161  -3.660  0.00  0.00    -0.030 A 
ATOM     12  C   LIG d   1       3.856   0.998  -2.840  0.00  0.00    -0.057 A 
ATOM     13  C   LIG d   1       4.585   0.472  -1.791  0.00  0.00    -0.061 A 
ATOM     14  H   LIG d   1       3.859   2.062  -3.020  0.00  0.00     0.062 H 
ATOM     15  C   LIG d   1       4.580  -0.892  -1.560  0.00  0.00    -0.062 A 
ATOM     16  H   LIG d   1       5.159   1.125  -1.151  0.00  0.00     0.062 H 
ATOM     17  C   LIG d   1       3.845  -1.728  -2.379  0.00  0.00    -0.061 A 
ATOM     18  H   LIG d   1       5.153  -1.303  -0.743  0.00  0.00     0.062 H 
ATOM     19  C   LIG d   1       3.117  -1.203  -3.430  0.00  0.00    -0.057 A 
ATOM     20  H   LIG d   1       3.841  -2.793  -2.199  0.00  0.00     0.062 H 
ATOM     21  H   LIG d   1       2.543  -1.856  -4.070  0.00  0.00     0.062 H 
ENDBRANCH   8  11
ENDBRANCH   5   8
ENDBRANCH   1   4
BRANCH   1  22
ATOM     22  C   LIG d   1       4.292  -1.274  -8.411  0.00  0.00     0.022 C 
ATOM     23  H   LIG d   1       4.234  -2.253  -8.886  0.00  0.00     0.044 H 
ATOM     24  H   LIG d   1       4.934  -0.621  -9.002  0.00  0.00     0.044 H 
BRANCH  22  25
ATOM     25  N   LIG d   1       4.850  -1.418  -7.060  0.00  0.00    -0.240 NA
ATOM     26  H   LIG d   1       4.116  -1.473  -6.369  0.00  0.00     0.144 HD
BRANCH  25  27
ATOM     27  N   LIG d   1       5.713  -0.399  -6.775  0.00  0.00    -0.247 N 
ATOM     28  C   LIG d   1       6.413  -0.410  -5.624  0.00  0.00     0.258 C 
ATOM     29  O   LIG d   1       6.276  -1.327  -4.838  0.00  0.00    -0.269 OA
ATOM     30  H   LIG d   1       5.823   0.333  -7.403  0.00  0.00     0.169 HD
BRANCH  28  31
ATOM     31  C   LIG d   1       7.349   0.697  -5.316  0.00  0.00     0.041 A 
ATOM     32  C   LIG d   1       7.581   1.095  -3.995  0.00  0.00    -0.031 A 
ATOM     33  C   LIG d   1       8.467   2.127  -3.753  0.00  0.00     0.028 A 
ATOM     34  H   LIG d   1       7.079   0.600  -3.177  0.00  0.00     0.064 H 
ATOM     35  N   LIG d   1       9.079   2.740  -4.745  0.00  0.00    -0.263 NA
ATOM     36  H   LIG d   1       8.656   2.439  -2.736  0.00  0.00     0.083 H 
ATOM     37  C   LIG d   1       8.885   2.401  -6.004  0.00  0.00     0.028 A 
ATOM     38  C   LIG d   1       8.021   1.375  -6.337  0.00  0.00    -0.031 A 
ATOM     39  H   LIG d   1       9.408   2.931  -6.786  0.00  0.00     0.083 H 
ATOM     40  H   LIG d   1       7.867   1.101  -7.370  0.00  0.00     0.064 H 
ENDBRANCH  28  31
ENDBRANCH  25  27
ENDBRANCH  22  25
ENDBRANCH   1  22
TORSDOF 7
ENDMDL
MODEL 2
REMARK VINA RESULT:      -6.6      3.620      4.886
REMARK  7 active torsions:
REMARK  status: ('A' for Active; 'I' for Inactive)
REMARK    1  A    between atoms: C_4  and  C_7 
REMARK    2  A    between atoms: C_7  and  N_8 
REMARK       I    between atoms: N_8  and  C_9 
REMARK    3  A    between atoms: C_9  and  C_11 
REMARK    4  A    between atoms: C_11  and  C_12 
REMARK    5  A    between atoms: C_12  and  N_13 
REMARK    6  A    between atoms: N_13  and  N_14 
REMARK       I    between atoms: N_14  and  C_15 
REMARK    7  A    between atoms: C_15  and  C_17 
ROOT
ATOM      1  C   LIG d   1       3.174  -0.892  -8.337  0.00  0.00     0.038 C 
ATOM      2  H   LIG d   1       2.232  -1.428  -8.452  0.00  0.00     0.037 H 
ATOM      3  H   LIG d   1       3.415  -0.376  -9.266  0.00  0.00     0.037 H 
ENDROOT
BRANCH   1   4
ATOM      4  C   LIG d   1       3.047   0.114  -7.222  0.00  0.00     0.214 C 
ATOM      5  N   LIG d   1       2.518  -0.255  -6.038  0.00  0.00    -0.311 N 
ATOM      6  H   LIG d   1       2.219  -1.167  -5.904  0.00  0.00     0.149 HD
ATOM      7  O   LIG d   1       3.421   1.256  -7.389  0.00  0.00    -0.276 OA
BRANCH   5   8
ATOM      8  C   LIG d   1       2.394   0.723  -4.954  0.00  0.00     0.037 C 
ATOM      9  H   LIG d   1       1.341   0.853  -4.700  0.00  0.00     0.051 H 
ATOM     10  H   LIG d   1       2.810   1.677  -5.277  0.00  0.00     0.051 H 
BRANCH   8  11
ATOM     11  C   LIG d   1       3.145   0.230  -3.745  0.00  0.00    -0.030 A 
ATOM     12  C   LIG d   1       3.737   1.134  -2.882  0.00  0.00    -0.057 A 
ATOM     13  C   LIG d   1       4.425   0.682  -1.772  0.00  0.00    -0.061 A 
ATOM     14  H   LIG d   1       3.660   2.193  -3.076  0.00  0.00     0.062 H 
ATOM     15  C   LIG d   1       4.522  -0.675  -1.525  0.00  0.00    -0.062 A 
ATOM     16  H   LIG d   1       4.887   1.387  -1.099  0.00  0.00     0.062 H 
ATOM     17  C   LIG d   1       3.930  -1.579  -2.387  0.00  0.00    -0.061 A 
ATOM     18  H   LIG d   1       5.063  -1.029  -0.660  0.00  0.00     0.062 H 
ATOM     19  C   LIG d   1       3.242  -1.127  -3.497  0.00  0.00    -0.057 A 
ATOM     20  H   LIG d   1       4.005  -2.639  -2.193  0.00  0.00     0.062 H 
ATOM     21  H   LIG d   1       2.780  -1.833  -4.171  0.00  0.00     0.062 H 
ENDBRANCH   8  11
ENDBRANCH   5   8
ENDBRANCH   1   4
BRANCH   1  22
ATOM     22  C   LIG d   1       4.289  -1.885  -8.002  0.00  0.00     0.022 C 
ATOM     23  H   LIG d   1       4.507  -2.495  -8.877  0.00  0.00     0.044 H 
ATOM     24  H   LIG d   1       5.185  -1.339  -7.706  0.00  0.00     0.044 H 
BRANCH  22  25
ATOM     25  N   LIG d   1       3.856  -2.751  -6.897  0.00  0.00    -0.240 NA
ATOM     26  H   LIG d   1       3.546  -2.203  -6.108  0.00  0.00     0.144 HD
BRANCH  25  27
ATOM     27  N   LIG d   1       4.851  -3.613  -6.532  0.00  0.00    -0.247 N 
ATOM     28  C   LIG d   1       4.547  -4.868  -6.145  0.00  0.00     0.258 C 
ATOM     29  O   LIG d   1       3.388  -5.232  -6.120  0.00  0.00    -0.269 OA
ATOM     30  H   LIG d   1       5.776  -3.322  -6.553  0.00  0.00     0.169 HD
BRANCH  28  31
ATOM     31  C   LIG d   1       5.627  -5.802  -5.750  0.00  0.00     0.041 A 
ATOM     32  C   LIG d   1       5.370  -7.168  -5.584  0.00  0.00    -0.031 A 
ATOM     33  C   LIG d   1       6.408  -8.004  -5.220  0.00  0.00     0.028 A 
ATOM     34  H   LIG d   1       4.378  -7.562  -5.742  0.00  0.00     0.064 H 
ATOM     35  N   LIG d   1       7.621  -7.530  -5.019  0.00  0.00    -0.263 NA
ATOM     36  H   LIG d   1       6.221  -9.061  -5.094  0.00  0.00     0.083 H 
ATOM     37  C   LIG d   1       7.905  -6.251  -5.159  0.00  0.00     0.028 A 
ATOM     38  C   LIG d   1       6.928  -5.344  -5.526  0.00  0.00    -0.031 A 
ATOM     39  H   LIG d   1       8.913  -5.906  -4.984  0.00  0.00     0.083 H 
ATOM     40  H   LIG d   1       7.167  -4.297  -5.640  0.00  0.00     0.064 H 
ENDBRANCH  28  31
ENDBRANCH  25  27
ENDBRANCH  22  25
ENDBRANCH   1  22
TORSDOF 7
ENDMDL
MODEL 3
REMARK VINA RESULT:      -6.5      3.349      4.890
REMARK  7 active torsions:
REMARK  status: ('A' for Active; 'I' for Inactive)
REMARK    1  A    between atoms: C_4  and  C_7 
REMARK    2  A    between atoms: C_7  and  N_8 
REMARK       I    between atoms: N_8  and  C_9 
REMARK    3  A    between atoms: C_9  and  C_11 
REMARK    4  A    between atoms: C_11  and  C_12 
REMARK    5  A    between atoms: C_12  and  N_13 
REMARK    6  A    between atoms: N_13  and  N_14 
REMARK       I    between atoms: N_14  and  C_15 
REMARK    7  A    between atoms: C_15  and  C_17 
ROOT
ATOM      1  C   LIG d   1       5.905  -4.334  -6.193  0.00  0.00     0.038 C 
ATOM      2  H   LIG d   1       6.786  -3.695  -6.134  0.00  0.00     0.037 H 
ATOM      3  H   LIG d   1       6.213  -5.379  -6.215  0.00  0.00     0.037 H 
ENDROOT
BRANCH   1   4
ATOM      4  C   LIG d   1       5.029  -4.095  -4.990  0.00  0.00     0.214 C 
ATOM      5  N   LIG d   1       5.138  -2.944  -4.295  0.00  0.00    -0.311 N 
ATOM      6  H   LIG d   1       5.780  -2.272  -4.569  0.00  0.00     0.149 HD
ATOM      7  O   LIG d   1       4.226  -4.936  -4.648  0.00  0.00    -0.276 OA
BRANCH   5   8
ATOM      8  C   LIG d   1       4.287  -2.712  -3.125  0.00  0.00     0.037 C 
ATOM      9  H   LIG d   1       4.771  -3.118  -2.237  0.00  0.00     0.051 H 
ATOM     10  H   LIG d   1       3.326  -3.203  -3.273  0.00  0.00     0.051 H 
BRANCH   8  11
ATOM     11  C   LIG d   1       4.072  -1.230  -2.948  0.00  0.00    -0.030 A 
ATOM     12  C   LIG d   1       4.627  -0.576  -1.864  0.00  0.00    -0.057 A 
ATOM     13  C   LIG d   1       4.432   0.782  -1.701  0.00  0.00    -0.061 A 
ATOM     14  H   LIG d   1       5.214  -1.128  -1.144  0.00  0.00     0.062 H 
ATOM     15  C   LIG d   1       3.681   1.487  -2.624  0.00  0.00    -0.062 A 
ATOM     16  H   LIG d   1       4.864   1.293  -0.855  0.00  0.00     0.062 H 
ATOM     17  C   LIG d   1       3.127   0.833  -3.709  0.00  0.00    -0.061 A 
ATOM     18  H   LIG d   1       3.524   2.547  -2.495  0.00  0.00     0.062 H 
ATOM     19  C   LIG d   1       3.321  -0.525  -3.870  0.00  0.00    -0.057 A 
ATOM     20  H   LIG d   1       2.540   1.384  -4.430  0.00  0.00     0.062 H 
ATOM     21  H   LIG d   1       2.888  -1.036  -4.718  0.00  0.00     0.062 H 
ENDBRANCH   8  11
ENDBRANCH   5   8
ENDBRANCH   1   4
BRANCH   1  22
ATOM     22  C   LIG d   1       5.122  -4.006  -7.466  0.00  0.00     0.022 C 
ATOM     23  H   LIG d   1       5.733  -3.383  -8.118  0.00  0.00     0.044 H 
ATOM     24  H   LIG d   1       4.866  -4.931  -7.983  0.00  0.00     0.044 H 
BRANCH  22  25
ATOM     25  N   LIG d   1       3.891  -3.286  -7.113  0.00  0.00    -0.240 NA
ATOM     26  H   LIG d   1       3.079  -3.751  -7.491  0.00  0.00     0.144 HD
BRANCH  25  27
ATOM     27  N   LIG d   1       3.948  -1.986  -7.527  0.00  0.00    -0.247 N 
ATOM     28  C   LIG d   1       3.300  -1.606  -8.646  0.00  0.00     0.258 C 
ATOM     29  O   LIG d   1       2.665  -2.421  -9.286  0.00  0.00    -0.269 OA
ATOM     30  H   LIG d   1       4.454  -1.336  -7.015  0.00  0.00     0.169 HD
BRANCH  28  31
ATOM     31  C   LIG d   1       3.361  -0.195  -9.094  0.00  0.00     0.041 A 
ATOM     32  C   LIG d   1       3.790   0.130 -10.386  0.00  0.00    -0.031 A 
ATOM     33  C   LIG d   1       3.826   1.458 -10.764  0.00  0.00     0.028 A 
ATOM     34  H   LIG d   1       4.083  -0.646 -11.077  0.00  0.00     0.064 H 
ATOM     35  N   LIG d   1       3.476   2.411  -9.924  0.00  0.00    -0.263 NA
ATOM     36  H   LIG d   1       4.151   1.719 -11.761  0.00  0.00     0.083 H 
ATOM     37  C   LIG d   1       3.072   2.149  -8.697  0.00  0.00     0.028 A 
ATOM     38  C   LIG d   1       2.999   0.847  -8.237  0.00  0.00    -0.031 A 
ATOM     39  H   LIG d   1       2.795   2.961  -8.043  0.00  0.00     0.083 H 
ATOM     40  H   LIG d   1       2.667   0.639  -7.231  0.00  0.00     0.064 H 
ENDBRANCH  28  31
ENDBRANCH  25  27
ENDBRANCH  22  25
ENDBRANCH   1  22
TORSDOF 7
ENDMDL
MODEL 4
REMARK VINA RESULT:      -6.3      2.009      2.762
REMARK  7 active torsions:
REMARK  status: ('A' for Active; 'I' for Inactive)
REMARK    1  A    between atoms: C_4  and  C_7 
REMARK    2  A    between atoms: C_7  and  N_8 
REMARK       I    between atoms: N_8  and  C_9 
REMARK    3  A    between atoms: C_9  and  C_11 
REMARK    4  A    between atoms: C_11  and  C_12 
REMARK    5  A    between atoms: C_12  and  N_13 
REMARK    6  A    between atoms: N_13  and  N_14 
REMARK       I    between atoms: N_14  and  C_15 
REMARK    7  A    between atoms: C_15  and  C_17 
ROOT
ATOM      1  C   LIG d   1       3.235   1.933  -8.341  0.00  0.00     0.038 C 
ATOM      2  H   LIG d   1       2.421   2.199  -9.016  0.00  0.00     0.037 H 
ATOM      3  H   LIG d   1       3.513   2.801  -7.745  0.00  0.00     0.037 H 
ENDROOT
BRANCH   1   4
ATOM      4  C   LIG d   1       2.785   0.821  -7.427  0.00  0.00     0.214 C 
ATOM      5  N   LIG d   1       2.712   1.030  -6.097  0.00  0.00    -0.311 N 
ATOM      6  H   LIG d   1       2.949   1.895  -5.729  0.00  0.00     0.149 HD
ATOM      7  O   LIG d   1       2.489  -0.261  -7.888  0.00  0.00    -0.276 OA
BRANCH   5   8
ATOM      8  C   LIG d   1       2.275  -0.050  -5.209  0.00  0.00     0.037 C 
ATOM      9  H   LIG d   1       2.418  -1.010  -5.707  0.00  0.00     0.051 H 
ATOM     10  H   LIG d   1       1.221   0.082  -4.968  0.00  0.00     0.051 H 
BRANCH   8  11
ATOM     11  C   LIG d   1       3.088  -0.016  -3.940  0.00  0.00    -0.030 A 
ATOM     12  C   LIG d   1       3.541   1.190  -3.441  0.00  0.00    -0.057 A 
ATOM     13  C   LIG d   1       4.286   1.222  -2.277  0.00  0.00    -0.061 A 
ATOM     14  H   LIG d   1       3.313   2.109  -3.962  0.00  0.00     0.062 H 
ATOM     15  C   LIG d   1       4.577   0.045  -1.611  0.00  0.00    -0.062 A 
ATOM     16  H   LIG d   1       4.640   2.164  -1.888  0.00  0.00     0.062 H 
ATOM     17  C   LIG d   1       4.123  -1.162  -2.110  0.00  0.00    -0.061 A 
ATOM     18  H   LIG d   1       5.162   0.069  -0.704  0.00  0.00     0.062 H 
ATOM     19  C   LIG d   1       3.379  -1.193  -3.274  0.00  0.00    -0.057 A 
ATOM     20  H   LIG d   1       4.350  -2.081  -1.590  0.00  0.00     0.062 H 
ATOM     21  H   LIG d   1       3.025  -2.136  -3.664  0.00  0.00     0.062 H 
ENDBRANCH   8  11
ENDBRANCH   5   8
ENDBRANCH   1   4
BRANCH   1  22
ATOM     22  C   LIG d   1       4.442   1.465  -9.156  0.00  0.00     0.022 C 
ATOM     23  H   LIG d   1       4.268   0.451  -9.513  0.00  0.00     0.044 H 
ATOM     24  H   LIG d   1       4.585   2.130 -10.008  0.00  0.00     0.044 H 
BRANCH  22  25
ATOM     25  N   LIG d   1       5.643   1.488  -8.310  0.00  0.00    -0.240 NA
ATOM     26  H   LIG d   1       6.477   1.583  -8.869  0.00  0.00     0.144 HD
BRANCH  25  27
ATOM     27  N   LIG d   1       5.707   0.375  -7.521  0.00  0.00    -0.247 N 
ATOM     28  C   LIG d   1       6.490   0.370  -6.424  0.00  0.00     0.258 C 
ATOM     29  O   LIG d   1       7.138   1.357  -6.137  0.00  0.00    -0.269 OA
ATOM     30  H   LIG d   1       5.189  -0.413  -7.750  0.00  0.00     0.169 HD
BRANCH  28  31
ATOM     31  C   LIG d   1       6.559  -0.837  -5.569  0.00  0.00     0.041 A 
ATOM     32  C   LIG d   1       7.257  -0.820  -4.356  0.00  0.00    -0.031 A 
ATOM     33  C   LIG d   1       7.291  -1.967  -3.587  0.00  0.00     0.028 A 
ATOM     34  H   LIG d   1       7.758   0.078  -4.025  0.00  0.00     0.064 H 
ATOM     35  N   LIG d   1       6.688  -3.068  -3.987  0.00  0.00    -0.263 NA
ATOM     36  H   LIG d   1       7.824  -1.962  -2.647  0.00  0.00     0.083 H 
ATOM     37  C   LIG d   1       6.024  -3.130  -5.124  0.00  0.00     0.028 A 
ATOM     38  C   LIG d   1       5.934  -2.027  -5.953  0.00  0.00    -0.031 A 
ATOM     39  H   LIG d   1       5.546  -4.053  -5.413  0.00  0.00     0.083 H 
ATOM     40  H   LIG d   1       5.388  -2.083  -6.883  0.00  0.00     0.064 H 
ENDBRANCH  28  31
ENDBRANCH  25  27
ENDBRANCH  22  25
ENDBRANCH   1  22
TORSDOF 7
ENDMDL
MODEL 5
REMARK VINA RESULT:      -6.1      1.927      5.199
REMARK  7 active torsions:
REMARK  status: ('A' for Active; 'I' for Inactive)
REMARK    1  A    between atoms: C_4  and  C_7 
REMARK    2  A    between atoms: C_7  and  N_8 
REMARK       I    between atoms: N_8  and  C_9 
REMARK    3  A    between atoms: C_9  and  C_11 
REMARK    4  A    between atoms: C_11  and  C_12 
REMARK    5  A    between atoms: C_12  and  N_13 
REMARK    6  A    between atoms: N_13  and  N_14 
REMARK       I    between atoms: N_14  and  C_15 
REMARK    7  A    between atoms: C_15  and  C_17 
ROOT
ATOM      1  C   LIG d   1       8.804  -0.002  -6.052  0.00  0.00     0.038 C 
ATOM      2  H   LIG d   1       9.317   0.663  -5.357  0.00  0.00     0.037 H 
ATOM      3  H   LIG d   1       9.540  -0.560  -6.632  0.00  0.00     0.037 H 
ENDROOT
BRANCH   1   4
ATOM      4  C   LIG d   1       7.940  -0.965  -5.280  0.00  0.00     0.214 C 
ATOM      5  N   LIG d   1       7.750  -0.788  -3.957  0.00  0.00    -0.311 N 
ATOM      6  H   LIG d   1       8.169  -0.042  -3.503  0.00  0.00     0.149 HD
ATOM      7  O   LIG d   1       7.415  -1.899  -5.848  0.00  0.00    -0.276 OA
BRANCH   5   8
ATOM      8  C   LIG d   1       6.909  -1.725  -3.206  0.00  0.00     0.037 C 
ATOM      9  H   LIG d   1       7.389  -1.962  -2.256  0.00  0.00     0.051 H 
ATOM     10  H   LIG d   1       6.777  -2.638  -3.785  0.00  0.00     0.051 H 
BRANCH   8  11
ATOM     11  C   LIG d   1       5.565  -1.096  -2.947  0.00  0.00    -0.030 A 
ATOM     12  C   LIG d   1       5.478   0.248  -2.637  0.00  0.00    -0.057 A 
ATOM     13  C   LIG d   1       4.245   0.826  -2.400  0.00  0.00    -0.061 A 
ATOM     14  H   LIG d   1       6.375   0.847  -2.580  0.00  0.00     0.062 H 
ATOM     15  C   LIG d   1       3.097   0.058  -2.474  0.00  0.00    -0.062 A 
ATOM     16  H   LIG d   1       4.177   1.875  -2.158  0.00  0.00     0.062 H 
ATOM     17  C   LIG d   1       3.183  -1.286  -2.785  0.00  0.00    -0.061 A 
ATOM     18  H   LIG d   1       2.134   0.508  -2.286  0.00  0.00     0.062 H 
ATOM     19  C   LIG d   1       4.417  -1.864  -3.021  0.00  0.00    -0.057 A 
ATOM     20  H   LIG d   1       2.287  -1.886  -2.843  0.00  0.00     0.062 H 
ATOM     21  H   LIG d   1       4.484  -2.914  -3.263  0.00  0.00     0.062 H 
ENDBRANCH   8  11
ENDBRANCH   5   8
ENDBRANCH   1   4
BRANCH   1  22
ATOM     22  C   LIG d   1       7.929   0.823  -6.997  0.00  0.00     0.022 C 
ATOM     23  H   LIG d   1       8.298   1.847  -7.033  0.00  0.00     0.044 H 
ATOM     24  H   LIG d   1       7.963   0.389  -7.996  0.00  0.00     0.044 H 
BRANCH  22  25
ATOM     25  N   LIG d   1       6.543   0.819  -6.509  0.00  0.00    -0.240 NA
ATOM     26  H   LIG d   1       6.478   0.368  -5.609  0.00  0.00     0.144 HD
BRANCH  25  27
ATOM     27  N   LIG d   1       5.707   0.229  -7.413  0.00  0.00    -0.247 N 
ATOM     28  C   LIG d   1       4.452  -0.104  -7.053  0.00  0.00     0.258 C 
ATOM     29  O   LIG d   1       4.064   0.120  -5.923  0.00  0.00    -0.269 OA
ATOM     30  H   LIG d   1       6.016   0.051  -8.316  0.00  0.00     0.169 HD
BRANCH  28  31
ATOM     31  C   LIG d   1       3.545  -0.744  -8.035  0.00  0.00     0.041 A 
ATOM     32  C   LIG d   1       2.504  -0.022  -8.628  0.00  0.00    -0.031 A 
ATOM     33  C   LIG d   1       1.685  -0.656  -9.542  0.00  0.00     0.028 A 
ATOM     34  H   LIG d   1       2.345   1.017  -8.378  0.00  0.00     0.064 H 
ATOM     35  N   LIG d   1       1.868  -1.924  -9.848  0.00  0.00    -0.263 NA
ATOM     36  H   LIG d   1       0.881  -0.106 -10.009  0.00  0.00     0.083 H 
ATOM     37  C   LIG d   1       2.833  -2.643  -9.309  0.00  0.00     0.028 A 
ATOM     38  C   LIG d   1       3.702  -2.086  -8.389  0.00  0.00    -0.031 A 
ATOM     39  H   LIG d   1       2.946  -3.679  -9.589  0.00  0.00     0.083 H 
ATOM     40  H   LIG d   1       4.491  -2.680  -7.951  0.00  0.00     0.064 H 
ENDBRANCH  28  31
ENDBRANCH  25  27
ENDBRANCH  22  25
ENDBRANCH   1  22
TORSDOF 7
ENDMDL
MODEL 6
REMARK VINA RESULT:      -6.1      5.333      7.759
REMARK  7 active torsions:
REMARK  status: ('A' for Active; 'I' for Inactive)
REMARK    1  A    between atoms: C_4  and  C_7 
REMARK    2  A    between atoms: C_7  and  N_8 
REMARK       I    between atoms: N_8  and  C_9 
REMARK    3  A    between atoms: C_9  and  C_11 
REMARK    4  A    between atoms: C_11  and  C_12 
REMARK    5  A    between atoms: C_12  and  N_13 
REMARK    6  A    between atoms: N_13  and  N_14 
REMARK       I    between atoms: N_14  and  C_15 
REMARK    7  A    between atoms: C_15  and  C_17 
ROOT
ATOM      1  C   LIG d   1      10.938   2.335  -3.069  0.00  0.00     0.038 C 
ATOM      2  H   LIG d   1      10.964   1.627  -2.241  0.00  0.00     0.037 H 
ATOM      3  H   LIG d   1      11.493   1.927  -3.914  0.00  0.00     0.037 H 
ENDROOT
BRANCH   1   4
ATOM      4  C   LIG d   1       9.508   2.576  -3.479  0.00  0.00     0.214 C 
ATOM      5  N   LIG d   1       8.654   1.538  -3.587  0.00  0.00    -0.311 N 
ATOM      6  H   LIG d   1       8.960   0.637  -3.402  0.00  0.00     0.149 HD
ATOM      7  O   LIG d   1       9.125   3.703  -3.711  0.00  0.00    -0.276 OA
BRANCH   5   8
ATOM      8  C   LIG d   1       7.263   1.772  -3.986  0.00  0.00     0.037 C 
ATOM      9  H   LIG d   1       7.174   1.674  -5.068  0.00  0.00     0.051 H 
ATOM     10  H   LIG d   1       6.964   2.776  -3.685  0.00  0.00     0.051 H 
BRANCH   8  11
ATOM     11  C   LIG d   1       6.371   0.760  -3.314  0.00  0.00    -0.030 A 
ATOM     12  C   LIG d   1       6.596  -0.591  -3.501  0.00  0.00    -0.057 A 
ATOM     13  C   LIG d   1       5.779  -1.520  -2.884  0.00  0.00    -0.061 A 
ATOM     14  H   LIG d   1       7.411  -0.921  -4.128  0.00  0.00     0.062 H 
ATOM     15  C   LIG d   1       4.736  -1.096  -2.080  0.00  0.00    -0.062 A 
ATOM     16  H   LIG d   1       5.954  -2.575  -3.029  0.00  0.00     0.062 H 
ATOM     17  C   LIG d   1       4.512   0.254  -1.892  0.00  0.00    -0.061 A 
ATOM     18  H   LIG d   1       4.096  -1.822  -1.601  0.00  0.00     0.062 H 
ATOM     19  C   LIG d   1       5.329   1.183  -2.510  0.00  0.00    -0.057 A 
ATOM     20  H   LIG d   1       3.698   0.585  -1.264  0.00  0.00     0.062 H 
ATOM     21  H   LIG d   1       5.153   2.239  -2.364  0.00  0.00     0.062 H 
ENDBRANCH   8  11
ENDBRANCH   5   8
ENDBRANCH   1   4
BRANCH   1  22
ATOM     22  C   LIG d   1      11.572   3.656  -2.632  0.00  0.00     0.022 C 
ATOM     23  H   LIG d   1      12.656   3.552  -2.620  0.00  0.00     0.044 H 
ATOM     24  H   LIG d   1      11.289   4.444  -3.330  0.00  0.00     0.044 H 
BRANCH  22  25
ATOM     25  N   LIG d   1      11.099   4.004  -1.285  0.00  0.00    -0.240 NA
ATOM     26  H   LIG d   1      10.390   3.357  -0.973  0.00  0.00     0.144 HD
BRANCH  25  27
ATOM     27  N   LIG d   1      10.642   5.290  -1.243  0.00  0.00    -0.247 N 
ATOM     28  C   LIG d   1      11.056   6.121  -0.266  0.00  0.00     0.258 C 
ATOM     29  O   LIG d   1      11.836   5.726   0.577  0.00  0.00    -0.269 OA
ATOM     30  H   LIG d   1      10.019   5.605  -1.917  0.00  0.00     0.169 HD
BRANCH  28  31
ATOM     31  C   LIG d   1      10.559   7.516  -0.222  0.00  0.00     0.041 A 
ATOM     32  C   LIG d   1       9.440   7.905  -0.966  0.00  0.00    -0.031 A 
ATOM     33  C   LIG d   1       9.008   9.215  -0.890  0.00  0.00     0.028 A 
ATOM     34  H   LIG d   1       8.920   7.191  -1.586  0.00  0.00     0.064 H 
ATOM     35  N   LIG d   1       9.641  10.094  -0.140  0.00  0.00    -0.263 NA
ATOM     36  H   LIG d   1       8.142   9.524  -1.458  0.00  0.00     0.083 H 
ATOM     37  C   LIG d   1      10.702   9.772   0.573  0.00  0.00     0.028 A 
ATOM     38  C   LIG d   1      11.199   8.482   0.560  0.00  0.00    -0.031 A 
ATOM     39  H   LIG d   1      11.190  10.524   1.173  0.00  0.00     0.083 H 
ATOM     40  H   LIG d   1      12.069   8.224   1.147  0.00  0.00     0.064 H 
ENDBRANCH  28  31
ENDBRANCH  25  27
ENDBRANCH  22  25
ENDBRANCH   1  22
TORSDOF 7
ENDMDL
MODEL 7
REMARK VINA RESULT:      -6.0      2.690      4.424
REMARK  7 active torsions:
REMARK  status: ('A' for Active; 'I' for Inactive)
REMARK    1  A    between atoms: C_4  and  C_7 
REMARK    2  A    between atoms: C_7  and  N_8 
REMARK       I    between atoms: N_8  and  C_9 
REMARK    3  A    between atoms: C_9  and  C_11 
REMARK    4  A    between atoms: C_11  and  C_12 
REMARK    5  A    between atoms: C_12  and  N_13 
REMARK    6  A    between atoms: N_13  and  N_14 
REMARK       I    between atoms: N_14  and  C_15 
REMARK    7  A    between atoms: C_15  and  C_17 
ROOT
ATOM      1  C   LIG d   1       5.451  -5.008  -6.082  0.00  0.00     0.038 C 
ATOM      2  H   LIG d   1       5.970  -5.921  -6.375  0.00  0.00     0.037 H 
ATOM      3  H   LIG d   1       4.577  -5.263  -5.483  0.00  0.00     0.037 H 
ENDROOT
BRANCH   1   4
ATOM      4  C   LIG d   1       6.379  -4.140  -5.272  0.00  0.00     0.214 C 
ATOM      5  N   LIG d   1       5.888  -3.094  -4.578  0.00  0.00    -0.311 N 
ATOM      6  H   LIG d   1       4.938  -2.900  -4.600  0.00  0.00     0.149 HD
ATOM      7  O   LIG d   1       7.567  -4.383  -5.244  0.00  0.00    -0.276 OA
BRANCH   5   8
ATOM      8  C   LIG d   1       6.790  -2.249  -3.790  0.00  0.00     0.037 C 
ATOM      9  H   LIG d   1       7.553  -1.825  -4.443  0.00  0.00     0.051 H 
ATOM     10  H   LIG d   1       7.266  -2.851  -3.016  0.00  0.00     0.051 H 
BRANCH   8  11
ATOM     11  C   LIG d   1       6.003  -1.136  -3.148  0.00  0.00    -0.030 A 
ATOM     12  C   LIG d   1       6.362   0.180  -3.366  0.00  0.00    -0.057 A 
ATOM     13  C   LIG d   1       5.639   1.201  -2.778  0.00  0.00    -0.061 A 
ATOM     14  H   LIG d   1       7.208   0.411  -3.996  0.00  0.00     0.062 H 
ATOM     15  C   LIG d   1       4.555   0.904  -1.972  0.00  0.00    -0.062 A 
ATOM     16  H   LIG d   1       5.920   2.229  -2.947  0.00  0.00     0.062 H 
ATOM     17  C   LIG d   1       4.195  -0.412  -1.755  0.00  0.00    -0.061 A 
ATOM     18  H   LIG d   1       3.993   1.701  -1.509  0.00  0.00     0.062 H 
ATOM     19  C   LIG d   1       4.919  -1.433  -2.342  0.00  0.00    -0.057 A 
ATOM     20  H   LIG d   1       3.348  -0.644  -1.125  0.00  0.00     0.062 H 
ATOM     21  H   LIG d   1       4.637  -2.462  -2.172  0.00  0.00     0.062 H 
ENDBRANCH   8  11
ENDBRANCH   5   8
ENDBRANCH   1   4
BRANCH   1  22
ATOM     22  C   LIG d   1       5.007  -4.250  -7.335  0.00  0.00     0.022 C 
ATOM     23  H   LIG d   1       5.836  -3.649  -7.708  0.00  0.00     0.044 H 
ATOM     24  H   LIG d   1       4.700  -4.962  -8.101  0.00  0.00     0.044 H 
BRANCH  22  25
ATOM     25  N   LIG d   1       3.878  -3.372  -7.001  0.00  0.00    -0.240 NA
ATOM     26  H   LIG d   1       2.998  -3.844  -7.148  0.00  0.00     0.144 HD
BRANCH  25  27
ATOM     27  N   LIG d   1       3.934  -2.209  -7.714  0.00  0.00    -0.247 N 
ATOM     28  C   LIG d   1       4.047  -1.029  -7.072  0.00  0.00     0.258 C 
ATOM     29  O   LIG d   1       4.098  -1.001  -5.859  0.00  0.00    -0.269 OA
ATOM     30  H   LIG d   1       3.894  -2.232  -8.684  0.00  0.00     0.169 HD
BRANCH  28  31
ATOM     31  C   LIG d   1       4.109   0.232  -7.847  0.00  0.00     0.041 A 
ATOM     32  C   LIG d   1       2.965   1.015  -8.037  0.00  0.00    -0.031 A 
ATOM     33  C   LIG d   1       3.069   2.187  -8.761  0.00  0.00     0.028 A 
ATOM     34  H   LIG d   1       2.017   0.710  -7.621  0.00  0.00     0.064 H 
ATOM     35  N   LIG d   1       4.221   2.564  -9.277  0.00  0.00    -0.263 NA
ATOM     36  H   LIG d   1       2.192   2.801  -8.909  0.00  0.00     0.083 H 
ATOM     37  C   LIG d   1       5.321   1.854  -9.127  0.00  0.00     0.028 A 
ATOM     38  C   LIG d   1       5.309   0.670  -8.412  0.00  0.00    -0.031 A 
ATOM     39  H   LIG d   1       6.244   2.200  -9.568  0.00  0.00     0.083 H 
ATOM     40  H   LIG d   1       6.214   0.093  -8.292  0.00  0.00     0.064 H 
ENDBRANCH  28  31
ENDBRANCH  25  27
ENDBRANCH  22  25
ENDBRANCH   1  22
TORSDOF 7
ENDMDL
MODEL 8
REMARK VINA RESULT:      -6.0      1.620      2.028
REMARK  7 active torsions:
REMARK  status: ('A' for Active; 'I' for Inactive)
REMARK    1  A    between atoms: C_4  and  C_7 
REMARK    2  A    between atoms: C_7  and  N_8 
REMARK       I    between atoms: N_8  and  C_9 
REMARK    3  A    between atoms: C_9  and  C_11 
REMARK    4  A    between atoms: C_11  and  C_12 
REMARK    5  A    between atoms: C_12  and  N_13 
REMARK    6  A    between atoms: N_13  and  N_14 
REMARK       I    between atoms: N_14  and  C_15 
REMARK    7  A    between atoms: C_15  and  C_17 
ROOT
ATOM      1  C   LIG d   1       3.091   1.947  -8.716  0.00  0.00     0.038 C 
ATOM      2  H   LIG d   1       2.503   1.772  -9.617  0.00  0.00     0.037 H 
ATOM      3  H   LIG d   1       2.685   2.801  -8.176  0.00  0.00     0.037 H 
ENDROOT
BRANCH   1   4
ATOM      4  C   LIG d   1       3.037   0.725  -7.836  0.00  0.00     0.214 C 
ATOM      5  N   LIG d   1       3.266   0.838  -6.512  0.00  0.00    -0.311 N 
ATOM      6  H   LIG d   1       3.466   1.704  -6.127  0.00  0.00     0.149 HD
ATOM      7  O   LIG d   1       2.786  -0.359  -8.317  0.00  0.00    -0.276 OA
BRANCH   5   8
ATOM      8  C   LIG d   1       3.214  -0.350  -5.655  0.00  0.00     0.037 C 
ATOM      9  H   LIG d   1       3.842  -1.133  -6.081  0.00  0.00     0.051 H 
ATOM     10  H   LIG d   1       2.185  -0.705  -5.590  0.00  0.00     0.051 H 
BRANCH   8  11
ATOM     11  C   LIG d   1       3.712   0.002  -4.277  0.00  0.00    -0.030 A 
ATOM     12  C   LIG d   1       3.204   1.107  -3.620  0.00  0.00    -0.057 A 
ATOM     13  C   LIG d   1       3.660   1.429  -2.355  0.00  0.00    -0.061 A 
ATOM     14  H   LIG d   1       2.450   1.717  -4.094  0.00  0.00     0.062 H 
ATOM     15  C   LIG d   1       4.624   0.646  -1.748  0.00  0.00    -0.062 A 
ATOM     16  H   LIG d   1       3.264   2.292  -1.842  0.00  0.00     0.062 H 
ATOM     17  C   LIG d   1       5.132  -0.460  -2.405  0.00  0.00    -0.061 A 
ATOM     18  H   LIG d   1       4.984   0.900  -0.763  0.00  0.00     0.062 H 
ATOM     19  C   LIG d   1       4.676  -0.781  -3.670  0.00  0.00    -0.057 A 
ATOM     20  H   LIG d   1       5.885  -1.072  -1.931  0.00  0.00     0.062 H 
ATOM     21  H   LIG d   1       5.073  -1.645  -4.184  0.00  0.00     0.062 H 
ENDBRANCH   8  11
ENDBRANCH   5   8
ENDBRANCH   1   4
BRANCH   1  22
ATOM     22  C   LIG d   1       4.544   2.232  -9.102  0.00  0.00     0.022 C 
ATOM     23  H   LIG d   1       4.607   2.404 -10.176  0.00  0.00     0.044 H 
ATOM     24  H   LIG d   1       4.894   3.118  -8.572  0.00  0.00     0.044 H 
BRANCH  22  25
ATOM     25  N   LIG d   1       5.382   1.081  -8.740  0.00  0.00    -0.240 NA
ATOM     26  H   LIG d   1       4.825   0.341  -8.339  0.00  0.00     0.144 HD
BRANCH  25  27
ATOM     27  N   LIG d   1       6.386   1.453  -7.893  0.00  0.00    -0.247 N 
ATOM     28  C   LIG d   1       6.816   0.601  -6.942  0.00  0.00     0.258 C 
ATOM     29  O   LIG d   1       6.310  -0.499  -6.838  0.00  0.00    -0.269 OA
ATOM     30  H   LIG d   1       6.790   2.331  -7.976  0.00  0.00     0.169 HD
BRANCH  28  31
ATOM     31  C   LIG d   1       7.905   1.005  -6.023  0.00  0.00     0.041 A 
ATOM     32  C   LIG d   1       9.232   1.064  -6.463  0.00  0.00    -0.031 A 
ATOM     33  C   LIG d   1      10.216   1.451  -5.573  0.00  0.00     0.028 A 
ATOM     34  H   LIG d   1       9.482   0.814  -7.483  0.00  0.00     0.064 H 
ATOM     35  N   LIG d   1       9.919   1.752  -4.325  0.00  0.00    -0.263 NA
ATOM     36  H   LIG d   1      11.243   1.504  -5.905  0.00  0.00     0.083 H 
ATOM     37  C   LIG d   1       8.684   1.704  -3.868  0.00  0.00     0.028 A 
ATOM     38  C   LIG d   1       7.637   1.332  -4.691  0.00  0.00    -0.031 A 
ATOM     39  H   LIG d   1       8.487   1.958  -2.837  0.00  0.00     0.083 H 
ATOM     40  H   LIG d   1       6.627   1.296  -4.310  0.00  0.00     0.064 H 
ENDBRANCH  28  31
ENDBRANCH  25  27
ENDBRANCH  22  25
ENDBRANCH   1  22
TORSDOF 7
ENDMDL
MODEL 9
REMARK VINA RESULT:      -6.0      2.793      5.235
REMARK  7 active torsions:
REMARK  status: ('A' for Active; 'I' for Inactive)
REMARK    1  A    between atoms: C_4  and  C_7 
REMARK    2  A    between atoms: C_7  and  N_8 
REMARK       I    between atoms: N_8  and  C_9 
REMARK    3  A    between atoms: C_9  and  C_11 
REMARK    4  A    between atoms: C_11  and  C_12 
REMARK    5  A    between atoms: C_12  and  N_13 
REMARK    6  A    between atoms: N_13  and  N_14 
REMARK       I    between atoms: N_14  and  C_15 
REMARK    7  A    between atoms: C_15  and  C_17 
ROOT
ATOM      1  C   LIG d   1       5.279  -5.012  -7.224  0.00  0.00     0.038 C 
ATOM      2  H   LIG d   1       5.369  -6.080  -7.421  0.00  0.00     0.037 H 
ATOM      3  H   LIG d   1       6.176  -4.500  -7.574  0.00  0.00     0.037 H 
ENDROOT
BRANCH   1   4
ATOM      4  C   LIG d   1       4.075  -4.467  -7.948  0.00  0.00     0.214 C 
ATOM      5  N   LIG d   1       4.121  -3.239  -8.502  0.00  0.00    -0.311 N 
ATOM      6  H   LIG d   1       4.928  -2.706  -8.434  0.00  0.00     0.149 HD
ATOM      7  O   LIG d   1       3.066  -5.134  -8.033  0.00  0.00    -0.276 OA
BRANCH   5   8
ATOM      8  C   LIG d   1       2.950  -2.709  -9.206  0.00  0.00     0.037 C 
ATOM      9  H   LIG d   1       2.046  -3.162  -8.799  0.00  0.00     0.051 H 
ATOM     10  H   LIG d   1       3.029  -2.942 -10.267  0.00  0.00     0.051 H 
BRANCH   8  11
ATOM     11  C   LIG d   1       2.889  -1.214  -9.023  0.00  0.00    -0.030 A 
ATOM     12  C   LIG d   1       2.674  -0.392 -10.114  0.00  0.00    -0.057 A 
ATOM     13  C   LIG d   1       2.617   0.979  -9.946  0.00  0.00    -0.061 A 
ATOM     14  H   LIG d   1       2.550  -0.822 -11.097  0.00  0.00     0.062 H 
ATOM     15  C   LIG d   1       2.775   1.528  -8.687  0.00  0.00    -0.062 A 
ATOM     16  H   LIG d   1       2.449   1.620 -10.798  0.00  0.00     0.062 H 
ATOM     17  C   LIG d   1       2.989   0.706  -7.596  0.00  0.00    -0.061 A 
ATOM     18  H   LIG d   1       2.734   2.599  -8.556  0.00  0.00     0.062 H 
ATOM     19  C   LIG d   1       3.047  -0.664  -7.764  0.00  0.00    -0.057 A 
ATOM     20  H   LIG d   1       3.112   1.135  -6.613  0.00  0.00     0.062 H 
ATOM     21  H   LIG d   1       3.215  -1.307  -6.912  0.00  0.00     0.062 H 
ENDBRANCH   8  11
ENDBRANCH   5   8
ENDBRANCH   1   4
BRANCH   1  22
ATOM     22  C   LIG d   1       5.116  -4.783  -5.720  0.00  0.00     0.022 C 
ATOM     23  H   LIG d   1       4.956  -5.739  -5.222  0.00  0.00     0.044 H 
ATOM     24  H   LIG d   1       6.017  -4.313  -5.324  0.00  0.00     0.044 H 
BRANCH  22  25
ATOM     25  N   LIG d   1       3.962  -3.907  -5.481  0.00  0.00    -0.240 NA
ATOM     26  H   LIG d   1       3.396  -3.820  -6.312  0.00  0.00     0.144 HD
BRANCH  25  27
ATOM     27  N   LIG d   1       4.361  -2.682  -5.030  0.00  0.00    -0.247 N 
ATOM     28  C   LIG d   1       4.280  -2.386  -3.718  0.00  0.00     0.258 C 
ATOM     29  O   LIG d   1       3.850  -3.210  -2.935  0.00  0.00    -0.269 OA
ATOM     30  H   LIG d   1       4.705  -2.024  -5.655  0.00  0.00     0.169 HD
BRANCH  28  31
ATOM     31  C   LIG d   1       4.714  -1.056  -3.230  0.00  0.00     0.041 A 
ATOM     32  C   LIG d   1       5.866  -0.445  -3.738  0.00  0.00    -0.031 A 
ATOM     33  C   LIG d   1       6.231   0.798  -3.259  0.00  0.00     0.028 A 
ATOM     34  H   LIG d   1       6.458  -0.937  -4.496  0.00  0.00     0.064 H 
ATOM     35  N   LIG d   1       5.518   1.401  -2.330  0.00  0.00    -0.263 NA
ATOM     36  H   LIG d   1       7.117   1.280  -3.648  0.00  0.00     0.083 H 
ATOM     37  C   LIG d   1       4.430   0.859  -1.820  0.00  0.00     0.028 A 
ATOM     38  C   LIG d   1       3.988  -0.379  -2.246  0.00  0.00    -0.031 A 
ATOM     39  H   LIG d   1       3.876   1.389  -1.060  0.00  0.00     0.083 H 
ATOM     40  H   LIG d   1       3.096  -0.818  -1.825  0.00  0.00     0.064 H 
ENDBRANCH  28  31
ENDBRANCH  25  27
ENDBRANCH  22  25
ENDBRANCH   1  22
TORSDOF 7
ENDMDL
MODEL 10
REMARK VINA RESULT:      -6.0      2.679      4.927
REMARK  7 active torsions:
REMARK  status: ('A' for Active; 'I' for Inactive)
REMARK    1  A    between atoms: C_4  and  C_7 
REMARK    2  A    between atoms: C_7  and  N_8 
REMARK       I    between atoms: N_8  and  C_9 
REMARK    3  A    between atoms: C_9  and  C_11 
REMARK    4  A    between atoms: C_11  and  C_12 
REMARK    5  A    between atoms: C_12  and  N_13 
REMARK    6  A    between atoms: N_13  and  N_14 
REMARK       I    between atoms: N_14  and  C_15 
REMARK    7  A    between atoms: C_15  and  C_17 
ROOT
ATOM      1  C   LIG d   1       3.683  -4.140  -8.364  0.00  0.00     0.038 C 
ATOM      2  H   LIG d   1       2.894  -4.727  -7.894  0.00  0.00     0.037 H 
ATOM      3  H   LIG d   1       4.202  -4.752  -9.102  0.00  0.00     0.037 H 
ENDROOT
BRANCH   1   4
ATOM      4  C   LIG d   1       3.078  -2.939  -9.043  0.00  0.00     0.214 C 
ATOM      5  N   LIG d   1       2.835  -1.817  -8.337  0.00  0.00    -0.311 N 
ATOM      6  H   LIG d   1       3.049  -1.782  -7.392  0.00  0.00     0.149 HD
ATOM      7  O   LIG d   1       2.811  -2.981 -10.226  0.00  0.00    -0.276 OA
BRANCH   5   8
ATOM      8  C   LIG d   1       2.246  -0.648  -8.998  0.00  0.00     0.037 C 
ATOM      9  H   LIG d   1       1.382  -0.306  -8.428  0.00  0.00     0.051 H 
ATOM     10  H   LIG d   1       1.933  -0.921 -10.005  0.00  0.00     0.051 H 
BRANCH   8  11
ATOM     11  C   LIG d   1       3.270   0.456  -9.071  0.00  0.00    -0.030 A 
ATOM     12  C   LIG d   1       4.618   0.153  -9.022  0.00  0.00    -0.057 A 
ATOM     13  C   LIG d   1       5.556   1.166  -9.090  0.00  0.00    -0.061 A 
ATOM     14  H   LIG d   1       4.937  -0.874  -8.930  0.00  0.00     0.062 H 
ATOM     15  C   LIG d   1       5.146   2.481  -9.208  0.00  0.00    -0.062 A 
ATOM     16  H   LIG d   1       6.609   0.930  -9.051  0.00  0.00     0.062 H 
ATOM     17  C   LIG d   1       3.798   2.783  -9.258  0.00  0.00    -0.061 A 
ATOM     18  H   LIG d   1       5.879   3.272  -9.257  0.00  0.00     0.062 H 
ATOM     19  C   LIG d   1       2.860   1.771  -9.189  0.00  0.00    -0.057 A 
ATOM     20  H   LIG d   1       3.478   3.811  -9.351  0.00  0.00     0.062 H 
ATOM     21  H   LIG d   1       1.807   2.007  -9.228  0.00  0.00     0.062 H 
ENDBRANCH   8  11
ENDBRANCH   5   8
ENDBRANCH   1   4
BRANCH   1  22
ATOM     22  C   LIG d   1       4.677  -3.675  -7.298  0.00  0.00     0.022 C 
ATOM     23  H   LIG d   1       5.469  -4.416  -7.192  0.00  0.00     0.044 H 
ATOM     24  H   LIG d   1       5.110  -2.720  -7.596  0.00  0.00     0.044 H 
BRANCH  22  25
ATOM     25  N   LIG d   1       3.981  -3.518  -6.014  0.00  0.00    -0.240 NA
ATOM     26  H   LIG d   1       2.981  -3.576  -6.136  0.00  0.00     0.144 HD
BRANCH  25  27
ATOM     27  N   LIG d   1       4.332  -2.346  -5.407  0.00  0.00    -0.247 N 
ATOM     28  C   LIG d   1       4.369  -2.268  -4.062  0.00  0.00     0.258 C 
ATOM     29  O   LIG d   1       4.090  -3.241  -3.390  0.00  0.00    -0.269 OA
ATOM     30  H   LIG d   1       4.555  -1.569  -5.944  0.00  0.00     0.169 HD
BRANCH  28  31
ATOM     31  C   LIG d   1       4.751  -0.997  -3.404  0.00  0.00     0.041 A 
ATOM     32  C   LIG d   1       4.090  -0.558  -2.252  0.00  0.00    -0.031 A 
ATOM     33  C   LIG d   1       4.482   0.631  -1.667  0.00  0.00     0.028 A 
ATOM     34  H   LIG d   1       3.289  -1.142  -1.823  0.00  0.00     0.064 H 
ATOM     35  N   LIG d   1       5.454   1.352  -2.187  0.00  0.00    -0.263 NA
ATOM     36  H   LIG d   1       3.981   0.976  -0.774  0.00  0.00     0.083 H 
ATOM     37  C   LIG d   1       6.099   0.979  -3.275  0.00  0.00     0.028 A 
ATOM     38  C   LIG d   1       5.776  -0.200  -3.921  0.00  0.00    -0.031 A 
ATOM     39  H   LIG d   1       6.889   1.602  -3.666  0.00  0.00     0.083 H 
ATOM     40  H   LIG d   1       6.308  -0.501  -4.811  0.00  0.00     0.064 H 
ENDBRANCH  28  31
ENDBRANCH  25  27
ENDBRANCH  22  25
ENDBRANCH   1  22
TORSDOF 7
ENDMDL
