MODEL 1
REMARK VINA RESULT:      -6.7      0.000      0.000
REMARK  8 active torsions:
REMARK  status: ('A' for Active; 'I' for Inactive)
REMARK    1  A    between atoms: C_1  and  C_2 
REMARK    2  A    between atoms: C_2  and  O_3 
REMARK    3  A    between atoms: O_3  and  C_4 
REMARK    4  A    between atoms: C_4  and  C_6 
REMARK    5  A    between atoms: C_9  and  N_12 
REMARK       I    between atoms: N_12  and  C_13 
REMARK    6  A    between atoms: C_13  and  C_15 
REMARK    7  A    between atoms: C_15  and  C_16 
REMARK    8  A    between atoms: C_15  and  C_20 
ROOT
ATOM      1  C   LIG d   1       3.440  -0.195  -9.773  0.00  0.00     0.059 A 
ATOM      2  C   LIG d   1       2.940   0.905  -9.069  0.00  0.00    -0.046 A 
ATOM      3  C   LIG d   1       2.884   0.871  -7.694  0.00  0.00    -0.040 A 
ATOM      4  C   LIG d   1       3.325  -0.256  -7.005  0.00  0.00     0.034 A 
ATOM      5  C   LIG d   1       3.823  -1.352  -7.703  0.00  0.00    -0.040 A 
ATOM      6  C   LIG d   1       3.877  -1.327  -9.079  0.00  0.00    -0.046 A 
ATOM      7  H   LIG d   1       2.599   1.779  -9.602  0.00  0.00     0.063 H 
ATOM      8  H   LIG d   1       2.498   1.719  -7.149  0.00  0.00     0.064 H 
ATOM      9  H   LIG d   1       4.165  -2.223  -7.166  0.00  0.00     0.064 H 
ATOM     10  H   LIG d   1       4.259  -2.179  -9.620  0.00  0.00     0.063 H 
ENDROOT
BRANCH   4  11
ATOM     11  N   LIG d   1       3.266  -0.287  -5.613  0.00  0.00    -0.284 N 
ATOM     12  C   LIG d   1       4.375  -0.052  -4.885  0.00  0.00     0.252 C 
ATOM     13  O   LIG d   1       5.403   0.281  -5.437  0.00  0.00    -0.273 OA
ATOM     14  H   LIG d   1       2.425  -0.478  -5.167  0.00  0.00     0.155 HD
BRANCH  12  15
ATOM     15  C   LIG d   1       4.339  -0.202  -3.386  0.00  0.00     0.289 C 
ATOM     16 BR   LIG d   1       2.545  -0.782  -2.829  0.00  0.00    -0.056 Br
BRANCH  15  17
ATOM     17  C   LIG d   1       5.371  -1.247  -2.954  0.00  0.00     0.422 C 
ATOM     18  F   LIG d   1       4.981  -1.809  -1.733  0.00  0.00    -0.168 F 
ATOM     19  F   LIG d   1       5.452  -2.251  -3.924  0.00  0.00    -0.168 F 
ATOM     20  F   LIG d   1       6.621  -0.635  -2.809  0.00  0.00    -0.168 F 
ENDBRANCH  15  17
BRANCH  15  21
ATOM     21  C   LIG d   1       4.668   1.141  -2.731  0.00  0.00     0.422 C 
ATOM     22  F   LIG d   1       4.645   0.999  -1.339  0.00  0.00    -0.168 F 
ATOM     23  F   LIG d   1       5.941   1.558  -3.135  0.00  0.00    -0.168 F 
ATOM     24  F   LIG d   1       3.720   2.093  -3.118  0.00  0.00    -0.168 F 
ENDBRANCH  15  21
ENDBRANCH  12  15
ENDBRANCH   4  11
BRANCH   1  25
ATOM     25  C   LIG d   1       3.502  -0.163 -11.246  0.00  0.00     0.339 C 
ATOM     26  O   LIG d   1       4.134   0.709 -11.809  0.00  0.00    -0.245 OA
BRANCH  25  27
ATOM     27  O   LIG d   1       2.856  -1.100 -11.968  0.00  0.00    -0.461 OA
BRANCH  27  28
ATOM     28  C   LIG d   1       1.440  -1.191 -11.793  0.00  0.00     0.090 C 
ATOM     29  H   LIG d   1       0.943  -1.004 -12.745  0.00  0.00     0.070 H 
ATOM     30  H   LIG d   1       1.115  -0.450 -11.062  0.00  0.00     0.070 H 
BRANCH  28  31
ATOM     31  C   LIG d   1       1.076  -2.592 -11.295  0.00  0.00    -0.031 C 
ATOM     32  H   LIG d   1       0.889  -3.243 -12.149  0.00  0.00     0.026 H 
ATOM     33  H   LIG d   1       1.900  -2.993 -10.706  0.00  0.00     0.026 H 
ATOM     34  H   LIG d   1       0.180  -2.536 -10.676  0.00  0.00     0.026 H 
ENDBRANCH  28  31
ENDBRANCH  27  28
ENDBRANCH  25  27
ENDBRANCH   1  25
TORSDOF 8
ENDMDL
MODEL 2
REMARK VINA RESULT:      -6.7      1.286      2.311
REMARK  8 active torsions:
REMARK  status: ('A' for Active; 'I' for Inactive)
REMARK    1  A    between atoms: C_1  and  C_2 
REMARK    2  A    between atoms: C_2  and  O_3 
REMARK    3  A    between atoms: O_3  and  C_4 
REMARK    4  A    between atoms: C_4  and  C_6 
REMARK    5  A    between atoms: C_9  and  N_12 
REMARK       I    between atoms: N_12  and  C_13 
REMARK    6  A    between atoms: C_13  and  C_15 
REMARK    7  A    between atoms: C_15  and  C_16 
REMARK    8  A    between atoms: C_15  and  C_20 
ROOT
ATOM      1  C   LIG d   1       3.199  -0.162  -9.618  0.00  0.00     0.059 A 
ATOM      2  C   LIG d   1       2.746   0.871  -8.792  0.00  0.00    -0.046 A 
ATOM      3  C   LIG d   1       2.859   0.756  -7.424  0.00  0.00    -0.040 A 
ATOM      4  C   LIG d   1       3.424  -0.387  -6.865  0.00  0.00     0.034 A 
ATOM      5  C   LIG d   1       3.876  -1.416  -7.684  0.00  0.00    -0.040 A 
ATOM      6  C   LIG d   1       3.761  -1.311  -9.052  0.00  0.00    -0.046 A 
ATOM      7  H   LIG d   1       2.308   1.757  -9.225  0.00  0.00     0.063 H 
ATOM      8  H   LIG d   1       2.509   1.552  -6.786  0.00  0.00     0.064 H 
ATOM      9  H   LIG d   1       4.315  -2.300  -7.246  0.00  0.00     0.064 H 
ATOM     10  H   LIG d   1       4.108  -2.112  -9.687  0.00  0.00     0.063 H 
ENDROOT
BRANCH   4  11
ATOM     11  N   LIG d   1       3.536  -0.499  -5.480  0.00  0.00    -0.284 N 
ATOM     12  C   LIG d   1       4.700  -0.202  -4.871  0.00  0.00     0.252 C 
ATOM     13  O   LIG d   1       5.621   0.257  -5.514  0.00  0.00    -0.273 OA
ATOM     14  H   LIG d   1       2.775  -0.793  -4.954  0.00  0.00     0.155 HD
BRANCH  12  15
ATOM     15  C   LIG d   1       4.858  -0.437  -3.391  0.00  0.00     0.289 C 
ATOM     16 BR   LIG d   1       6.635  -1.200  -3.035  0.00  0.00    -0.056 Br
BRANCH  15  17
ATOM     17  C   LIG d   1       4.714   0.892  -2.645  0.00  0.00     0.422 C 
ATOM     18  F   LIG d   1       5.899   1.625  -2.766  0.00  0.00    -0.168 F 
ATOM     19  F   LIG d   1       3.655   1.622  -3.194  0.00  0.00    -0.168 F 
ATOM     20  F   LIG d   1       4.456   0.640  -1.292  0.00  0.00    -0.168 F 
ENDBRANCH  15  17
BRANCH  15  21
ATOM     21  C   LIG d   1       3.779  -1.411  -2.910  0.00  0.00     0.422 C 
ATOM     22  F   LIG d   1       2.549  -0.749  -2.844  0.00  0.00    -0.168 F 
ATOM     23  F   LIG d   1       3.686  -2.481  -3.806  0.00  0.00    -0.168 F 
ATOM     24  F   LIG d   1       4.118  -1.893  -1.641  0.00  0.00    -0.168 F 
ENDBRANCH  15  21
ENDBRANCH  12  15
ENDBRANCH   4  11
BRANCH   1  25
ATOM     25  C   LIG d   1       3.080  -0.043 -11.083  0.00  0.00     0.339 C 
ATOM     26  O   LIG d   1       3.890   0.612 -11.707  0.00  0.00    -0.245 OA
BRANCH  25  27
ATOM     27  O   LIG d   1       2.072  -0.662 -11.728  0.00  0.00    -0.461 OA
BRANCH  27  28
ATOM     28  C   LIG d   1       2.429  -1.545 -12.795  0.00  0.00     0.090 C 
ATOM     29  H   LIG d   1       3.327  -1.173 -13.288  0.00  0.00     0.070 H 
ATOM     30  H   LIG d   1       1.612  -1.593 -13.515  0.00  0.00     0.070 H 
BRANCH  28  31
ATOM     31  C   LIG d   1       2.697  -2.942 -12.232  0.00  0.00    -0.031 C 
ATOM     32  H   LIG d   1       3.708  -3.252 -12.496  0.00  0.00     0.026 H 
ATOM     33  H   LIG d   1       2.594  -2.923 -11.147  0.00  0.00     0.026 H 
ATOM     34  H   LIG d   1       1.979  -3.647 -12.653  0.00  0.00     0.026 H 
ENDBRANCH  28  31
ENDBRANCH  27  28
ENDBRANCH  25  27
ENDBRANCH   1  25
TORSDOF 8
ENDMDL
MODEL 3
REMARK VINA RESULT:      -6.2      1.469      2.686
REMARK  8 active torsions:
REMARK  status: ('A' for Active; 'I' for Inactive)
REMARK    1  A    between atoms: C_1  and  C_2 
REMARK    2  A    between atoms: C_2  and  O_3 
REMARK    3  A    between atoms: O_3  and  C_4 
REMARK    4  A    between atoms: C_4  and  C_6 
REMARK    5  A    between atoms: C_9  and  N_12 
REMARK       I    between atoms: N_12  and  C_13 
REMARK    6  A    between atoms: C_13  and  C_15 
REMARK    7  A    between atoms: C_15  and  C_16 
REMARK    8  A    between atoms: C_15  and  C_20 
ROOT
ATOM      1  C   LIG d   1       3.137  -0.507  -9.523  0.00  0.00     0.059 A 
ATOM      2  C   LIG d   1       4.187  -1.340  -9.127  0.00  0.00    -0.046 A 
ATOM      3  C   LIG d   1       4.744  -1.196  -7.876  0.00  0.00    -0.040 A 
ATOM      4  C   LIG d   1       4.260  -0.222  -7.006  0.00  0.00     0.034 A 
ATOM      5  C   LIG d   1       3.214   0.608  -7.396  0.00  0.00    -0.040 A 
ATOM      6  C   LIG d   1       2.657   0.473  -8.648  0.00  0.00    -0.046 A 
ATOM      7  H   LIG d   1       4.562  -2.095  -9.801  0.00  0.00     0.063 H 
ATOM      8  H   LIG d   1       5.555  -1.837  -7.570  0.00  0.00     0.064 H 
ATOM      9  H   LIG d   1       2.841   1.361  -6.718  0.00  0.00     0.064 H 
ATOM     10  H   LIG d   1       1.848   1.120  -8.953  0.00  0.00     0.063 H 
ENDROOT
BRANCH   4  11
ATOM     11  N   LIG d   1       4.827  -0.079  -5.740  0.00  0.00    -0.284 N 
ATOM     12  C   LIG d   1       4.098  -0.352  -4.640  0.00  0.00     0.252 C 
ATOM     13  O   LIG d   1       2.983  -0.816  -4.751  0.00  0.00    -0.273 OA
ATOM     14  H   LIG d   1       5.746   0.219  -5.651  0.00  0.00     0.155 HD
BRANCH  12  15
ATOM     15  C   LIG d   1       4.670  -0.084  -3.272  0.00  0.00     0.289 C 
ATOM     16 BR   LIG d   1       6.430   0.774  -3.453  0.00  0.00    -0.056 Br
BRANCH  15  17
ATOM     17  C   LIG d   1       3.728   0.842  -2.499  0.00  0.00     0.422 C 
ATOM     18  F   LIG d   1       4.342   1.242  -1.307  0.00  0.00    -0.168 F 
ATOM     19  F   LIG d   1       3.441   1.969  -3.276  0.00  0.00    -0.168 F 
ATOM     20  F   LIG d   1       2.540   0.161  -2.208  0.00  0.00    -0.168 F 
ENDBRANCH  15  17
BRANCH  15  21
ATOM     21  C   LIG d   1       4.821  -1.404  -2.514  0.00  0.00     0.422 C 
ATOM     22  F   LIG d   1       6.107  -1.915  -2.720  0.00  0.00    -0.168 F 
ATOM     23  F   LIG d   1       4.621  -1.183  -1.147  0.00  0.00    -0.168 F 
ATOM     24  F   LIG d   1       3.874  -2.322  -2.981  0.00  0.00    -0.168 F 
ENDBRANCH  15  21
ENDBRANCH  12  15
ENDBRANCH   4  11
BRANCH   1  25
ATOM     25  C   LIG d   1       2.538  -0.658 -10.862  0.00  0.00     0.339 C 
ATOM     26  O   LIG d   1       3.133  -0.257 -11.842  0.00  0.00    -0.245 OA
BRANCH  25  27
ATOM     27  O   LIG d   1       1.330  -1.241 -10.997  0.00  0.00    -0.461 OA
BRANCH  27  28
ATOM     28  C   LIG d   1       1.199  -2.581 -10.517  0.00  0.00     0.090 C 
ATOM     29  H   LIG d   1       0.583  -2.586  -9.618  0.00  0.00     0.070 H 
ATOM     30  H   LIG d   1       2.186  -2.981 -10.283  0.00  0.00     0.070 H 
BRANCH  28  31
ATOM     31  C   LIG d   1       0.538  -3.446 -11.593  0.00  0.00    -0.031 C 
ATOM     32  H   LIG d   1      -0.169  -4.130 -11.125  0.00  0.00     0.026 H 
ATOM     33  H   LIG d   1       0.013  -2.806 -12.301  0.00  0.00     0.026 H 
ATOM     34  H   LIG d   1       1.304  -4.018 -12.119  0.00  0.00     0.026 H 
ENDBRANCH  28  31
ENDBRANCH  27  28
ENDBRANCH  25  27
ENDBRANCH   1  25
TORSDOF 8
ENDMDL
MODEL 4
REMARK VINA RESULT:      -6.0      4.848      6.847
REMARK  8 active torsions:
REMARK  status: ('A' for Active; 'I' for Inactive)
REMARK    1  A    between atoms: C_1  and  C_2 
REMARK    2  A    between atoms: C_2  and  O_3 
REMARK    3  A    between atoms: O_3  and  C_4 
REMARK    4  A    between atoms: C_4  and  C_6 
REMARK    5  A    between atoms: C_9  and  N_12 
REMARK       I    between atoms: N_12  and  C_13 
REMARK    6  A    between atoms: C_13  and  C_15 
REMARK    7  A    between atoms: C_15  and  C_16 
REMARK    8  A    between atoms: C_15  and  C_20 
ROOT
ATOM      1  C   LIG d   1       9.580   2.957  -4.980  0.00  0.00     0.059 A 
ATOM      2  C   LIG d   1       8.930   2.492  -6.126  0.00  0.00    -0.046 A 
ATOM      3  C   LIG d   1       7.898   1.587  -6.011  0.00  0.00    -0.040 A 
ATOM      4  C   LIG d   1       7.502   1.137  -4.755  0.00  0.00     0.034 A 
ATOM      5  C   LIG d   1       8.148   1.598  -3.611  0.00  0.00    -0.040 A 
ATOM      6  C   LIG d   1       9.184   2.498  -3.719  0.00  0.00    -0.046 A 
ATOM      7  H   LIG d   1       9.235   2.841  -7.101  0.00  0.00     0.063 H 
ATOM      8  H   LIG d   1       7.395   1.227  -6.896  0.00  0.00     0.064 H 
ATOM      9  H   LIG d   1       7.837   1.248  -2.639  0.00  0.00     0.064 H 
ATOM     10  H   LIG d   1       9.687   2.853  -2.833  0.00  0.00     0.063 H 
ENDROOT
BRANCH   4  11
ATOM     11  N   LIG d   1       6.458   0.221  -4.642  0.00  0.00    -0.284 N 
ATOM     12  C   LIG d   1       5.435   0.464  -3.799  0.00  0.00     0.252 C 
ATOM     13  O   LIG d   1       5.373   1.523  -3.211  0.00  0.00    -0.273 OA
ATOM     14  H   LIG d   1       6.468  -0.593  -5.170  0.00  0.00     0.155 HD
BRANCH  12  15
ATOM     15  C   LIG d   1       4.368  -0.579  -3.588  0.00  0.00     0.289 C 
ATOM     16 BR   LIG d   1       4.358  -1.823  -5.112  0.00  0.00    -0.056 Br
BRANCH  15  17
ATOM     17  C   LIG d   1       4.658  -1.352  -2.300  0.00  0.00     0.422 C 
ATOM     18  F   LIG d   1       3.720  -2.379  -2.151  0.00  0.00    -0.168 F 
ATOM     19  F   LIG d   1       5.943  -1.901  -2.365  0.00  0.00    -0.168 F 
ATOM     20  F   LIG d   1       4.577  -0.482  -1.207  0.00  0.00    -0.168 F 
ENDBRANCH  15  17
BRANCH  15  21
ATOM     21  C   LIG d   1       3.003   0.103  -3.477  0.00  0.00     0.422 C 
ATOM     22  F   LIG d   1       2.942   0.833  -2.286  0.00  0.00    -0.168 F 
ATOM     23  F   LIG d   1       2.823   0.966  -4.563  0.00  0.00    -0.168 F 
ATOM     24  F   LIG d   1       1.995  -0.868  -3.481  0.00  0.00    -0.168 F 
ENDBRANCH  15  21
ENDBRANCH  12  15
ENDBRANCH   4  11
BRANCH   1  25
ATOM     25  C   LIG d   1      10.686   3.926  -5.099  0.00  0.00     0.339 C 
ATOM     26  O   LIG d   1      11.342   3.976  -6.120  0.00  0.00    -0.245 OA
BRANCH  25  27
ATOM     27  O   LIG d   1      10.968   4.754  -4.074  0.00  0.00    -0.461 OA
BRANCH  27  28
ATOM     28  C   LIG d   1      10.844   6.157  -4.321  0.00  0.00     0.090 C 
ATOM     29  H   LIG d   1      11.242   6.388  -5.309  0.00  0.00     0.070 H 
ATOM     30  H   LIG d   1      11.404   6.709  -3.566  0.00  0.00     0.070 H 
BRANCH  28  31
ATOM     31  C   LIG d   1       9.369   6.557  -4.258  0.00  0.00    -0.031 C 
ATOM     32  H   LIG d   1       8.963   6.608  -5.269  0.00  0.00     0.026 H 
ATOM     33  H   LIG d   1       8.816   5.817  -3.681  0.00  0.00     0.026 H 
ATOM     34  H   LIG d   1       9.278   7.533  -3.780  0.00  0.00     0.026 H 
ENDBRANCH  28  31
ENDBRANCH  27  28
ENDBRANCH  25  27
ENDBRANCH   1  25
TORSDOF 8
ENDMDL
MODEL 5
REMARK VINA RESULT:      -5.9      1.607      2.401
REMARK  8 active torsions:
REMARK  status: ('A' for Active; 'I' for Inactive)
REMARK    1  A    between atoms: C_1  and  C_2 
REMARK    2  A    between atoms: C_2  and  O_3 
REMARK    3  A    between atoms: O_3  and  C_4 
REMARK    4  A    between atoms: C_4  and  C_6 
REMARK    5  A    between atoms: C_9  and  N_12 
REMARK       I    between atoms: N_12  and  C_13 
REMARK    6  A    between atoms: C_13  and  C_15 
REMARK    7  A    between atoms: C_15  and  C_16 
REMARK    8  A    between atoms: C_15  and  C_20 
ROOT
ATOM      1  C   LIG d   1       3.292  -0.213 -10.044  0.00  0.00     0.059 A 
ATOM      2  C   LIG d   1       4.537   0.211  -9.571  0.00  0.00    -0.046 A 
ATOM      3  C   LIG d   1       4.724   0.422  -8.223  0.00  0.00    -0.040 A 
ATOM      4  C   LIG d   1       3.674   0.214  -7.333  0.00  0.00     0.034 A 
ATOM      5  C   LIG d   1       2.433  -0.207  -7.801  0.00  0.00    -0.040 A 
ATOM      6  C   LIG d   1       2.238  -0.415  -9.148  0.00  0.00    -0.046 A 
ATOM      7  H   LIG d   1       5.352   0.372 -10.261  0.00  0.00     0.063 H 
ATOM      8  H   LIG d   1       5.685   0.749  -7.857  0.00  0.00     0.064 H 
ATOM      9  H   LIG d   1       1.622  -0.369  -7.107  0.00  0.00     0.064 H 
ATOM     10  H   LIG d   1       1.274  -0.738  -9.511  0.00  0.00     0.063 H 
ENDROOT
BRANCH   4  11
ATOM     11  N   LIG d   1       3.867   0.430  -5.969  0.00  0.00    -0.284 N 
ATOM     12  C   LIG d   1       4.337  -0.562  -5.189  0.00  0.00     0.252 C 
ATOM     13  O   LIG d   1       4.685  -1.612  -5.687  0.00  0.00    -0.273 OA
ATOM     14  H   LIG d   1       3.661   1.295  -5.582  0.00  0.00     0.155 HD
BRANCH  12  15
ATOM     15  C   LIG d   1       4.433  -0.368  -3.698  0.00  0.00     0.289 C 
ATOM     16 BR   LIG d   1       3.528   1.304  -3.196  0.00  0.00    -0.056 Br
BRANCH  15  17
ATOM     17  C   LIG d   1       3.762  -1.545  -2.986  0.00  0.00     0.422 C 
ATOM     18  F   LIG d   1       4.178  -2.744  -3.575  0.00  0.00    -0.168 F 
ATOM     19  F   LIG d   1       4.122  -1.539  -1.635  0.00  0.00    -0.168 F 
ATOM     20  F   LIG d   1       2.372  -1.426  -3.099  0.00  0.00    -0.168 F 
ENDBRANCH  15  17
BRANCH  15  21
ATOM     21  C   LIG d   1       5.905  -0.295  -3.286  0.00  0.00     0.422 C 
ATOM     22  F   LIG d   1       6.038   0.555  -2.182  0.00  0.00    -0.168 F 
ATOM     23  F   LIG d   1       6.358  -1.574  -2.947  0.00  0.00    -0.168 F 
ATOM     24  F   LIG d   1       6.663   0.202  -4.351  0.00  0.00    -0.168 F 
ENDBRANCH  15  21
ENDBRANCH  12  15
ENDBRANCH   4  11
BRANCH   1  25
ATOM     25  C   LIG d   1       3.088  -0.440 -11.487  0.00  0.00     0.339 C 
ATOM     26  O   LIG d   1       2.081  -0.996 -11.878  0.00  0.00    -0.245 OA
BRANCH  25  27
ATOM     27  O   LIG d   1       4.020  -0.033 -12.371  0.00  0.00    -0.461 OA
BRANCH  27  28
ATOM     28  C   LIG d   1       4.511  -1.009 -13.292  0.00  0.00     0.090 C 
ATOM     29  H   LIG d   1       3.963  -1.942 -13.159  0.00  0.00     0.070 H 
ATOM     30  H   LIG d   1       5.572  -1.181 -13.108  0.00  0.00     0.070 H 
BRANCH  28  31
ATOM     31  C   LIG d   1       4.317  -0.503 -14.724  0.00  0.00    -0.031 C 
ATOM     32  H   LIG d   1       3.729   0.415 -14.707  0.00  0.00     0.026 H 
ATOM     33  H   LIG d   1       5.289  -0.304 -15.173  0.00  0.00     0.026 H 
ATOM     34  H   LIG d   1       3.794  -1.260 -15.308  0.00  0.00     0.026 H 
ENDBRANCH  28  31
ENDBRANCH  27  28
ENDBRANCH  25  27
ENDBRANCH   1  25
TORSDOF 8
ENDMDL
MODEL 6
REMARK VINA RESULT:      -5.8      5.096      6.993
REMARK  8 active torsions:
REMARK  status: ('A' for Active; 'I' for Inactive)
REMARK    1  A    between atoms: C_1  and  C_2 
REMARK    2  A    between atoms: C_2  and  O_3 
REMARK    3  A    between atoms: O_3  and  C_4 
REMARK    4  A    between atoms: C_4  and  C_6 
REMARK    5  A    between atoms: C_9  and  N_12 
REMARK       I    between atoms: N_12  and  C_13 
REMARK    6  A    between atoms: C_13  and  C_15 
REMARK    7  A    between atoms: C_15  and  C_16 
REMARK    8  A    between atoms: C_15  and  C_20 
ROOT
ATOM      1  C   LIG d   1      10.536   1.349  -5.156  0.00  0.00     0.059 A 
ATOM      2  C   LIG d   1       9.716   0.556  -5.964  0.00  0.00    -0.046 A 
ATOM      3  C   LIG d   1       8.372   0.447  -5.682  0.00  0.00    -0.040 A 
ATOM      4  C   LIG d   1       7.832   1.126  -4.593  0.00  0.00     0.034 A 
ATOM      5  C   LIG d   1       8.645   1.917  -3.787  0.00  0.00    -0.040 A 
ATOM      6  C   LIG d   1       9.990   2.025  -4.060  0.00  0.00    -0.046 A 
ATOM      7  H   LIG d   1      10.134   0.030  -6.809  0.00  0.00     0.063 H 
ATOM      8  H   LIG d   1       7.738  -0.164  -6.304  0.00  0.00     0.064 H 
ATOM      9  H   LIG d   1       8.222   2.442  -2.945  0.00  0.00     0.064 H 
ATOM     10  H   LIG d   1      10.622   2.635  -3.432  0.00  0.00     0.063 H 
ENDROOT
BRANCH   4  11
ATOM     11  N   LIG d   1       6.471   1.013  -4.310  0.00  0.00    -0.284 N 
ATOM     12  C   LIG d   1       6.030   0.026  -3.506  0.00  0.00     0.252 C 
ATOM     13  O   LIG d   1       6.823  -0.705  -2.952  0.00  0.00    -0.273 OA
ATOM     14  H   LIG d   1       5.842   1.645  -4.692  0.00  0.00     0.155 HD
BRANCH  12  15
ATOM     15  C   LIG d   1       4.550  -0.169  -3.296  0.00  0.00     0.289 C 
ATOM     16 BR   LIG d   1       3.629  -0.121  -5.032  0.00  0.00    -0.056 Br
BRANCH  15  17
ATOM     17  C   LIG d   1       4.305  -1.523  -2.625  0.00  0.00     0.422 C 
ATOM     18  F   LIG d   1       4.616  -1.431  -1.264  0.00  0.00    -0.168 F 
ATOM     19  F   LIG d   1       2.961  -1.880  -2.773  0.00  0.00    -0.168 F 
ATOM     20  F   LIG d   1       5.115  -2.493  -3.225  0.00  0.00    -0.168 F 
ENDBRANCH  15  17
BRANCH  15  21
ATOM     21  C   LIG d   1       4.010   0.949  -2.401  0.00  0.00     0.422 C 
ATOM     22  F   LIG d   1       3.999   2.152  -3.114  0.00  0.00    -0.168 F 
ATOM     23  F   LIG d   1       2.708   0.634  -1.997  0.00  0.00    -0.168 F 
ATOM     24  F   LIG d   1       4.829   1.081  -1.274  0.00  0.00    -0.168 F 
ENDBRANCH  15  21
ENDBRANCH  12  15
ENDBRANCH   4  11
BRANCH   1  25
ATOM     25  C   LIG d   1      11.975   1.468  -5.456  0.00  0.00     0.339 C 
ATOM     26  O   LIG d   1      12.465   2.561  -5.659  0.00  0.00    -0.245 OA
BRANCH  25  27
ATOM     27  O   LIG d   1      12.746   0.364  -5.504  0.00  0.00    -0.461 OA
BRANCH  27  28
ATOM     28  C   LIG d   1      12.943  -0.344  -4.278  0.00  0.00     0.090 C 
ATOM     29  H   LIG d   1      13.422  -1.301  -4.484  0.00  0.00     0.070 H 
ATOM     30  H   LIG d   1      11.978  -0.517  -3.799  0.00  0.00     0.070 H 
BRANCH  28  31
ATOM     31  C   LIG d   1      13.834   0.483  -3.349  0.00  0.00    -0.031 C 
ATOM     32  H   LIG d   1      13.547   1.533  -3.412  0.00  0.00     0.026 H 
ATOM     33  H   LIG d   1      13.713   0.134  -2.324  0.00  0.00     0.026 H 
ATOM     34  H   LIG d   1      14.876   0.372  -3.651  0.00  0.00     0.026 H 
ENDBRANCH  28  31
ENDBRANCH  27  28
ENDBRANCH  25  27
ENDBRANCH   1  25
TORSDOF 8
ENDMDL
MODEL 7
REMARK VINA RESULT:      -5.7      4.837      6.164
REMARK  8 active torsions:
REMARK  status: ('A' for Active; 'I' for Inactive)
REMARK    1  A    between atoms: C_1  and  C_2 
REMARK    2  A    between atoms: C_2  and  O_3 
REMARK    3  A    between atoms: O_3  and  C_4 
REMARK    4  A    between atoms: C_4  and  C_6 
REMARK    5  A    between atoms: C_9  and  N_12 
REMARK       I    between atoms: N_12  and  C_13 
REMARK    6  A    between atoms: C_13  and  C_15 
REMARK    7  A    between atoms: C_15  and  C_16 
REMARK    8  A    between atoms: C_15  and  C_20 
ROOT
ATOM      1  C   LIG d   1       5.407  -6.633  -6.064  0.00  0.00     0.059 A 
ATOM      2  C   LIG d   1       6.508  -5.973  -5.509  0.00  0.00    -0.046 A 
ATOM      3  C   LIG d   1       6.425  -4.632  -5.208  0.00  0.00    -0.040 A 
ATOM      4  C   LIG d   1       5.247  -3.934  -5.456  0.00  0.00     0.034 A 
ATOM      5  C   LIG d   1       4.149  -4.587  -6.008  0.00  0.00    -0.040 A 
ATOM      6  C   LIG d   1       4.227  -5.926  -6.316  0.00  0.00    -0.046 A 
ATOM      7  H   LIG d   1       7.422  -6.514  -5.316  0.00  0.00     0.063 H 
ATOM      8  H   LIG d   1       7.274  -4.122  -4.781  0.00  0.00     0.064 H 
ATOM      9  H   LIG d   1       3.236  -4.042  -6.197  0.00  0.00     0.064 H 
ATOM     10  H   LIG d   1       3.376  -6.432  -6.749  0.00  0.00     0.063 H 
ENDROOT
BRANCH   4  11
ATOM     11  N   LIG d   1       5.167  -2.576  -5.151  0.00  0.00    -0.284 N 
ATOM     12  C   LIG d   1       4.563  -2.174  -4.016  0.00  0.00     0.252 C 
ATOM     13  O   LIG d   1       4.174  -2.995  -3.212  0.00  0.00    -0.273 OA
ATOM     14  H   LIG d   1       5.546  -1.920  -5.757  0.00  0.00     0.155 HD
BRANCH  12  15
ATOM     15  C   LIG d   1       4.371  -0.704  -3.744  0.00  0.00     0.289 C 
ATOM     16 BR   LIG d   1       3.402   0.119  -5.245  0.00  0.00    -0.056 Br
BRANCH  15  17
ATOM     17  C   LIG d   1       3.564  -0.524  -2.456  0.00  0.00     0.422 C 
ATOM     18  F   LIG d   1       4.326  -0.957  -1.365  0.00  0.00    -0.168 F 
ATOM     19  F   LIG d   1       3.241   0.826  -2.293  0.00  0.00    -0.168 F 
ATOM     20  F   LIG d   1       2.388  -1.280  -2.534  0.00  0.00    -0.168 F 
ENDBRANCH  15  17
BRANCH  15  21
ATOM     21  C   LIG d   1       5.736  -0.031  -3.589  0.00  0.00     0.422 C 
ATOM     22  F   LIG d   1       6.234   0.312  -4.850  0.00  0.00    -0.168 F 
ATOM     23  F   LIG d   1       5.601   1.124  -2.811  0.00  0.00    -0.168 F 
ATOM     24  F   LIG d   1       6.622  -0.913  -2.962  0.00  0.00    -0.168 F 
ENDBRANCH  15  21
ENDBRANCH  12  15
ENDBRANCH   4  11
BRANCH   1  25
ATOM     25  C   LIG d   1       5.492  -8.069  -6.387  0.00  0.00     0.339 C 
ATOM     26  O   LIG d   1       6.392  -8.481  -7.091  0.00  0.00    -0.245 OA
BRANCH  25  27
ATOM     27  O   LIG d   1       4.569  -8.923  -5.902  0.00  0.00    -0.461 OA
BRANCH  27  28
ATOM     28  C   LIG d   1       4.673  -9.275  -4.520  0.00  0.00     0.090 C 
ATOM     29  H   LIG d   1       4.253  -8.476  -3.910  0.00  0.00     0.070 H 
ATOM     30  H   LIG d   1       5.723  -9.417  -4.260  0.00  0.00     0.070 H 
BRANCH  28  31
ATOM     31  C   LIG d   1       3.903 -10.572  -4.265  0.00  0.00    -0.031 C 
ATOM     32  H   LIG d   1       3.859 -11.155  -5.185  0.00  0.00     0.026 H 
ATOM     33  H   LIG d   1       4.409 -11.149  -3.492  0.00  0.00     0.026 H 
ATOM     34  H   LIG d   1       2.891 -10.334  -3.936  0.00  0.00     0.026 H 
ENDBRANCH  28  31
ENDBRANCH  27  28
ENDBRANCH  25  27
ENDBRANCH   1  25
TORSDOF 8
ENDMDL
MODEL 8
REMARK VINA RESULT:      -5.6      2.028      3.236
REMARK  8 active torsions:
REMARK  status: ('A' for Active; 'I' for Inactive)
REMARK    1  A    between atoms: C_1  and  C_2 
REMARK    2  A    between atoms: C_2  and  O_3 
REMARK    3  A    between atoms: O_3  and  C_4 
REMARK    4  A    between atoms: C_4  and  C_6 
REMARK    5  A    between atoms: C_9  and  N_12 
REMARK       I    between atoms: N_12  and  C_13 
REMARK    6  A    between atoms: C_13  and  C_15 
REMARK    7  A    between atoms: C_15  and  C_16 
REMARK    8  A    between atoms: C_15  and  C_20 
ROOT
ATOM      1  C   LIG d   1       4.566  -2.146  -9.692  0.00  0.00     0.059 A 
ATOM      2  C   LIG d   1       3.596  -1.219  -9.300  0.00  0.00    -0.046 A 
ATOM      3  C   LIG d   1       3.382  -0.972  -7.962  0.00  0.00    -0.040 A 
ATOM      4  C   LIG d   1       4.133  -1.644  -7.001  0.00  0.00     0.034 A 
ATOM      5  C   LIG d   1       5.100  -2.567  -7.387  0.00  0.00    -0.040 A 
ATOM      6  C   LIG d   1       5.314  -2.823  -8.723  0.00  0.00    -0.046 A 
ATOM      7  H   LIG d   1       3.014  -0.698 -10.045  0.00  0.00     0.063 H 
ATOM      8  H   LIG d   1       2.633  -0.258  -7.659  0.00  0.00     0.064 H 
ATOM      9  H   LIG d   1       5.680  -3.085  -6.639  0.00  0.00     0.064 H 
ATOM     10  H   LIG d   1       6.062  -3.542  -9.022  0.00  0.00     0.063 H 
ENDROOT
BRANCH   4  11
ATOM     11  N   LIG d   1       3.913  -1.392  -5.648  0.00  0.00    -0.284 N 
ATOM     12  C   LIG d   1       4.677  -0.493  -4.997  0.00  0.00     0.252 C 
ATOM     13  O   LIG d   1       5.490   0.168  -5.608  0.00  0.00    -0.273 OA
ATOM     14  H   LIG d   1       3.211  -1.865  -5.174  0.00  0.00     0.155 HD
BRANCH  12  15
ATOM     15  C   LIG d   1       4.520  -0.307  -3.509  0.00  0.00     0.289 C 
ATOM     16 BR   LIG d   1       5.792   1.056  -2.882  0.00  0.00    -0.056 Br
BRANCH  15  17
ATOM     17  C   LIG d   1       3.092   0.147  -3.200  0.00  0.00     0.422 C 
ATOM     18  F   LIG d   1       2.283  -0.974  -2.983  0.00  0.00    -0.168 F 
ATOM     19  F   LIG d   1       3.095   0.949  -2.054  0.00  0.00    -0.168 F 
ATOM     20  F   LIG d   1       2.592   0.882  -4.281  0.00  0.00    -0.168 F 
ENDBRANCH  15  17
BRANCH  15  21
ATOM     21  C   LIG d   1       4.800  -1.632  -2.797  0.00  0.00     0.422 C 
ATOM     22  F   LIG d   1       4.000  -2.637  -3.351  0.00  0.00    -0.168 F 
ATOM     23  F   LIG d   1       6.148  -1.970  -2.953  0.00  0.00    -0.168 F 
ATOM     24  F   LIG d   1       4.506  -1.500  -1.435  0.00  0.00    -0.168 F 
ENDBRANCH  15  21
ENDBRANCH  12  15
ENDBRANCH   4  11
BRANCH   1  25
ATOM     25  C   LIG d   1       4.798  -2.414 -11.123  0.00  0.00     0.339 C 
ATOM     26  O   LIG d   1       4.649  -3.536 -11.564  0.00  0.00    -0.245 OA
BRANCH  25  27
ATOM     27  O   LIG d   1       5.176  -1.413 -11.942  0.00  0.00    -0.461 OA
BRANCH  27  28
ATOM     28  C   LIG d   1       6.452  -0.818 -11.694  0.00  0.00     0.090 C 
ATOM     29  H   LIG d   1       6.849  -1.192 -10.750  0.00  0.00     0.070 H 
ATOM     30  H   LIG d   1       6.343   0.266 -11.637  0.00  0.00     0.070 H 
BRANCH  28  31
ATOM     31  C   LIG d   1       7.412  -1.176 -12.830  0.00  0.00    -0.031 C 
ATOM     32  H   LIG d   1       8.438  -1.124 -12.468  0.00  0.00     0.026 H 
ATOM     33  H   LIG d   1       7.200  -2.186 -13.180  0.00  0.00     0.026 H 
ATOM     34  H   LIG d   1       7.280  -0.472 -13.652  0.00  0.00     0.026 H 
ENDBRANCH  28  31
ENDBRANCH  27  28
ENDBRANCH  25  27
ENDBRANCH   1  25
TORSDOF 8
ENDMDL
MODEL 9
REMARK VINA RESULT:      -5.6      5.084      7.202
REMARK  8 active torsions:
REMARK  status: ('A' for Active; 'I' for Inactive)
REMARK    1  A    between atoms: C_1  and  C_2 
REMARK    2  A    between atoms: C_2  and  O_3 
REMARK    3  A    between atoms: O_3  and  C_4 
REMARK    4  A    between atoms: C_4  and  C_6 
REMARK    5  A    between atoms: C_9  and  N_12 
REMARK       I    between atoms: N_12  and  C_13 
REMARK    6  A    between atoms: C_13  and  C_15 
REMARK    7  A    between atoms: C_15  and  C_16 
REMARK    8  A    between atoms: C_15  and  C_20 
ROOT
ATOM      1  C   LIG d   1      10.487   1.805  -5.120  0.00  0.00     0.059 A 
ATOM      2  C   LIG d   1       9.942   2.315  -3.938  0.00  0.00    -0.046 A 
ATOM      3  C   LIG d   1       8.609   2.119  -3.656  0.00  0.00    -0.040 A 
ATOM      4  C   LIG d   1       7.804   1.412  -4.545  0.00  0.00     0.034 A 
ATOM      5  C   LIG d   1       8.344   0.902  -5.723  0.00  0.00    -0.040 A 
ATOM      6  C   LIG d   1       9.674   1.100  -6.014  0.00  0.00    -0.046 A 
ATOM      7  H   LIG d   1      10.565   2.863  -3.248  0.00  0.00     0.063 H 
ATOM      8  H   LIG d   1       8.187   2.513  -2.744  0.00  0.00     0.064 H 
ATOM      9  H   LIG d   1       7.717   0.353  -6.409  0.00  0.00     0.064 H 
ATOM     10  H   LIG d   1      10.092   0.708  -6.930  0.00  0.00     0.063 H 
ENDROOT
BRANCH   4  11
ATOM     11  N   LIG d   1       6.455   1.215  -4.256  0.00  0.00    -0.284 N 
ATOM     12  C   LIG d   1       6.069   0.148  -3.530  0.00  0.00     0.252 C 
ATOM     13  O   LIG d   1       6.902  -0.588  -3.045  0.00  0.00    -0.273 OA
ATOM     14  H   LIG d   1       5.793   1.846  -4.579  0.00  0.00     0.155 HD
BRANCH  12  15
ATOM     15  C   LIG d   1       4.603  -0.130  -3.318  0.00  0.00     0.289 C 
ATOM     16 BR   LIG d   1       3.678  -0.122  -5.053  0.00  0.00    -0.056 Br
BRANCH  15  17
ATOM     17  C   LIG d   1       4.434  -1.499  -2.655  0.00  0.00     0.422 C 
ATOM     18  F   LIG d   1       5.292  -2.421  -3.265  0.00  0.00    -0.168 F 
ATOM     19  F   LIG d   1       4.746  -1.400  -1.295  0.00  0.00    -0.168 F 
ATOM     20  F   LIG d   1       3.109  -1.926  -2.800  0.00  0.00    -0.168 F 
ENDBRANCH  15  17
BRANCH  15  21
ATOM     21  C   LIG d   1       4.004   0.951  -2.416  0.00  0.00     0.422 C 
ATOM     22  F   LIG d   1       3.956   2.164  -3.110  0.00  0.00    -0.168 F 
ATOM     23  F   LIG d   1       2.709   0.578  -2.039  0.00  0.00    -0.168 F 
ATOM     24  F   LIG d   1       4.798   1.098  -1.273  0.00  0.00    -0.168 F 
ENDBRANCH  15  21
ENDBRANCH  12  15
ENDBRANCH   4  11
BRANCH   1  25
ATOM     25  C   LIG d   1      11.914   2.013  -5.427  0.00  0.00     0.339 C 
ATOM     26  O   LIG d   1      12.284   2.078  -6.582  0.00  0.00    -0.245 OA
BRANCH  25  27
ATOM     27  O   LIG d   1      12.807   2.132  -4.424  0.00  0.00    -0.461 OA
BRANCH  27  28
ATOM     28  C   LIG d   1      13.584   3.331  -4.387  0.00  0.00     0.090 C 
ATOM     29  H   LIG d   1      13.466   3.870  -5.326  0.00  0.00     0.070 H 
ATOM     30  H   LIG d   1      14.635   3.078  -4.242  0.00  0.00     0.070 H 
BRANCH  28  31
ATOM     31  C   LIG d   1      13.107   4.212  -3.229  0.00  0.00    -0.031 C 
ATOM     32  H   LIG d   1      13.218   5.261  -3.503  0.00  0.00     0.026 H 
ATOM     33  H   LIG d   1      12.060   3.999  -3.019  0.00  0.00     0.026 H 
ATOM     34  H   LIG d   1      13.706   4.002  -2.343  0.00  0.00     0.026 H 
ENDBRANCH  28  31
ENDBRANCH  27  28
ENDBRANCH  25  27
ENDBRANCH   1  25
TORSDOF 8
ENDMDL
