MODEL 1
REMARK VINA RESULT:      -6.0      0.000      0.000
REMARK  7 active torsions:
REMARK  status: ('A' for Active; 'I' for Inactive)
REMARK    1  A    between atoms: C_8  and  C_14 
REMARK    2  A    between atoms: C_14  and  N_15 
REMARK    3  A    between atoms: C_14  and  O_20 
REMARK    4  A    between atoms: N_15  and  C_16 
REMARK    5  A    between atoms: C_16  and  C_17 
REMARK    6  A    between atoms: C_17  and  C_18 
REMARK    7  A    between atoms: C_18  and  O_19 
ROOT
ATOM      1  C   LIG d   1       4.130  -0.475  -1.975  0.00  0.00    -0.061 A 
ATOM      2  C   LIG d   1       4.948  -1.568  -2.238  0.00  0.00    -0.057 A 
ATOM      3  C   LIG d   1       5.146  -1.983  -3.538  0.00  0.00    -0.021 A 
ATOM      4  C   LIG d   1       4.524  -1.300  -4.561  0.00  0.00     0.056 A 
ATOM      5  C   LIG d   1       3.700  -0.203  -4.314  0.00  0.00     0.046 A 
ATOM      6  C   LIG d   1       3.504   0.212  -2.996  0.00  0.00    -0.049 A 
ATOM      7  C   LIG d   1       3.069   0.477  -5.461  0.00  0.00     0.206 A 
ATOM      8  C   LIG d   1       3.344  -0.038  -6.763  0.00  0.00     0.141 A 
ATOM      9  C   LIG d   1       4.225  -1.196  -6.913  0.00  0.00    -0.015 A 
ATOM     10  O   LIG d   1       4.460  -1.636  -8.025  0.00  0.00    -0.861 OA
ATOM     11  N   LIG d   1       4.786  -1.793  -5.813  0.00  0.00    -0.352 N 
ATOM     12  C   LIG d   1       5.690  -2.947  -5.683  0.00  0.00     0.027 A 
ATOM     13  C   LIG d   1       5.947  -3.097  -4.169  0.00  0.00    -0.008 A 
ATOM     14  O   LIG d   1       2.340   1.441  -5.303  0.00  0.00    -0.286 OA
ATOM     15  H   LIG d   1       3.977  -0.161  -0.953  0.00  0.00     0.062 H 
ATOM     16  H   LIG d   1       5.427  -2.090  -1.425  0.00  0.00     0.062 H 
ATOM     17  H   LIG d   1       2.871   1.059  -2.778  0.00  0.00     0.062 H 
ATOM     18  H   LIG d   1       5.213  -3.846  -6.075  0.00  0.00     0.050 H 
ATOM     19  H   LIG d   1       6.625  -2.756  -6.207  0.00  0.00     0.050 H 
ATOM     20  H   LIG d   1       7.007  -2.976  -3.950  0.00  0.00     0.033 H 
ATOM     21  H   LIG d   1       5.593  -4.067  -3.818  0.00  0.00     0.033 H 
ENDROOT
BRANCH   8  22
ATOM     22  C   LIG d   1       2.774   0.563  -7.891  0.00  0.00     0.374 C 
BRANCH  22  23
ATOM     23  N   LIG d   1       3.074   1.851  -8.198  0.00  0.00    -0.210 N 
ATOM     24  H   LIG d   1       2.538   2.574  -7.834  0.00  0.00     0.449 HD
BRANCH  23  25
ATOM     25  C   LIG d   1       4.206   2.150  -9.080  0.00  0.00     0.149 C 
ATOM     26  H   LIG d   1       4.394   3.223  -9.078  0.00  0.00     0.103 H 
ATOM     27  H   LIG d   1       5.092   1.624  -8.723  0.00  0.00     0.103 H 
BRANCH  25  28
ATOM     28  C   LIG d   1       3.879   1.692 -10.502  0.00  0.00     0.030 C 
ATOM     29  H   LIG d   1       2.833   1.388 -10.554  0.00  0.00     0.035 H 
ATOM     30  H   LIG d   1       4.054   2.513 -11.198  0.00  0.00     0.035 H 
BRANCH  28  31
ATOM     31  C   LIG d   1       4.773   0.508 -10.875  0.00  0.00     0.050 C 
ATOM     32  H   LIG d   1       5.174   0.658 -11.877  0.00  0.00     0.056 H 
ATOM     33  H   LIG d   1       5.594   0.433 -10.162  0.00  0.00     0.056 H 
BRANCH  31  34
ATOM     34  O   LIG d   1       4.006  -0.697 -10.845  0.00  0.00    -0.395 OA
ATOM     35  H   LIG d   1       3.298  -0.697 -10.186  0.00  0.00     0.209 HD
ENDBRANCH  31  34
ENDBRANCH  28  31
ENDBRANCH  25  28
ENDBRANCH  23  25
ENDBRANCH  22  23
BRANCH  22  36
ATOM     36  O   LIG d   1       1.930  -0.136  -8.670  0.00  0.00    -0.459 OA
ATOM     37  H   LIG d   1       1.830   0.223  -9.563  0.00  0.00     0.298 HD
ENDBRANCH  22  36
ENDBRANCH   8  22
TORSDOF 7
ENDMDL
MODEL 2
REMARK VINA RESULT:      -5.7      2.052      5.557
REMARK  7 active torsions:
REMARK  status: ('A' for Active; 'I' for Inactive)
REMARK    1  A    between atoms: C_8  and  C_14 
REMARK    2  A    between atoms: C_14  and  N_15 
REMARK    3  A    between atoms: C_14  and  O_20 
REMARK    4  A    between atoms: N_15  and  C_16 
REMARK    5  A    between atoms: C_16  and  C_17 
REMARK    6  A    between atoms: C_17  and  C_18 
REMARK    7  A    between atoms: C_18  and  O_19 
ROOT
ATOM      1  C   LIG d   1       3.057   2.176  -9.681  0.00  0.00    -0.061 A 
ATOM      2  C   LIG d   1       3.917   1.522 -10.556  0.00  0.00    -0.057 A 
ATOM      3  C   LIG d   1       4.641   0.431 -10.124  0.00  0.00    -0.021 A 
ATOM      4  C   LIG d   1       4.496   0.006  -8.821  0.00  0.00     0.056 A 
ATOM      5  C   LIG d   1       3.639   0.650  -7.931  0.00  0.00     0.046 A 
ATOM      6  C   LIG d   1       2.909   1.754  -8.375  0.00  0.00    -0.049 A 
ATOM      7  C   LIG d   1       3.537   0.137  -6.552  0.00  0.00     0.206 A 
ATOM      8  C   LIG d   1       4.333  -0.999  -6.214  0.00  0.00     0.141 A 
ATOM      9  C   LIG d   1       5.201  -1.602  -7.225  0.00  0.00    -0.015 A 
ATOM     10  O   LIG d   1       5.880  -2.573  -6.936  0.00  0.00    -0.861 OA
ATOM     11  N   LIG d   1       5.259  -1.085  -8.493  0.00  0.00    -0.352 N 
ATOM     12  C   LIG d   1       6.032  -1.490  -9.678  0.00  0.00     0.027 A 
ATOM     13  C   LIG d   1       5.637  -0.491 -10.785  0.00  0.00    -0.008 A 
ATOM     14  O   LIG d   1       2.804   0.662  -5.733  0.00  0.00    -0.286 OA
ATOM     15  H   LIG d   1       2.498   3.032 -10.028  0.00  0.00     0.062 H 
ATOM     16  H   LIG d   1       4.017   1.869 -11.573  0.00  0.00     0.062 H 
ATOM     17  H   LIG d   1       2.238   2.271  -7.705  0.00  0.00     0.062 H 
ATOM     18  H   LIG d   1       7.101  -1.422  -9.473  0.00  0.00     0.050 H 
ATOM     19  H   LIG d   1       5.768  -2.504  -9.974  0.00  0.00     0.050 H 
ATOM     20  H   LIG d   1       5.176  -1.014 -11.623  0.00  0.00     0.033 H 
ATOM     21  H   LIG d   1       6.510   0.069 -11.121  0.00  0.00     0.033 H 
ENDROOT
BRANCH   8  22
ATOM     22  C   LIG d   1       4.281  -1.533  -4.921  0.00  0.00     0.374 C 
BRANCH  22  23
ATOM     23  N   LIG d   1       4.597  -0.757  -3.853  0.00  0.00    -0.210 N 
ATOM     24  H   LIG d   1       3.950  -0.621  -3.143  0.00  0.00     0.449 HD
BRANCH  23  25
ATOM     25  C   LIG d   1       5.917  -0.123  -3.774  0.00  0.00     0.149 C 
ATOM     26  H   LIG d   1       6.596  -0.768  -3.215  0.00  0.00     0.103 H 
ATOM     27  H   LIG d   1       6.307   0.031  -4.780  0.00  0.00     0.103 H 
BRANCH  25  28
ATOM     28  C   LIG d   1       5.793   1.225  -3.062  0.00  0.00     0.030 C 
ATOM     29  H   LIG d   1       6.503   1.266  -2.237  0.00  0.00     0.035 H 
ATOM     30  H   LIG d   1       6.007   2.029  -3.766  0.00  0.00     0.035 H 
BRANCH  28  31
ATOM     31  C   LIG d   1       4.372   1.387  -2.521  0.00  0.00     0.050 C 
ATOM     32  H   LIG d   1       3.915   0.405  -2.400  0.00  0.00     0.056 H 
ATOM     33  H   LIG d   1       4.406   1.893  -1.555  0.00  0.00     0.056 H 
BRANCH  31  34
ATOM     34  O   LIG d   1       3.597   2.163  -3.437  0.00  0.00    -0.395 OA
ATOM     35  H   LIG d   1       2.707   2.372  -3.123  0.00  0.00     0.209 HD
ENDBRANCH  31  34
ENDBRANCH  28  31
ENDBRANCH  25  28
ENDBRANCH  23  25
ENDBRANCH  22  23
BRANCH  22  36
ATOM     36  O   LIG d   1       3.918  -2.815  -4.738  0.00  0.00    -0.459 OA
ATOM     37  H   LIG d   1       3.144  -2.927  -4.168  0.00  0.00     0.298 HD
ENDBRANCH  22  36
ENDBRANCH   8  22
TORSDOF 7
ENDMDL
MODEL 3
REMARK VINA RESULT:      -5.7      1.206      2.598
REMARK  7 active torsions:
REMARK  status: ('A' for Active; 'I' for Inactive)
REMARK    1  A    between atoms: C_8  and  C_14 
REMARK    2  A    between atoms: C_14  and  N_15 
REMARK    3  A    between atoms: C_14  and  O_20 
REMARK    4  A    between atoms: N_15  and  C_16 
REMARK    5  A    between atoms: C_16  and  C_17 
REMARK    6  A    between atoms: C_17  and  C_18 
REMARK    7  A    between atoms: C_18  and  O_19 
ROOT
ATOM      1  C   LIG d   1       7.594  -2.015  -4.327  0.00  0.00    -0.061 A 
ATOM      2  C   LIG d   1       6.896  -2.043  -3.125  0.00  0.00    -0.057 A 
ATOM      3  C   LIG d   1       5.601  -1.574  -3.068  0.00  0.00    -0.021 A 
ATOM      4  C   LIG d   1       5.017  -1.082  -4.215  0.00  0.00     0.056 A 
ATOM      5  C   LIG d   1       5.702  -1.046  -5.428  0.00  0.00     0.046 A 
ATOM      6  C   LIG d   1       7.013  -1.523  -5.478  0.00  0.00    -0.049 A 
ATOM      7  C   LIG d   1       5.011  -0.505  -6.614  0.00  0.00     0.206 A 
ATOM      8  C   LIG d   1       3.670  -0.048  -6.440  0.00  0.00     0.141 A 
ATOM      9  C   LIG d   1       3.041  -0.130  -5.121  0.00  0.00    -0.015 A 
ATOM     10  O   LIG d   1       1.896   0.260  -4.973  0.00  0.00    -0.861 OA
ATOM     11  N   LIG d   1       3.729  -0.642  -4.051  0.00  0.00    -0.352 N 
ATOM     12  C   LIG d   1       3.343  -0.835  -2.644  0.00  0.00     0.027 A 
ATOM     13  C   LIG d   1       4.578  -1.458  -1.963  0.00  0.00    -0.008 A 
ATOM     14  O   LIG d   1       5.562  -0.450  -7.699  0.00  0.00    -0.286 OA
ATOM     15  H   LIG d   1       8.609  -2.381  -4.359  0.00  0.00     0.062 H 
ATOM     16  H   LIG d   1       7.370  -2.432  -2.236  0.00  0.00     0.062 H 
ATOM     17  H   LIG d   1       7.566  -1.506  -6.406  0.00  0.00     0.062 H 
ATOM     18  H   LIG d   1       3.101   0.123  -2.184  0.00  0.00     0.050 H 
ATOM     19  H   LIG d   1       2.493  -1.513  -2.576  0.00  0.00     0.050 H 
ATOM     20  H   LIG d   1       4.336  -2.443  -1.563  0.00  0.00     0.033 H 
ATOM     21  H   LIG d   1       4.945  -0.805  -1.171  0.00  0.00     0.033 H 
ENDROOT
BRANCH   8  22
ATOM     22  C   LIG d   1       2.961   0.477  -7.526  0.00  0.00     0.374 C 
BRANCH  22  23
ATOM     23  N   LIG d   1       3.158   1.765  -7.907  0.00  0.00    -0.210 N 
ATOM     24  H   LIG d   1       3.397   2.435  -7.248  0.00  0.00     0.449 HD
BRANCH  23  25
ATOM     25  C   LIG d   1       3.012   2.142  -9.316  0.00  0.00     0.149 C 
ATOM     26  H   LIG d   1       2.202   1.566  -9.764  0.00  0.00     0.103 H 
ATOM     27  H   LIG d   1       2.783   3.206  -9.386  0.00  0.00     0.103 H 
BRANCH  25  28
ATOM     28  C   LIG d   1       4.316   1.852 -10.060  0.00  0.00     0.030 C 
ATOM     29  H   LIG d   1       4.650   2.754 -10.573  0.00  0.00     0.035 H 
ATOM     30  H   LIG d   1       5.079   1.536  -9.348  0.00  0.00     0.035 H 
BRANCH  28  31
ATOM     31  C   LIG d   1       4.083   0.740 -11.084  0.00  0.00     0.050 C 
ATOM     32  H   LIG d   1       3.084   0.841 -11.509  0.00  0.00     0.056 H 
ATOM     33  H   LIG d   1       4.825   0.816 -11.879  0.00  0.00     0.056 H 
BRANCH  31  34
ATOM     34  O   LIG d   1       4.201  -0.532 -10.443  0.00  0.00    -0.395 OA
ATOM     35  H   LIG d   1       5.107  -0.867 -10.396  0.00  0.00     0.209 HD
ENDBRANCH  31  34
ENDBRANCH  28  31
ENDBRANCH  25  28
ENDBRANCH  23  25
ENDBRANCH  22  23
BRANCH  22  36
ATOM     36  O   LIG d   1       2.083  -0.295  -8.191  0.00  0.00    -0.459 OA
ATOM     37  H   LIG d   1       2.111  -1.229  -7.940  0.00  0.00     0.298 HD
ENDBRANCH  22  36
ENDBRANCH   8  22
TORSDOF 7
ENDMDL
MODEL 4
REMARK VINA RESULT:      -5.7      4.750      5.897
REMARK  7 active torsions:
REMARK  status: ('A' for Active; 'I' for Inactive)
REMARK    1  A    between atoms: C_8  and  C_14 
REMARK    2  A    between atoms: C_14  and  N_15 
REMARK    3  A    between atoms: C_14  and  O_20 
REMARK    4  A    between atoms: N_15  and  C_16 
REMARK    5  A    between atoms: C_16  and  C_17 
REMARK    6  A    between atoms: C_17  and  C_18 
REMARK    7  A    between atoms: C_18  and  O_19 
ROOT
ATOM      1  C   LIG d   1       3.983   0.385  -1.978  0.00  0.00    -0.061 A 
ATOM      2  C   LIG d   1       3.695  -0.920  -2.363  0.00  0.00    -0.057 A 
ATOM      3  C   LIG d   1       4.565  -1.603  -3.187  0.00  0.00    -0.021 A 
ATOM      4  C   LIG d   1       5.714  -0.974  -3.616  0.00  0.00     0.056 A 
ATOM      5  C   LIG d   1       6.017   0.333  -3.240  0.00  0.00     0.046 A 
ATOM      6  C   LIG d   1       5.132   1.019  -2.406  0.00  0.00    -0.049 A 
ATOM      7  C   LIG d   1       7.265   0.939  -3.739  0.00  0.00     0.206 A 
ATOM      8  C   LIG d   1       8.091   0.140  -4.585  0.00  0.00     0.141 A 
ATOM      9  C   LIG d   1       7.680  -1.224  -4.920  0.00  0.00    -0.015 A 
ATOM     10  O   LIG d   1       8.386  -1.907  -5.642  0.00  0.00    -0.861 OA
ATOM     11  N   LIG d   1       6.508  -1.740  -4.429  0.00  0.00    -0.352 N 
ATOM     12  C   LIG d   1       5.871  -3.055  -4.605  0.00  0.00     0.027 A 
ATOM     13  C   LIG d   1       4.567  -2.990  -3.783  0.00  0.00    -0.008 A 
ATOM     14  O   LIG d   1       7.580   2.078  -3.442  0.00  0.00    -0.286 OA
ATOM     15  H   LIG d   1       3.294   0.913  -1.337  0.00  0.00     0.062 H 
ATOM     16  H   LIG d   1       2.791  -1.396  -2.017  0.00  0.00     0.062 H 
ATOM     17  H   LIG d   1       5.344   2.033  -2.100  0.00  0.00     0.062 H 
ATOM     18  H   LIG d   1       5.646  -3.227  -5.657  0.00  0.00     0.050 H 
ATOM     19  H   LIG d   1       6.519  -3.843  -4.223  0.00  0.00     0.050 H 
ATOM     20  H   LIG d   1       4.576  -3.744  -2.996  0.00  0.00     0.033 H 
ATOM     21  H   LIG d   1       3.702  -3.128  -4.432  0.00  0.00     0.033 H 
ENDROOT
BRANCH   8  22
ATOM     22  C   LIG d   1       9.288   0.659  -5.093  0.00  0.00     0.374 C 
BRANCH  22  23
ATOM     23  N   LIG d   1      10.265   1.066  -4.243  0.00  0.00    -0.210 N 
ATOM     24  H   LIG d   1      10.358   0.647  -3.373  0.00  0.00     0.449 HD
BRANCH  23  25
ATOM     25  C   LIG d   1      11.179   2.141  -4.640  0.00  0.00     0.149 C 
ATOM     26  H   LIG d   1      12.129   2.020  -4.120  0.00  0.00     0.103 H 
ATOM     27  H   LIG d   1      11.345   2.097  -5.716  0.00  0.00     0.103 H 
BRANCH  25  28
ATOM     28  C   LIG d   1      10.565   3.493  -4.274  0.00  0.00     0.030 C 
ATOM     29  H   LIG d   1      10.871   4.241  -5.006  0.00  0.00     0.035 H 
ATOM     30  H   LIG d   1       9.478   3.411  -4.270  0.00  0.00     0.035 H 
BRANCH  28  31
ATOM     31  C   LIG d   1      11.049   3.913  -2.885  0.00  0.00     0.050 C 
ATOM     32  H   LIG d   1      12.102   4.191  -2.935  0.00  0.00     0.056 H 
ATOM     33  H   LIG d   1      10.465   4.766  -2.538  0.00  0.00     0.056 H 
BRANCH  31  34
ATOM     34  O   LIG d   1      10.887   2.825  -1.974  0.00  0.00    -0.395 OA
ATOM     35  H   LIG d   1      11.295   1.999  -2.269  0.00  0.00     0.209 HD
ENDBRANCH  31  34
ENDBRANCH  28  31
ENDBRANCH  25  28
ENDBRANCH  23  25
ENDBRANCH  22  23
BRANCH  22  36
ATOM     36  O   LIG d   1       9.469   0.753  -6.422  0.00  0.00    -0.459 OA
ATOM     37  H   LIG d   1       9.990   1.521  -6.694  0.00  0.00     0.298 HD
ENDBRANCH  22  36
ENDBRANCH   8  22
TORSDOF 7
ENDMDL
MODEL 5
REMARK VINA RESULT:      -5.6      2.606      5.064
REMARK  7 active torsions:
REMARK  status: ('A' for Active; 'I' for Inactive)
REMARK    1  A    between atoms: C_8  and  C_14 
REMARK    2  A    between atoms: C_14  and  N_15 
REMARK    3  A    between atoms: C_14  and  O_20 
REMARK    4  A    between atoms: N_15  and  C_16 
REMARK    5  A    between atoms: C_16  and  C_17 
REMARK    6  A    between atoms: C_17  and  C_18 
REMARK    7  A    between atoms: C_18  and  O_19 
ROOT
ATOM      1  C   LIG d   1       4.436   0.509  -1.740  0.00  0.00    -0.061 A 
ATOM      2  C   LIG d   1       3.409   0.968  -2.557  0.00  0.00    -0.057 A 
ATOM      3  C   LIG d   1       3.327   0.545  -3.866  0.00  0.00    -0.021 A 
ATOM      4  C   LIG d   1       4.275  -0.334  -4.345  0.00  0.00     0.056 A 
ATOM      5  C   LIG d   1       5.311  -0.804  -3.541  0.00  0.00     0.046 A 
ATOM      6  C   LIG d   1       5.387  -0.372  -2.215  0.00  0.00    -0.049 A 
ATOM      7  C   LIG d   1       6.286  -1.744  -4.124  0.00  0.00     0.206 A 
ATOM      8  C   LIG d   1       6.105  -2.115  -5.490  0.00  0.00     0.141 A 
ATOM      9  C   LIG d   1       4.982  -1.563  -6.248  0.00  0.00    -0.015 A 
ATOM     10  O   LIG d   1       4.826  -1.880  -7.414  0.00  0.00    -0.861 OA
ATOM     11  N   LIG d   1       4.103  -0.692  -5.657  0.00  0.00    -0.352 N 
ATOM     12  C   LIG d   1       2.912  -0.003  -6.179  0.00  0.00     0.027 A 
ATOM     13  C   LIG d   1       2.373   0.833  -5.000  0.00  0.00    -0.008 A 
ATOM     14  O   LIG d   1       7.212  -2.186  -3.466  0.00  0.00    -0.286 OA
ATOM     15  H   LIG d   1       4.494   0.850  -0.717  0.00  0.00     0.062 H 
ATOM     16  H   LIG d   1       2.676   1.657  -2.164  0.00  0.00     0.062 H 
ATOM     17  H   LIG d   1       6.180  -0.721  -1.571  0.00  0.00     0.062 H 
ATOM     18  H   LIG d   1       3.186   0.649  -7.009  0.00  0.00     0.050 H 
ATOM     19  H   LIG d   1       2.165  -0.728  -6.500  0.00  0.00     0.050 H 
ATOM     20  H   LIG d   1       1.363   0.516  -4.739  0.00  0.00     0.033 H 
ATOM     21  H   LIG d   1       2.386   1.894  -5.249  0.00  0.00     0.033 H 
ENDROOT
BRANCH   8  22
ATOM     22  C   LIG d   1       6.998  -3.002  -6.102  0.00  0.00     0.374 C 
BRANCH  22  23
ATOM     23  N   LIG d   1       6.557  -4.201  -6.561  0.00  0.00    -0.210 N 
ATOM     24  H   LIG d   1       6.247  -4.286  -7.476  0.00  0.00     0.449 HD
BRANCH  23  25
ATOM     25  C   LIG d   1       6.547  -5.366  -5.672  0.00  0.00     0.149 C 
ATOM     26  H   LIG d   1       7.114  -6.177  -6.130  0.00  0.00     0.103 H 
ATOM     27  H   LIG d   1       7.002  -5.100  -4.718  0.00  0.00     0.103 H 
BRANCH  25  28
ATOM     28  C   LIG d   1       5.105  -5.820  -5.441  0.00  0.00     0.030 C 
ATOM     29  H   LIG d   1       5.095  -6.877  -5.174  0.00  0.00     0.035 H 
ATOM     30  H   LIG d   1       4.666  -5.238  -4.631  0.00  0.00     0.035 H 
BRANCH  28  31
ATOM     31  C   LIG d   1       4.293  -5.609  -6.719  0.00  0.00     0.050 C 
ATOM     32  H   LIG d   1       4.828  -4.929  -7.382  0.00  0.00     0.056 H 
ATOM     33  H   LIG d   1       4.148  -6.566  -7.221  0.00  0.00     0.056 H 
BRANCH  31  34
ATOM     34  O   LIG d   1       3.021  -5.048  -6.389  0.00  0.00    -0.395 OA
ATOM     35  H   LIG d   1       2.338  -5.201  -7.056  0.00  0.00     0.209 HD
ENDBRANCH  31  34
ENDBRANCH  28  31
ENDBRANCH  25  28
ENDBRANCH  23  25
ENDBRANCH  22  23
BRANCH  22  36
ATOM     36  O   LIG d   1       8.294  -2.666  -6.234  0.00  0.00    -0.459 OA
ATOM     37  H   LIG d   1       8.840  -2.897  -5.470  0.00  0.00     0.298 HD
ENDBRANCH  22  36
ENDBRANCH   8  22
TORSDOF 7
ENDMDL
MODEL 6
REMARK VINA RESULT:      -5.6      2.394      5.712
REMARK  7 active torsions:
REMARK  status: ('A' for Active; 'I' for Inactive)
REMARK    1  A    between atoms: C_8  and  C_14 
REMARK    2  A    between atoms: C_14  and  N_15 
REMARK    3  A    between atoms: C_14  and  O_20 
REMARK    4  A    between atoms: N_15  and  C_16 
REMARK    5  A    between atoms: C_16  and  C_17 
REMARK    6  A    between atoms: C_17  and  C_18 
REMARK    7  A    between atoms: C_18  and  O_19 
ROOT
ATOM      1  C   LIG d   1       1.495  -0.484 -10.199  0.00  0.00    -0.061 A 
ATOM      2  C   LIG d   1       1.765  -1.785 -10.607  0.00  0.00    -0.057 A 
ATOM      3  C   LIG d   1       2.596  -2.586  -9.853  0.00  0.00    -0.021 A 
ATOM      4  C   LIG d   1       3.150  -2.075  -8.698  0.00  0.00     0.056 A 
ATOM      5  C   LIG d   1       2.890  -0.773  -8.276  0.00  0.00     0.046 A 
ATOM      6  C   LIG d   1       2.047   0.032  -9.044  0.00  0.00    -0.049 A 
ATOM      7  C   LIG d   1       3.518  -0.297  -7.029  0.00  0.00     0.206 A 
ATOM      8  C   LIG d   1       4.361  -1.212  -6.328  0.00  0.00     0.141 A 
ATOM      9  C   LIG d   1       4.568  -2.559  -6.858  0.00  0.00    -0.015 A 
ATOM     10  O   LIG d   1       5.287  -3.340  -6.259  0.00  0.00    -0.861 OA
ATOM     11  N   LIG d   1       3.959  -2.951  -8.023  0.00  0.00    -0.352 N 
ATOM     12  C   LIG d   1       3.995  -4.223  -8.763  0.00  0.00     0.027 A 
ATOM     13  C   LIG d   1       3.091  -4.005  -9.993  0.00  0.00    -0.008 A 
ATOM     14  O   LIG d   1       3.326   0.832  -6.613  0.00  0.00    -0.286 OA
ATOM     15  H   LIG d   1       0.846   0.137 -10.799  0.00  0.00     0.062 H 
ATOM     16  H   LIG d   1       1.322  -2.168 -11.514  0.00  0.00     0.062 H 
ATOM     17  H   LIG d   1       1.830   1.045  -8.738  0.00  0.00     0.062 H 
ATOM     18  H   LIG d   1       5.014  -4.447  -9.079  0.00  0.00     0.050 H 
ATOM     19  H   LIG d   1       3.605  -5.031  -8.146  0.00  0.00     0.050 H 
ATOM     20  H   LIG d   1       2.254  -4.704  -9.979  0.00  0.00     0.033 H 
ATOM     21  H   LIG d   1       3.665  -4.119 -10.913  0.00  0.00     0.033 H 
ENDROOT
BRANCH   8  22
ATOM     22  C   LIG d   1       4.987  -0.820  -5.139  0.00  0.00     0.374 C 
BRANCH  22  23
ATOM     23  N   LIG d   1       4.741  -1.496  -3.988  0.00  0.00    -0.210 N 
ATOM     24  H   LIG d   1       5.271  -2.276  -3.761  0.00  0.00     0.449 HD
BRANCH  23  25
ATOM     25  C   LIG d   1       3.676  -1.045  -3.088  0.00  0.00     0.149 C 
ATOM     26  H   LIG d   1       2.905  -0.535  -3.665  0.00  0.00     0.103 H 
ATOM     27  H   LIG d   1       3.240  -1.907  -2.581  0.00  0.00     0.103 H 
BRANCH  25  28
ATOM     28  C   LIG d   1       4.257  -0.084  -2.051  0.00  0.00     0.030 C 
ATOM     29  H   LIG d   1       3.985  -0.421  -1.050  0.00  0.00     0.035 H 
ATOM     30  H   LIG d   1       5.343  -0.060  -2.143  0.00  0.00     0.035 H 
BRANCH  28  31
ATOM     31  C   LIG d   1       3.696   1.320  -2.285  0.00  0.00     0.050 C 
ATOM     32  H   LIG d   1       2.735   1.416  -1.779  0.00  0.00     0.056 H 
ATOM     33  H   LIG d   1       4.390   2.061  -1.889  0.00  0.00     0.056 H 
BRANCH  31  34
ATOM     34  O   LIG d   1       3.519   1.535  -3.687  0.00  0.00    -0.395 OA
ATOM     35  H   LIG d   1       2.663   1.918  -3.922  0.00  0.00     0.209 HD
ENDBRANCH  31  34
ENDBRANCH  28  31
ENDBRANCH  25  28
ENDBRANCH  23  25
ENDBRANCH  22  23
BRANCH  22  36
ATOM     36  O   LIG d   1       5.832   0.227  -5.138  0.00  0.00    -0.459 OA
ATOM     37  H   LIG d   1       6.710   0.023  -4.788  0.00  0.00     0.298 HD
ENDBRANCH  22  36
ENDBRANCH   8  22
TORSDOF 7
ENDMDL
MODEL 7
REMARK VINA RESULT:      -5.5      2.038      5.946
REMARK  7 active torsions:
REMARK  status: ('A' for Active; 'I' for Inactive)
REMARK    1  A    between atoms: C_8  and  C_14 
REMARK    2  A    between atoms: C_14  and  N_15 
REMARK    3  A    between atoms: C_14  and  O_20 
REMARK    4  A    between atoms: N_15  and  C_16 
REMARK    5  A    between atoms: C_16  and  C_17 
REMARK    6  A    between atoms: C_17  and  C_18 
REMARK    7  A    between atoms: C_18  and  O_19 
ROOT
ATOM      1  C   LIG d   1       4.104   2.185  -9.659  0.00  0.00    -0.061 A 
ATOM      2  C   LIG d   1       3.664   1.448 -10.752  0.00  0.00    -0.057 A 
ATOM      3  C   LIG d   1       3.534   0.079 -10.655  0.00  0.00    -0.021 A 
ATOM      4  C   LIG d   1       3.846  -0.539  -9.463  0.00  0.00     0.056 A 
ATOM      5  C   LIG d   1       4.290   0.184  -8.357  0.00  0.00     0.046 A 
ATOM      6  C   LIG d   1       4.419   1.570  -8.463  0.00  0.00    -0.049 A 
ATOM      7  C   LIG d   1       4.604  -0.548  -7.116  0.00  0.00     0.206 A 
ATOM      8  C   LIG d   1       4.433  -1.964  -7.127  0.00  0.00     0.141 A 
ATOM      9  C   LIG d   1       3.961  -2.628  -8.343  0.00  0.00    -0.015 A 
ATOM     10  O   LIG d   1       3.814  -3.837  -8.352  0.00  0.00    -0.861 OA
ATOM     11  N   LIG d   1       3.683  -1.900  -9.471  0.00  0.00    -0.352 N 
ATOM     12  C   LIG d   1       3.204  -2.307 -10.802  0.00  0.00     0.027 A 
ATOM     13  C   LIG d   1       3.096  -1.001 -11.615  0.00  0.00    -0.008 A 
ATOM     14  O   LIG d   1       4.995   0.034  -6.119  0.00  0.00    -0.286 OA
ATOM     15  H   LIG d   1       4.207   3.256  -9.747  0.00  0.00     0.062 H 
ATOM     16  H   LIG d   1       3.424   1.949 -11.678  0.00  0.00     0.062 H 
ATOM     17  H   LIG d   1       4.760   2.153  -7.621  0.00  0.00     0.062 H 
ATOM     18  H   LIG d   1       3.919  -2.984 -11.269  0.00  0.00     0.050 H 
ATOM     19  H   LIG d   1       2.228  -2.784 -10.723  0.00  0.00     0.050 H 
ATOM     20  H   LIG d   1       2.067  -0.834 -11.932  0.00  0.00     0.033 H 
ATOM     21  H   LIG d   1       3.760  -1.035 -12.479  0.00  0.00     0.033 H 
ENDROOT
BRANCH   8  22
ATOM     22  C   LIG d   1       4.715  -2.715  -5.980  0.00  0.00     0.374 C 
BRANCH  22  23
ATOM     23  N   LIG d   1       3.917  -2.612  -4.887  0.00  0.00    -0.210 N 
ATOM     24  H   LIG d   1       2.959  -2.742  -4.972  0.00  0.00     0.449 HD
BRANCH  23  25
ATOM     25  C   LIG d   1       4.503  -2.304  -3.580  0.00  0.00     0.149 C 
ATOM     26  H   LIG d   1       4.895  -3.218  -3.133  0.00  0.00     0.103 H 
ATOM     27  H   LIG d   1       5.312  -1.584  -3.704  0.00  0.00     0.103 H 
BRANCH  25  28
ATOM     28  C   LIG d   1       3.429  -1.711  -2.666  0.00  0.00     0.030 C 
ATOM     29  H   LIG d   1       2.531  -2.327  -2.715  0.00  0.00     0.035 H 
ATOM     30  H   LIG d   1       3.796  -1.686  -1.640  0.00  0.00     0.035 H 
BRANCH  28  31
ATOM     31  C   LIG d   1       3.097  -0.290  -3.124  0.00  0.00     0.050 C 
ATOM     32  H   LIG d   1       2.499   0.207  -2.360  0.00  0.00     0.056 H 
ATOM     33  H   LIG d   1       4.022   0.267  -3.281  0.00  0.00     0.056 H 
BRANCH  31  34
ATOM     34  O   LIG d   1       2.360  -0.342  -4.347  0.00  0.00    -0.395 OA
ATOM     35  H   LIG d   1       1.474   0.039  -4.289  0.00  0.00     0.209 HD
ENDBRANCH  31  34
ENDBRANCH  28  31
ENDBRANCH  25  28
ENDBRANCH  23  25
ENDBRANCH  22  23
BRANCH  22  36
ATOM     36  O   LIG d   1       5.778  -3.539  -5.962  0.00  0.00    -0.459 OA
ATOM     37  H   LIG d   1       6.513  -3.221  -5.419  0.00  0.00     0.298 HD
ENDBRANCH  22  36
ENDBRANCH   8  22
TORSDOF 7
ENDMDL
MODEL 8
REMARK VINA RESULT:      -5.1      2.080      6.365
REMARK  7 active torsions:
REMARK  status: ('A' for Active; 'I' for Inactive)
REMARK    1  A    between atoms: C_8  and  C_14 
REMARK    2  A    between atoms: C_14  and  N_15 
REMARK    3  A    between atoms: C_14  and  O_20 
REMARK    4  A    between atoms: N_15  and  C_16 
REMARK    5  A    between atoms: C_16  and  C_17 
REMARK    6  A    between atoms: C_17  and  C_18 
REMARK    7  A    between atoms: C_18  and  O_19 
ROOT
ATOM      1  C   LIG d   1       2.729  -2.092 -11.053  0.00  0.00    -0.061 A 
ATOM      2  C   LIG d   1       2.473  -0.726 -11.044  0.00  0.00    -0.057 A 
ATOM      3  C   LIG d   1       2.712   0.013  -9.905  0.00  0.00    -0.021 A 
ATOM      4  C   LIG d   1       3.206  -0.623  -8.786  0.00  0.00     0.056 A 
ATOM      5  C   LIG d   1       3.468  -1.991  -8.778  0.00  0.00     0.046 A 
ATOM      6  C   LIG d   1       3.224  -2.734  -9.935  0.00  0.00    -0.049 A 
ATOM      7  C   LIG d   1       3.997  -2.601  -7.543  0.00  0.00     0.206 A 
ATOM      8  C   LIG d   1       4.207  -1.741  -6.424  0.00  0.00     0.141 A 
ATOM      9  C   LIG d   1       3.900  -0.315  -6.538  0.00  0.00    -0.015 A 
ATOM     10  O   LIG d   1       4.080   0.419  -5.583  0.00  0.00    -0.861 OA
ATOM     11  N   LIG d   1       3.409   0.201  -7.710  0.00  0.00    -0.352 N 
ATOM     12  C   LIG d   1       3.024   1.570  -8.088  0.00  0.00     0.027 A 
ATOM     13  C   LIG d   1       2.553   1.473  -9.553  0.00  0.00    -0.008 A 
ATOM     14  O   LIG d   1       4.244  -3.793  -7.480  0.00  0.00    -0.286 OA
ATOM     15  H   LIG d   1       2.534  -2.663 -11.948  0.00  0.00     0.062 H 
ATOM     16  H   LIG d   1       2.086  -0.245 -11.929  0.00  0.00     0.062 H 
ATOM     17  H   LIG d   1       3.419  -3.796  -9.954  0.00  0.00     0.062 H 
ATOM     18  H   LIG d   1       2.211   1.923  -7.453  0.00  0.00     0.050 H 
ATOM     19  H   LIG d   1       3.881   2.239  -8.011  0.00  0.00     0.050 H 
ATOM     20  H   LIG d   1       3.180   2.091 -10.196  0.00  0.00     0.033 H 
ATOM     21  H   LIG d   1       1.509   1.774  -9.638  0.00  0.00     0.033 H 
ENDROOT
BRANCH   8  22
ATOM     22  C   LIG d   1       4.706  -2.259  -5.223  0.00  0.00     0.374 C 
BRANCH  22  23
ATOM     23  N   LIG d   1       3.935  -2.245  -4.106  0.00  0.00    -0.210 N 
ATOM     24  H   LIG d   1       2.992  -2.465  -4.164  0.00  0.00     0.449 HD
BRANCH  23  25
ATOM     25  C   LIG d   1       4.529  -1.897  -2.812  0.00  0.00     0.149 C 
ATOM     26  H   LIG d   1       4.354  -2.706  -2.103  0.00  0.00     0.103 H 
ATOM     27  H   LIG d   1       5.601  -1.745  -2.933  0.00  0.00     0.103 H 
BRANCH  25  28
ATOM     28  C   LIG d   1       3.888  -0.611  -2.287  0.00  0.00     0.030 C 
ATOM     29  H   LIG d   1       3.111  -0.284  -2.978  0.00  0.00     0.035 H 
ATOM     30  H   LIG d   1       3.447  -0.798  -1.307  0.00  0.00     0.035 H 
BRANCH  28  31
ATOM     31  C   LIG d   1       4.955   0.478  -2.166  0.00  0.00     0.050 C 
ATOM     32  H   LIG d   1       4.987   0.842  -1.139  0.00  0.00     0.056 H 
ATOM     33  H   LIG d   1       5.927   0.067  -2.437  0.00  0.00     0.056 H 
BRANCH  31  34
ATOM     34  O   LIG d   1       4.634   1.559  -3.044  0.00  0.00    -0.395 OA
ATOM     35  H   LIG d   1       3.831   2.040  -2.800  0.00  0.00     0.209 HD
ENDBRANCH  31  34
ENDBRANCH  28  31
ENDBRANCH  25  28
ENDBRANCH  23  25
ENDBRANCH  22  23
BRANCH  22  36
ATOM     36  O   LIG d   1       5.949  -2.772  -5.178  0.00  0.00    -0.459 OA
ATOM     37  H   LIG d   1       6.402  -2.628  -4.335  0.00  0.00     0.298 HD
ENDBRANCH  22  36
ENDBRANCH   8  22
TORSDOF 7
ENDMDL
MODEL 9
REMARK VINA RESULT:      -5.1      4.359      6.207
REMARK  7 active torsions:
REMARK  status: ('A' for Active; 'I' for Inactive)
REMARK    1  A    between atoms: C_8  and  C_14 
REMARK    2  A    between atoms: C_14  and  N_15 
REMARK    3  A    between atoms: C_14  and  O_20 
REMARK    4  A    between atoms: N_15  and  C_16 
REMARK    5  A    between atoms: C_16  and  C_17 
REMARK    6  A    between atoms: C_17  and  C_18 
REMARK    7  A    between atoms: C_18  and  O_19 
ROOT
ATOM      1  C   LIG d   1       3.520  -0.396  -2.354  0.00  0.00    -0.061 A 
ATOM      2  C   LIG d   1       4.428   0.654  -2.422  0.00  0.00    -0.057 A 
ATOM      3  C   LIG d   1       5.618   0.494  -3.101  0.00  0.00    -0.021 A 
ATOM      4  C   LIG d   1       5.885  -0.715  -3.705  0.00  0.00     0.056 A 
ATOM      5  C   LIG d   1       4.986  -1.778  -3.647  0.00  0.00     0.046 A 
ATOM      6  C   LIG d   1       3.784  -1.609  -2.958  0.00  0.00    -0.049 A 
ATOM      7  C   LIG d   1       5.343  -3.042  -4.319  0.00  0.00     0.206 A 
ATOM      8  C   LIG d   1       6.600  -3.095  -4.992  0.00  0.00     0.141 A 
ATOM      9  C   LIG d   1       7.472  -1.921  -4.994  0.00  0.00    -0.015 A 
ATOM     10  O   LIG d   1       8.545  -1.966  -5.570  0.00  0.00    -0.861 OA
ATOM     11  N   LIG d   1       7.092  -0.769  -4.353  0.00  0.00    -0.352 N 
ATOM     12  C   LIG d   1       7.764   0.531  -4.202  0.00  0.00     0.027 A 
ATOM     13  C   LIG d   1       6.798   1.396  -3.368  0.00  0.00    -0.008 A 
ATOM     14  O   LIG d   1       4.594  -4.003  -4.299  0.00  0.00    -0.286 OA
ATOM     15  H   LIG d   1       2.593  -0.263  -1.816  0.00  0.00     0.062 H 
ATOM     16  H   LIG d   1       4.201   1.594  -1.942  0.00  0.00     0.062 H 
ATOM     17  H   LIG d   1       3.070  -2.418  -2.898  0.00  0.00     0.062 H 
ATOM     18  H   LIG d   1       8.711   0.408  -3.676  0.00  0.00     0.050 H 
ATOM     19  H   LIG d   1       7.931   0.986  -5.178  0.00  0.00     0.050 H 
ATOM     20  H   LIG d   1       6.488   2.274  -3.934  0.00  0.00     0.033 H 
ATOM     21  H   LIG d   1       7.269   1.695  -2.430  0.00  0.00     0.033 H 
ENDROOT
BRANCH   8  22
ATOM     22  C   LIG d   1       6.996  -4.267  -5.648  0.00  0.00     0.374 C 
BRANCH  22  23
ATOM     23  N   LIG d   1       8.241  -4.769  -5.447  0.00  0.00    -0.210 N 
ATOM     24  H   LIG d   1       8.981  -4.466  -5.996  0.00  0.00     0.449 HD
BRANCH  23  25
ATOM     25  C   LIG d   1       8.466  -5.770  -4.401  0.00  0.00     0.149 C 
ATOM     26  H   LIG d   1       7.708  -5.661  -3.625  0.00  0.00     0.103 H 
ATOM     27  H   LIG d   1       8.402  -6.769  -4.833  0.00  0.00     0.103 H 
BRANCH  25  28
ATOM     28  C   LIG d   1       9.853  -5.567  -3.791  0.00  0.00     0.030 C 
ATOM     29  H   LIG d   1      10.188  -6.496  -3.330  0.00  0.00     0.035 H 
ATOM     30  H   LIG d   1      10.556  -5.275  -4.572  0.00  0.00     0.035 H 
BRANCH  28  31
ATOM     31  C   LIG d   1       9.787  -4.467  -2.729  0.00  0.00     0.050 C 
ATOM     32  H   LIG d   1       8.783  -4.430  -2.307  0.00  0.00     0.056 H 
ATOM     33  H   LIG d   1      10.506  -4.682  -1.938  0.00  0.00     0.056 H 
BRANCH  31  34
ATOM     34  O   LIG d   1      10.100  -3.208  -3.327  0.00  0.00    -0.395 OA
ATOM     35  H   LIG d   1       9.914  -2.446  -2.761  0.00  0.00     0.209 HD
ENDBRANCH  31  34
ENDBRANCH  28  31
ENDBRANCH  25  28
ENDBRANCH  23  25
ENDBRANCH  22  23
BRANCH  22  36
ATOM     36  O   LIG d   1       6.142  -4.894  -6.478  0.00  0.00    -0.459 OA
ATOM     37  H   LIG d   1       5.212  -4.677  -6.322  0.00  0.00     0.298 HD
ENDBRANCH  22  36
ENDBRANCH   8  22
TORSDOF 7
ENDMDL
MODEL 10
REMARK VINA RESULT:      -5.1      2.734      6.085
REMARK  7 active torsions:
REMARK  status: ('A' for Active; 'I' for Inactive)
REMARK    1  A    between atoms: C_8  and  C_14 
REMARK    2  A    between atoms: C_14  and  N_15 
REMARK    3  A    between atoms: C_14  and  O_20 
REMARK    4  A    between atoms: N_15  and  C_16 
REMARK    5  A    between atoms: C_16  and  C_17 
REMARK    6  A    between atoms: C_17  and  C_18 
REMARK    7  A    between atoms: C_18  and  O_19 
ROOT
ATOM      1  C   LIG d   1       2.931  -4.533  -9.771  0.00  0.00    -0.061 A 
ATOM      2  C   LIG d   1       2.187  -3.601 -10.485  0.00  0.00    -0.057 A 
ATOM      3  C   LIG d   1       2.168  -2.281 -10.085  0.00  0.00    -0.021 A 
ATOM      4  C   LIG d   1       2.894  -1.909  -8.973  0.00  0.00     0.056 A 
ATOM      5  C   LIG d   1       3.644  -2.831  -8.246  0.00  0.00     0.046 A 
ATOM      6  C   LIG d   1       3.659  -4.166  -8.657  0.00  0.00    -0.049 A 
ATOM      7  C   LIG d   1       4.395  -2.358  -7.068  0.00  0.00     0.206 A 
ATOM      8  C   LIG d   1       4.304  -0.971  -6.746  0.00  0.00     0.141 A 
ATOM      9  C   LIG d   1       3.487  -0.085  -7.576  0.00  0.00    -0.015 A 
ATOM     10  O   LIG d   1       3.410   1.099  -7.301  0.00  0.00    -0.861 OA
ATOM     11  N   LIG d   1       2.808  -0.578  -8.661  0.00  0.00    -0.352 N 
ATOM     12  C   LIG d   1       1.933   0.080  -9.645  0.00  0.00     0.027 A 
ATOM     13  C   LIG d   1       1.490  -1.039 -10.610  0.00  0.00    -0.008 A 
ATOM     14  O   LIG d   1       5.067  -3.120  -6.397  0.00  0.00    -0.286 OA
ATOM     15  H   LIG d   1       2.935  -5.565 -10.090  0.00  0.00     0.062 H 
ATOM     16  H   LIG d   1       1.625  -3.911 -11.352  0.00  0.00     0.062 H 
ATOM     17  H   LIG d   1       4.233  -4.900  -8.111  0.00  0.00     0.062 H 
ATOM     18  H   LIG d   1       1.065   0.514  -9.148  0.00  0.00     0.050 H 
ATOM     19  H   LIG d   1       2.482   0.849 -10.186  0.00  0.00     0.050 H 
ATOM     20  H   LIG d   1       1.825  -0.821 -11.624  0.00  0.00     0.033 H 
ATOM     21  H   LIG d   1       0.406  -1.157 -10.585  0.00  0.00     0.033 H 
ENDROOT
BRANCH   8  22
ATOM     22  C   LIG d   1       4.993  -0.460  -5.639  0.00  0.00     0.374 C 
BRANCH  22  23
ATOM     23  N   LIG d   1       4.329   0.262  -4.701  0.00  0.00    -0.210 N 
ATOM     24  H   LIG d   1       4.575   1.186  -4.536  0.00  0.00     0.449 HD
BRANCH  23  25
ATOM     25  C   LIG d   1       3.241  -0.354  -3.937  0.00  0.00     0.149 C 
ATOM     26  H   LIG d   1       2.387   0.323  -3.910  0.00  0.00     0.103 H 
ATOM     27  H   LIG d   1       2.948  -1.290  -4.413  0.00  0.00     0.103 H 
BRANCH  25  28
ATOM     28  C   LIG d   1       3.715  -0.634  -2.510  0.00  0.00     0.030 C 
ATOM     29  H   LIG d   1       4.676  -0.148  -2.345  0.00  0.00     0.035 H 
ATOM     30  H   LIG d   1       2.985  -0.244  -1.801  0.00  0.00     0.035 H 
BRANCH  28  31
ATOM     31  C   LIG d   1       3.866  -2.143  -2.309  0.00  0.00     0.050 C 
ATOM     32  H   LIG d   1       4.744  -2.341  -1.696  0.00  0.00     0.056 H 
ATOM     33  H   LIG d   1       2.979  -2.534  -1.810  0.00  0.00     0.056 H 
BRANCH  31  34
ATOM     34  O   LIG d   1       4.018  -2.780  -3.579  0.00  0.00    -0.395 OA
ATOM     35  H   LIG d   1       3.618  -2.296  -4.314  0.00  0.00     0.209 HD
ENDBRANCH  31  34
ENDBRANCH  28  31
ENDBRANCH  25  28
ENDBRANCH  23  25
ENDBRANCH  22  23
BRANCH  22  36
ATOM     36  O   LIG d   1       6.312  -0.685  -5.507  0.00  0.00    -0.459 OA
ATOM     37  H   LIG d   1       6.808  -0.614  -6.335  0.00  0.00     0.298 HD
ENDBRANCH  22  36
ENDBRANCH   8  22
TORSDOF 7
ENDMDL
