MODEL 1
REMARK VINA RESULT:      -6.6      0.000      0.000
REMARK  6 active torsions:
REMARK  status: ('A' for Active; 'I' for Inactive)
REMARK    1  A    between atoms: C_1  and  C_2 
REMARK    2  A    between atoms: C_2  and  C_3 
REMARK    3  A    between atoms: C_3  and  C_5 
REMARK    4  A    between atoms: C_3  and  C_6 
REMARK    5  A    between atoms: C_6  and  C_8 
REMARK    6  A    between atoms: C_6  and  N_47 
REMARK       I    between atoms: C_8  and  N_10 
ROOT
ATOM      1  C   LIG d   1       5.070  -0.491  -6.907  0.00  0.00     0.264 C 
ATOM      2  O   LIG d   1       5.464   0.653  -6.980  0.00  0.00    -0.269 OA
ATOM      3  N   LIG d   1       5.794  -1.411  -6.239  0.00  0.00    -0.296 N 
ATOM      4  C   LIG d   1       5.291  -2.778  -6.062  0.00  0.00     0.019 C 
ATOM      5  C   LIG d   1       5.409  -3.219  -4.611  0.00  0.00    -0.006 C 
ATOM      6  H   LIG d   1       5.251  -4.297  -4.567  0.00  0.00     0.033 H 
ATOM      7  C   LIG d   1       6.794  -2.921  -4.036  0.00  0.00    -0.037 C 
ATOM      8  C   LIG d   1       7.055  -1.418  -4.169  0.00  0.00     0.016 C 
ATOM      9  H   LIG d   1       8.000  -1.158  -3.690  0.00  0.00     0.038 H 
ATOM     10  C   LIG d   1       7.106  -1.066  -5.665  0.00  0.00     0.023 C 
ATOM     11  C   LIG d   1       5.924  -0.630  -3.549  0.00  0.00     0.027 A 
ATOM     12  C   LIG d   1       6.179   0.611  -3.104  0.00  0.00    -0.042 A 
ATOM     13  C   LIG d   1       5.159   1.412  -2.583  0.00  0.00    -0.055 A 
ATOM     14  C   LIG d   1       3.886   0.921  -2.550  0.00  0.00     0.003 A 
ATOM     15  C   LIG d   1       3.645  -0.378  -3.018  0.00  0.00     0.252 A 
ATOM     16  O   LIG d   1       2.504  -0.809  -3.039  0.00  0.00    -0.268 OA
ATOM     17  N   LIG d   1       4.666  -1.161  -3.447  0.00  0.00    -0.312 N 
ATOM     18  C   LIG d   1       4.344  -2.553  -3.760  0.00  0.00     0.031 C 
ATOM     19  H   LIG d   1       4.251  -2.824  -6.384  0.00  0.00     0.047 H 
ATOM     20  H   LIG d   1       5.884  -3.463  -6.668  0.00  0.00     0.047 H 
ATOM     21  H   LIG d   1       7.550  -3.475  -4.593  0.00  0.00     0.028 H 
ATOM     22  H   LIG d   1       6.826  -3.209  -2.986  0.00  0.00     0.028 H 
ATOM     23  H   LIG d   1       7.889  -1.644  -6.156  0.00  0.00     0.047 H 
ATOM     24  H   LIG d   1       7.296  -0.001  -5.791  0.00  0.00     0.047 H 
ATOM     25  H   LIG d   1       7.188   0.993  -3.152  0.00  0.00     0.064 H 
ATOM     26  H   LIG d   1       5.374   2.404  -2.212  0.00  0.00     0.062 H 
ATOM     27  H   LIG d   1       3.076   1.525  -2.169  0.00  0.00     0.067 H 
ATOM     28  H   LIG d   1       3.394  -2.584  -4.295  0.00  0.00     0.050 H 
ATOM     29  H   LIG d   1       4.239  -3.107  -2.827  0.00  0.00     0.050 H 
ENDROOT
BRANCH   1  30
ATOM     30  C   LIG d   1       3.772  -0.885  -7.562  0.00  0.00     0.056 C 
ATOM     31  H   LIG d   1       3.714  -1.971  -7.630  0.00  0.00     0.095 H 
BRANCH  30  32
ATOM     32  C   LIG d   1       3.703  -0.281  -8.965  0.00  0.00     0.007 C 
ATOM     33  H   LIG d   1       4.655   0.195  -9.202  0.00  0.00     0.036 H 
BRANCH  32  34
ATOM     34  C   LIG d   1       2.585   0.762  -9.019  0.00  0.00    -0.048 C 
ATOM     35  H   LIG d   1       1.909   0.528  -9.842  0.00  0.00     0.027 H 
ATOM     36  H   LIG d   1       2.031   0.748  -8.079  0.00  0.00     0.027 H 
BRANCH  34  37
ATOM     37  C   LIG d   1       3.190   2.149  -9.234  0.00  0.00    -0.065 C 
ATOM     38  H   LIG d   1       2.682   2.871  -8.594  0.00  0.00     0.023 H 
ATOM     39  H   LIG d   1       4.251   2.126  -8.983  0.00  0.00     0.023 H 
ATOM     40  H   LIG d   1       3.069   2.441 -10.277  0.00  0.00     0.023 H 
ENDBRANCH  34  37
ENDBRANCH  32  34
BRANCH  32  41
ATOM     41  C   LIG d   1       3.419  -1.387  -9.983  0.00  0.00    -0.057 C 
ATOM     42  H   LIG d   1       2.345  -1.462 -10.148  0.00  0.00     0.023 H 
ATOM     43  H   LIG d   1       3.917  -1.152 -10.923  0.00  0.00     0.023 H 
ATOM     44  H   LIG d   1       3.795  -2.337  -9.601  0.00  0.00     0.023 H 
ENDBRANCH  32  41
ENDBRANCH  30  32
BRANCH  30  45
ATOM     45  N   LIG d   1       2.652  -0.397  -6.736  0.00  0.00     0.228 N 
ATOM     46  H   LIG d   1       2.368  -1.117  -6.072  0.00  0.00     0.200 HD
ATOM     47  H   LIG d   1       2.932   0.440  -6.229  0.00  0.00     0.200 HD
ATOM     48  H   LIG d   1       1.857  -0.171  -7.345  0.00  0.00     0.200 HD
ENDBRANCH  30  45
ENDBRANCH   1  30
TORSDOF 6
ENDMDL
MODEL 2
REMARK VINA RESULT:      -6.4      2.404      4.816
REMARK  6 active torsions:
REMARK  status: ('A' for Active; 'I' for Inactive)
REMARK    1  A    between atoms: C_1  and  C_2 
REMARK    2  A    between atoms: C_2  and  C_3 
REMARK    3  A    between atoms: C_3  and  C_5 
REMARK    4  A    between atoms: C_3  and  C_6 
REMARK    5  A    between atoms: C_6  and  C_8 
REMARK    6  A    between atoms: C_6  and  N_47 
REMARK       I    between atoms: C_8  and  N_10 
ROOT
ATOM      1  C   LIG d   1       6.387   0.952  -3.383  0.00  0.00     0.264 C 
ATOM      2  O   LIG d   1       5.830   2.024  -3.278  0.00  0.00    -0.269 OA
ATOM      3  N   LIG d   1       5.831  -0.151  -2.844  0.00  0.00    -0.296 N 
ATOM      4  C   LIG d   1       6.444  -1.471  -3.038  0.00  0.00     0.019 C 
ATOM      5  C   LIG d   1       5.409  -2.492  -3.486  0.00  0.00    -0.006 C 
ATOM      6  H   LIG d   1       5.845  -3.486  -3.390  0.00  0.00     0.033 H 
ATOM      7  C   LIG d   1       4.149  -2.443  -2.621  0.00  0.00    -0.037 C 
ATOM      8  C   LIG d   1       3.576  -1.026  -2.688  0.00  0.00     0.016 C 
ATOM      9  H   LIG d   1       2.628  -0.979  -2.149  0.00  0.00     0.038 H 
ATOM     10  C   LIG d   1       4.593  -0.062  -2.053  0.00  0.00     0.023 C 
ATOM     11  C   LIG d   1       3.379  -0.603  -4.125  0.00  0.00     0.027 A 
ATOM     12  C   LIG d   1       2.452   0.329  -4.397  0.00  0.00    -0.042 A 
ATOM     13  C   LIG d   1       2.270   0.807  -5.698  0.00  0.00    -0.055 A 
ATOM     14  C   LIG d   1       3.068   0.324  -6.695  0.00  0.00     0.003 A 
ATOM     15  C   LIG d   1       4.027  -0.650  -6.388  0.00  0.00     0.252 A 
ATOM     16  O   LIG d   1       4.778  -1.053  -7.261  0.00  0.00    -0.268 OA
ATOM     17  N   LIG d   1       4.130  -1.152  -5.132  0.00  0.00    -0.312 N 
ATOM     18  C   LIG d   1       5.043  -2.279  -4.943  0.00  0.00     0.031 C 
ATOM     19  H   LIG d   1       7.240  -1.394  -3.778  0.00  0.00     0.047 H 
ATOM     20  H   LIG d   1       6.865  -1.815  -2.093  0.00  0.00     0.047 H 
ATOM     21  H   LIG d   1       4.403  -2.688  -1.590  0.00  0.00     0.028 H 
ATOM     22  H   LIG d   1       3.417  -3.155  -2.999  0.00  0.00     0.028 H 
ATOM     23  H   LIG d   1       4.790  -0.356  -1.022  0.00  0.00     0.047 H 
ATOM     24  H   LIG d   1       4.208   0.957  -2.082  0.00  0.00     0.047 H 
ATOM     25  H   LIG d   1       1.839   0.714  -3.595  0.00  0.00     0.064 H 
ATOM     26  H   LIG d   1       1.512   1.546  -5.911  0.00  0.00     0.062 H 
ATOM     27  H   LIG d   1       2.962   0.689  -7.705  0.00  0.00     0.067 H 
ATOM     28  H   LIG d   1       5.954  -2.095  -5.513  0.00  0.00     0.050 H 
ATOM     29  H   LIG d   1       4.567  -3.183  -5.323  0.00  0.00     0.050 H 
ENDROOT
BRANCH   1  30
ATOM     30  C   LIG d   1       7.700   0.854  -4.114  0.00  0.00     0.056 C 
ATOM     31  H   LIG d   1       8.371   0.190  -3.569  0.00  0.00     0.095 H 
BRANCH  30  32
ATOM     32  C   LIG d   1       8.332   2.243  -4.221  0.00  0.00     0.007 C 
ATOM     33  H   LIG d   1       7.627   2.991  -3.856  0.00  0.00     0.036 H 
BRANCH  32  34
ATOM     34  C   LIG d   1       8.677   2.537  -5.682  0.00  0.00    -0.048 C 
ATOM     35  H   LIG d   1       9.192   1.677  -6.113  0.00  0.00     0.027 H 
ATOM     36  H   LIG d   1       7.760   2.728  -6.240  0.00  0.00     0.027 H 
BRANCH  34  37
ATOM     37  C   LIG d   1       9.585   3.765  -5.754  0.00  0.00    -0.065 C 
ATOM     38  H   LIG d   1       9.100   4.606  -5.257  0.00  0.00     0.023 H 
ATOM     39  H   LIG d   1      10.531   3.548  -5.259  0.00  0.00     0.023 H 
ATOM     40  H   LIG d   1       9.770   4.019  -6.798  0.00  0.00     0.023 H 
ENDBRANCH  34  37
ENDBRANCH  32  34
BRANCH  32  41
ATOM     41  C   LIG d   1       9.606   2.289  -3.376  0.00  0.00    -0.057 C 
ATOM     42  H   LIG d   1       9.842   3.324  -3.130  0.00  0.00     0.023 H 
ATOM     43  H   LIG d   1       9.452   1.723  -2.457  0.00  0.00     0.023 H 
ATOM     44  H   LIG d   1      10.431   1.850  -3.938  0.00  0.00     0.023 H 
ENDBRANCH  32  41
ENDBRANCH  30  32
BRANCH  30  45
ATOM     45  N   LIG d   1       7.459   0.294  -5.457  0.00  0.00     0.228 N 
ATOM     46  H   LIG d   1       8.034  -0.536  -5.598  0.00  0.00     0.200 HD
ATOM     47  H   LIG d   1       6.476   0.047  -5.561  0.00  0.00     0.200 HD
ATOM     48  H   LIG d   1       7.705   0.996  -6.164  0.00  0.00     0.200 HD
ENDBRANCH  30  45
ENDBRANCH   1  30
TORSDOF 6
ENDMDL
MODEL 3
REMARK VINA RESULT:      -5.7      1.809      5.752
REMARK  6 active torsions:
REMARK  status: ('A' for Active; 'I' for Inactive)
REMARK    1  A    between atoms: C_1  and  C_2 
REMARK    2  A    between atoms: C_2  and  C_3 
REMARK    3  A    between atoms: C_3  and  C_5 
REMARK    4  A    between atoms: C_3  and  C_6 
REMARK    5  A    between atoms: C_6  and  C_8 
REMARK    6  A    between atoms: C_6  and  N_47 
REMARK       I    between atoms: C_8  and  N_10 
ROOT
ATOM      1  C   LIG d   1       4.926  -0.928  -6.229  0.00  0.00     0.264 C 
ATOM      2  O   LIG d   1       3.858  -0.567  -5.783  0.00  0.00    -0.269 OA
ATOM      3  N   LIG d   1       4.973  -1.639  -7.373  0.00  0.00    -0.296 N 
ATOM      4  C   LIG d   1       6.259  -2.007  -7.975  0.00  0.00     0.019 C 
ATOM      5  C   LIG d   1       6.282  -1.672  -9.460  0.00  0.00    -0.006 C 
ATOM      6  H   LIG d   1       7.143  -2.168  -9.909  0.00  0.00     0.033 H 
ATOM      7  C   LIG d   1       5.025  -2.168 -10.175  0.00  0.00    -0.037 C 
ATOM      8  C   LIG d   1       3.806  -1.538  -9.496  0.00  0.00     0.016 C 
ATOM      9  H   LIG d   1       2.897  -1.804 -10.036  0.00  0.00     0.038 H 
ATOM     10  C   LIG d   1       3.734  -2.059  -8.050  0.00  0.00     0.023 C 
ATOM     11  C   LIG d   1       3.955  -0.035  -9.435  0.00  0.00     0.027 A 
ATOM     12  C   LIG d   1       2.843   0.715  -9.370  0.00  0.00    -0.042 A 
ATOM     13  C   LIG d   1       2.919   2.106  -9.245  0.00  0.00    -0.055 A 
ATOM     14  C   LIG d   1       4.148   2.695  -9.170  0.00  0.00     0.003 A 
ATOM     15  C   LIG d   1       5.294   1.891  -9.243  0.00  0.00     0.252 A 
ATOM     16  O   LIG d   1       6.396   2.402  -9.128  0.00  0.00    -0.268 OA
ATOM     17  N   LIG d   1       5.192   0.553  -9.441  0.00  0.00    -0.312 N 
ATOM     18  C   LIG d   1       6.438  -0.177  -9.668  0.00  0.00     0.031 C 
ATOM     19  H   LIG d   1       7.062  -1.482  -7.460  0.00  0.00     0.047 H 
ATOM     20  H   LIG d   1       6.411  -3.082  -7.874  0.00  0.00     0.047 H 
ATOM     21  H   LIG d   1       4.965  -3.254 -10.101  0.00  0.00     0.028 H 
ATOM     22  H   LIG d   1       5.057  -1.872 -11.222  0.00  0.00     0.028 H 
ATOM     23  H   LIG d   1       3.663  -3.146  -8.051  0.00  0.00     0.047 H 
ATOM     24  H   LIG d   1       2.871  -1.630  -7.542  0.00  0.00     0.047 H 
ATOM     25  H   LIG d   1       1.878   0.234  -9.413  0.00  0.00     0.064 H 
ATOM     26  H   LIG d   1       2.021   2.704  -9.209  0.00  0.00     0.062 H 
ATOM     27  H   LIG d   1       4.236   3.765  -9.056  0.00  0.00     0.067 H 
ATOM     28  H   LIG d   1       7.198   0.198  -8.982  0.00  0.00     0.050 H 
ATOM     29  H   LIG d   1       6.769   0.003 -10.691  0.00  0.00     0.050 H 
ENDROOT
BRANCH   1  30
ATOM     30  C   LIG d   1       6.201  -0.583  -5.504  0.00  0.00     0.056 C 
ATOM     31  H   LIG d   1       6.983  -1.287  -5.789  0.00  0.00     0.095 H 
BRANCH  30  32
ATOM     32  C   LIG d   1       5.968  -0.660  -3.994  0.00  0.00     0.007 C 
ATOM     33  H   LIG d   1       4.940  -0.968  -3.801  0.00  0.00     0.036 H 
BRANCH  32  34
ATOM     34  C   LIG d   1       6.215   0.714  -3.369  0.00  0.00    -0.048 C 
ATOM     35  H   LIG d   1       7.149   0.694  -2.806  0.00  0.00     0.027 H 
ATOM     36  H   LIG d   1       6.281   1.465  -4.157  0.00  0.00     0.027 H 
BRANCH  34  37
ATOM     37  C   LIG d   1       5.060   1.061  -2.429  0.00  0.00    -0.065 C 
ATOM     38  H   LIG d   1       4.882   2.137  -2.453  0.00  0.00     0.023 H 
ATOM     39  H   LIG d   1       4.159   0.538  -2.751  0.00  0.00     0.023 H 
ATOM     40  H   LIG d   1       5.314   0.758  -1.413  0.00  0.00     0.023 H 
ENDBRANCH  34  37
ENDBRANCH  32  34
BRANCH  32  41
ATOM     41  C   LIG d   1       6.929  -1.680  -3.383  0.00  0.00    -0.057 C 
ATOM     42  H   LIG d   1       6.956  -2.574  -4.005  0.00  0.00     0.023 H 
ATOM     43  H   LIG d   1       7.928  -1.248  -3.324  0.00  0.00     0.023 H 
ATOM     44  H   LIG d   1       6.590  -1.944  -2.381  0.00  0.00     0.023 H 
ENDBRANCH  32  41
ENDBRANCH  30  32
BRANCH  30  45
ATOM     45  N   LIG d   1       6.618   0.777  -5.892  0.00  0.00     0.228 N 
ATOM     46  H   LIG d   1       6.514   1.413  -5.102  0.00  0.00     0.200 HD
ATOM     47  H   LIG d   1       7.590   0.771  -6.197  0.00  0.00     0.200 HD
ATOM     48  H   LIG d   1       6.027   1.104  -6.665  0.00  0.00     0.200 HD
ENDBRANCH  30  45
ENDBRANCH   1  30
TORSDOF 6
ENDMDL
MODEL 4
REMARK VINA RESULT:      -5.7      1.742      3.589
REMARK  6 active torsions:
REMARK  status: ('A' for Active; 'I' for Inactive)
REMARK    1  A    between atoms: C_1  and  C_2 
REMARK    2  A    between atoms: C_2  and  C_3 
REMARK    3  A    between atoms: C_3  and  C_5 
REMARK    4  A    between atoms: C_3  and  C_6 
REMARK    5  A    between atoms: C_6  and  C_8 
REMARK    6  A    between atoms: C_6  and  N_47 
REMARK       I    between atoms: C_8  and  N_10 
ROOT
ATOM      1  C   LIG d   1       4.073  -0.727  -5.986  0.00  0.00     0.264 C 
ATOM      2  O   LIG d   1       4.269  -1.815  -6.484  0.00  0.00    -0.269 OA
ATOM      3  N   LIG d   1       3.860  -0.621  -4.660  0.00  0.00    -0.296 N 
ATOM      4  C   LIG d   1       3.711   0.695  -4.026  0.00  0.00     0.019 C 
ATOM      5  C   LIG d   1       4.595   0.810  -2.793  0.00  0.00    -0.006 C 
ATOM      6  H   LIG d   1       4.283   1.689  -2.229  0.00  0.00     0.033 H 
ATOM      7  C   LIG d   1       4.459  -0.409  -1.879  0.00  0.00    -0.037 C 
ATOM      8  C   LIG d   1       4.818  -1.658  -2.689  0.00  0.00     0.016 C 
ATOM      9  H   LIG d   1       4.814  -2.537  -2.043  0.00  0.00     0.038 H 
ATOM     10  C   LIG d   1       3.779  -1.822  -3.812  0.00  0.00     0.023 C 
ATOM     11  C   LIG d   1       6.173  -1.495  -3.337  0.00  0.00     0.027 A 
ATOM     12  C   LIG d   1       6.877  -2.599  -3.634  0.00  0.00    -0.042 A 
ATOM     13  C   LIG d   1       8.106  -2.514  -4.295  0.00  0.00    -0.055 A 
ATOM     14  C   LIG d   1       8.577  -1.285  -4.654  0.00  0.00     0.003 A 
ATOM     15  C   LIG d   1       7.826  -0.146  -4.331  0.00  0.00     0.252 A 
ATOM     16  O   LIG d   1       8.214   0.954  -4.691  0.00  0.00    -0.268 OA
ATOM     17  N   LIG d   1       6.674  -0.252  -3.623  0.00  0.00    -0.312 N 
ATOM     18  C   LIG d   1       6.047   0.996  -3.191  0.00  0.00     0.031 C 
ATOM     19  H   LIG d   1       3.967   1.472  -4.745  0.00  0.00     0.047 H 
ATOM     20  H   LIG d   1       2.677   0.826  -3.708  0.00  0.00     0.047 H 
ATOM     21  H   LIG d   1       3.433  -0.487  -1.521  0.00  0.00     0.028 H 
ATOM     22  H   LIG d   1       5.138  -0.312  -1.033  0.00  0.00     0.028 H 
ATOM     23  H   LIG d   1       2.780  -1.907  -3.384  0.00  0.00     0.047 H 
ATOM     24  H   LIG d   1       4.007  -2.708  -4.403  0.00  0.00     0.047 H 
ATOM     25  H   LIG d   1       6.484  -3.566  -3.359  0.00  0.00     0.064 H 
ATOM     26  H   LIG d   1       8.674  -3.405  -4.516  0.00  0.00     0.062 H 
ATOM     27  H   LIG d   1       9.515  -1.190  -5.181  0.00  0.00     0.067 H 
ATOM     28  H   LIG d   1       6.100   1.718  -4.006  0.00  0.00     0.050 H 
ATOM     29  H   LIG d   1       6.599   1.389  -2.337  0.00  0.00     0.050 H 
ENDROOT
BRANCH   1  30
ATOM     30  C   LIG d   1       4.065   0.507  -6.851  0.00  0.00     0.056 C 
ATOM     31  H   LIG d   1       4.033   1.394  -6.218  0.00  0.00     0.095 H 
BRANCH  30  32
ATOM     32  C   LIG d   1       2.836   0.486  -7.762  0.00  0.00     0.007 C 
ATOM     33  H   LIG d   1       1.951   0.245  -7.172  0.00  0.00     0.036 H 
BRANCH  32  34
ATOM     34  C   LIG d   1       3.027  -0.571  -8.851  0.00  0.00    -0.048 C 
ATOM     35  H   LIG d   1       3.788  -0.234  -9.555  0.00  0.00     0.027 H 
ATOM     36  H   LIG d   1       3.345  -1.510  -8.395  0.00  0.00     0.027 H 
BRANCH  34  37
ATOM     37  C   LIG d   1       1.706  -0.785  -9.591  0.00  0.00    -0.065 C 
ATOM     38  H   LIG d   1       1.113   0.129  -9.548  0.00  0.00     0.023 H 
ATOM     39  H   LIG d   1       1.909  -1.037 -10.632  0.00  0.00     0.023 H 
ATOM     40  H   LIG d   1       1.154  -1.599  -9.121  0.00  0.00     0.023 H 
ENDBRANCH  34  37
ENDBRANCH  32  34
BRANCH  32  41
ATOM     41  C   LIG d   1       2.659   1.860  -8.409  0.00  0.00    -0.057 C 
ATOM     42  H   LIG d   1       2.470   1.738  -9.476  0.00  0.00     0.023 H 
ATOM     43  H   LIG d   1       1.816   2.373  -7.947  0.00  0.00     0.023 H 
ATOM     44  H   LIG d   1       3.565   2.449  -8.266  0.00  0.00     0.023 H 
ENDBRANCH  32  41
ENDBRANCH  30  32
BRANCH  30  45
ATOM     45  N   LIG d   1       5.301   0.536  -7.653  0.00  0.00     0.228 N 
ATOM     46  H   LIG d   1       6.083   0.847  -7.079  0.00  0.00     0.200 HD
ATOM     47  H   LIG d   1       5.499  -0.392  -8.023  0.00  0.00     0.200 HD
ATOM     48  H   LIG d   1       5.180   1.190  -8.436  0.00  0.00     0.200 HD
ENDBRANCH  30  45
ENDBRANCH   1  30
TORSDOF 6
ENDMDL
MODEL 5
REMARK VINA RESULT:      -5.6      2.354      4.566
REMARK  6 active torsions:
REMARK  status: ('A' for Active; 'I' for Inactive)
REMARK    1  A    between atoms: C_1  and  C_2 
REMARK    2  A    between atoms: C_2  and  C_3 
REMARK    3  A    between atoms: C_3  and  C_5 
REMARK    4  A    between atoms: C_3  and  C_6 
REMARK    5  A    between atoms: C_6  and  C_8 
REMARK    6  A    between atoms: C_6  and  N_47 
REMARK       I    between atoms: C_8  and  N_10 
ROOT
ATOM      1  C   LIG d   1       7.440  -0.523  -4.704  0.00  0.00     0.264 C 
ATOM      2  O   LIG d   1       7.755  -0.970  -3.622  0.00  0.00    -0.269 OA
ATOM      3  N   LIG d   1       6.821  -1.311  -5.604  0.00  0.00    -0.296 N 
ATOM      4  C   LIG d   1       6.352  -0.764  -6.883  0.00  0.00     0.019 C 
ATOM      5  C   LIG d   1       4.911  -1.172  -7.156  0.00  0.00    -0.006 C 
ATOM      6  H   LIG d   1       4.685  -0.953  -8.199  0.00  0.00     0.033 H 
ATOM      7  C   LIG d   1       4.692  -2.669  -6.930  0.00  0.00    -0.037 C 
ATOM      8  C   LIG d   1       5.085  -3.000  -5.488  0.00  0.00     0.016 C 
ATOM      9  H   LIG d   1       4.859  -4.044  -5.268  0.00  0.00     0.038 H 
ATOM     10  C   LIG d   1       6.592  -2.738  -5.326  0.00  0.00     0.023 C 
ATOM     11  C   LIG d   1       4.356  -2.095  -4.522  0.00  0.00     0.027 A 
ATOM     12  C   LIG d   1       4.153  -2.530  -3.268  0.00  0.00    -0.042 A 
ATOM     13  C   LIG d   1       3.543  -1.712  -2.312  0.00  0.00    -0.055 A 
ATOM     14  C   LIG d   1       3.172  -0.447  -2.666  0.00  0.00     0.003 A 
ATOM     15  C   LIG d   1       3.392  -0.016  -3.982  0.00  0.00     0.252 A 
ATOM     16  O   LIG d   1       3.110   1.128  -4.296  0.00  0.00    -0.268 OA
ATOM     17  N   LIG d   1       3.915  -0.857  -4.909  0.00  0.00    -0.312 N 
ATOM     18  C   LIG d   1       3.956  -0.375  -6.289  0.00  0.00     0.031 C 
ATOM     19  H   LIG d   1       6.436   0.322  -6.863  0.00  0.00     0.047 H 
ATOM     20  H   LIG d   1       6.968  -1.157  -7.692  0.00  0.00     0.047 H 
ATOM     21  H   LIG d   1       5.314  -3.239  -7.620  0.00  0.00     0.028 H 
ATOM     22  H   LIG d   1       3.643  -2.915  -7.091  0.00  0.00     0.028 H 
ATOM     23  H   LIG d   1       7.153  -3.349  -6.034  0.00  0.00     0.047 H 
ATOM     24  H   LIG d   1       6.903  -2.971  -4.307  0.00  0.00     0.047 H 
ATOM     25  H   LIG d   1       4.466  -3.527  -2.997  0.00  0.00     0.064 H 
ATOM     26  H   LIG d   1       3.369  -2.074  -1.310  0.00  0.00     0.062 H 
ATOM     27  H   LIG d   1       2.716   0.212  -1.943  0.00  0.00     0.067 H 
ATOM     28  H   LIG d   1       4.267   0.670  -6.289  0.00  0.00     0.050 H 
ATOM     29  H   LIG d   1       2.954  -0.443  -6.714  0.00  0.00     0.050 H 
ENDROOT
BRANCH   1  30
ATOM     30  C   LIG d   1       7.743   0.914  -5.042  0.00  0.00     0.056 C 
ATOM     31  H   LIG d   1       7.492   1.102  -6.086  0.00  0.00     0.095 H 
BRANCH  30  32
ATOM     32  C   LIG d   1       9.231   1.189  -4.818  0.00  0.00     0.007 C 
ATOM     33  H   LIG d   1       9.635   0.455  -4.120  0.00  0.00     0.036 H 
BRANCH  32  34
ATOM     34  C   LIG d   1       9.408   2.594  -4.239  0.00  0.00    -0.048 C 
ATOM     35  H   LIG d   1       9.803   3.258  -5.009  0.00  0.00     0.027 H 
ATOM     36  H   LIG d   1       8.443   2.970  -3.895  0.00  0.00     0.027 H 
BRANCH  34  37
ATOM     37  C   LIG d   1      10.384   2.542  -3.062  0.00  0.00    -0.065 C 
ATOM     38  H   LIG d   1      11.402   2.679  -3.427  0.00  0.00     0.023 H 
ATOM     39  H   LIG d   1      10.142   3.335  -2.354  0.00  0.00     0.023 H 
ATOM     40  H   LIG d   1      10.303   1.574  -2.566  0.00  0.00     0.023 H 
ENDBRANCH  34  37
ENDBRANCH  32  34
BRANCH  32  41
ATOM     41  C   LIG d   1       9.974   1.089  -6.151  0.00  0.00    -0.057 C 
ATOM     42  H   LIG d   1      10.815   0.404  -6.048  0.00  0.00     0.023 H 
ATOM     43  H   LIG d   1       9.295   0.719  -6.918  0.00  0.00     0.023 H 
ATOM     44  H   LIG d   1      10.341   2.075  -6.437  0.00  0.00     0.023 H 
ENDBRANCH  32  41
ENDBRANCH  30  32
BRANCH  30  45
ATOM     45  N   LIG d   1       6.922   1.790  -4.187  0.00  0.00     0.228 N 
ATOM     46  H   LIG d   1       6.539   1.257  -3.407  0.00  0.00     0.200 HD
ATOM     47  H   LIG d   1       7.488   2.557  -3.828  0.00  0.00     0.200 HD
ATOM     48  H   LIG d   1       6.149   2.175  -4.741  0.00  0.00     0.200 HD
ENDBRANCH  30  45
ENDBRANCH   1  30
TORSDOF 6
ENDMDL
MODEL 6
REMARK VINA RESULT:      -5.5      2.660      5.467
REMARK  6 active torsions:
REMARK  status: ('A' for Active; 'I' for Inactive)
REMARK    1  A    between atoms: C_1  and  C_2 
REMARK    2  A    between atoms: C_2  and  C_3 
REMARK    3  A    between atoms: C_3  and  C_5 
REMARK    4  A    between atoms: C_3  and  C_6 
REMARK    5  A    between atoms: C_6  and  C_8 
REMARK    6  A    between atoms: C_6  and  N_47 
REMARK       I    between atoms: C_8  and  N_10 
ROOT
ATOM      1  C   LIG d   1       6.349  -2.172  -4.492  0.00  0.00     0.264 C 
ATOM      2  O   LIG d   1       7.118  -2.753  -3.757  0.00  0.00    -0.269 OA
ATOM      3  N   LIG d   1       6.607  -2.095  -5.813  0.00  0.00    -0.296 N 
ATOM      4  C   LIG d   1       5.645  -1.475  -6.731  0.00  0.00     0.019 C 
ATOM      5  C   LIG d   1       5.392  -2.366  -7.939  0.00  0.00    -0.006 C 
ATOM      6  H   LIG d   1       4.869  -1.779  -8.694  0.00  0.00     0.033 H 
ATOM      7  C   LIG d   1       6.697  -2.873  -8.555  0.00  0.00    -0.037 C 
ATOM      8  C   LIG d   1       7.475  -3.630  -7.476  0.00  0.00     0.016 C 
ATOM      9  H   LIG d   1       8.371  -4.079  -7.906  0.00  0.00     0.038 H 
ATOM     10  C   LIG d   1       7.859  -2.636  -6.368  0.00  0.00     0.023 C 
ATOM     11  C   LIG d   1       6.607  -4.699  -6.852  0.00  0.00     0.027 A 
ATOM     12  C   LIG d   1       7.204  -5.765  -6.298  0.00  0.00    -0.042 A 
ATOM     13  C   LIG d   1       6.458  -6.753  -5.648  0.00  0.00    -0.055 A 
ATOM     14  C   LIG d   1       5.103  -6.608  -5.566  0.00  0.00     0.003 A 
ATOM     15  C   LIG d   1       4.501  -5.487  -6.155  0.00  0.00     0.252 A 
ATOM     16  O   LIG d   1       3.297  -5.323  -6.045  0.00  0.00    -0.268 OA
ATOM     17  N   LIG d   1       5.241  -4.584  -6.845  0.00  0.00    -0.312 N 
ATOM     18  C   LIG d   1       4.509  -3.541  -7.562  0.00  0.00     0.031 C 
ATOM     19  H   LIG d   1       4.711  -1.288  -6.202  0.00  0.00     0.047 H 
ATOM     20  H   LIG d   1       6.048  -0.530  -7.093  0.00  0.00     0.047 H 
ATOM     21  H   LIG d   1       7.288  -2.028  -8.909  0.00  0.00     0.028 H 
ATOM     22  H   LIG d   1       6.475  -3.540  -9.387  0.00  0.00     0.028 H 
ATOM     23  H   LIG d   1       8.459  -1.827  -6.787  0.00  0.00     0.047 H 
ATOM     24  H   LIG d   1       8.420  -3.147  -5.587  0.00  0.00     0.047 H 
ATOM     25  H   LIG d   1       8.279  -5.858  -6.355  0.00  0.00     0.064 H 
ATOM     26  H   LIG d   1       6.944  -7.615  -5.218  0.00  0.00     0.062 H 
ATOM     27  H   LIG d   1       4.504  -7.346  -5.054  0.00  0.00     0.067 H 
ATOM     28  H   LIG d   1       3.695  -3.183  -6.931  0.00  0.00     0.050 H 
ATOM     29  H   LIG d   1       4.087  -3.970  -8.471  0.00  0.00     0.050 H 
ENDROOT
BRANCH   1  30
ATOM     30  C   LIG d   1       5.104  -1.536  -3.931  0.00  0.00     0.056 C 
ATOM     31  H   LIG d   1       4.630  -0.925  -4.698  0.00  0.00     0.095 H 
BRANCH  30  32
ATOM     32  C   LIG d   1       5.474  -0.658  -2.734  0.00  0.00     0.007 C 
ATOM     33  H   LIG d   1       6.177  -1.192  -2.095  0.00  0.00     0.036 H 
BRANCH  32  34
ATOM     34  C   LIG d   1       4.212  -0.323  -1.937  0.00  0.00    -0.048 C 
ATOM     35  H   LIG d   1       3.408  -1.001  -2.227  0.00  0.00     0.027 H 
ATOM     36  H   LIG d   1       4.415  -0.437  -0.871  0.00  0.00     0.027 H 
BRANCH  34  37
ATOM     37  C   LIG d   1       3.793   1.119  -2.226  0.00  0.00    -0.065 C 
ATOM     38  H   LIG d   1       2.951   1.388  -1.588  0.00  0.00     0.023 H 
ATOM     39  H   LIG d   1       4.630   1.788  -2.023  0.00  0.00     0.023 H 
ATOM     40  H   LIG d   1       3.500   1.209  -3.272  0.00  0.00     0.023 H 
ENDBRANCH  34  37
ENDBRANCH  32  34
BRANCH  32  41
ATOM     41  C   LIG d   1       6.120   0.636  -3.233  0.00  0.00    -0.057 C 
ATOM     42  H   LIG d   1       7.174   0.457  -3.448  0.00  0.00     0.023 H 
ATOM     43  H   LIG d   1       5.615   0.967  -4.140  0.00  0.00     0.023 H 
ATOM     44  H   LIG d   1       6.031   1.406  -2.466  0.00  0.00     0.023 H 
ENDBRANCH  32  41
ENDBRANCH  30  32
BRANCH  30  45
ATOM     45  N   LIG d   1       4.168  -2.599  -3.520  0.00  0.00     0.228 N 
ATOM     46  H   LIG d   1       4.612  -3.511  -3.614  0.00  0.00     0.200 HD
ATOM     47  H   LIG d   1       3.884  -2.459  -2.552  0.00  0.00     0.200 HD
ATOM     48  H   LIG d   1       3.337  -2.568  -4.121  0.00  0.00     0.200 HD
ENDBRANCH  30  45
ENDBRANCH   1  30
TORSDOF 6
ENDMDL
MODEL 7
REMARK VINA RESULT:      -5.5      1.996      5.329
REMARK  6 active torsions:
REMARK  status: ('A' for Active; 'I' for Inactive)
REMARK    1  A    between atoms: C_1  and  C_2 
REMARK    2  A    between atoms: C_2  and  C_3 
REMARK    3  A    between atoms: C_3  and  C_5 
REMARK    4  A    between atoms: C_3  and  C_6 
REMARK    5  A    between atoms: C_6  and  C_8 
REMARK    6  A    between atoms: C_6  and  N_47 
REMARK       I    between atoms: C_8  and  N_10 
ROOT
ATOM      1  C   LIG d   1       4.163  -0.535  -5.622  0.00  0.00     0.264 C 
ATOM      2  O   LIG d   1       3.651   0.564  -5.642  0.00  0.00    -0.269 OA
ATOM      3  N   LIG d   1       4.088  -1.332  -6.706  0.00  0.00    -0.296 N 
ATOM      4  C   LIG d   1       4.778  -2.627  -6.734  0.00  0.00     0.019 C 
ATOM      5  C   LIG d   1       5.581  -2.790  -8.017  0.00  0.00    -0.006 C 
ATOM      6  H   LIG d   1       5.877  -3.835  -8.105  0.00  0.00     0.033 H 
ATOM      7  C   LIG d   1       4.757  -2.427  -9.253  0.00  0.00    -0.037 C 
ATOM      8  C   LIG d   1       4.270  -0.984  -9.099  0.00  0.00     0.016 C 
ATOM      9  H   LIG d   1       3.751  -0.665 -10.003  0.00  0.00     0.038 H 
ATOM     10  C   LIG d   1       3.318  -0.922  -7.892  0.00  0.00     0.023 C 
ATOM     11  C   LIG d   1       5.433  -0.062  -8.814  0.00  0.00     0.027 A 
ATOM     12  C   LIG d   1       5.320   1.233  -9.149  0.00  0.00    -0.042 A 
ATOM     13  C   LIG d   1       6.336   2.146  -8.850  0.00  0.00    -0.055 A 
ATOM     14  C   LIG d   1       7.445   1.705  -8.190  0.00  0.00     0.003 A 
ATOM     15  C   LIG d   1       7.542   0.348  -7.852  0.00  0.00     0.252 A 
ATOM     16  O   LIG d   1       8.507  -0.048  -7.218  0.00  0.00    -0.268 OA
ATOM     17  N   LIG d   1       6.576  -0.530  -8.221  0.00  0.00    -0.312 N 
ATOM     18  C   LIG d   1       6.841  -1.947  -7.971  0.00  0.00     0.031 C 
ATOM     19  H   LIG d   1       5.436  -2.704  -5.869  0.00  0.00     0.047 H 
ATOM     20  H   LIG d   1       4.042  -3.430  -6.698  0.00  0.00     0.047 H 
ATOM     21  H   LIG d   1       3.901  -3.097  -9.334  0.00  0.00     0.028 H 
ATOM     22  H   LIG d   1       5.377  -2.513 -10.145  0.00  0.00     0.028 H 
ATOM     23  H   LIG d   1       2.481  -1.603  -8.044  0.00  0.00     0.047 H 
ATOM     24  H   LIG d   1       2.950   0.095  -7.760  0.00  0.00     0.047 H 
ATOM     25  H   LIG d   1       4.429   1.571  -9.657  0.00  0.00     0.064 H 
ATOM     26  H   LIG d   1       6.244   3.183  -9.138  0.00  0.00     0.062 H 
ATOM     27  H   LIG d   1       8.237   2.391  -7.930  0.00  0.00     0.067 H 
ATOM     28  H   LIG d   1       7.301  -2.052  -6.988  0.00  0.00     0.050 H 
ATOM     29  H   LIG d   1       7.538  -2.312  -8.725  0.00  0.00     0.050 H 
ENDROOT
BRANCH   1  30
ATOM     30  C   LIG d   1       4.883  -1.009  -4.387  0.00  0.00     0.056 C 
ATOM     31  H   LIG d   1       5.150  -2.060  -4.503  0.00  0.00     0.095 H 
BRANCH  30  32
ATOM     32  C   LIG d   1       3.970  -0.846  -3.170  0.00  0.00     0.007 C 
ATOM     33  H   LIG d   1       2.989  -0.500  -3.495  0.00  0.00     0.036 H 
BRANCH  32  34
ATOM     34  C   LIG d   1       4.579   0.176  -2.208  0.00  0.00    -0.048 C 
ATOM     35  H   LIG d   1       4.595  -0.238  -1.200  0.00  0.00     0.027 H 
ATOM     36  H   LIG d   1       5.598   0.407  -2.522  0.00  0.00     0.027 H 
BRANCH  34  37
ATOM     37  C   LIG d   1       3.738   1.453  -2.222  0.00  0.00    -0.065 C 
ATOM     38  H   LIG d   1       3.148   1.490  -3.138  0.00  0.00     0.023 H 
ATOM     39  H   LIG d   1       3.071   1.459  -1.360  0.00  0.00     0.023 H 
ATOM     40  H   LIG d   1       4.396   2.322  -2.179  0.00  0.00     0.023 H 
ENDBRANCH  34  37
ENDBRANCH  32  34
BRANCH  32  41
ATOM     41  C   LIG d   1       3.825  -2.193  -2.458  0.00  0.00    -0.057 C 
ATOM     42  H   LIG d   1       4.812  -2.577  -2.202  0.00  0.00     0.023 H 
ATOM     43  H   LIG d   1       3.238  -2.062  -1.549  0.00  0.00     0.023 H 
ATOM     44  H   LIG d   1       3.320  -2.899  -3.118  0.00  0.00     0.023 H 
ENDBRANCH  32  41
ENDBRANCH  30  32
BRANCH  30  45
ATOM     45  N   LIG d   1       6.114  -0.217  -4.217  0.00  0.00     0.228 N 
ATOM     46  H   LIG d   1       6.780  -0.444  -4.955  0.00  0.00     0.200 HD
ATOM     47  H   LIG d   1       5.897   0.777  -4.250  0.00  0.00     0.200 HD
ATOM     48  H   LIG d   1       6.535  -0.439  -3.307  0.00  0.00     0.200 HD
ENDBRANCH  30  45
ENDBRANCH   1  30
TORSDOF 6
ENDMDL
MODEL 8
REMARK VINA RESULT:      -5.1      2.043      5.224
REMARK  6 active torsions:
REMARK  status: ('A' for Active; 'I' for Inactive)
REMARK    1  A    between atoms: C_1  and  C_2 
REMARK    2  A    between atoms: C_2  and  C_3 
REMARK    3  A    between atoms: C_3  and  C_5 
REMARK    4  A    between atoms: C_3  and  C_6 
REMARK    5  A    between atoms: C_6  and  C_8 
REMARK    6  A    between atoms: C_6  and  N_47 
REMARK       I    between atoms: C_8  and  N_10 
ROOT
ATOM      1  C   LIG d   1       4.823  -0.252  -4.791  0.00  0.00     0.264 C 
ATOM      2  O   LIG d   1       4.000   0.516  -5.242  0.00  0.00    -0.269 OA
ATOM      3  N   LIG d   1       5.160  -1.359  -5.482  0.00  0.00    -0.296 N 
ATOM      4  C   LIG d   1       6.218  -2.253  -4.996  0.00  0.00     0.019 C 
ATOM      5  C   LIG d   1       7.209  -2.579  -6.105  0.00  0.00    -0.006 C 
ATOM      6  H   LIG d   1       7.827  -3.414  -5.777  0.00  0.00     0.033 H 
ATOM      7  C   LIG d   1       6.502  -2.993  -7.396  0.00  0.00    -0.037 C 
ATOM      8  C   LIG d   1       5.569  -1.855  -7.819  0.00  0.00     0.016 C 
ATOM      9  H   LIG d   1       5.114  -2.083  -8.783  0.00  0.00     0.038 H 
ATOM     10  C   LIG d   1       4.481  -1.696  -6.744  0.00  0.00     0.023 C 
ATOM     11  C   LIG d   1       6.330  -0.552  -7.899  0.00  0.00     0.027 A 
ATOM     12  C   LIG d   1       5.867   0.411  -8.711  0.00  0.00    -0.042 A 
ATOM     13  C   LIG d   1       6.490   1.660  -8.777  0.00  0.00    -0.055 A 
ATOM     14  C   LIG d   1       7.573   1.899  -7.982  0.00  0.00     0.003 A 
ATOM     15  C   LIG d   1       8.041   0.878  -7.143  0.00  0.00     0.252 A 
ATOM     16  O   LIG d   1       8.978   1.096  -6.393  0.00  0.00    -0.268 OA
ATOM     17  N   LIG d   1       7.464  -0.350  -7.156  0.00  0.00    -0.312 N 
ATOM     18  C   LIG d   1       8.120  -1.396  -6.373  0.00  0.00     0.031 C 
ATOM     19  H   LIG d   1       6.733  -1.781  -4.160  0.00  0.00     0.047 H 
ATOM     20  H   LIG d   1       5.773  -3.190  -4.661  0.00  0.00     0.047 H 
ATOM     21  H   LIG d   1       5.920  -3.898  -7.222  0.00  0.00     0.028 H 
ATOM     22  H   LIG d   1       7.239  -3.174  -8.176  0.00  0.00     0.028 H 
ATOM     23  H   LIG d   1       3.931  -2.630  -6.631  0.00  0.00     0.047 H 
ATOM     24  H   LIG d   1       3.798  -0.894  -7.022  0.00  0.00     0.047 H 
ATOM     25  H   LIG d   1       4.998   0.214  -9.322  0.00  0.00     0.064 H 
ATOM     26  H   LIG d   1       6.121   2.424  -9.445  0.00  0.00     0.062 H 
ATOM     27  H   LIG d   1       8.063   2.861  -7.999  0.00  0.00     0.067 H 
ATOM     28  H   LIG d   1       8.441  -0.974  -5.420  0.00  0.00     0.050 H 
ATOM     29  H   LIG d   1       8.998  -1.743  -6.917  0.00  0.00     0.050 H 
ENDROOT
BRANCH   1  30
ATOM     30  C   LIG d   1       5.467   0.030  -3.459  0.00  0.00     0.056 C 
ATOM     31  H   LIG d   1       6.216  -0.734  -3.248  0.00  0.00     0.095 H 
BRANCH  30  32
ATOM     32  C   LIG d   1       4.401   0.015  -2.362  0.00  0.00     0.007 C 
ATOM     33  H   LIG d   1       4.863  -0.245  -1.409  0.00  0.00     0.036 H 
BRANCH  32  34
ATOM     34  C   LIG d   1       3.328  -1.020  -2.707  0.00  0.00    -0.048 C 
ATOM     35  H   LIG d   1       2.391  -0.749  -2.218  0.00  0.00     0.027 H 
ATOM     36  H   LIG d   1       3.180  -1.043  -3.787  0.00  0.00     0.027 H 
BRANCH  34  37
ATOM     37  C   LIG d   1       3.776  -2.400  -2.223  0.00  0.00    -0.065 C 
ATOM     38  H   LIG d   1       2.981  -3.124  -2.404  0.00  0.00     0.023 H 
ATOM     39  H   LIG d   1       4.672  -2.702  -2.765  0.00  0.00     0.023 H 
ATOM     40  H   LIG d   1       3.992  -2.358  -1.156  0.00  0.00     0.023 H 
ENDBRANCH  34  37
ENDBRANCH  32  34
BRANCH  32  41
ATOM     41  C   LIG d   1       3.760   1.399  -2.256  0.00  0.00    -0.057 C 
ATOM     42  H   LIG d   1       2.924   1.467  -2.953  0.00  0.00     0.023 H 
ATOM     43  H   LIG d   1       3.399   1.557  -1.240  0.00  0.00     0.023 H 
ATOM     44  H   LIG d   1       4.500   2.162  -2.500  0.00  0.00     0.023 H 
ENDBRANCH  32  41
ENDBRANCH  30  32
BRANCH  30  45
ATOM     45  N   LIG d   1       6.128   1.346  -3.516  0.00  0.00     0.228 N 
ATOM     46  H   LIG d   1       5.432   2.089  -3.479  0.00  0.00     0.200 HD
ATOM     47  H   LIG d   1       6.773   1.447  -2.735  0.00  0.00     0.200 HD
ATOM     48  H   LIG d   1       6.653   1.422  -4.396  0.00  0.00     0.200 HD
ENDBRANCH  30  45
ENDBRANCH   1  30
TORSDOF 6
ENDMDL
MODEL 9
REMARK VINA RESULT:      -5.0      2.177      6.315
REMARK  6 active torsions:
REMARK  status: ('A' for Active; 'I' for Inactive)
REMARK    1  A    between atoms: C_1  and  C_2 
REMARK    2  A    between atoms: C_2  and  C_3 
REMARK    3  A    between atoms: C_3  and  C_5 
REMARK    4  A    between atoms: C_3  and  C_6 
REMARK    5  A    between atoms: C_6  and  C_8 
REMARK    6  A    between atoms: C_6  and  N_47 
REMARK       I    between atoms: C_8  and  N_10 
ROOT
ATOM      1  C   LIG d   1       5.209  -0.681  -7.041  0.00  0.00     0.264 C 
ATOM      2  O   LIG d   1       6.351  -1.034  -7.240  0.00  0.00    -0.269 OA
ATOM      3  N   LIG d   1       4.685   0.339  -7.749  0.00  0.00    -0.296 N 
ATOM      4  C   LIG d   1       3.278   0.721  -7.586  0.00  0.00     0.019 C 
ATOM      5  C   LIG d   1       2.591   0.863  -8.937  0.00  0.00    -0.006 C 
ATOM      6  H   LIG d   1       1.638   1.368  -8.785  0.00  0.00     0.033 H 
ATOM      7  C   LIG d   1       3.420   1.701  -9.912  0.00  0.00    -0.037 C 
ATOM      8  C   LIG d   1       4.791   1.039 -10.068  0.00  0.00     0.016 C 
ATOM      9  H   LIG d   1       5.377   1.565 -10.823  0.00  0.00     0.038 H 
ATOM     10  C   LIG d   1       5.511   1.091  -8.709  0.00  0.00     0.023 C 
ATOM     11  C   LIG d   1       4.635  -0.415 -10.450  0.00  0.00     0.027 A 
ATOM     12  C   LIG d   1       5.636  -1.012 -11.116  0.00  0.00    -0.042 A 
ATOM     13  C   LIG d   1       5.577  -2.371 -11.438  0.00  0.00    -0.055 A 
ATOM     14  C   LIG d   1       4.489  -3.095 -11.045  0.00  0.00     0.003 A 
ATOM     15  C   LIG d   1       3.455  -2.449 -10.353  0.00  0.00     0.252 A 
ATOM     16  O   LIG d   1       2.501  -3.097  -9.954  0.00  0.00    -0.268 OA
ATOM     17  N   LIG d   1       3.504  -1.114 -10.121  0.00  0.00    -0.312 N 
ATOM     18  C   LIG d   1       2.310  -0.501  -9.540  0.00  0.00     0.031 C 
ATOM     19  H   LIG d   1       2.768  -0.029  -6.983  0.00  0.00     0.047 H 
ATOM     20  H   LIG d   1       3.222   1.686  -7.082  0.00  0.00     0.047 H 
ATOM     21  H   LIG d   1       3.542   2.709  -9.517  0.00  0.00     0.028 H 
ATOM     22  H   LIG d   1       2.919   1.742 -10.878  0.00  0.00     0.028 H 
ATOM     23  H   LIG d   1       5.611   2.125  -8.381  0.00  0.00     0.047 H 
ATOM     24  H   LIG d   1       6.495   0.630  -8.791  0.00  0.00     0.047 H 
ATOM     25  H   LIG d   1       6.498  -0.431 -11.406  0.00  0.00     0.064 H 
ATOM     26  H   LIG d   1       6.379  -2.841 -11.988  0.00  0.00     0.062 H 
ATOM     27  H   LIG d   1       4.425  -4.150 -11.264  0.00  0.00     0.067 H 
ATOM     28  H   LIG d   1       1.919  -1.157  -8.762  0.00  0.00     0.050 H 
ATOM     29  H   LIG d   1       1.556  -0.393 -10.320  0.00  0.00     0.050 H 
ENDROOT
BRANCH   1  30
ATOM     30  C   LIG d   1       4.373  -1.382  -6.001  0.00  0.00     0.056 C 
ATOM     31  H   LIG d   1       3.436  -0.842  -5.863  0.00  0.00     0.095 H 
BRANCH  30  32
ATOM     32  C   LIG d   1       5.138  -1.425  -4.676  0.00  0.00     0.007 C 
ATOM     33  H   LIG d   1       6.204  -1.531  -4.876  0.00  0.00     0.036 H 
BRANCH  32  34
ATOM     34  C   LIG d   1       4.653  -2.615  -3.846  0.00  0.00    -0.048 C 
ATOM     35  H   LIG d   1       3.954  -3.209  -4.436  0.00  0.00     0.027 H 
ATOM     36  H   LIG d   1       5.507  -3.233  -3.563  0.00  0.00     0.027 H 
BRANCH  34  37
ATOM     37  C   LIG d   1       3.952  -2.106  -2.586  0.00  0.00    -0.065 C 
ATOM     38  H   LIG d   1       2.909  -2.425  -2.596  0.00  0.00     0.023 H 
ATOM     39  H   LIG d   1       4.447  -2.514  -1.704  0.00  0.00     0.023 H 
ATOM     40  H   LIG d   1       3.999  -1.018  -2.558  0.00  0.00     0.023 H 
ENDBRANCH  34  37
ENDBRANCH  32  34
BRANCH  32  41
ATOM     41  C   LIG d   1       4.890  -0.129  -3.903  0.00  0.00    -0.057 C 
ATOM     42  H   LIG d   1       5.186  -0.263  -2.863  0.00  0.00     0.023 H 
ATOM     43  H   LIG d   1       5.475   0.676  -4.347  0.00  0.00     0.023 H 
ATOM     44  H   LIG d   1       3.830   0.125  -3.950  0.00  0.00     0.023 H 
ENDBRANCH  32  41
ENDBRANCH  30  32
BRANCH  30  45
ATOM     45  N   LIG d   1       4.075  -2.748  -6.468  0.00  0.00     0.228 N 
ATOM     46  H   LIG d   1       4.580  -2.940  -7.332  0.00  0.00     0.200 HD
ATOM     47  H   LIG d   1       4.346  -3.426  -5.759  0.00  0.00     0.200 HD
ATOM     48  H   LIG d   1       3.067  -2.832  -6.644  0.00  0.00     0.200 HD
ENDBRANCH  30  45
ENDBRANCH   1  30
TORSDOF 6
ENDMDL
