MODEL 1
REMARK VINA RESULT:      -7.5      0.000      0.000
REMARK  6 active torsions:
REMARK  status: ('A' for Active; 'I' for Inactive)
REMARK    1  A    between atoms: C_1  and  C_2 
REMARK    2  A    between atoms: C_10  and  C_14 
REMARK    3  A    between atoms: C_18  and  C_20 
REMARK    4  A    between atoms: C_20  and  N_21 
REMARK    5  A    between atoms: N_24  and  C_27 
REMARK    6  A    between atoms: C_27  and  C_28 
ROOT
ATOM      1  C   LIG d   1       4.619  -0.006  -2.738  0.00  0.00    -0.073 C 
ATOM      2  C   LIG d   1       5.467  -0.303  -3.676  0.00  0.00    -0.064 C 
ATOM      3  C   LIG d   1       6.573   0.677  -4.010  0.00  0.00    -0.024 C 
ATOM      4  C   LIG d   1       7.933  -0.021  -3.905  0.00  0.00     0.014 C 
ATOM      5  H   LIG d   1       8.175  -0.107  -2.835  0.00  0.00     0.035 H 
ATOM      6  C   LIG d   1       7.928  -1.371  -4.643  0.00  0.00     0.108 C 
ATOM      7  H   LIG d   1       8.791  -2.010  -4.406  0.00  0.00     0.074 H 
ATOM      8  C   LIG d   1       6.781  -2.279  -4.281  0.00  0.00    -0.006 C 
ATOM      9  C   LIG d   1       5.435  -1.578  -4.472  0.00  0.00    -0.007 C 
ATOM     10  C   LIG d   1       4.292  -2.498  -4.093  0.00  0.00    -0.043 C 
ATOM     11  C   LIG d   1       3.948  -2.374  -2.609  0.00  0.00    -0.049 C 
ATOM     12  C   LIG d   1       3.505  -0.932  -2.335  0.00  0.00    -0.032 C 
ATOM     13  O   LIG d   1       7.962  -0.995  -6.048  0.00  0.00    -0.461 OA
ATOM     14  C   LIG d   1       8.832   0.034  -6.159  0.00  0.00     0.312 C 
ATOM     15  O   LIG d   1       9.458   0.317  -7.153  0.00  0.00    -0.251 OA
ATOM     16  C   LIG d   1       8.897   0.777  -4.837  0.00  0.00     0.075 C 
ATOM     17  H   LIG d   1       9.927   0.844  -4.457  0.00  0.00     0.043 H 
ATOM     18  H   LIG d   1       6.434   1.051  -5.035  0.00  0.00     0.031 H 
ATOM     19  H   LIG d   1       6.541   1.520  -3.304  0.00  0.00     0.031 H 
ATOM     20  H   LIG d   1       6.804  -3.173  -4.921  0.00  0.00     0.031 H 
ATOM     21  H   LIG d   1       6.872  -2.581  -3.226  0.00  0.00     0.031 H 
ATOM     22  H   LIG d   1       3.400  -2.236  -4.682  0.00  0.00     0.027 H 
ATOM     23  H   LIG d   1       4.575  -3.540  -4.301  0.00  0.00     0.027 H 
ATOM     24  H   LIG d   1       3.135  -3.072  -2.361  0.00  0.00     0.027 H 
ATOM     25  H   LIG d   1       4.836  -2.616  -2.006  0.00  0.00     0.027 H 
ATOM     26  H   LIG d   1       3.289  -0.803  -1.265  0.00  0.00     0.031 H 
ATOM     27  H   LIG d   1       2.603  -0.699  -2.922  0.00  0.00     0.031 H 
ENDROOT
BRANCH  16  28
ATOM     28  C   LIG d   1       8.410   2.217  -5.006  0.00  0.00     0.012 C 
ATOM     29  H   LIG d   1       8.161   2.397  -6.063  0.00  0.00     0.043 H 
ATOM     30  H   LIG d   1       7.515   2.377  -4.387  0.00  0.00     0.043 H 
BRANCH  28  31
ATOM     31  N   LIG d   1       9.469   3.145  -4.587  0.00  0.00    -0.299 N 
ATOM     32  C   LIG d   1       9.656   3.106  -3.130  0.00  0.00     0.012 C 
ATOM     33  C   LIG d   1      10.817   4.025  -2.743  0.00  0.00     0.012 C 
ATOM     34  H   LIG d   1       8.735   3.447  -2.632  0.00  0.00     0.044 H 
ATOM     35  H   LIG d   1       9.881   2.075  -2.817  0.00  0.00     0.044 H 
ATOM     36  N   LIG d   1      10.529   5.392  -3.198  0.00  0.00    -0.296 N 
ATOM     37  H   LIG d   1      11.742   3.667  -3.218  0.00  0.00     0.044 H 
ATOM     38  H   LIG d   1      10.941   4.020  -1.650  0.00  0.00     0.044 H 
ATOM     39  C   LIG d   1      10.342   5.431  -4.654  0.00  0.00     0.012 C 
ATOM     40  C   LIG d   1       9.181   4.512  -5.041  0.00  0.00     0.012 C 
ATOM     41  H   LIG d   1      11.261   5.090  -5.152  0.00  0.00     0.044 H 
ATOM     42  H   LIG d   1      10.116   6.461  -4.968  0.00  0.00     0.044 H 
ATOM     43  H   LIG d   1       9.056   4.517  -6.134  0.00  0.00     0.044 H 
ATOM     44  H   LIG d   1       8.255   4.870  -4.567  0.00  0.00     0.044 H 
BRANCH  36  45
ATOM     45  C   LIG d   1      11.588   6.320  -2.777  0.00  0.00     0.024 C 
ATOM     46  H   LIG d   1      12.328   5.780  -2.169  0.00  0.00     0.048 H 
ATOM     47  H   LIG d   1      12.080   6.740  -3.667  0.00  0.00     0.048 H 
BRANCH  45  48
ATOM     48  C   LIG d   1      10.984   7.435  -1.963  0.00  0.00    -0.030 A 
ATOM     49  C   LIG d   1      11.776   8.486  -1.541  0.00  0.00    -0.012 A 
ATOM     50  C   LIG d   1      11.223   9.513  -0.792  0.00  0.00     0.167 A 
ATOM     51  H   LIG d   1      12.825   8.508  -1.794  0.00  0.00     0.066 H 
ATOM     52  C   LIG d   1       9.868   9.484  -0.472  0.00  0.00     0.166 A 
ATOM     53  O   LIG d   1      11.773  10.643  -0.260  0.00  0.00    -0.453 OA
ATOM     54  C   LIG d   1       9.081   8.424  -0.894  0.00  0.00    -0.016 A 
ATOM     55  O   LIG d   1       9.571  10.593   0.268  0.00  0.00    -0.453 OA
ATOM     56  C   LIG d   1       9.640   7.404  -1.641  0.00  0.00    -0.054 A 
ATOM     57  H   LIG d   1       8.031   8.398  -0.644  0.00  0.00     0.066 H 
ATOM     58  H   LIG d   1       9.025   6.581  -1.974  0.00  0.00     0.062 H 
ATOM     59  C   LIG d   1      10.836  11.095   0.736  0.00  0.00     0.233 C 
ATOM     60  H   LIG d   1      11.114  10.679   1.716  0.00  0.00     0.117 H 
ATOM     61  H   LIG d   1      10.856  12.194   0.786  0.00  0.00     0.117 H 
ENDBRANCH  45  48
ENDBRANCH  36  45
ENDBRANCH  28  31
ENDBRANCH  16  28
BRANCH   1  62
ATOM     62  C   LIG d   1       4.757   1.315  -2.027  0.00  0.00    -0.043 C 
ATOM     63  H   LIG d   1       3.774   1.632  -1.649  0.00  0.00     0.027 H 
ATOM     64  H   LIG d   1       5.141   2.071  -2.729  0.00  0.00     0.027 H 
ATOM     65  H   LIG d   1       5.457   1.207  -1.185  0.00  0.00     0.027 H 
ENDBRANCH   1  62
BRANCH   9  66
ATOM     66  C   LIG d   1       5.297  -1.220  -5.953  0.00  0.00    -0.056 C 
ATOM     67  H   LIG d   1       5.763  -0.241  -6.138  0.00  0.00     0.024 H 
ATOM     68  H   LIG d   1       4.232  -1.177  -6.221  0.00  0.00     0.024 H 
ATOM     69  H   LIG d   1       5.798  -1.985  -6.563  0.00  0.00     0.024 H 
ENDBRANCH   9  66
TORSDOF 6
ENDMDL
MODEL 2
REMARK VINA RESULT:      -7.1      3.950      4.921
REMARK  6 active torsions:
REMARK  status: ('A' for Active; 'I' for Inactive)
REMARK    1  A    between atoms: C_1  and  C_2 
REMARK    2  A    between atoms: C_10  and  C_14 
REMARK    3  A    between atoms: C_18  and  C_20 
REMARK    4  A    between atoms: C_20  and  N_21 
REMARK    5  A    between atoms: N_24  and  C_27 
REMARK    6  A    between atoms: C_27  and  C_28 
ROOT
ATOM      1  C   LIG d   1       3.326  -0.241  -5.006  0.00  0.00    -0.073 C 
ATOM      2  C   LIG d   1       4.466  -0.829  -4.801  0.00  0.00    -0.064 C 
ATOM      3  C   LIG d   1       5.603  -0.596  -5.775  0.00  0.00    -0.024 C 
ATOM      4  C   LIG d   1       6.836  -0.089  -5.021  0.00  0.00     0.014 C 
ATOM      5  H   LIG d   1       6.663   0.973  -4.790  0.00  0.00     0.035 H 
ATOM      6  C   LIG d   1       7.124  -0.947  -3.777  0.00  0.00     0.108 C 
ATOM      7  H   LIG d   1       7.846  -0.494  -3.082  0.00  0.00     0.074 H 
ATOM      8  C   LIG d   1       5.938  -1.159  -2.873  0.00  0.00    -0.006 C 
ATOM      9  C   LIG d   1       4.750  -1.741  -3.641  0.00  0.00    -0.007 C 
ATOM     10  C   LIG d   1       3.560  -1.937  -2.721  0.00  0.00    -0.043 C 
ATOM     11  C   LIG d   1       2.688  -0.685  -2.667  0.00  0.00    -0.049 C 
ATOM     12  C   LIG d   1       2.154  -0.406  -4.077  0.00  0.00    -0.032 C 
ATOM     13  O   LIG d   1       7.673  -2.176  -4.328  0.00  0.00    -0.461 OA
ATOM     14  C   LIG d   1       8.508  -1.820  -5.330  0.00  0.00     0.312 C 
ATOM     15  O   LIG d   1       9.455  -2.464  -5.715  0.00  0.00    -0.251 OA
ATOM     16  C   LIG d   1       8.066  -0.482  -5.895  0.00  0.00     0.075 C 
ATOM     17  H   LIG d   1       8.879   0.257  -5.876  0.00  0.00     0.043 H 
ATOM     18  H   LIG d   1       5.850  -1.541  -6.282  0.00  0.00     0.031 H 
ATOM     19  H   LIG d   1       5.298   0.151  -6.522  0.00  0.00     0.031 H 
ATOM     20  H   LIG d   1       6.210  -1.857  -2.067  0.00  0.00     0.031 H 
ATOM     21  H   LIG d   1       5.633  -0.195  -2.435  0.00  0.00     0.031 H 
ATOM     22  H   LIG d   1       2.948  -2.775  -3.089  0.00  0.00     0.027 H 
ATOM     23  H   LIG d   1       3.915  -2.162  -1.705  0.00  0.00     0.027 H 
ATOM     24  H   LIG d   1       1.851  -0.850  -1.973  0.00  0.00     0.027 H 
ATOM     25  H   LIG d   1       3.291   0.167  -2.318  0.00  0.00     0.027 H 
ATOM     26  H   LIG d   1       1.554   0.515  -4.077  0.00  0.00     0.031 H 
ATOM     27  H   LIG d   1       1.533  -1.249  -4.416  0.00  0.00     0.031 H 
ENDROOT
BRANCH  16  28
ATOM     28  C   LIG d   1       7.656  -0.629  -7.362  0.00  0.00     0.012 C 
ATOM     29  H   LIG d   1       8.056  -1.572  -7.761  0.00  0.00     0.043 H 
ATOM     30  H   LIG d   1       6.559  -0.634  -7.438  0.00  0.00     0.043 H 
BRANCH  28  31
ATOM     31  N   LIG d   1       8.195   0.498  -8.136  0.00  0.00    -0.299 N 
ATOM     32  C   LIG d   1       9.467   0.966  -7.567  0.00  0.00     0.012 C 
ATOM     33  C   LIG d   1      10.034   2.085  -8.445  0.00  0.00     0.012 C 
ATOM     34  H   LIG d   1       9.296   1.348  -6.550  0.00  0.00     0.044 H 
ATOM     35  H   LIG d   1      10.181   0.130  -7.531  0.00  0.00     0.044 H 
ATOM     36  N   LIG d   1       9.060   3.182  -8.525  0.00  0.00    -0.296 N 
ATOM     37  H   LIG d   1      10.230   1.695  -9.455  0.00  0.00     0.044 H 
ATOM     38  H   LIG d   1      10.971   2.457  -8.007  0.00  0.00     0.044 H 
ATOM     39  C   LIG d   1       7.789   2.715  -9.092  0.00  0.00     0.012 C 
ATOM     40  C   LIG d   1       7.222   1.596  -8.215  0.00  0.00     0.012 C 
ATOM     41  H   LIG d   1       7.958   2.332 -10.110  0.00  0.00     0.044 H 
ATOM     42  H   LIG d   1       7.073   3.550  -9.130  0.00  0.00     0.044 H 
ATOM     43  H   LIG d   1       6.284   1.224  -8.653  0.00  0.00     0.044 H 
ATOM     44  H   LIG d   1       7.024   1.985  -7.205  0.00  0.00     0.044 H 
BRANCH  36  45
ATOM     45  C   LIG d   1       9.600   4.309  -9.297  0.00  0.00     0.024 C 
ATOM     46  H   LIG d   1      10.627   4.077  -9.615  0.00  0.00     0.048 H 
ATOM     47  H   LIG d   1       8.971   4.479 -10.184  0.00  0.00     0.048 H 
BRANCH  45  48
ATOM     48  C   LIG d   1       9.606   5.549  -8.441  0.00  0.00    -0.030 A 
ATOM     49  C   LIG d   1       9.406   6.788  -9.021  0.00  0.00    -0.012 A 
ATOM     50  C   LIG d   1       9.412   7.929  -8.235  0.00  0.00     0.167 A 
ATOM     51  H   LIG d   1       9.246   6.866 -10.085  0.00  0.00     0.066 H 
ATOM     52  C   LIG d   1       9.613   7.823  -6.861  0.00  0.00     0.166 A 
ATOM     53  O   LIG d   1       9.244   9.246  -8.551  0.00  0.00    -0.453 OA
ATOM     54  C   LIG d   1       9.818   6.578  -6.287  0.00  0.00    -0.016 A 
ATOM     55  O   LIG d   1       9.579   9.075  -6.317  0.00  0.00    -0.453 OA
ATOM     56  C   LIG d   1       9.811   5.444  -7.078  0.00  0.00    -0.054 A 
ATOM     57  H   LIG d   1       9.978   6.493  -5.223  0.00  0.00     0.066 H 
ATOM     58  H   LIG d   1       9.965   4.474  -6.629  0.00  0.00     0.062 H 
ATOM     59  C   LIG d   1       9.755   9.981  -7.422  0.00  0.00     0.233 C 
ATOM     60  H   LIG d   1      10.812  10.229  -7.595  0.00  0.00     0.117 H 
ATOM     61  H   LIG d   1       9.177  10.909  -7.296  0.00  0.00     0.117 H 
ENDBRANCH  45  48
ENDBRANCH  36  45
ENDBRANCH  28  31
ENDBRANCH  16  28
BRANCH   1  62
ATOM     62  C   LIG d   1       3.170   0.638  -6.220  0.00  0.00    -0.043 C 
ATOM     63  H   LIG d   1       2.300   1.297  -6.086  0.00  0.00     0.027 H 
ATOM     64  H   LIG d   1       3.021   0.009  -7.111  0.00  0.00     0.027 H 
ATOM     65  H   LIG d   1       4.077   1.248  -6.349  0.00  0.00     0.027 H 
ENDBRANCH   1  62
BRANCH   9  66
ATOM     66  C   LIG d   1       5.168  -3.106  -4.190  0.00  0.00    -0.056 C 
ATOM     67  H   LIG d   1       4.277  -3.651  -4.535  0.00  0.00     0.024 H 
ATOM     68  H   LIG d   1       5.666  -3.683  -3.396  0.00  0.00     0.024 H 
ATOM     69  H   LIG d   1       5.862  -2.966  -5.031  0.00  0.00     0.024 H 
ENDBRANCH   9  66
TORSDOF 6
ENDMDL
MODEL 3
REMARK VINA RESULT:      -7.0      7.335     12.466
REMARK  6 active torsions:
REMARK  status: ('A' for Active; 'I' for Inactive)
REMARK    1  A    between atoms: C_1  and  C_2 
REMARK    2  A    between atoms: C_10  and  C_14 
REMARK    3  A    between atoms: C_18  and  C_20 
REMARK    4  A    between atoms: C_20  and  N_21 
REMARK    5  A    between atoms: N_24  and  C_27 
REMARK    6  A    between atoms: C_27  and  C_28 
ROOT
ATOM      1  C   LIG d   1       3.339   0.564  -3.884  0.00  0.00    -0.073 C 
ATOM      2  C   LIG d   1       4.006  -0.547  -3.982  0.00  0.00    -0.064 C 
ATOM      3  C   LIG d   1       4.082  -1.247  -5.322  0.00  0.00    -0.024 C 
ATOM      4  C   LIG d   1       5.547  -1.470  -5.709  0.00  0.00     0.014 C 
ATOM      5  H   LIG d   1       5.943  -0.505  -6.061  0.00  0.00     0.035 H 
ATOM      6  C   LIG d   1       6.349  -2.071  -4.542  0.00  0.00     0.108 C 
ATOM      7  H   LIG d   1       7.439  -2.034  -4.686  0.00  0.00     0.074 H 
ATOM      8  C   LIG d   1       6.199  -1.338  -3.234  0.00  0.00    -0.006 C 
ATOM      9  C   LIG d   1       4.728  -1.203  -2.838  0.00  0.00    -0.007 C 
ATOM     10  C   LIG d   1       4.592  -0.452  -1.528  0.00  0.00    -0.043 C 
ATOM     11  C   LIG d   1       4.488   1.054  -1.759  0.00  0.00    -0.049 C 
ATOM     12  C   LIG d   1       3.231   1.329  -2.593  0.00  0.00    -0.032 C 
ATOM     13  O   LIG d   1       5.903  -3.455  -4.496  0.00  0.00    -0.461 OA
ATOM     14  C   LIG d   1       5.811  -3.882  -5.776  0.00  0.00     0.312 C 
ATOM     15  O   LIG d   1       5.915  -5.028  -6.142  0.00  0.00    -0.251 OA
ATOM     16  C   LIG d   1       5.554  -2.690  -6.681  0.00  0.00     0.075 C 
ATOM     17  H   LIG d   1       6.304  -2.617  -7.481  0.00  0.00     0.043 H 
ATOM     18  H   LIG d   1       3.571  -2.220  -5.257  0.00  0.00     0.031 H 
ATOM     19  H   LIG d   1       3.592  -0.627  -6.088  0.00  0.00     0.031 H 
ATOM     20  H   LIG d   1       6.726  -1.889  -2.441  0.00  0.00     0.031 H 
ATOM     21  H   LIG d   1       6.631  -0.329  -3.328  0.00  0.00     0.031 H 
ATOM     22  H   LIG d   1       3.684  -0.791  -1.005  0.00  0.00     0.027 H 
ATOM     23  H   LIG d   1       5.472  -0.650  -0.899  0.00  0.00     0.027 H 
ATOM     24  H   LIG d   1       4.417   1.570  -0.790  0.00  0.00     0.027 H 
ATOM     25  H   LIG d   1       5.381   1.405  -2.297  0.00  0.00     0.027 H 
ATOM     26  H   LIG d   1       3.152   2.404  -2.810  0.00  0.00     0.031 H 
ATOM     27  H   LIG d   1       2.337   0.999  -2.044  0.00  0.00     0.031 H 
ENDROOT
BRANCH  16  28
ATOM     28  C   LIG d   1       4.199  -2.828  -7.378  0.00  0.00     0.012 C 
ATOM     29  H   LIG d   1       3.870  -3.876  -7.334  0.00  0.00     0.043 H 
ATOM     30  H   LIG d   1       3.460  -2.189  -6.873  0.00  0.00     0.043 H 
BRANCH  28  31
ATOM     31  N   LIG d   1       4.326  -2.414  -8.782  0.00  0.00    -0.299 N 
ATOM     32  C   LIG d   1       3.460  -1.262  -9.072  0.00  0.00     0.012 C 
ATOM     33  C   LIG d   1       3.680  -0.813 -10.518  0.00  0.00     0.012 C 
ATOM     34  H   LIG d   1       2.408  -1.550  -8.932  0.00  0.00     0.044 H 
ATOM     35  H   LIG d   1       3.709  -0.437  -8.388  0.00  0.00     0.044 H 
ATOM     36  N   LIG d   1       3.386  -1.931 -11.425  0.00  0.00    -0.296 N 
ATOM     37  H   LIG d   1       4.726  -0.499 -10.651  0.00  0.00     0.044 H 
ATOM     38  H   LIG d   1       3.012   0.030 -10.747  0.00  0.00     0.044 H 
ATOM     39  C   LIG d   1       4.252  -3.082 -11.136  0.00  0.00     0.012 C 
ATOM     40  C   LIG d   1       4.032  -3.531  -9.689  0.00  0.00     0.012 C 
ATOM     41  H   LIG d   1       5.304  -2.795 -11.275  0.00  0.00     0.044 H 
ATOM     42  H   LIG d   1       4.004  -3.909 -11.818  0.00  0.00     0.044 H 
ATOM     43  H   LIG d   1       4.699  -4.376  -9.461  0.00  0.00     0.044 H 
ATOM     44  H   LIG d   1       2.986  -3.846  -9.557  0.00  0.00     0.044 H 
BRANCH  36  45
ATOM     45  C   LIG d   1       3.512  -1.517 -12.829  0.00  0.00     0.024 C 
ATOM     46  H   LIG d   1       3.658  -0.428 -12.877  0.00  0.00     0.048 H 
ATOM     47  H   LIG d   1       4.377  -2.023 -13.284  0.00  0.00     0.048 H 
BRANCH  45  48
ATOM     48  C   LIG d   1       2.260  -1.891 -13.578  0.00  0.00    -0.030 A 
ATOM     49  C   LIG d   1       1.062  -2.016 -12.900  0.00  0.00    -0.012 A 
ATOM     50  C   LIG d   1      -0.091  -2.360 -13.587  0.00  0.00     0.167 A 
ATOM     51  H   LIG d   1       1.025  -1.846 -11.835  0.00  0.00     0.066 H 
ATOM     52  C   LIG d   1      -0.040  -2.574 -14.962  0.00  0.00     0.166 A 
ATOM     53  O   LIG d   1      -1.375  -2.546 -13.164  0.00  0.00    -0.453 OA
ATOM     54  C   LIG d   1       1.166  -2.451 -15.635  0.00  0.00    -0.016 A 
ATOM     55  O   LIG d   1      -1.291  -2.902 -15.400  0.00  0.00    -0.453 OA
ATOM     56  C   LIG d   1       2.311  -2.108 -14.943  0.00  0.00    -0.054 A 
ATOM     57  H   LIG d   1       1.209  -2.620 -16.701  0.00  0.00     0.066 H 
ATOM     58  H   LIG d   1       3.249  -2.008 -15.469  0.00  0.00     0.062 H 
ATOM     59  C   LIG d   1      -2.026  -3.278 -14.221  0.00  0.00     0.233 C 
ATOM     60  H   LIG d   1      -1.960  -4.356 -14.014  0.00  0.00     0.117 H 
ATOM     61  H   LIG d   1      -3.083  -2.980 -14.276  0.00  0.00     0.117 H 
ENDBRANCH  45  48
ENDBRANCH  36  45
ENDBRANCH  28  31
ENDBRANCH  16  28
BRANCH   1  62
ATOM     62  C   LIG d   1       2.648   1.105  -5.108  0.00  0.00    -0.043 C 
ATOM     63  H   LIG d   1       1.714   1.604  -4.811  0.00  0.00     0.027 H 
ATOM     64  H   LIG d   1       2.419   0.277  -5.796  0.00  0.00     0.027 H 
ATOM     65  H   LIG d   1       3.307   1.829  -5.611  0.00  0.00     0.027 H 
ENDBRANCH   1  62
BRANCH   9  66
ATOM     66  C   LIG d   1       4.160  -2.611  -2.651  0.00  0.00    -0.056 C 
ATOM     67  H   LIG d   1       3.956  -2.785  -1.584  0.00  0.00     0.024 H 
ATOM     68  H   LIG d   1       4.890  -3.350  -3.011  0.00  0.00     0.024 H 
ATOM     69  H   LIG d   1       3.226  -2.708  -3.224  0.00  0.00     0.024 H 
ENDBRANCH   9  66
TORSDOF 6
ENDMDL
MODEL 4
REMARK VINA RESULT:      -6.9      6.393      9.913
REMARK  6 active torsions:
REMARK  status: ('A' for Active; 'I' for Inactive)
REMARK    1  A    between atoms: C_1  and  C_2 
REMARK    2  A    between atoms: C_10  and  C_14 
REMARK    3  A    between atoms: C_18  and  C_20 
REMARK    4  A    between atoms: C_20  and  N_21 
REMARK    5  A    between atoms: N_24  and  C_27 
REMARK    6  A    between atoms: C_27  and  C_28 
ROOT
ATOM      1  C   LIG d   1       5.477  -9.193  -4.512  0.00  0.00    -0.073 C 
ATOM      2  C   LIG d   1       6.554  -9.499  -3.854  0.00  0.00    -0.064 C 
ATOM      3  C   LIG d   1       7.780  -8.619  -3.991  0.00  0.00    -0.024 C 
ATOM      4  C   LIG d   1       8.239  -8.150  -2.607  0.00  0.00     0.014 C 
ATOM      5  H   LIG d   1       7.556  -7.348  -2.291  0.00  0.00     0.035 H 
ATOM      6  C   LIG d   1       8.308  -9.322  -1.613  0.00  0.00     0.108 C 
ATOM      7  H   LIG d   1       8.405  -9.010  -0.563  0.00  0.00     0.074 H 
ATOM      8  C   LIG d   1       7.063 -10.170  -1.555  0.00  0.00    -0.006 C 
ATOM      9  C   LIG d   1       6.678 -10.688  -2.942  0.00  0.00    -0.007 C 
ATOM     10  C   LIG d   1       5.418 -11.527  -2.870  0.00  0.00    -0.043 C 
ATOM     11  C   LIG d   1       4.167 -10.667  -3.034  0.00  0.00    -0.049 C 
ATOM     12  C   LIG d   1       4.215 -10.004  -4.417  0.00  0.00    -0.032 C 
ATOM     13  O   LIG d   1       9.499 -10.051  -2.023  0.00  0.00    -0.461 OA
ATOM     14  C   LIG d   1      10.441  -9.128  -2.320  0.00  0.00     0.312 C 
ATOM     15  O   LIG d   1      11.636  -9.302  -2.260  0.00  0.00    -0.251 OA
ATOM     16  C   LIG d   1       9.761  -7.838  -2.742  0.00  0.00     0.075 C 
ATOM     17  H   LIG d   1      10.095  -6.984  -2.137  0.00  0.00     0.043 H 
ATOM     18  H   LIG d   1       8.590  -9.191  -4.469  0.00  0.00     0.031 H 
ATOM     19  H   LIG d   1       7.535  -7.744  -4.610  0.00  0.00     0.031 H 
ATOM     20  H   LIG d   1       7.237 -11.033  -0.895  0.00  0.00     0.031 H 
ATOM     21  H   LIG d   1       6.229  -9.569  -1.161  0.00  0.00     0.031 H 
ATOM     22  H   LIG d   1       5.434 -12.280  -3.673  0.00  0.00     0.027 H 
ATOM     23  H   LIG d   1       5.369 -12.033  -1.895  0.00  0.00     0.027 H 
ATOM     24  H   LIG d   1       3.272 -11.300  -2.952  0.00  0.00     0.027 H 
ATOM     25  H   LIG d   1       4.146  -9.897  -2.249  0.00  0.00     0.027 H 
ATOM     26  H   LIG d   1       3.344  -9.345  -4.548  0.00  0.00     0.031 H 
ATOM     27  H   LIG d   1       4.213 -10.774  -5.202  0.00  0.00     0.031 H 
ENDROOT
BRANCH  16  28
ATOM     28  C   LIG d   1      10.111  -7.497  -4.192  0.00  0.00     0.012 C 
ATOM     29  H   LIG d   1      11.145  -7.810  -4.402  0.00  0.00     0.043 H 
ATOM     30  H   LIG d   1       9.424  -8.023  -4.870  0.00  0.00     0.043 H 
BRANCH  28  31
ATOM     31  N   LIG d   1       9.988  -6.047  -4.397  0.00  0.00    -0.299 N 
ATOM     32  C   LIG d   1       9.645  -5.365  -3.141  0.00  0.00     0.012 C 
ATOM     33  C   LIG d   1       9.603  -3.854  -3.379  0.00  0.00     0.012 C 
ATOM     34  H   LIG d   1       8.660  -5.710  -2.793  0.00  0.00     0.044 H 
ATOM     35  H   LIG d   1      10.405  -5.597  -2.380  0.00  0.00     0.044 H 
ATOM     36  N   LIG d   1       8.616  -3.553  -4.425  0.00  0.00    -0.296 N 
ATOM     37  H   LIG d   1      10.596  -3.505  -3.701  0.00  0.00     0.044 H 
ATOM     38  H   LIG d   1       9.318  -3.342  -2.448  0.00  0.00     0.044 H 
ATOM     39  C   LIG d   1       8.958  -4.234  -5.681  0.00  0.00     0.012 C 
ATOM     40  C   LIG d   1       9.000  -5.746  -5.442  0.00  0.00     0.012 C 
ATOM     41  H   LIG d   1       9.944  -3.891  -6.029  0.00  0.00     0.044 H 
ATOM     42  H   LIG d   1       8.200  -4.004  -6.443  0.00  0.00     0.044 H 
ATOM     43  H   LIG d   1       9.284  -6.257  -6.374  0.00  0.00     0.044 H 
ATOM     44  H   LIG d   1       8.008  -6.095  -5.122  0.00  0.00     0.044 H 
BRANCH  36  45
ATOM     45  C   LIG d   1       8.492  -2.103  -4.629  0.00  0.00     0.024 C 
ATOM     46  H   LIG d   1       9.349  -1.593  -4.166  0.00  0.00     0.048 H 
ATOM     47  H   LIG d   1       8.475  -1.885  -5.708  0.00  0.00     0.048 H 
BRANCH  45  48
ATOM     48  C   LIG d   1       7.214  -1.614  -3.999  0.00  0.00    -0.030 A 
ATOM     49  C   LIG d   1       7.102  -0.296  -3.601  0.00  0.00    -0.012 A 
ATOM     50  C   LIG d   1       5.927   0.156  -3.021  0.00  0.00     0.167 A 
ATOM     51  H   LIG d   1       7.929   0.383  -3.742  0.00  0.00     0.066 H 
ATOM     52  C   LIG d   1       4.859  -0.721  -2.846  0.00  0.00     0.166 A 
ATOM     53  O   LIG d   1       5.564   1.384  -2.549  0.00  0.00    -0.453 OA
ATOM     54  C   LIG d   1       4.981  -2.043  -3.243  0.00  0.00    -0.016 A 
ATOM     55  O   LIG d   1       3.831  -0.044  -2.256  0.00  0.00    -0.453 OA
ATOM     56  C   LIG d   1       6.155  -2.486  -3.820  0.00  0.00    -0.054 A 
ATOM     57  H   LIG d   1       4.156  -2.727  -3.104  0.00  0.00     0.066 H 
ATOM     58  H   LIG d   1       6.247  -3.516  -4.134  0.00  0.00     0.062 H 
ATOM     59  C   LIG d   1       4.418   1.150  -1.708  0.00  0.00     0.233 C 
ATOM     60  H   LIG d   1       4.749   1.013  -0.668  0.00  0.00     0.117 H 
ATOM     61  H   LIG d   1       3.739   2.013  -1.765  0.00  0.00     0.117 H 
ENDBRANCH  45  48
ENDBRANCH  36  45
ENDBRANCH  28  31
ENDBRANCH  16  28
BRANCH   1  62
ATOM     62  C   LIG d   1       5.494  -7.979  -5.406  0.00  0.00    -0.043 C 
ATOM     63  H   LIG d   1       6.242  -7.262  -5.037  0.00  0.00     0.027 H 
ATOM     64  H   LIG d   1       4.499  -7.507  -5.401  0.00  0.00     0.027 H 
ATOM     65  H   LIG d   1       5.750  -8.283  -6.432  0.00  0.00     0.027 H 
ENDBRANCH   1  62
BRANCH   9  66
ATOM     66  C   LIG d   1       7.820 -11.570  -3.449  0.00  0.00    -0.056 C 
ATOM     67  H   LIG d   1       7.469 -12.168  -4.303  0.00  0.00     0.024 H 
ATOM     68  H   LIG d   1       8.151 -12.240  -2.642  0.00  0.00     0.024 H 
ATOM     69  H   LIG d   1       8.660 -10.935  -3.766  0.00  0.00     0.024 H 
ENDBRANCH   9  66
TORSDOF 6
ENDMDL
MODEL 5
REMARK VINA RESULT:      -6.8      2.990      3.898
REMARK  6 active torsions:
REMARK  status: ('A' for Active; 'I' for Inactive)
REMARK    1  A    between atoms: C_1  and  C_2 
REMARK    2  A    between atoms: C_10  and  C_14 
REMARK    3  A    between atoms: C_18  and  C_20 
REMARK    4  A    between atoms: C_20  and  N_21 
REMARK    5  A    between atoms: N_24  and  C_27 
REMARK    6  A    between atoms: C_27  and  C_28 
ROOT
ATOM      1  C   LIG d   1       4.201   0.060  -2.987  0.00  0.00    -0.073 C 
ATOM      2  C   LIG d   1       5.239  -0.289  -3.686  0.00  0.00    -0.064 C 
ATOM      3  C   LIG d   1       6.268   0.759  -4.055  0.00  0.00    -0.024 C 
ATOM      4  C   LIG d   1       7.655   0.314  -3.581  0.00  0.00     0.014 C 
ATOM      5  H   LIG d   1       7.700   0.486  -2.495  0.00  0.00     0.035 H 
ATOM      6  C   LIG d   1       7.943  -1.143  -3.983  0.00  0.00     0.108 C 
ATOM      7  H   LIG d   1       8.813  -1.581  -3.473  0.00  0.00     0.074 H 
ATOM      8  C   LIG d   1       6.859  -2.122  -3.610  0.00  0.00    -0.006 C 
ATOM      9  C   LIG d   1       5.502  -1.689  -4.166  0.00  0.00    -0.007 C 
ATOM     10  C   LIG d   1       4.421  -2.676  -3.773  0.00  0.00    -0.043 C 
ATOM     11  C   LIG d   1       3.793  -2.306  -2.430  0.00  0.00    -0.049 C 
ATOM     12  C   LIG d   1       3.144  -0.923  -2.565  0.00  0.00    -0.032 C 
ATOM     13  O   LIG d   1       8.196  -1.061  -5.413  0.00  0.00    -0.461 OA
ATOM     14  C   LIG d   1       8.949   0.044  -5.616  0.00  0.00     0.312 C 
ATOM     15  O   LIG d   1       9.714   0.211  -6.536  0.00  0.00    -0.251 OA
ATOM     16  C   LIG d   1       8.679   1.042  -4.505  0.00  0.00     0.075 C 
ATOM     17  H   LIG d   1       9.604   1.342  -3.993  0.00  0.00     0.043 H 
ATOM     18  H   LIG d   1       6.282   0.891  -5.148  0.00  0.00     0.031 H 
ATOM     19  H   LIG d   1       6.007   1.714  -3.574  0.00  0.00     0.031 H 
ATOM     20  H   LIG d   1       7.104  -3.114  -4.017  0.00  0.00     0.031 H 
ATOM     21  H   LIG d   1       6.784  -2.185  -2.513  0.00  0.00     0.031 H 
ATOM     22  H   LIG d   1       3.631  -2.679  -4.540  0.00  0.00     0.027 H 
ATOM     23  H   LIG d   1       4.855  -3.682  -3.691  0.00  0.00     0.027 H 
ATOM     24  H   LIG d   1       3.033  -3.054  -2.162  0.00  0.00     0.027 H 
ATOM     25  H   LIG d   1       4.574  -2.281  -1.655  0.00  0.00     0.027 H 
ATOM     26  H   LIG d   1       2.718  -0.612  -1.600  0.00  0.00     0.031 H 
ATOM     27  H   LIG d   1       2.348  -0.954  -3.324  0.00  0.00     0.031 H 
ENDROOT
BRANCH  16  28
ATOM     28  C   LIG d   1       8.070   2.326  -5.072  0.00  0.00     0.012 C 
ATOM     29  H   LIG d   1       8.037   2.261  -6.170  0.00  0.00     0.043 H 
ATOM     30  H   LIG d   1       7.051   2.453  -4.682  0.00  0.00     0.043 H 
BRANCH  28  31
ATOM     31  N   LIG d   1       8.894   3.476  -4.675  0.00  0.00    -0.299 N 
ATOM     32  C   LIG d   1       9.901   3.781  -5.701  0.00  0.00     0.012 C 
ATOM     33  C   LIG d   1      10.684   5.030  -5.287  0.00  0.00     0.012 C 
ATOM     34  H   LIG d   1      10.592   2.931  -5.802  0.00  0.00     0.044 H 
ATOM     35  H   LIG d   1       9.400   3.963  -6.663  0.00  0.00     0.044 H 
ATOM     36  N   LIG d   1      11.319   4.797  -3.983  0.00  0.00    -0.296 N 
ATOM     37  H   LIG d   1       9.998   5.886  -5.213  0.00  0.00     0.044 H 
ATOM     38  H   LIG d   1      11.458   5.244  -6.039  0.00  0.00     0.044 H 
ATOM     39  C   LIG d   1      10.313   4.491  -2.957  0.00  0.00     0.012 C 
ATOM     40  C   LIG d   1       9.530   3.243  -3.371  0.00  0.00     0.012 C 
ATOM     41  H   LIG d   1       9.621   5.341  -2.856  0.00  0.00     0.044 H 
ATOM     42  H   LIG d   1      10.812   4.308  -1.994  0.00  0.00     0.044 H 
ATOM     43  H   LIG d   1       8.756   3.028  -2.619  0.00  0.00     0.044 H 
ATOM     44  H   LIG d   1      10.216   2.386  -3.444  0.00  0.00     0.044 H 
BRANCH  36  45
ATOM     45  C   LIG d   1      12.143   5.946  -3.587  0.00  0.00     0.024 C 
ATOM     46  H   LIG d   1      12.549   6.433  -4.485  0.00  0.00     0.048 H 
ATOM     47  H   LIG d   1      11.525   6.665  -3.028  0.00  0.00     0.048 H 
BRANCH  45  48
ATOM     48  C   LIG d   1      13.277   5.474  -2.714  0.00  0.00    -0.030 A 
ATOM     49  C   LIG d   1      14.040   4.389  -3.101  0.00  0.00    -0.012 A 
ATOM     50  C   LIG d   1      15.084   3.954  -2.299  0.00  0.00     0.167 A 
ATOM     51  H   LIG d   1      13.824   3.881  -4.028  0.00  0.00     0.066 H 
ATOM     52  C   LIG d   1      15.364   4.616  -1.107  0.00  0.00     0.166 A 
ATOM     53  O   LIG d   1      15.972   2.928  -2.448  0.00  0.00    -0.453 OA
ATOM     54  C   LIG d   1      14.591   5.700  -0.722  0.00  0.00    -0.016 A 
ATOM     55  O   LIG d   1      16.422   4.000  -0.503  0.00  0.00    -0.453 OA
ATOM     56  C   LIG d   1      13.552   6.129  -1.527  0.00  0.00    -0.054 A 
ATOM     57  H   LIG d   1      14.803   6.213   0.205  0.00  0.00     0.066 H 
ATOM     58  H   LIG d   1      12.954   6.977  -1.228  0.00  0.00     0.062 H 
ATOM     59  C   LIG d   1      16.533   2.712  -1.139  0.00  0.00     0.233 C 
ATOM     60  H   LIG d   1      15.953   1.938  -0.615  0.00  0.00     0.117 H 
ATOM     61  H   LIG d   1      17.578   2.384  -1.237  0.00  0.00     0.117 H 
ENDBRANCH  45  48
ENDBRANCH  36  45
ENDBRANCH  28  31
ENDBRANCH  16  28
BRANCH   1  62
ATOM     62  C   LIG d   1       4.051   1.504  -2.583  0.00  0.00    -0.043 C 
ATOM     63  H   LIG d   1       4.756   2.122  -3.158  0.00  0.00     0.027 H 
ATOM     64  H   LIG d   1       4.265   1.608  -1.508  0.00  0.00     0.027 H 
ATOM     65  H   LIG d   1       3.022   1.836  -2.786  0.00  0.00     0.027 H 
ENDBRANCH   1  62
BRANCH   9  66
ATOM     66  C   LIG d   1       5.605  -1.665  -5.692  0.00  0.00    -0.056 C 
ATOM     67  H   LIG d   1       6.651  -1.824  -5.991  0.00  0.00     0.024 H 
ATOM     68  H   LIG d   1       5.259  -0.691  -6.067  0.00  0.00     0.024 H 
ATOM     69  H   LIG d   1       4.978  -2.464  -6.114  0.00  0.00     0.024 H 
ENDBRANCH   9  66
TORSDOF 6
ENDMDL
MODEL 6
REMARK VINA RESULT:      -6.7      2.321      9.995
REMARK  6 active torsions:
REMARK  status: ('A' for Active; 'I' for Inactive)
REMARK    1  A    between atoms: C_1  and  C_2 
REMARK    2  A    between atoms: C_10  and  C_14 
REMARK    3  A    between atoms: C_18  and  C_20 
REMARK    4  A    between atoms: C_20  and  N_21 
REMARK    5  A    between atoms: N_24  and  C_27 
REMARK    6  A    between atoms: C_27  and  C_28 
ROOT
ATOM      1  C   LIG d   1      11.291   7.311   0.592  0.00  0.00    -0.073 C 
ATOM      2  C   LIG d   1      11.274   7.498  -0.693  0.00  0.00    -0.064 C 
ATOM      3  C   LIG d   1      10.993   6.324  -1.607  0.00  0.00    -0.024 C 
ATOM      4  C   LIG d   1       9.813   6.653  -2.527  0.00  0.00     0.014 C 
ATOM      5  H   LIG d   1       8.895   6.555  -1.928  0.00  0.00     0.035 H 
ATOM      6  C   LIG d   1       9.977   8.039  -3.174  0.00  0.00     0.108 C 
ATOM      7  H   LIG d   1       9.062   8.418  -3.652  0.00  0.00     0.074 H 
ATOM      8  C   LIG d   1      10.286   9.151  -2.205  0.00  0.00    -0.006 C 
ATOM      9  C   LIG d   1      11.517   8.825  -1.357  0.00  0.00    -0.007 C 
ATOM     10  C   LIG d   1      11.808   9.946  -0.380  0.00  0.00    -0.043 C 
ATOM     11  C   LIG d   1      11.062   9.741   0.938  0.00  0.00    -0.049 C 
ATOM     12  C   LIG d   1      11.545   8.428   1.567  0.00  0.00    -0.032 C 
ATOM     13  O   LIG d   1      11.008   7.829  -4.178  0.00  0.00    -0.461 OA
ATOM     14  C   LIG d   1      10.749   6.639  -4.766  0.00  0.00     0.312 C 
ATOM     15  O   LIG d   1      11.070   6.327  -5.888  0.00  0.00    -0.251 OA
ATOM     16  C   LIG d   1       9.990   5.757  -3.791  0.00  0.00     0.075 C 
ATOM     17  H   LIG d   1       9.043   5.398  -4.218  0.00  0.00     0.043 H 
ATOM     18  H   LIG d   1      11.884   6.114  -2.219  0.00  0.00     0.031 H 
ATOM     19  H   LIG d   1      10.748   5.438  -1.002  0.00  0.00     0.031 H 
ATOM     20  H   LIG d   1      10.480  10.080  -2.761  0.00  0.00     0.031 H 
ATOM     21  H   LIG d   1       9.427   9.300  -1.532  0.00  0.00     0.031 H 
ATOM     22  H   LIG d   1      12.888   9.978  -0.170  0.00  0.00     0.027 H 
ATOM     23  H   LIG d   1      11.491  10.904  -0.816  0.00  0.00     0.027 H 
ATOM     24  H   LIG d   1      11.273  10.582   1.614  0.00  0.00     0.027 H 
ATOM     25  H   LIG d   1       9.981   9.689   0.742  0.00  0.00     0.027 H 
ATOM     26  H   LIG d   1      10.995   8.234   2.499  0.00  0.00     0.031 H 
ATOM     27  H   LIG d   1      12.622   8.489   1.783  0.00  0.00     0.031 H 
ENDROOT
BRANCH  16  28
ATOM     28  C   LIG d   1      10.806   4.507  -3.452  0.00  0.00     0.012 C 
ATOM     29  H   LIG d   1      11.869   4.697  -3.658  0.00  0.00     0.043 H 
ATOM     30  H   LIG d   1      10.677   4.262  -2.388  0.00  0.00     0.043 H 
BRANCH  28  31
ATOM     31  N   LIG d   1      10.341   3.382  -4.275  0.00  0.00    -0.299 N 
ATOM     32  C   LIG d   1       8.887   3.444  -4.479  0.00  0.00     0.012 C 
ATOM     33  C   LIG d   1       8.455   2.303  -5.403  0.00  0.00     0.012 C 
ATOM     34  H   LIG d   1       8.376   3.347  -3.510  0.00  0.00     0.044 H 
ATOM     35  H   LIG d   1       8.623   4.409  -4.938  0.00  0.00     0.044 H 
ATOM     36  N   LIG d   1       8.846   1.019  -4.806  0.00  0.00    -0.296 N 
ATOM     37  H   LIG d   1       8.946   2.416  -6.381  0.00  0.00     0.044 H 
ATOM     38  H   LIG d   1       7.364   2.329  -5.535  0.00  0.00     0.044 H 
ATOM     39  C   LIG d   1      10.299   0.956  -4.601  0.00  0.00     0.012 C 
ATOM     40  C   LIG d   1      10.731   2.097  -3.677  0.00  0.00     0.012 C 
ATOM     41  H   LIG d   1      10.812   1.054  -5.569  0.00  0.00     0.044 H 
ATOM     42  H   LIG d   1      10.565  -0.008  -4.142  0.00  0.00     0.044 H 
ATOM     43  H   LIG d   1      11.823   2.070  -3.544  0.00  0.00     0.044 H 
ATOM     44  H   LIG d   1      10.241   1.983  -2.699  0.00  0.00     0.044 H 
BRANCH  36  45
ATOM     45  C   LIG d   1       8.381  -0.107  -5.627  0.00  0.00     0.024 C 
ATOM     46  H   LIG d   1       8.337   0.203  -6.682  0.00  0.00     0.048 H 
ATOM     47  H   LIG d   1       9.079  -0.951  -5.522  0.00  0.00     0.048 H 
BRANCH  45  48
ATOM     48  C   LIG d   1       7.009  -0.530  -5.170  0.00  0.00    -0.030 A 
ATOM     49  C   LIG d   1       6.775  -0.777  -3.830  0.00  0.00    -0.012 A 
ATOM     50  C   LIG d   1       5.514  -1.167  -3.407  0.00  0.00     0.167 A 
ATOM     51  H   LIG d   1       7.574  -0.666  -3.113  0.00  0.00     0.066 H 
ATOM     52  C   LIG d   1       4.484  -1.304  -4.334  0.00  0.00     0.166 A 
ATOM     53  O   LIG d   1       5.028  -1.467  -2.168  0.00  0.00    -0.453 OA
ATOM     54  C   LIG d   1       4.727  -1.060  -5.677  0.00  0.00    -0.016 A 
ATOM     55  O   LIG d   1       3.354  -1.698  -3.677  0.00  0.00    -0.453 OA
ATOM     56  C   LIG d   1       5.987  -0.671  -6.091  0.00  0.00    -0.054 A 
ATOM     57  H   LIG d   1       3.932  -1.169  -6.399  0.00  0.00     0.066 H 
ATOM     58  H   LIG d   1       6.174  -0.476  -7.137  0.00  0.00     0.062 H 
ATOM     59  C   LIG d   1       3.802  -2.187  -2.399  0.00  0.00     0.233 C 
ATOM     60  H   LIG d   1       4.009  -3.267  -2.416  0.00  0.00     0.117 H 
ATOM     61  H   LIG d   1       3.088  -1.964  -1.593  0.00  0.00     0.117 H 
ENDBRANCH  45  48
ENDBRANCH  36  45
ENDBRANCH  28  31
ENDBRANCH  16  28
BRANCH   1  62
ATOM     62  C   LIG d   1      11.047   5.924   1.127  0.00  0.00    -0.043 C 
ATOM     63  H   LIG d   1      10.787   5.251   0.296  0.00  0.00     0.027 H 
ATOM     64  H   LIG d   1      10.218   5.951   1.850  0.00  0.00     0.027 H 
ATOM     65  H   LIG d   1      11.957   5.558   1.625  0.00  0.00     0.027 H 
ENDBRANCH   1  62
BRANCH   9  66
ATOM     66  C   LIG d   1      12.713   8.682  -2.301  0.00  0.00    -0.056 C 
ATOM     67  H   LIG d   1      13.433   9.489  -2.103  0.00  0.00     0.024 H 
ATOM     68  H   LIG d   1      12.366   8.746  -3.343  0.00  0.00     0.024 H 
ATOM     69  H   LIG d   1      13.197   7.709  -2.134  0.00  0.00     0.024 H 
ENDBRANCH   9  66
TORSDOF 6
ENDMDL
MODEL 7
REMARK VINA RESULT:      -6.6      7.777     12.609
REMARK  6 active torsions:
REMARK  status: ('A' for Active; 'I' for Inactive)
REMARK    1  A    between atoms: C_1  and  C_2 
REMARK    2  A    between atoms: C_10  and  C_14 
REMARK    3  A    between atoms: C_18  and  C_20 
REMARK    4  A    between atoms: C_20  and  N_21 
REMARK    5  A    between atoms: N_24  and  C_27 
REMARK    6  A    between atoms: C_27  and  C_28 
ROOT
ATOM      1  C   LIG d   1       3.354  -1.196 -10.381  0.00  0.00    -0.073 C 
ATOM      2  C   LIG d   1       3.801  -0.745  -9.248  0.00  0.00    -0.064 C 
ATOM      3  C   LIG d   1       4.154  -1.726  -8.150  0.00  0.00    -0.024 C 
ATOM      4  C   LIG d   1       5.600  -1.500  -7.697  0.00  0.00     0.014 C 
ATOM      5  H   LIG d   1       6.255  -1.943  -8.462  0.00  0.00     0.035 H 
ATOM      6  C   LIG d   1       5.879  -0.009  -7.440  0.00  0.00     0.108 C 
ATOM      7  H   LIG d   1       6.947   0.232  -7.341  0.00  0.00     0.074 H 
ATOM      8  C   LIG d   1       5.473   0.908  -8.565  0.00  0.00    -0.006 C 
ATOM      9  C   LIG d   1       4.003   0.712  -8.939  0.00  0.00    -0.007 C 
ATOM     10  C   LIG d   1       3.612   1.631 -10.079  0.00  0.00    -0.043 C 
ATOM     11  C   LIG d   1       3.864   0.973 -11.434  0.00  0.00    -0.049 C 
ATOM     12  C   LIG d   1       2.998  -0.289 -11.527  0.00  0.00    -0.032 C 
ATOM     13  O   LIG d   1       5.193   0.258  -6.185  0.00  0.00    -0.461 OA
ATOM     14  C   LIG d   1       5.421  -0.804  -5.379  0.00  0.00     0.312 C 
ATOM     15  O   LIG d   1       5.419  -0.779  -4.171  0.00  0.00    -0.251 OA
ATOM     16  C   LIG d   1       5.679  -2.032  -6.233  0.00  0.00     0.075 C 
ATOM     17  H   LIG d   1       6.639  -2.507  -5.984  0.00  0.00     0.043 H 
ATOM     18  H   LIG d   1       3.477  -1.578  -7.294  0.00  0.00     0.031 H 
ATOM     19  H   LIG d   1       4.047  -2.754  -8.528  0.00  0.00     0.031 H 
ATOM     20  H   LIG d   1       5.620   1.954  -8.258  0.00  0.00     0.031 H 
ATOM     21  H   LIG d   1       6.091   0.696  -9.451  0.00  0.00     0.031 H 
ATOM     22  H   LIG d   1       2.542   1.876 -10.002  0.00  0.00     0.027 H 
ATOM     23  H   LIG d   1       4.204   2.556 -10.024  0.00  0.00     0.027 H 
ATOM     24  H   LIG d   1       3.596   1.674 -12.238  0.00  0.00     0.027 H 
ATOM     25  H   LIG d   1       4.928   0.706 -11.520  0.00  0.00     0.027 H 
ATOM     26  H   LIG d   1       3.189  -0.807 -12.478  0.00  0.00     0.031 H 
ATOM     27  H   LIG d   1       1.933  -0.018 -11.464  0.00  0.00     0.031 H 
ENDROOT
BRANCH  16  28
ATOM     28  C   LIG d   1       4.603  -3.091  -5.988  0.00  0.00     0.012 C 
ATOM     29  H   LIG d   1       4.218  -2.991  -4.963  0.00  0.00     0.043 H 
ATOM     30  H   LIG d   1       3.780  -2.951  -6.704  0.00  0.00     0.043 H 
BRANCH  28  31
ATOM     31  N   LIG d   1       5.184  -4.429  -6.164  0.00  0.00    -0.299 N 
ATOM     32  C   LIG d   1       4.195  -5.475  -5.866  0.00  0.00     0.012 C 
ATOM     33  C   LIG d   1       4.813  -6.849  -6.138  0.00  0.00     0.012 C 
ATOM     34  H   LIG d   1       3.897  -5.408  -4.810  0.00  0.00     0.044 H 
ATOM     35  H   LIG d   1       3.311  -5.336  -6.507  0.00  0.00     0.044 H 
ATOM     36  N   LIG d   1       6.016  -7.014  -5.310  0.00  0.00    -0.296 N 
ATOM     37  H   LIG d   1       5.086  -6.926  -7.200  0.00  0.00     0.044 H 
ATOM     38  H   LIG d   1       4.085  -7.635  -5.888  0.00  0.00     0.044 H 
ATOM     39  C   LIG d   1       7.004  -5.969  -5.607  0.00  0.00     0.012 C 
ATOM     40  C   LIG d   1       6.386  -4.595  -5.336  0.00  0.00     0.012 C 
ATOM     41  H   LIG d   1       7.303  -6.034  -6.664  0.00  0.00     0.044 H 
ATOM     42  H   LIG d   1       7.888  -6.106  -4.967  0.00  0.00     0.044 H 
ATOM     43  H   LIG d   1       7.114  -3.808  -5.585  0.00  0.00     0.044 H 
ATOM     44  H   LIG d   1       6.114  -4.517  -4.273  0.00  0.00     0.044 H 
BRANCH  36  45
ATOM     45  C   LIG d   1       6.595  -8.352  -5.486  0.00  0.00     0.024 C 
ATOM     46  H   LIG d   1       6.049  -8.887  -6.277  0.00  0.00     0.048 H 
ATOM     47  H   LIG d   1       7.654  -8.258  -5.770  0.00  0.00     0.048 H 
BRANCH  45  48
ATOM     48  C   LIG d   1       6.489  -9.120  -4.194  0.00  0.00    -0.030 A 
ATOM     49  C   LIG d   1       7.582  -9.207  -3.352  0.00  0.00    -0.012 A 
ATOM     50  C   LIG d   1       7.486  -9.913  -2.163  0.00  0.00     0.167 A 
ATOM     51  H   LIG d   1       8.509  -8.725  -3.620  0.00  0.00     0.066 H 
ATOM     52  C   LIG d   1       6.286 -10.528  -1.817  0.00  0.00     0.166 A 
ATOM     53  O   LIG d   1       8.397 -10.148  -1.174  0.00  0.00    -0.453 OA
ATOM     54  C   LIG d   1       5.196 -10.441  -2.669  0.00  0.00    -0.016 A 
ATOM     55  O   LIG d   1       6.447 -11.156  -0.616  0.00  0.00    -0.453 OA
ATOM     56  C   LIG d   1       5.299  -9.736  -3.853  0.00  0.00    -0.054 A 
ATOM     57  H   LIG d   1       4.264 -10.921  -2.406  0.00  0.00     0.066 H 
ATOM     58  H   LIG d   1       4.447  -9.664  -4.513  0.00  0.00     0.062 H 
ATOM     59  C   LIG d   1       7.870 -11.257  -0.421  0.00  0.00     0.233 C 
ATOM     60  H   LIG d   1       8.280 -12.197  -0.817  0.00  0.00     0.117 H 
ATOM     61  H   LIG d   1       8.154 -11.150   0.636  0.00  0.00     0.117 H 
ENDBRANCH  45  48
ENDBRANCH  36  45
ENDBRANCH  28  31
ENDBRANCH  16  28
BRANCH   1  62
ATOM     62  C   LIG d   1       3.184  -2.683 -10.554  0.00  0.00    -0.043 C 
ATOM     63  H   LIG d   1       4.008  -3.208 -10.049  0.00  0.00     0.027 H 
ATOM     64  H   LIG d   1       3.194  -2.931 -11.627  0.00  0.00     0.027 H 
ATOM     65  H   LIG d   1       2.225  -2.996 -10.114  0.00  0.00     0.027 H 
ENDBRANCH   1  62
BRANCH   9  66
ATOM     66  C   LIG d   1       3.155   1.069  -7.717  0.00  0.00    -0.056 C 
ATOM     67  H   LIG d   1       3.643   0.687  -6.808  0.00  0.00     0.024 H 
ATOM     68  H   LIG d   1       2.158   0.615  -7.818  0.00  0.00     0.024 H 
ATOM     69  H   LIG d   1       3.054   2.162  -7.647  0.00  0.00     0.024 H 
ENDBRANCH   9  66
TORSDOF 6
ENDMDL
MODEL 8
REMARK VINA RESULT:      -6.5      7.775     13.877
REMARK  6 active torsions:
REMARK  status: ('A' for Active; 'I' for Inactive)
REMARK    1  A    between atoms: C_1  and  C_2 
REMARK    2  A    between atoms: C_10  and  C_14 
REMARK    3  A    between atoms: C_18  and  C_20 
REMARK    4  A    between atoms: C_20  and  N_21 
REMARK    5  A    between atoms: N_24  and  C_27 
REMARK    6  A    between atoms: C_27  and  C_28 
ROOT
ATOM      1  C   LIG d   1       4.691  -3.433  -6.318  0.00  0.00    -0.073 C 
ATOM      2  C   LIG d   1       4.626  -2.181  -6.657  0.00  0.00    -0.064 C 
ATOM      3  C   LIG d   1       4.261  -1.819  -8.082  0.00  0.00    -0.024 C 
ATOM      4  C   LIG d   1       3.056  -0.874  -8.085  0.00  0.00     0.014 C 
ATOM      5  H   LIG d   1       2.161  -1.485  -7.889  0.00  0.00     0.035 H 
ATOM      6  C   LIG d   1       3.244   0.276  -7.081  0.00  0.00     0.108 C 
ATOM      7  H   LIG d   1       2.323   0.843  -6.876  0.00  0.00     0.074 H 
ATOM      8  C   LIG d   1       3.636  -0.161  -5.693  0.00  0.00    -0.006 C 
ATOM      9  C   LIG d   1       4.889  -1.037  -5.718  0.00  0.00    -0.007 C 
ATOM     10  C   LIG d   1       5.264  -1.479  -4.317  0.00  0.00    -0.043 C 
ATOM     11  C   LIG d   1       4.568  -2.786  -3.943  0.00  0.00    -0.049 C 
ATOM     12  C   LIG d   1       5.028  -3.875  -4.920  0.00  0.00    -0.032 C 
ATOM     13  O   LIG d   1       4.222   1.138  -7.726  0.00  0.00    -0.461 OA
ATOM     14  C   LIG d   1       3.893   1.195  -9.036  0.00  0.00     0.312 C 
ATOM     15  O   LIG d   1       4.153   2.107  -9.784  0.00  0.00    -0.251 OA
ATOM     16  C   LIG d   1       3.144  -0.069  -9.417  0.00  0.00     0.075 C 
ATOM     17  H   LIG d   1       2.167   0.156  -9.867  0.00  0.00     0.043 H 
ATOM     18  H   LIG d   1       5.116  -1.320  -8.563  0.00  0.00     0.031 H 
ATOM     19  H   LIG d   1       4.010  -2.734  -8.639  0.00  0.00     0.031 H 
ATOM     20  H   LIG d   1       3.840   0.725  -5.073  0.00  0.00     0.031 H 
ATOM     21  H   LIG d   1       2.813  -0.739  -5.245  0.00  0.00     0.031 H 
ATOM     22  H   LIG d   1       6.352  -1.631  -4.260  0.00  0.00     0.027 H 
ATOM     23  H   LIG d   1       4.965  -0.704  -3.596  0.00  0.00     0.027 H 
ATOM     24  H   LIG d   1       4.840  -3.065  -2.914  0.00  0.00     0.027 H 
ATOM     25  H   LIG d   1       3.478  -2.654  -4.012  0.00  0.00     0.027 H 
ATOM     26  H   LIG d   1       4.512  -4.820  -4.699  0.00  0.00     0.031 H 
ATOM     27  H   LIG d   1       6.115  -4.022  -4.834  0.00  0.00     0.031 H 
ENDROOT
BRANCH  16  28
ATOM     28  C   LIG d   1       3.926  -0.858 -10.469  0.00  0.00     0.012 C 
ATOM     29  H   LIG d   1       4.607  -0.180 -11.005  0.00  0.00     0.043 H 
ATOM     30  H   LIG d   1       4.510  -1.649  -9.977  0.00  0.00     0.043 H 
BRANCH  28  31
ATOM     31  N   LIG d   1       2.988  -1.465 -11.424  0.00  0.00    -0.299 N 
ATOM     32  C   LIG d   1       1.619  -0.982 -11.195  0.00  0.00     0.012 C 
ATOM     33  C   LIG d   1       0.688  -1.574 -12.256  0.00  0.00     0.012 C 
ATOM     34  H   LIG d   1       1.282  -1.294 -10.195  0.00  0.00     0.044 H 
ATOM     35  H   LIG d   1       1.602   0.116 -11.261  0.00  0.00     0.044 H 
ATOM     36  N   LIG d   1       0.745  -3.041 -12.190  0.00  0.00    -0.296 N 
ATOM     37  H   LIG d   1       1.009  -1.239 -13.254  0.00  0.00     0.044 H 
ATOM     38  H   LIG d   1      -0.342  -1.238 -12.070  0.00  0.00     0.044 H 
ATOM     39  C   LIG d   1       2.113  -3.523 -12.419  0.00  0.00     0.012 C 
ATOM     40  C   LIG d   1       3.044  -2.931 -11.358  0.00  0.00     0.012 C 
ATOM     41  H   LIG d   1       2.451  -3.211 -13.418  0.00  0.00     0.044 H 
ATOM     42  H   LIG d   1       2.133  -4.621 -12.353  0.00  0.00     0.044 H 
ATOM     43  H   LIG d   1       4.075  -3.268 -11.544  0.00  0.00     0.044 H 
ATOM     44  H   LIG d   1       2.725  -3.267 -10.361  0.00  0.00     0.044 H 
BRANCH  36  45
ATOM     45  C   LIG d   1      -0.194  -3.647 -13.144  0.00  0.00     0.024 C 
ATOM     46  H   LIG d   1      -0.735  -2.853 -13.679  0.00  0.00     0.048 H 
ATOM     47  H   LIG d   1       0.364  -4.261 -13.867  0.00  0.00     0.048 H 
BRANCH  45  48
ATOM     48  C   LIG d   1      -1.176  -4.514 -12.401  0.00  0.00    -0.030 A 
ATOM     49  C   LIG d   1      -1.063  -4.667 -11.032  0.00  0.00    -0.012 A 
ATOM     50  C   LIG d   1      -1.965  -5.464 -10.346  0.00  0.00     0.167 A 
ATOM     51  H   LIG d   1      -0.271  -4.165 -10.496  0.00  0.00     0.066 H 
ATOM     52  C   LIG d   1      -2.989  -6.105 -11.039  0.00  0.00     0.166 A 
ATOM     53  O   LIG d   1      -2.073  -5.776  -9.022  0.00  0.00    -0.453 OA
ATOM     54  C   LIG d   1      -3.093  -5.952 -12.413  0.00  0.00    -0.016 A 
ATOM     55  O   LIG d   1      -3.733  -6.827 -10.150  0.00  0.00    -0.453 OA
ATOM     56  C   LIG d   1      -2.189  -5.155 -13.090  0.00  0.00    -0.054 A 
ATOM     57  H   LIG d   1      -3.883  -6.452 -12.954  0.00  0.00     0.066 H 
ATOM     58  H   LIG d   1      -2.275  -5.032 -14.159  0.00  0.00     0.062 H 
ATOM     59  C   LIG d   1      -2.919  -6.941  -8.968  0.00  0.00     0.233 C 
ATOM     60  H   LIG d   1      -2.295  -7.847  -8.978  0.00  0.00     0.117 H 
ATOM     61  H   LIG d   1      -3.517  -6.919  -8.046  0.00  0.00     0.117 H 
ENDBRANCH  45  48
ENDBRANCH  36  45
ENDBRANCH  28  31
ENDBRANCH  16  28
BRANCH   1  62
ATOM     62  C   LIG d   1       4.418  -4.483  -7.364  0.00  0.00    -0.043 C 
ATOM     63  H   LIG d   1       5.155  -5.294  -7.270  0.00  0.00     0.027 H 
ATOM     64  H   LIG d   1       4.494  -4.032  -8.365  0.00  0.00     0.027 H 
ATOM     65  H   LIG d   1       3.405  -4.889  -7.220  0.00  0.00     0.027 H 
ENDBRANCH   1  62
BRANCH   9  66
ATOM     66  C   LIG d   1       6.037  -0.200  -6.286  0.00  0.00    -0.056 C 
ATOM     67  H   LIG d   1       6.780  -0.015  -5.496  0.00  0.00     0.024 H 
ATOM     68  H   LIG d   1       5.643   0.760  -6.652  0.00  0.00     0.024 H 
ATOM     69  H   LIG d   1       6.510  -0.743  -7.116  0.00  0.00     0.024 H 
ENDBRANCH   9  66
TORSDOF 6
ENDMDL
MODEL 9
REMARK VINA RESULT:      -6.5      2.803     10.012
REMARK  6 active torsions:
REMARK  status: ('A' for Active; 'I' for Inactive)
REMARK    1  A    between atoms: C_1  and  C_2 
REMARK    2  A    between atoms: C_10  and  C_14 
REMARK    3  A    between atoms: C_18  and  C_20 
REMARK    4  A    between atoms: C_20  and  N_21 
REMARK    5  A    between atoms: N_24  and  C_27 
REMARK    6  A    between atoms: C_27  and  C_28 
ROOT
ATOM      1  C   LIG d   1      11.254   7.066   0.759  0.00  0.00    -0.073 C 
ATOM      2  C   LIG d   1      11.253   7.073  -0.539  0.00  0.00    -0.064 C 
ATOM      3  C   LIG d   1      10.960   5.788  -1.285  0.00  0.00    -0.024 C 
ATOM      4  C   LIG d   1       9.794   6.004  -2.254  0.00  0.00     0.014 C 
ATOM      5  H   LIG d   1       8.869   6.004  -1.658  0.00  0.00     0.035 H 
ATOM      6  C   LIG d   1       9.987   7.285  -3.085  0.00  0.00     0.108 C 
ATOM      7  H   LIG d   1       9.082   7.608  -3.621  0.00  0.00     0.074 H 
ATOM      8  C   LIG d   1      10.305   8.515  -2.276  0.00  0.00    -0.006 C 
ATOM      9  C   LIG d   1      11.523   8.291  -1.378  0.00  0.00    -0.007 C 
ATOM     10  C   LIG d   1      11.824   9.532  -0.561  0.00  0.00    -0.043 C 
ATOM     11  C   LIG d   1      11.063   9.523   0.763  0.00  0.00    -0.049 C 
ATOM     12  C   LIG d   1      11.518   8.303   1.573  0.00  0.00    -0.032 C 
ATOM     13  O   LIG d   1      11.023   6.922  -4.039  0.00  0.00    -0.461 OA
ATOM     14  C   LIG d   1      10.750   5.666  -4.459  0.00  0.00     0.312 C 
ATOM     15  O   LIG d   1      11.075   5.197  -5.524  0.00  0.00    -0.251 OA
ATOM     16  C   LIG d   1       9.968   4.939  -3.380  0.00  0.00     0.075 C 
ATOM     17  H   LIG d   1       9.018   4.539  -3.764  0.00  0.00     0.043 H 
ATOM     18  H   LIG d   1      11.852   5.482  -1.852  0.00  0.00     0.031 H 
ATOM     19  H   LIG d   1      10.695   4.999  -0.566  0.00  0.00     0.031 H 
ATOM     20  H   LIG d   1      10.519   9.355  -2.953  0.00  0.00     0.031 H 
ATOM     21  H   LIG d   1       9.443   8.769  -1.640  0.00  0.00     0.031 H 
ATOM     22  H   LIG d   1      12.902   9.576  -0.346  0.00  0.00     0.027 H 
ATOM     23  H   LIG d   1      11.527  10.426  -1.129  0.00  0.00     0.027 H 
ATOM     24  H   LIG d   1      11.281  10.446   1.319  0.00  0.00     0.027 H 
ATOM     25  H   LIG d   1       9.982   9.461   0.565  0.00  0.00     0.027 H 
ATOM     26  H   LIG d   1      10.957   8.248   2.517  0.00  0.00     0.031 H 
ATOM     27  H   LIG d   1      12.594   8.377   1.791  0.00  0.00     0.031 H 
ENDROOT
BRANCH  16  28
ATOM     28  C   LIG d   1      10.759   3.737  -2.863  0.00  0.00     0.012 C 
ATOM     29  H   LIG d   1      11.794   3.793  -3.232  0.00  0.00     0.043 H 
ATOM     30  H   LIG d   1      10.761   3.743  -1.764  0.00  0.00     0.043 H 
BRANCH  28  31
ATOM     31  N   LIG d   1      10.136   2.496  -3.345  0.00  0.00    -0.299 N 
ATOM     32  C   LIG d   1      10.875   1.945  -4.489  0.00  0.00     0.012 C 
ATOM     33  C   LIG d   1      10.243   0.616  -4.909  0.00  0.00     0.012 C 
ATOM     34  H   LIG d   1      10.834   2.654  -5.329  0.00  0.00     0.044 H 
ATOM     35  H   LIG d   1      11.924   1.779  -4.201  0.00  0.00     0.044 H 
ATOM     36  N   LIG d   1       8.832   0.836  -5.254  0.00  0.00    -0.296 N 
ATOM     37  H   LIG d   1      10.309  -0.102  -4.078  0.00  0.00     0.044 H 
ATOM     38  H   LIG d   1      10.776   0.215  -5.784  0.00  0.00     0.044 H 
ATOM     39  C   LIG d   1       8.092   1.387  -4.111  0.00  0.00     0.012 C 
ATOM     40  C   LIG d   1       8.725   2.716  -3.690  0.00  0.00     0.012 C 
ATOM     41  H   LIG d   1       8.134   0.679  -3.270  0.00  0.00     0.044 H 
ATOM     42  H   LIG d   1       7.043   1.554  -4.397  0.00  0.00     0.044 H 
ATOM     43  H   LIG d   1       8.191   3.117  -2.816  0.00  0.00     0.044 H 
ATOM     44  H   LIG d   1       8.657   3.434  -4.521  0.00  0.00     0.044 H 
BRANCH  36  45
ATOM     45  C   LIG d   1       8.209  -0.404  -5.737  0.00  0.00     0.024 C 
ATOM     46  H   LIG d   1       8.944  -0.982  -6.315  0.00  0.00     0.048 H 
ATOM     47  H   LIG d   1       7.867  -1.001  -4.877  0.00  0.00     0.048 H 
BRANCH  45  48
ATOM     48  C   LIG d   1       7.031  -0.067  -6.614  0.00  0.00    -0.030 A 
ATOM     49  C   LIG d   1       5.780  -0.572  -6.312  0.00  0.00    -0.012 A 
ATOM     50  C   LIG d   1       4.696  -0.264  -7.118  0.00  0.00     0.167 A 
ATOM     51  H   LIG d   1       5.648  -1.207  -5.450  0.00  0.00     0.066 H 
ATOM     52  C   LIG d   1       4.869   0.561  -8.227  0.00  0.00     0.166 A 
ATOM     53  O   LIG d   1       3.382  -0.625  -7.044  0.00  0.00    -0.453 OA
ATOM     54  C   LIG d   1       6.127   1.060  -8.526  0.00  0.00    -0.016 A 
ATOM     55  O   LIG d   1       3.665   0.708  -8.853  0.00  0.00    -0.453 OA
ATOM     56  C   LIG d   1       7.204   0.747  -7.718  0.00  0.00    -0.054 A 
ATOM     57  H   LIG d   1       6.265   1.696  -9.387  0.00  0.00     0.066 H 
ATOM     58  H   LIG d   1       8.183   1.141  -7.949  0.00  0.00     0.062 H 
ATOM     59  C   LIG d   1       2.834  -0.354  -8.348  0.00  0.00     0.233 C 
ATOM     60  H   LIG d   1       2.895  -1.261  -8.967  0.00  0.00     0.117 H 
ATOM     61  H   LIG d   1       1.782  -0.049  -8.248  0.00  0.00     0.117 H 
ENDBRANCH  45  48
ENDBRANCH  36  45
ENDBRANCH  28  31
ENDBRANCH  16  28
BRANCH   1  62
ATOM     62  C   LIG d   1      10.982   5.769   1.478  0.00  0.00    -0.043 C 
ATOM     63  H   LIG d   1      11.539   5.752   2.427  0.00  0.00     0.027 H 
ATOM     64  H   LIG d   1      11.305   4.926   0.848  0.00  0.00     0.027 H 
ATOM     65  H   LIG d   1       9.905   5.683   1.683  0.00  0.00     0.027 H 
ENDBRANCH   1  62
BRANCH   9  66
ATOM     66  C   LIG d   1      12.725   8.001  -2.279  0.00  0.00    -0.056 C 
ATOM     67  H   LIG d   1      12.695   6.950  -2.602  0.00  0.00     0.024 H 
ATOM     68  H   LIG d   1      13.654   8.188  -1.720  0.00  0.00     0.024 H 
ATOM     69  H   LIG d   1      12.689   8.657  -3.160  0.00  0.00     0.024 H 
ENDBRANCH   9  66
TORSDOF 6
ENDMDL
MODEL 10
REMARK VINA RESULT:      -6.5      4.257      9.355
REMARK  6 active torsions:
REMARK  status: ('A' for Active; 'I' for Inactive)
REMARK    1  A    between atoms: C_1  and  C_2 
REMARK    2  A    between atoms: C_10  and  C_14 
REMARK    3  A    between atoms: C_18  and  C_20 
REMARK    4  A    between atoms: C_20  and  N_21 
REMARK    5  A    between atoms: N_24  and  C_27 
REMARK    6  A    between atoms: C_27  and  C_28 
ROOT
ATOM      1  C   LIG d   1       9.558   6.951  -6.347  0.00  0.00    -0.073 C 
ATOM      2  C   LIG d   1       9.895   6.118  -7.284  0.00  0.00    -0.064 C 
ATOM      3  C   LIG d   1      10.111   4.660  -6.934  0.00  0.00    -0.024 C 
ATOM      4  C   LIG d   1       9.222   3.778  -7.817  0.00  0.00     0.014 C 
ATOM      5  H   LIG d   1       8.199   3.842  -7.418  0.00  0.00     0.035 H 
ATOM      6  C   LIG d   1       9.328   4.181  -9.298  0.00  0.00     0.108 C 
ATOM      7  H   LIG d   1       8.547   3.742  -9.936  0.00  0.00     0.074 H 
ATOM      8  C   LIG d   1       9.133   5.652  -9.563  0.00  0.00    -0.006 C 
ATOM      9  C   LIG d   1      10.091   6.501  -8.725  0.00  0.00    -0.007 C 
ATOM     10  C   LIG d   1       9.874   7.977  -8.992  0.00  0.00    -0.043 C 
ATOM     11  C   LIG d   1       8.816   8.561  -8.059  0.00  0.00    -0.049 C 
ATOM     12  C   LIG d   1       9.309   8.410  -6.615  0.00  0.00    -0.032 C 
ATOM     13  O   LIG d   1      10.633   3.679  -9.698  0.00  0.00    -0.461 OA
ATOM     14  C   LIG d   1      10.774   2.457  -9.135  0.00  0.00     0.312 C 
ATOM     15  O   LIG d   1      11.466   1.564  -9.563  0.00  0.00    -0.251 OA
ATOM     16  C   LIG d   1       9.924   2.387  -7.879  0.00  0.00     0.075 C 
ATOM     17  H   LIG d   1       9.226   1.538  -7.906  0.00  0.00     0.043 H 
ATOM     18  H   LIG d   1      11.166   4.395  -7.101  0.00  0.00     0.031 H 
ATOM     19  H   LIG d   1       9.854   4.495  -5.878  0.00  0.00     0.031 H 
ATOM     20  H   LIG d   1       9.320   5.862 -10.627  0.00  0.00     0.031 H 
ATOM     21  H   LIG d   1       8.100   5.936  -9.310  0.00  0.00     0.031 H 
ATOM     22  H   LIG d   1      10.819   8.519  -8.835  0.00  0.00     0.027 H 
ATOM     23  H   LIG d   1       9.541   8.116 -10.030  0.00  0.00     0.027 H 
ATOM     24  H   LIG d   1       8.664   9.624  -8.295  0.00  0.00     0.027 H 
ATOM     25  H   LIG d   1       7.869   8.016  -8.192  0.00  0.00     0.027 H 
ATOM     26  H   LIG d   1       8.548   8.787  -5.916  0.00  0.00     0.031 H 
ATOM     27  H   LIG d   1      10.244   8.974  -6.476  0.00  0.00     0.031 H 
ENDROOT
BRANCH  16  28
ATOM     28  C   LIG d   1      10.805   2.175  -6.647  0.00  0.00     0.012 C 
ATOM     29  H   LIG d   1      11.808   1.853  -6.964  0.00  0.00     0.043 H 
ATOM     30  H   LIG d   1      10.883   3.118  -6.085  0.00  0.00     0.043 H 
BRANCH  28  31
ATOM     31  N   LIG d   1      10.208   1.142  -5.789  0.00  0.00    -0.299 N 
ATOM     32  C   LIG d   1      10.002  -0.107  -6.535  0.00  0.00     0.012 C 
ATOM     33  C   LIG d   1       9.454  -1.178  -5.589  0.00  0.00     0.012 C 
ATOM     34  H   LIG d   1       9.284   0.067  -7.350  0.00  0.00     0.044 H 
ATOM     35  H   LIG d   1      10.961  -0.443  -6.957  0.00  0.00     0.044 H 
ATOM     36  N   LIG d   1       8.194  -0.707  -4.998  0.00  0.00    -0.296 N 
ATOM     37  H   LIG d   1      10.184  -1.371  -4.790  0.00  0.00     0.044 H 
ATOM     38  H   LIG d   1       9.271  -2.106  -6.151  0.00  0.00     0.044 H 
ATOM     39  C   LIG d   1       8.400   0.541  -4.252  0.00  0.00     0.012 C 
ATOM     40  C   LIG d   1       8.948   1.613  -5.198  0.00  0.00     0.012 C 
ATOM     41  H   LIG d   1       9.118   0.369  -3.437  0.00  0.00     0.044 H 
ATOM     42  H   LIG d   1       7.442   0.880  -3.830  0.00  0.00     0.044 H 
ATOM     43  H   LIG d   1       9.130   2.541  -4.636  0.00  0.00     0.044 H 
ATOM     44  H   LIG d   1       8.217   1.807  -5.997  0.00  0.00     0.044 H 
BRANCH  36  45
ATOM     45  C   LIG d   1       7.597  -1.740  -4.141  0.00  0.00     0.024 C 
ATOM     46  H   LIG d   1       7.730  -2.726  -4.610  0.00  0.00     0.048 H 
ATOM     47  H   LIG d   1       8.091  -1.732  -3.158  0.00  0.00     0.048 H 
BRANCH  45  48
ATOM     48  C   LIG d   1       6.127  -1.461  -3.967  0.00  0.00    -0.030 A 
ATOM     49  C   LIG d   1       5.417  -0.846  -4.981  0.00  0.00    -0.012 A 
ATOM     50  C   LIG d   1       4.064  -0.588  -4.822  0.00  0.00     0.167 A 
ATOM     51  H   LIG d   1       5.915  -0.567  -5.896  0.00  0.00     0.066 H 
ATOM     52  C   LIG d   1       3.423  -0.954  -3.642  0.00  0.00     0.166 A 
ATOM     53  O   LIG d   1       3.151  -0.004  -5.651  0.00  0.00    -0.453 OA
ATOM     54  C   LIG d   1       4.143  -1.566  -2.627  0.00  0.00    -0.016 A 
ATOM     55  O   LIG d   1       2.109  -0.592  -3.727  0.00  0.00    -0.453 OA
ATOM     56  C   LIG d   1       5.491  -1.820  -2.792  0.00  0.00    -0.054 A 
ATOM     57  H   LIG d   1       3.649  -1.847  -1.708  0.00  0.00     0.066 H 
ATOM     58  H   LIG d   1       6.049  -2.301  -2.003  0.00  0.00     0.062 H 
ATOM     59  C   LIG d   1       2.041   0.357  -4.808  0.00  0.00     0.233 C 
ATOM     60  H   LIG d   1       2.166   1.393  -4.461  0.00  0.00     0.117 H 
ATOM     61  H   LIG d   1       1.104   0.273  -5.378  0.00  0.00     0.117 H 
ENDBRANCH  45  48
ENDBRANCH  36  45
ENDBRANCH  28  31
ENDBRANCH  16  28
BRANCH   1  62
ATOM     62  C   LIG d   1       9.411   6.437  -4.937  0.00  0.00    -0.043 C 
ATOM     63  H   LIG d   1       8.369   6.127  -4.767  0.00  0.00     0.027 H 
ATOM     64  H   LIG d   1       9.677   7.235  -4.227  0.00  0.00     0.027 H 
ATOM     65  H   LIG d   1      10.079   5.576  -4.790  0.00  0.00     0.027 H 
ENDBRANCH   1  62
BRANCH   9  66
ATOM     66  C   LIG d   1      11.520   6.138  -9.132  0.00  0.00    -0.056 C 
ATOM     67  H   LIG d   1      11.521   5.161  -9.636  0.00  0.00     0.024 H 
ATOM     68  H   LIG d   1      12.155   6.090  -8.235  0.00  0.00     0.024 H 
ATOM     69  H   LIG d   1      11.911   6.905  -9.817  0.00  0.00     0.024 H 
ENDBRANCH   9  66
TORSDOF 6
ENDMDL
