MODEL 1
REMARK VINA RESULT:      -7.0      0.000      0.000
REMARK  7 active torsions:
REMARK  status: ('A' for Active; 'I' for Inactive)
REMARK    1  A    between atoms: C_1  and  C_2 
REMARK    2  A    between atoms: C_2  and  C_3 
REMARK    3  A    between atoms: C_3  and  C_4 
REMARK    4  A    between atoms: C_3  and  C_14 
REMARK    5  A    between atoms: C_3  and  C_18 
REMARK       I    between atoms: C_4  and  N_6 
REMARK    6  A    between atoms: N_6  and  C_7 
REMARK    7  A    between atoms: C_8  and  C_13 
ROOT
ATOM      1  C   LIG d   1       4.772  -0.161  -4.795  0.00  0.00     0.242 C 
ATOM      2  O   LIG d   1       5.686   0.335  -5.419  0.00  0.00    -0.274 OA
ATOM      3  N   LIG d   1       3.619  -0.469  -5.419  0.00  0.00    -0.269 N 
ATOM      4  H   LIG d   1       2.888  -0.867  -4.919  0.00  0.00     0.156 HD
ENDROOT
BRANCH   1   5
ATOM      5  C   LIG d   1       4.927  -0.433  -3.321  0.00  0.00     0.235 C 
BRANCH   5   6
ATOM      6  C   LIG d   1       6.282  -1.097  -3.064  0.00  0.00    -0.025 C 
ATOM      7  H   LIG d   1       7.082  -0.389  -3.286  0.00  0.00     0.028 H 
ATOM      8  H   LIG d   1       6.346  -1.401  -2.019  0.00  0.00     0.028 H 
BRANCH   6   9
ATOM      9  C   LIG d   1       6.426  -2.327  -3.963  0.00  0.00    -0.064 C 
ATOM     10  H   LIG d   1       7.435  -2.727  -3.873  0.00  0.00     0.023 H 
ATOM     11  H   LIG d   1       5.705  -3.085  -3.656  0.00  0.00     0.023 H 
ATOM     12  H   LIG d   1       6.237  -2.044  -4.998  0.00  0.00     0.023 H 
ENDBRANCH   6   9
ENDBRANCH   5   6
BRANCH   5  13
ATOM     13  C   LIG d   1       4.851   0.885  -2.548  0.00  0.00     0.412 C 
ATOM     14  F   LIG d   1       6.065   1.569  -2.672  0.00  0.00    -0.169 F 
ATOM     15  F   LIG d   1       3.817   1.672  -3.068  0.00  0.00    -0.169 F 
ATOM     16  F   LIG d   1       4.601   0.621  -1.197  0.00  0.00    -0.169 F 
ENDBRANCH   5  13
BRANCH   5  17
ATOM     17  C   LIG d   1       3.807  -1.364  -2.852  0.00  0.00     0.412 C 
ATOM     18  F   LIG d   1       2.630  -0.629  -2.683  0.00  0.00    -0.169 F 
ATOM     19  F   LIG d   1       3.600  -2.363  -3.810  0.00  0.00    -0.169 F 
ATOM     20  F   LIG d   1       4.168  -1.952  -1.635  0.00  0.00    -0.169 F 
ENDBRANCH   5  17
ENDBRANCH   1   5
BRANCH   3  21
ATOM     21  C   LIG d   1       3.475  -0.218  -6.783  0.00  0.00     0.128 A 
ATOM     22  N   LIG d   1       3.040   0.963  -7.190  0.00  0.00    -0.240 NA
ATOM     23  C   LIG d   1       2.889   1.242  -8.470  0.00  0.00     0.030 A 
ATOM     24  C   LIG d   1       3.183   0.302  -9.439  0.00  0.00    -0.043 A 
ATOM     25  H   LIG d   1       2.532   2.217  -8.765  0.00  0.00     0.083 H 
ATOM     26  C   LIG d   1       3.642  -0.950  -9.053  0.00  0.00    -0.054 A 
ATOM     27  H   LIG d   1       3.057   0.539 -10.484  0.00  0.00     0.063 H 
ATOM     28  C   LIG d   1       3.790  -1.212  -7.703  0.00  0.00    -0.010 A 
ATOM     29  H   LIG d   1       3.883  -1.700  -9.791  0.00  0.00     0.062 H 
BRANCH  28  30
ATOM     30  C   LIG d   1       4.284  -2.557  -7.235  0.00  0.00    -0.036 C 
ATOM     31  H   LIG d   1       4.647  -2.474  -6.210  0.00  0.00     0.028 H 
ATOM     32  H   LIG d   1       3.469  -3.278  -7.276  0.00  0.00     0.028 H 
ATOM     33  H   LIG d   1       5.097  -2.890  -7.882  0.00  0.00     0.028 H 
ENDBRANCH  28  30
ENDBRANCH   3  21
TORSDOF 7
ENDMDL
MODEL 2
REMARK VINA RESULT:      -6.5      1.193      1.984
REMARK  7 active torsions:
REMARK  status: ('A' for Active; 'I' for Inactive)
REMARK    1  A    between atoms: C_1  and  C_2 
REMARK    2  A    between atoms: C_2  and  C_3 
REMARK    3  A    between atoms: C_3  and  C_4 
REMARK    4  A    between atoms: C_3  and  C_14 
REMARK    5  A    between atoms: C_3  and  C_18 
REMARK       I    between atoms: C_4  and  N_6 
REMARK    6  A    between atoms: N_6  and  C_7 
REMARK    7  A    between atoms: C_8  and  C_13 
ROOT
ATOM      1  C   LIG d   1       4.465  -0.320  -5.111  0.00  0.00     0.242 C 
ATOM      2  O   LIG d   1       5.380   0.340  -5.556  0.00  0.00    -0.274 OA
ATOM      3  N   LIG d   1       3.346  -0.498  -5.839  0.00  0.00    -0.269 N 
ATOM      4  H   LIG d   1       2.614  -1.027  -5.483  0.00  0.00     0.156 HD
ENDROOT
BRANCH   1   5
ATOM      5  C   LIG d   1       4.582  -0.943  -3.744  0.00  0.00     0.235 C 
BRANCH   5   6
ATOM      6  C   LIG d   1       4.179  -2.418  -3.819  0.00  0.00    -0.025 C 
ATOM      7  H   LIG d   1       4.292  -2.876  -2.836  0.00  0.00     0.028 H 
ATOM      8  H   LIG d   1       3.140  -2.495  -4.139  0.00  0.00     0.028 H 
BRANCH   6   9
ATOM      9  C   LIG d   1       5.077  -3.141  -4.825  0.00  0.00    -0.064 C 
ATOM     10  H   LIG d   1       4.487  -3.438  -5.692  0.00  0.00     0.023 H 
ATOM     11  H   LIG d   1       5.878  -2.472  -5.142  0.00  0.00     0.023 H 
ATOM     12  H   LIG d   1       5.508  -4.027  -4.357  0.00  0.00     0.023 H 
ENDBRANCH   6   9
ENDBRANCH   5   6
BRANCH   5  13
ATOM     13  C   LIG d   1       6.027  -0.834  -3.255  0.00  0.00     0.412 C 
ATOM     14  F   LIG d   1       6.239   0.436  -2.709  0.00  0.00    -0.169 F 
ATOM     15  F   LIG d   1       6.265  -1.807  -2.278  0.00  0.00    -0.169 F 
ATOM     16  F   LIG d   1       6.900  -1.031  -4.331  0.00  0.00    -0.169 F 
ENDBRANCH   5  13
BRANCH   5  17
ATOM     17  C   LIG d   1       3.656  -0.212  -2.769  0.00  0.00     0.412 C 
ATOM     18  F   LIG d   1       4.150  -0.348  -1.467  0.00  0.00    -0.169 F 
ATOM     19  F   LIG d   1       3.601   1.144  -3.107  0.00  0.00    -0.169 F 
ATOM     20  F   LIG d   1       2.373  -0.765  -2.841  0.00  0.00    -0.169 F 
ENDBRANCH   5  17
ENDBRANCH   1   5
BRANCH   3  21
ATOM     21  C   LIG d   1       3.238   0.078  -7.105  0.00  0.00     0.128 A 
ATOM     22  N   LIG d   1       2.974   1.370  -7.216  0.00  0.00    -0.240 NA
ATOM     23  C   LIG d   1       2.863   1.954  -8.393  0.00  0.00     0.030 A 
ATOM     24  C   LIG d   1       3.020   1.232  -9.560  0.00  0.00    -0.043 A 
ATOM     25  H   LIG d   1       2.647   3.011  -8.447  0.00  0.00     0.083 H 
ATOM     26  C   LIG d   1       3.298  -0.127  -9.486  0.00  0.00    -0.054 A 
ATOM     27  H   LIG d   1       2.928   1.718 -10.520  0.00  0.00     0.063 H 
ATOM     28  C   LIG d   1       3.409  -0.711  -8.236  0.00  0.00    -0.010 A 
ATOM     29  H   LIG d   1       3.430  -0.713 -10.383  0.00  0.00     0.062 H 
BRANCH  28  30
ATOM     30  C   LIG d   1       3.708  -2.181  -8.105  0.00  0.00    -0.036 C 
ATOM     31  H   LIG d   1       3.150  -2.592  -7.262  0.00  0.00     0.028 H 
ATOM     32  H   LIG d   1       3.416  -2.696  -9.019  0.00  0.00     0.028 H 
ATOM     33  H   LIG d   1       4.776  -2.321  -7.934  0.00  0.00     0.028 H 
ENDBRANCH  28  30
ENDBRANCH   3  21
TORSDOF 7
ENDMDL
MODEL 3
REMARK VINA RESULT:      -6.4      1.375      2.525
REMARK  7 active torsions:
REMARK  status: ('A' for Active; 'I' for Inactive)
REMARK    1  A    between atoms: C_1  and  C_2 
REMARK    2  A    between atoms: C_2  and  C_3 
REMARK    3  A    between atoms: C_3  and  C_4 
REMARK    4  A    between atoms: C_3  and  C_14 
REMARK    5  A    between atoms: C_3  and  C_18 
REMARK       I    between atoms: C_4  and  N_6 
REMARK    6  A    between atoms: N_6  and  C_7 
REMARK    7  A    between atoms: C_8  and  C_13 
ROOT
ATOM      1  C   LIG d   1       3.981  -0.430  -4.759  0.00  0.00     0.242 C 
ATOM      2  O   LIG d   1       2.771  -0.519  -4.739  0.00  0.00    -0.274 OA
ATOM      3  N   LIG d   1       4.616  -0.135  -5.911  0.00  0.00    -0.269 N 
ATOM      4  H   LIG d   1       5.583  -0.063  -5.927  0.00  0.00     0.156 HD
ENDROOT
BRANCH   1   5
ATOM      5  C   LIG d   1       4.774  -0.647  -3.496  0.00  0.00     0.235 C 
BRANCH   5   6
ATOM      6  C   LIG d   1       5.257   0.701  -2.958  0.00  0.00    -0.025 C 
ATOM      7  H   LIG d   1       5.756   0.553  -2.001  0.00  0.00     0.028 H 
ATOM      8  H   LIG d   1       5.956   1.146  -3.667  0.00  0.00     0.028 H 
BRANCH   6   9
ATOM      9  C   LIG d   1       4.059   1.634  -2.770  0.00  0.00    -0.064 C 
ATOM     10  H   LIG d   1       3.139   1.092  -2.987  0.00  0.00     0.023 H 
ATOM     11  H   LIG d   1       4.036   1.991  -1.740  0.00  0.00     0.023 H 
ATOM     12  H   LIG d   1       4.150   2.483  -3.447  0.00  0.00     0.023 H 
ENDBRANCH   6   9
ENDBRANCH   5   6
BRANCH   5  13
ATOM     13  C   LIG d   1       3.889  -1.326  -2.450  0.00  0.00     0.412 C 
ATOM     14  F   LIG d   1       3.839  -2.701  -2.702  0.00  0.00    -0.169 F 
ATOM     15  F   LIG d   1       4.420  -1.104  -1.174  0.00  0.00    -0.169 F 
ATOM     16  F   LIG d   1       2.597  -0.794  -2.515  0.00  0.00    -0.169 F 
ENDBRANCH   5  13
BRANCH   5  17
ATOM     17  C   LIG d   1       5.981  -1.538  -3.798  0.00  0.00     0.412 C 
ATOM     18  F   LIG d   1       6.515  -2.021  -2.599  0.00  0.00    -0.169 F 
ATOM     19  F   LIG d   1       5.579  -2.614  -4.597  0.00  0.00    -0.169 F 
ATOM     20  F   LIG d   1       6.953  -0.792  -4.474  0.00  0.00    -0.169 F 
ENDBRANCH   5  17
ENDBRANCH   1   5
BRANCH   3  21
ATOM     21  C   LIG d   1       3.882   0.067  -7.079  0.00  0.00     0.128 A 
ATOM     22  N   LIG d   1       3.411   1.272  -7.357  0.00  0.00    -0.240 NA
ATOM     23  C   LIG d   1       2.712   1.506  -8.451  0.00  0.00     0.030 A 
ATOM     24  C   LIG d   1       2.445   0.494  -9.351  0.00  0.00    -0.043 A 
ATOM     25  H   LIG d   1       2.344   2.503  -8.646  0.00  0.00     0.083 H 
ATOM     26  C   LIG d   1       2.922  -0.785  -9.096  0.00  0.00    -0.054 A 
ATOM     27  H   LIG d   1       1.873   0.695 -10.244  0.00  0.00     0.063 H 
ATOM     28  C   LIG d   1       3.652  -1.000  -7.941  0.00  0.00    -0.010 A 
ATOM     29  H   LIG d   1       2.731  -1.593  -9.786  0.00  0.00     0.062 H 
BRANCH  28  30
ATOM     30  C   LIG d   1       4.189  -2.370  -7.620  0.00  0.00    -0.036 C 
ATOM     31  H   LIG d   1       5.277  -2.329  -7.559  0.00  0.00     0.028 H 
ATOM     32  H   LIG d   1       3.784  -2.706  -6.666  0.00  0.00     0.028 H 
ATOM     33  H   LIG d   1       3.896  -3.068  -8.404  0.00  0.00     0.028 H 
ENDBRANCH  28  30
ENDBRANCH   3  21
TORSDOF 7
ENDMDL
MODEL 4
REMARK VINA RESULT:      -6.4      3.019      4.024
REMARK  7 active torsions:
REMARK  status: ('A' for Active; 'I' for Inactive)
REMARK    1  A    between atoms: C_1  and  C_2 
REMARK    2  A    between atoms: C_2  and  C_3 
REMARK    3  A    between atoms: C_3  and  C_4 
REMARK    4  A    between atoms: C_3  and  C_14 
REMARK    5  A    between atoms: C_3  and  C_18 
REMARK       I    between atoms: C_4  and  N_6 
REMARK    6  A    between atoms: N_6  and  C_7 
REMARK    7  A    between atoms: C_8  and  C_13 
ROOT
ATOM      1  C   LIG d   1       5.474  -0.177  -3.927  0.00  0.00     0.242 C 
ATOM      2  O   LIG d   1       5.385   0.113  -5.102  0.00  0.00    -0.274 OA
ATOM      3  N   LIG d   1       6.659  -0.566  -3.418  0.00  0.00    -0.269 N 
ATOM      4  H   LIG d   1       6.730  -0.798  -2.478  0.00  0.00     0.156 HD
ENDROOT
BRANCH   1   5
ATOM      5  C   LIG d   1       4.260  -0.100  -3.038  0.00  0.00     0.235 C 
BRANCH   5   6
ATOM      6  C   LIG d   1       4.218  -1.327  -2.124  0.00  0.00    -0.025 C 
ATOM      7  H   LIG d   1       5.117  -1.352  -1.508  0.00  0.00     0.028 H 
ATOM      8  H   LIG d   1       3.339  -1.272  -1.482  0.00  0.00     0.028 H 
BRANCH   6   9
ATOM      9  C   LIG d   1       4.149  -2.596  -2.977  0.00  0.00    -0.064 C 
ATOM     10  H   LIG d   1       4.643  -3.414  -2.453  0.00  0.00     0.023 H 
ATOM     11  H   LIG d   1       3.105  -2.856  -3.155  0.00  0.00     0.023 H 
ATOM     12  H   LIG d   1       4.647  -2.421  -3.930  0.00  0.00     0.023 H 
ENDBRANCH   6   9
ENDBRANCH   5   6
BRANCH   5  13
ATOM     13  C   LIG d   1       4.331   1.168  -2.186  0.00  0.00     0.412 C 
ATOM     14  F   LIG d   1       4.900   0.864  -0.945  0.00  0.00    -0.169 F 
ATOM     15  F   LIG d   1       5.117   2.125  -2.838  0.00  0.00    -0.169 F 
ATOM     16  F   LIG d   1       3.041   1.675  -1.996  0.00  0.00    -0.169 F 
ENDBRANCH   5  13
BRANCH   5  17
ATOM     17  C   LIG d   1       2.996  -0.065  -3.901  0.00  0.00     0.412 C 
ATOM     18  F   LIG d   1       1.914  -0.555  -3.163  0.00  0.00    -0.169 F 
ATOM     19  F   LIG d   1       2.736   1.252  -4.293  0.00  0.00    -0.169 F 
ATOM     20  F   LIG d   1       3.185  -0.862  -5.036  0.00  0.00    -0.169 F 
ENDBRANCH   5  17
ENDBRANCH   1   5
BRANCH   3  21
ATOM     21  C   LIG d   1       7.783  -0.636  -4.241  0.00  0.00     0.128 A 
ATOM     22  N   LIG d   1       8.405   0.476  -4.597  0.00  0.00    -0.240 NA
ATOM     23  C   LIG d   1       9.470   0.455  -5.373  0.00  0.00     0.030 A 
ATOM     24  C   LIG d   1       9.978  -0.739  -5.847  0.00  0.00    -0.043 A 
ATOM     25  H   LIG d   1       9.952   1.382  -5.644  0.00  0.00     0.083 H 
ATOM     26  C   LIG d   1       9.354  -1.929  -5.496  0.00  0.00    -0.054 A 
ATOM     27  H   LIG d   1      10.851  -0.748  -6.481  0.00  0.00     0.063 H 
ATOM     28  C   LIG d   1       8.238  -1.874  -4.679  0.00  0.00    -0.010 A 
ATOM     29  H   LIG d   1       9.734  -2.876  -5.848  0.00  0.00     0.062 H 
BRANCH  28  30
ATOM     30  C   LIG d   1       7.527  -3.138  -4.272  0.00  0.00    -0.036 C 
ATOM     31  H   LIG d   1       6.551  -3.178  -4.757  0.00  0.00     0.028 H 
ATOM     32  H   LIG d   1       8.118  -4.002  -4.573  0.00  0.00     0.028 H 
ATOM     33  H   LIG d   1       7.394  -3.148  -3.190  0.00  0.00     0.028 H 
ENDBRANCH  28  30
ENDBRANCH   3  21
TORSDOF 7
ENDMDL
MODEL 5
REMARK VINA RESULT:      -6.4      2.998      4.745
REMARK  7 active torsions:
REMARK  status: ('A' for Active; 'I' for Inactive)
REMARK    1  A    between atoms: C_1  and  C_2 
REMARK    2  A    between atoms: C_2  and  C_3 
REMARK    3  A    between atoms: C_3  and  C_4 
REMARK    4  A    between atoms: C_3  and  C_14 
REMARK    5  A    between atoms: C_3  and  C_18 
REMARK       I    between atoms: C_4  and  N_6 
REMARK    6  A    between atoms: N_6  and  C_7 
REMARK    7  A    between atoms: C_8  and  C_13 
ROOT
ATOM      1  C   LIG d   1       6.058   0.196  -3.492  0.00  0.00     0.242 C 
ATOM      2  O   LIG d   1       6.891  -0.569  -3.053  0.00  0.00    -0.274 OA
ATOM      3  N   LIG d   1       6.443   1.304  -4.153  0.00  0.00    -0.269 N 
ATOM      4  H   LIG d   1       5.776   1.915  -4.505  0.00  0.00     0.156 HD
ENDROOT
BRANCH   1   5
ATOM      5  C   LIG d   1       4.592  -0.096  -3.299  0.00  0.00     0.235 C 
BRANCH   5   6
ATOM      6  C   LIG d   1       3.888  -0.095  -4.658  0.00  0.00    -0.025 C 
ATOM      7  H   LIG d   1       2.847  -0.391  -4.529  0.00  0.00     0.028 H 
ATOM      8  H   LIG d   1       3.930   0.906  -5.087  0.00  0.00     0.028 H 
BRANCH   6   9
ATOM      9  C   LIG d   1       4.588  -1.081  -5.595  0.00  0.00    -0.064 C 
ATOM     10  H   LIG d   1       5.573  -1.324  -5.198  0.00  0.00     0.023 H 
ATOM     11  H   LIG d   1       3.992  -1.991  -5.674  0.00  0.00     0.023 H 
ATOM     12  H   LIG d   1       4.695  -0.631  -6.582  0.00  0.00     0.023 H 
ENDBRANCH   6   9
ENDBRANCH   5   6
BRANCH   5  13
ATOM     13  C   LIG d   1       4.427  -1.467  -2.641  0.00  0.00     0.412 C 
ATOM     14  F   LIG d   1       3.138  -1.951  -2.888  0.00  0.00    -0.169 F 
ATOM     15  F   LIG d   1       5.369  -2.356  -3.172  0.00  0.00    -0.169 F 
ATOM     16  F   LIG d   1       4.624  -1.350  -1.261  0.00  0.00    -0.169 F 
ENDBRANCH   5  13
BRANCH   5  17
ATOM     17  C   LIG d   1       3.971   0.978  -2.403  0.00  0.00     0.412 C 
ATOM     18  F   LIG d   1       2.683   0.584  -2.028  0.00  0.00    -0.169 F 
ATOM     19  F   LIG d   1       4.760   1.144  -1.259  0.00  0.00    -0.169 F 
ATOM     20  F   LIG d   1       3.904   2.188  -3.103  0.00  0.00    -0.169 F 
ENDBRANCH   5  17
ENDBRANCH   1   5
BRANCH   3  21
ATOM     21  C   LIG d   1       7.800   1.574  -4.332  0.00  0.00     0.128 A 
ATOM     22  N   LIG d   1       8.498   2.106  -3.342  0.00  0.00    -0.240 NA
ATOM     23  C   LIG d   1       9.782   2.377  -3.470  0.00  0.00     0.030 A 
ATOM     24  C   LIG d   1      10.448   2.114  -4.651  0.00  0.00    -0.043 A 
ATOM     25  H   LIG d   1      10.321   2.811  -2.640  0.00  0.00     0.083 H 
ATOM     26  C   LIG d   1       9.750   1.556  -5.714  0.00  0.00    -0.054 A 
ATOM     27  H   LIG d   1      11.500   2.338  -4.747  0.00  0.00     0.063 H 
ATOM     28  C   LIG d   1       8.404   1.282  -5.549  0.00  0.00    -0.010 A 
ATOM     29  H   LIG d   1      10.249   1.336  -6.646  0.00  0.00     0.062 H 
BRANCH  28  30
ATOM     30  C   LIG d   1       7.605   0.678  -6.674  0.00  0.00    -0.036 C 
ATOM     31  H   LIG d   1       7.121   1.472  -7.244  0.00  0.00     0.028 H 
ATOM     32  H   LIG d   1       8.266   0.112  -7.329  0.00  0.00     0.028 H 
ATOM     33  H   LIG d   1       6.845   0.012  -6.263  0.00  0.00     0.028 H 
ENDBRANCH  28  30
ENDBRANCH   3  21
TORSDOF 7
ENDMDL
MODEL 6
REMARK VINA RESULT:      -6.3      1.535      3.034
REMARK  7 active torsions:
REMARK  status: ('A' for Active; 'I' for Inactive)
REMARK    1  A    between atoms: C_1  and  C_2 
REMARK    2  A    between atoms: C_2  and  C_3 
REMARK    3  A    between atoms: C_3  and  C_4 
REMARK    4  A    between atoms: C_3  and  C_14 
REMARK    5  A    between atoms: C_3  and  C_18 
REMARK       I    between atoms: C_4  and  N_6 
REMARK    6  A    between atoms: N_6  and  C_7 
REMARK    7  A    between atoms: C_8  and  C_13 
ROOT
ATOM      1  C   LIG d   1       4.606  -0.612  -4.594  0.00  0.00     0.242 C 
ATOM      2  O   LIG d   1       5.335   0.223  -5.088  0.00  0.00    -0.274 OA
ATOM      3  N   LIG d   1       4.234  -1.690  -5.310  0.00  0.00    -0.269 N 
ATOM      4  H   LIG d   1       3.652  -2.358  -4.914  0.00  0.00     0.156 HD
ENDROOT
BRANCH   1   5
ATOM      5  C   LIG d   1       4.120  -0.443  -3.177  0.00  0.00     0.235 C 
BRANCH   5   6
ATOM      6  C   LIG d   1       2.590  -0.414  -3.163  0.00  0.00    -0.025 C 
ATOM      7  H   LIG d   1       2.208  -1.424  -3.008  0.00  0.00     0.028 H 
ATOM      8  H   LIG d   1       2.246   0.232  -2.356  0.00  0.00     0.028 H 
BRANCH   6   9
ATOM      9  C   LIG d   1       2.078   0.125  -4.501  0.00  0.00    -0.064 C 
ATOM     10  H   LIG d   1       1.016  -0.101  -4.601  0.00  0.00     0.023 H 
ATOM     11  H   LIG d   1       2.225   1.204  -4.537  0.00  0.00     0.023 H 
ATOM     12  H   LIG d   1       2.628  -0.345  -5.316  0.00  0.00     0.023 H 
ENDBRANCH   6   9
ENDBRANCH   5   6
BRANCH   5  13
ATOM     13  C   LIG d   1       4.615  -1.612  -2.325  0.00  0.00     0.412 C 
ATOM     14  F   LIG d   1       5.904  -1.974  -2.733  0.00  0.00    -0.169 F 
ATOM     15  F   LIG d   1       4.642  -1.231  -0.979  0.00  0.00    -0.169 F 
ATOM     16  F   LIG d   1       3.754  -2.703  -2.483  0.00  0.00    -0.169 F 
ENDBRANCH   5  13
BRANCH   5  17
ATOM     17  C   LIG d   1       4.659   0.870  -2.605  0.00  0.00     0.412 C 
ATOM     18  F   LIG d   1       4.245   1.004  -1.276  0.00  0.00    -0.169 F 
ATOM     19  F   LIG d   1       6.057   0.863  -2.660  0.00  0.00    -0.169 F 
ATOM     20  F   LIG d   1       4.167   1.943  -3.357  0.00  0.00    -0.169 F 
ENDBRANCH   5  17
ENDBRANCH   1   5
BRANCH   3  21
ATOM     21  C   LIG d   1       4.685  -1.847  -6.620  0.00  0.00     0.128 A 
ATOM     22  N   LIG d   1       4.072  -1.210  -7.605  0.00  0.00    -0.240 NA
ATOM     23  C   LIG d   1       4.465  -1.330  -8.858  0.00  0.00     0.030 A 
ATOM     24  C   LIG d   1       5.539  -2.133  -9.189  0.00  0.00    -0.043 A 
ATOM     25  H   LIG d   1       3.942  -0.795  -9.636  0.00  0.00     0.083 H 
ATOM     26  C   LIG d   1       6.209  -2.819  -8.184  0.00  0.00    -0.054 A 
ATOM     27  H   LIG d   1       5.855  -2.226 -10.216  0.00  0.00     0.063 H 
ATOM     28  C   LIG d   1       5.773  -2.672  -6.879  0.00  0.00    -0.010 A 
ATOM     29  H   LIG d   1       7.055  -3.449  -8.416  0.00  0.00     0.062 H 
BRANCH  28  30
ATOM     30  C   LIG d   1       6.467  -3.396  -5.756  0.00  0.00    -0.036 C 
ATOM     31  H   LIG d   1       7.278  -2.777  -5.370  0.00  0.00     0.028 H 
ATOM     32  H   LIG d   1       5.754  -3.600  -4.958  0.00  0.00     0.028 H 
ATOM     33  H   LIG d   1       6.875  -4.337  -6.127  0.00  0.00     0.028 H 
ENDBRANCH  28  30
ENDBRANCH   3  21
TORSDOF 7
ENDMDL
MODEL 7
REMARK VINA RESULT:      -6.1      1.641      2.411
REMARK  7 active torsions:
REMARK  status: ('A' for Active; 'I' for Inactive)
REMARK    1  A    between atoms: C_1  and  C_2 
REMARK    2  A    between atoms: C_2  and  C_3 
REMARK    3  A    between atoms: C_3  and  C_4 
REMARK    4  A    between atoms: C_3  and  C_14 
REMARK    5  A    between atoms: C_3  and  C_18 
REMARK       I    between atoms: C_4  and  N_6 
REMARK    6  A    between atoms: N_6  and  C_7 
REMARK    7  A    between atoms: C_8  and  C_13 
ROOT
ATOM      1  C   LIG d   1       4.598  -0.895  -4.759  0.00  0.00     0.242 C 
ATOM      2  O   LIG d   1       4.403  -2.077  -4.955  0.00  0.00    -0.274 OA
ATOM      3  N   LIG d   1       4.940  -0.090  -5.782  0.00  0.00    -0.269 N 
ATOM      4  H   LIG d   1       5.095   0.855  -5.625  0.00  0.00     0.156 HD
ENDROOT
BRANCH   1   5
ATOM      5  C   LIG d   1       4.454  -0.329  -3.369  0.00  0.00     0.235 C 
BRANCH   5   6
ATOM      6  C   LIG d   1       5.519   0.747  -3.145  0.00  0.00    -0.025 C 
ATOM      7  H   LIG d   1       5.316   1.601  -3.791  0.00  0.00     0.028 H 
ATOM      8  H   LIG d   1       5.497   1.067  -2.103  0.00  0.00     0.028 H 
BRANCH   6   9
ATOM      9  C   LIG d   1       6.900   0.175  -3.473  0.00  0.00    -0.064 C 
ATOM     10  H   LIG d   1       7.482   0.082  -2.557  0.00  0.00     0.023 H 
ATOM     11  H   LIG d   1       6.785  -0.807  -3.932  0.00  0.00     0.023 H 
ATOM     12  H   LIG d   1       7.414   0.842  -4.165  0.00  0.00     0.023 H 
ENDBRANCH   6   9
ENDBRANCH   5   6
BRANCH   5  13
ATOM     13  C   LIG d   1       3.064   0.289  -3.212  0.00  0.00     0.412 C 
ATOM     14  F   LIG d   1       2.735   0.999  -4.371  0.00  0.00    -0.169 F 
ATOM     15  F   LIG d   1       2.123  -0.726  -3.003  0.00  0.00    -0.169 F 
ATOM     16  F   LIG d   1       3.061   1.158  -2.116  0.00  0.00    -0.169 F 
ENDBRANCH   5  13
BRANCH   5  17
ATOM     17  C   LIG d   1       4.635  -1.448  -2.341  0.00  0.00     0.412 C 
ATOM     18  F   LIG d   1       3.593  -2.372  -2.469  0.00  0.00    -0.169 F 
ATOM     19  F   LIG d   1       5.858  -2.090  -2.561  0.00  0.00    -0.169 F 
ATOM     20  F   LIG d   1       4.619  -0.903  -1.052  0.00  0.00    -0.169 F 
ENDBRANCH   5  17
ENDBRANCH   1   5
BRANCH   3  21
ATOM     21  C   LIG d   1       5.072  -0.614  -7.068  0.00  0.00     0.128 A 
ATOM     22  N   LIG d   1       6.218  -1.163  -7.438  0.00  0.00    -0.240 NA
ATOM     23  C   LIG d   1       6.385  -1.669  -8.644  0.00  0.00     0.030 A 
ATOM     24  C   LIG d   1       5.362  -1.643  -9.571  0.00  0.00    -0.043 A 
ATOM     25  H   LIG d   1       7.334  -2.109  -8.911  0.00  0.00     0.083 H 
ATOM     26  C   LIG d   1       4.143  -1.075  -9.222  0.00  0.00    -0.054 A 
ATOM     27  H   LIG d   1       5.507  -2.061 -10.556  0.00  0.00     0.063 H 
ATOM     28  C   LIG d   1       3.998  -0.553  -7.949  0.00  0.00    -0.010 A 
ATOM     29  H   LIG d   1       3.326  -1.048  -9.927  0.00  0.00     0.062 H 
BRANCH  28  30
ATOM     30  C   LIG d   1       2.696   0.074  -7.525  0.00  0.00    -0.036 C 
ATOM     31  H   LIG d   1       2.313  -0.445  -6.645  0.00  0.00     0.028 H 
ATOM     32  H   LIG d   1       2.858   1.124  -7.286  0.00  0.00     0.028 H 
ATOM     33  H   LIG d   1       1.973  -0.006  -8.337  0.00  0.00     0.028 H 
ENDBRANCH  28  30
ENDBRANCH   3  21
TORSDOF 7
ENDMDL
MODEL 8
REMARK VINA RESULT:      -6.0      2.646      4.699
REMARK  7 active torsions:
REMARK  status: ('A' for Active; 'I' for Inactive)
REMARK    1  A    between atoms: C_1  and  C_2 
REMARK    2  A    between atoms: C_2  and  C_3 
REMARK    3  A    between atoms: C_3  and  C_4 
REMARK    4  A    between atoms: C_3  and  C_14 
REMARK    5  A    between atoms: C_3  and  C_18 
REMARK       I    between atoms: C_4  and  N_6 
REMARK    6  A    between atoms: N_6  and  C_7 
REMARK    7  A    between atoms: C_8  and  C_13 
ROOT
ATOM      1  C   LIG d   1       5.941  -0.384  -3.662  0.00  0.00     0.242 C 
ATOM      2  O   LIG d   1       6.632  -1.160  -3.037  0.00  0.00    -0.274 OA
ATOM      3  N   LIG d   1       6.470   0.320  -4.681  0.00  0.00    -0.269 N 
ATOM      4  H   LIG d   1       5.916   0.941  -5.181  0.00  0.00     0.156 HD
ENDROOT
BRANCH   1   5
ATOM      5  C   LIG d   1       4.489  -0.209  -3.299  0.00  0.00     0.235 C 
BRANCH   5   6
ATOM      6  C   LIG d   1       3.668   0.014  -4.572  0.00  0.00    -0.025 C 
ATOM      7  H   LIG d   1       2.607  -0.103  -4.346  0.00  0.00     0.028 H 
ATOM      8  H   LIG d   1       3.850   1.020  -4.950  0.00  0.00     0.028 H 
BRANCH   6   9
ATOM      9  C   LIG d   1       4.080  -1.012  -5.630  0.00  0.00    -0.064 C 
ATOM     10  H   LIG d   1       5.165  -1.108  -5.640  0.00  0.00     0.023 H 
ATOM     11  H   LIG d   1       3.631  -1.977  -5.394  0.00  0.00     0.023 H 
ATOM     12  H   LIG d   1       3.735  -0.681  -6.610  0.00  0.00     0.023 H 
ENDBRANCH   6   9
ENDBRANCH   5   6
BRANCH   5  13
ATOM     13  C   LIG d   1       3.987  -1.464  -2.582  0.00  0.00     0.412 C 
ATOM     14  F   LIG d   1       4.425  -1.448  -1.254  0.00  0.00    -0.169 F 
ATOM     15  F   LIG d   1       2.588  -1.491  -2.612  0.00  0.00    -0.169 F 
ATOM     16  F   LIG d   1       4.489  -2.601  -3.225  0.00  0.00    -0.169 F 
ENDBRANCH   5  13
BRANCH   5  17
ATOM     17  C   LIG d   1       4.335   1.002  -2.376  0.00  0.00     0.412 C 
ATOM     18  F   LIG d   1       2.979   1.213  -2.106  0.00  0.00    -0.169 F 
ATOM     19  F   LIG d   1       5.018   0.764  -1.178  0.00  0.00    -0.169 F 
ATOM     20  F   LIG d   1       4.868   2.135  -3.001  0.00  0.00    -0.169 F 
ENDBRANCH   5  17
ENDBRANCH   1   5
BRANCH   3  21
ATOM     21  C   LIG d   1       7.814   0.158  -5.018  0.00  0.00     0.128 A 
ATOM     22  N   LIG d   1       8.187  -0.888  -5.737  0.00  0.00    -0.240 NA
ATOM     23  C   LIG d   1       9.447  -1.080  -6.076  0.00  0.00     0.030 A 
ATOM     24  C   LIG d   1      10.429  -0.189  -5.689  0.00  0.00    -0.043 A 
ATOM     25  H   LIG d   1       9.716  -1.945  -6.664  0.00  0.00     0.083 H 
ATOM     26  C   LIG d   1      10.077   0.922  -4.933  0.00  0.00    -0.054 A 
ATOM     27  H   LIG d   1      11.457  -0.353  -5.972  0.00  0.00     0.063 H 
ATOM     28  C   LIG d   1       8.747   1.096  -4.593  0.00  0.00    -0.010 A 
ATOM     29  H   LIG d   1      10.825   1.636  -4.622  0.00  0.00     0.062 H 
BRANCH  28  30
ATOM     30  C   LIG d   1       8.318   2.285  -3.774  0.00  0.00    -0.036 C 
ATOM     31  H   LIG d   1       8.050   3.107  -4.438  0.00  0.00     0.028 H 
ATOM     32  H   LIG d   1       7.457   2.015  -3.163  0.00  0.00     0.028 H 
ATOM     33  H   LIG d   1       9.138   2.595  -3.126  0.00  0.00     0.028 H 
ENDBRANCH  28  30
ENDBRANCH   3  21
TORSDOF 7
ENDMDL
MODEL 9
REMARK VINA RESULT:      -6.0      3.377      5.553
REMARK  7 active torsions:
REMARK  status: ('A' for Active; 'I' for Inactive)
REMARK    1  A    between atoms: C_1  and  C_2 
REMARK    2  A    between atoms: C_2  and  C_3 
REMARK    3  A    between atoms: C_3  and  C_4 
REMARK    4  A    between atoms: C_3  and  C_14 
REMARK    5  A    between atoms: C_3  and  C_18 
REMARK       I    between atoms: C_4  and  N_6 
REMARK    6  A    between atoms: N_6  and  C_7 
REMARK    7  A    between atoms: C_8  and  C_13 
ROOT
ATOM      1  C   LIG d   1       4.437  -0.260  -6.578  0.00  0.00     0.242 C 
ATOM      2  O   LIG d   1       5.475   0.298  -6.290  0.00  0.00    -0.274 OA
ATOM      3  N   LIG d   1       3.551  -0.574  -5.614  0.00  0.00    -0.269 N 
ATOM      4  H   LIG d   1       2.721  -1.020  -5.845  0.00  0.00     0.156 HD
ENDROOT
BRANCH   1   5
ATOM      5  C   LIG d   1       4.139  -0.601  -8.016  0.00  0.00     0.235 C 
BRANCH   5   6
ATOM      6  C   LIG d   1       3.782  -2.085  -8.125  0.00  0.00    -0.025 C 
ATOM      7  H   LIG d   1       2.853  -2.276  -7.588  0.00  0.00     0.028 H 
ATOM      8  H   LIG d   1       3.657  -2.352  -9.174  0.00  0.00     0.028 H 
BRANCH   6   9
ATOM      9  C   LIG d   1       4.906  -2.926  -7.515  0.00  0.00    -0.064 C 
ATOM     10  H   LIG d   1       5.222  -3.684  -8.231  0.00  0.00     0.023 H 
ATOM     11  H   LIG d   1       5.750  -2.281  -7.271  0.00  0.00     0.023 H 
ATOM     12  H   LIG d   1       4.545  -3.411  -6.608  0.00  0.00     0.023 H 
ENDBRANCH   6   9
ENDBRANCH   5   6
BRANCH   5  13
ATOM     13  C   LIG d   1       2.962   0.244  -8.506  0.00  0.00     0.412 C 
ATOM     14  F   LIG d   1       2.991   1.493  -7.877  0.00  0.00    -0.169 F 
ATOM     15  F   LIG d   1       3.057   0.417  -9.892  0.00  0.00    -0.169 F 
ATOM     16  F   LIG d   1       1.762  -0.405  -8.200  0.00  0.00    -0.169 F 
ENDBRANCH   5  13
BRANCH   5  17
ATOM     17  C   LIG d   1       5.371  -0.308  -8.876  0.00  0.00     0.412 C 
ATOM     18  F   LIG d   1       6.517  -0.774  -8.222  0.00  0.00    -0.169 F 
ATOM     19  F   LIG d   1       5.242  -0.955 -10.110  0.00  0.00    -0.169 F 
ATOM     20  F   LIG d   1       5.479   1.072  -9.080  0.00  0.00    -0.169 F 
ENDBRANCH   5  17
ENDBRANCH   1   5
BRANCH   3  21
ATOM     21  C   LIG d   1       3.827  -0.258  -4.283  0.00  0.00     0.128 A 
ATOM     22  N   LIG d   1       3.645   0.980  -3.853  0.00  0.00    -0.240 NA
ATOM     23  C   LIG d   1       3.894   1.321  -2.604  0.00  0.00     0.030 A 
ATOM     24  C   LIG d   1       4.357   0.391  -1.694  0.00  0.00    -0.043 A 
ATOM     25  H   LIG d   1       3.734   2.341  -2.287  0.00  0.00     0.083 H 
ATOM     26  C   LIG d   1       4.561  -0.920  -2.107  0.00  0.00    -0.054 A 
ATOM     27  H   LIG d   1       4.557   0.678  -0.673  0.00  0.00     0.063 H 
ATOM     28  C   LIG d   1       4.290  -1.247  -3.423  0.00  0.00    -0.010 A 
ATOM     29  H   LIG d   1       4.917  -1.667  -1.414  0.00  0.00     0.062 H 
BRANCH  28  30
ATOM     30  C   LIG d   1       4.496  -2.655  -3.918  0.00  0.00    -0.036 C 
ATOM     31  H   LIG d   1       5.061  -2.633  -4.851  0.00  0.00     0.028 H 
ATOM     32  H   LIG d   1       5.048  -3.226  -3.172  0.00  0.00     0.028 H 
ATOM     33  H   LIG d   1       3.528  -3.124  -4.092  0.00  0.00     0.028 H 
ENDBRANCH  28  30
ENDBRANCH   3  21
TORSDOF 7
ENDMDL
MODEL 10
REMARK VINA RESULT:      -5.8      3.817      6.037
REMARK  7 active torsions:
REMARK  status: ('A' for Active; 'I' for Inactive)
REMARK    1  A    between atoms: C_1  and  C_2 
REMARK    2  A    between atoms: C_2  and  C_3 
REMARK    3  A    between atoms: C_3  and  C_4 
REMARK    4  A    between atoms: C_3  and  C_14 
REMARK    5  A    between atoms: C_3  and  C_18 
REMARK       I    between atoms: C_4  and  N_6 
REMARK    6  A    between atoms: N_6  and  C_7 
REMARK    7  A    between atoms: C_8  and  C_13 
ROOT
ATOM      1  C   LIG d   1       3.491   0.091  -7.450  0.00  0.00     0.242 C 
ATOM      2  O   LIG d   1       2.340  -0.160  -7.162  0.00  0.00    -0.274 OA
ATOM      3  N   LIG d   1       4.445   0.063  -6.500  0.00  0.00    -0.269 N 
ATOM      4  H   LIG d   1       5.366   0.263  -6.731  0.00  0.00     0.156 HD
ENDROOT
BRANCH   1   5
ATOM      5  C   LIG d   1       3.854   0.434  -8.872  0.00  0.00     0.235 C 
BRANCH   5   6
ATOM      6  C   LIG d   1       5.245  -0.119  -9.192  0.00  0.00    -0.025 C 
ATOM      7  H   LIG d   1       5.536   0.187 -10.197  0.00  0.00     0.028 H 
ATOM      8  H   LIG d   1       5.964   0.270  -8.471  0.00  0.00     0.028 H 
BRANCH   6   9
ATOM      9  C   LIG d   1       5.217  -1.647  -9.112  0.00  0.00    -0.064 C 
ATOM     10  H   LIG d   1       4.606  -1.955  -8.264  0.00  0.00     0.023 H 
ATOM     11  H   LIG d   1       4.793  -2.050 -10.031  0.00  0.00     0.023 H 
ATOM     12  H   LIG d   1       6.233  -2.022  -8.984  0.00  0.00     0.023 H 
ENDBRANCH   6   9
ENDBRANCH   5   6
BRANCH   5  13
ATOM     13  C   LIG d   1       2.828  -0.187  -9.823  0.00  0.00     0.412 C 
ATOM     14  F   LIG d   1       3.330  -0.164 -11.129  0.00  0.00    -0.169 F 
ATOM     15  F   LIG d   1       2.578  -1.510  -9.442  0.00  0.00    -0.169 F 
ATOM     16  F   LIG d   1       1.638   0.547  -9.769  0.00  0.00    -0.169 F 
ENDBRANCH   5  13
BRANCH   5  17
ATOM     17  C   LIG d   1       3.857   1.954  -9.047  0.00  0.00     0.412 C 
ATOM     18  F   LIG d   1       5.135   2.452  -8.772  0.00  0.00    -0.169 F 
ATOM     19  F   LIG d   1       3.504   2.273 -10.362  0.00  0.00    -0.169 F 
ATOM     20  F   LIG d   1       2.934   2.526  -8.164  0.00  0.00    -0.169 F 
ENDBRANCH   5  17
ENDBRANCH   1   5
BRANCH   3  21
ATOM     21  C   LIG d   1       4.110  -0.255  -5.184  0.00  0.00     0.128 A 
ATOM     22  N   LIG d   1       3.590   0.674  -4.398  0.00  0.00    -0.240 NA
ATOM     23  C   LIG d   1       3.260   0.416  -3.148  0.00  0.00     0.030 A 
ATOM     24  C   LIG d   1       3.448  -0.842  -2.610  0.00  0.00    -0.043 A 
ATOM     25  H   LIG d   1       2.837   1.199  -2.535  0.00  0.00     0.083 H 
ATOM     26  C   LIG d   1       3.991  -1.845  -3.403  0.00  0.00    -0.054 A 
ATOM     27  H   LIG d   1       3.173  -1.045  -1.586  0.00  0.00     0.063 H 
ATOM     28  C   LIG d   1       4.327  -1.544  -4.711  0.00  0.00    -0.010 A 
ATOM     29  H   LIG d   1       4.143  -2.838  -3.008  0.00  0.00     0.062 H 
BRANCH  28  30
ATOM     30  C   LIG d   1       4.920  -2.598  -5.609  0.00  0.00    -0.036 C 
ATOM     31  H   LIG d   1       5.958  -2.346  -5.828  0.00  0.00     0.028 H 
ATOM     32  H   LIG d   1       4.878  -3.566  -5.112  0.00  0.00     0.028 H 
ATOM     33  H   LIG d   1       4.354  -2.643  -6.540  0.00  0.00     0.028 H 
ENDBRANCH  28  30
ENDBRANCH   3  21
TORSDOF 7
ENDMDL
