MODEL 1
REMARK VINA RESULT:      -5.3      0.000      0.000
REMARK  9 active torsions:
REMARK  status: ('A' for Active; 'I' for Inactive)
REMARK    1  A    between atoms: C_1  and  C_2 
REMARK    2  A    between atoms: C_7  and  O_28 
REMARK    3  A    between atoms: C_8  and  O_26 
REMARK    4  A    between atoms: C_16  and  O_24 
REMARK    5  A    between atoms: C_17  and  O_22 
REMARK    6  A    between atoms: O_22  and  C_23 
REMARK    7  A    between atoms: O_24  and  C_25 
REMARK    8  A    between atoms: O_26  and  C_27 
REMARK    9  A    between atoms: O_28  and  C_29 
ROOT
ATOM      1  C   LIG d   1      11.000   9.257  -3.414  0.00  0.00     0.002 C 
ATOM      2  H   LIG d   1      10.739  10.316  -3.559  0.00  0.00     0.036 H 
ATOM      3  C   LIG d   1      11.211   9.024  -1.941  0.00  0.00    -0.035 A 
ATOM      4  C   LIG d   1      11.943   9.958  -1.222  0.00  0.00    -0.054 A 
ATOM      5  C   LIG d   1      12.166   9.783   0.129  0.00  0.00    -0.016 A 
ATOM      6  C   LIG d   1      11.656   8.668   0.773  0.00  0.00     0.162 A 
ATOM      7  C   LIG d   1      10.922   7.733   0.055  0.00  0.00     0.166 A 
ATOM      8  C   LIG d   1      10.699   7.913  -1.305  0.00  0.00     0.015 A 
ATOM      9  C   LIG d   1       9.894   6.877  -2.044  0.00  0.00     0.029 C 
ATOM     10  N   LIG d   1      10.103   6.995  -3.494  0.00  0.00    -0.290 N 
ATOM     11  C   LIG d   1       9.860   8.373  -3.932  0.00  0.00     0.043 C 
ATOM     12  H   LIG d   1       8.877   8.663  -3.529  0.00  0.00     0.052 H 
ATOM     13  C   LIG d   1       9.814   8.476  -5.433  0.00  0.00    -0.023 A 
ATOM     14  C   LIG d   1       9.864   9.742  -6.002  0.00  0.00    -0.011 A 
ATOM     15  C   LIG d   1       9.826   9.896  -7.376  0.00  0.00     0.162 A 
ATOM     16  C   LIG d   1       9.740   8.773  -8.195  0.00  0.00     0.162 A 
ATOM     17  C   LIG d   1       9.689   7.513  -7.624  0.00  0.00    -0.013 A 
ATOM     18  C   LIG d   1       9.726   7.367  -6.246  0.00  0.00    -0.038 A 
ATOM     19  C   LIG d   1       9.666   5.976  -5.668  0.00  0.00    -0.014 C 
ATOM     20  C   LIG d   1       9.227   6.053  -4.207  0.00  0.00     0.004 C 
ATOM     21  H   LIG d   1      12.340  10.827  -1.723  0.00  0.00     0.062 H 
ATOM     22  H   LIG d   1      12.736  10.515   0.682  0.00  0.00     0.066 H 
ATOM     23  H   LIG d   1      10.203   5.873  -1.719  0.00  0.00     0.048 H 
ATOM     24  H   LIG d   1       8.825   7.020  -1.826  0.00  0.00     0.048 H 
ATOM     25  H   LIG d   1       9.932  10.613  -5.367  0.00  0.00     0.066 H 
ATOM     26  H   LIG d   1       9.626   6.640  -8.256  0.00  0.00     0.066 H 
ATOM     27  H   LIG d   1       8.943   5.373  -6.238  0.00  0.00     0.033 H 
ATOM     28  H   LIG d   1      10.661   5.510  -5.729  0.00  0.00     0.033 H 
ATOM     29  H   LIG d   1       9.303   5.058  -3.743  0.00  0.00     0.043 H 
ATOM     30  H   LIG d   1       8.186   6.404  -4.149  0.00  0.00     0.043 H 
ENDROOT
BRANCH   1  31
ATOM     31  C   LIG d   1      12.286   8.920  -4.171  0.00  0.00    -0.057 C 
ATOM     32  H   LIG d   1      12.238   7.880  -4.527  0.00  0.00     0.024 H 
ATOM     33  H   LIG d   1      13.149   9.040  -3.501  0.00  0.00     0.024 H 
ATOM     34  H   LIG d   1      12.393   9.597  -5.032  0.00  0.00     0.024 H 
ENDBRANCH   1  31
BRANCH   7  35
ATOM     35  O   LIG d   1      10.421   6.636   0.684  0.00  0.00    -0.491 OA
BRANCH  35  36
ATOM     36  C   LIG d   1      11.313   5.536   0.881  0.00  0.00     0.079 C 
ATOM     37  H   LIG d   1      11.053   5.017   1.815  0.00  0.00     0.066 H 
ATOM     38  H   LIG d   1      12.345   5.909   0.944  0.00  0.00     0.066 H 
ATOM     39  H   LIG d   1      11.225   4.838   0.036  0.00  0.00     0.066 H 
ENDBRANCH  35  36
ENDBRANCH   7  35
BRANCH  15  40
ATOM     40  O   LIG d   1       9.875  11.138  -7.926  0.00  0.00    -0.491 OA
BRANCH  40  41
ATOM     41  C   LIG d   1       9.841  12.248  -7.025  0.00  0.00     0.079 C 
ATOM     42  H   LIG d   1      10.366  13.102  -7.476  0.00  0.00     0.066 H 
ATOM     43  H   LIG d   1      10.333  11.970  -6.082  0.00  0.00     0.066 H 
ATOM     44  H   LIG d   1       8.795  12.524  -6.824  0.00  0.00     0.066 H 
ENDBRANCH  40  41
ENDBRANCH  15  40
BRANCH   6  45
ATOM     45  O   LIG d   1      11.872   8.490   2.105  0.00  0.00    -0.491 OA
BRANCH  45  46
ATOM     46  C   LIG d   1      12.251   9.641   2.860  0.00  0.00     0.079 C 
ATOM     47  H   LIG d   1      13.273   9.942   2.582  0.00  0.00     0.066 H 
ATOM     48  H   LIG d   1      12.219   9.404   3.934  0.00  0.00     0.066 H 
ATOM     49  H   LIG d   1      11.556  10.466   2.646  0.00  0.00     0.066 H 
ENDBRANCH  45  46
ENDBRANCH   6  45
BRANCH  16  50
ATOM     50  O   LIG d   1       9.705   8.914  -9.547  0.00  0.00    -0.491 OA
BRANCH  50  51
ATOM     51  C   LIG d   1      10.256   7.849 -10.325  0.00  0.00     0.079 C 
ATOM     52  H   LIG d   1      11.348   7.832 -10.201  0.00  0.00     0.066 H 
ATOM     53  H   LIG d   1      10.010   8.004 -11.385  0.00  0.00     0.066 H 
ATOM     54  H   LIG d   1       9.833   6.892  -9.986  0.00  0.00     0.066 H 
ENDBRANCH  50  51
ENDBRANCH  16  50
TORSDOF 9
ENDMDL
MODEL 2
REMARK VINA RESULT:      -5.2     10.414     12.423
REMARK  9 active torsions:
REMARK  status: ('A' for Active; 'I' for Inactive)
REMARK    1  A    between atoms: C_1  and  C_2 
REMARK    2  A    between atoms: C_7  and  O_28 
REMARK    3  A    between atoms: C_8  and  O_26 
REMARK    4  A    between atoms: C_16  and  O_24 
REMARK    5  A    between atoms: C_17  and  O_22 
REMARK    6  A    between atoms: O_22  and  C_23 
REMARK    7  A    between atoms: O_24  and  C_25 
REMARK    8  A    between atoms: O_26  and  C_27 
REMARK    9  A    between atoms: O_28  and  C_29 
ROOT
ATOM      1  C   LIG d   1       3.124  -0.393  -7.710  0.00  0.00     0.002 C 
ATOM      2  H   LIG d   1       2.057  -0.626  -7.839  0.00  0.00     0.036 H 
ATOM      3  C   LIG d   1       3.416  -0.339  -6.233  0.00  0.00    -0.035 A 
ATOM      4  C   LIG d   1       2.522   0.323  -5.406  0.00  0.00    -0.054 A 
ATOM      5  C   LIG d   1       2.750   0.402  -4.047  0.00  0.00    -0.016 A 
ATOM      6  C   LIG d   1       3.882  -0.184  -3.503  0.00  0.00     0.162 A 
ATOM      7  C   LIG d   1       4.778  -0.848  -4.330  0.00  0.00     0.166 A 
ATOM      8  C   LIG d   1       4.543  -0.926  -5.698  0.00  0.00     0.015 A 
ATOM      9  C   LIG d   1       5.538  -1.661  -6.557  0.00  0.00     0.029 C 
ATOM     10  N   LIG d   1       5.369  -1.301  -7.971  0.00  0.00    -0.290 N 
ATOM     11  C   LIG d   1       3.971  -1.483  -8.377  0.00  0.00     0.043 C 
ATOM     12  H   LIG d   1       3.683  -2.499  -8.068  0.00  0.00     0.052 H 
ATOM     13  C   LIG d   1       3.811  -1.371  -9.871  0.00  0.00    -0.023 A 
ATOM     14  C   LIG d   1       2.525  -1.248 -10.381  0.00  0.00    -0.011 A 
ATOM     15  C   LIG d   1       2.319  -1.140 -11.744  0.00  0.00     0.162 A 
ATOM     16  C   LIG d   1       3.408  -1.153 -12.611  0.00  0.00     0.162 A 
ATOM     17  C   LIG d   1       4.688  -1.276 -12.099  0.00  0.00    -0.013 A 
ATOM     18  C   LIG d   1       4.887  -1.385 -10.731  0.00  0.00    -0.038 A 
ATOM     19  C   LIG d   1       6.298  -1.519 -10.217  0.00  0.00    -0.014 C 
ATOM     20  C   LIG d   1       6.270  -2.108  -8.807  0.00  0.00     0.004 C 
ATOM     21  H   LIG d   1       1.639   0.780  -5.829  0.00  0.00     0.062 H 
ATOM     22  H   LIG d   1       2.049   0.920  -3.409  0.00  0.00     0.066 H 
ATOM     23  H   LIG d   1       6.558  -1.398  -6.241  0.00  0.00     0.048 H 
ATOM     24  H   LIG d   1       5.388  -2.746  -6.446  0.00  0.00     0.048 H 
ATOM     25  H   LIG d   1       1.680  -1.237  -9.709  0.00  0.00     0.066 H 
ATOM     26  H   LIG d   1       5.536  -1.282 -12.768  0.00  0.00     0.066 H 
ATOM     27  H   LIG d   1       6.868  -2.185 -10.883  0.00  0.00     0.033 H 
ATOM     28  H   LIG d   1       6.776  -0.529 -10.193  0.00  0.00     0.033 H 
ATOM     29  H   LIG d   1       7.283  -2.091  -8.378  0.00  0.00     0.043 H 
ATOM     30  H   LIG d   1       5.906  -3.145  -8.845  0.00  0.00     0.043 H 
ENDROOT
BRANCH   1  31
ATOM     31  C   LIG d   1       3.452   0.961  -8.342  0.00  0.00    -0.057 C 
ATOM     32  H   LIG d   1       2.735   1.170  -9.150  0.00  0.00     0.024 H 
ATOM     33  H   LIG d   1       4.472   0.937  -8.753  0.00  0.00     0.024 H 
ATOM     34  H   LIG d   1       3.382   1.749  -7.578  0.00  0.00     0.024 H 
ENDBRANCH   1  31
BRANCH   7  35
ATOM     35  O   LIG d   1       5.891  -1.424  -3.800  0.00  0.00    -0.491 OA
BRANCH  35  36
ATOM     36  C   LIG d   1       7.054  -0.602  -3.682  0.00  0.00     0.079 C 
ATOM     37  H   LIG d   1       7.027   0.184  -4.451  0.00  0.00     0.066 H 
ATOM     38  H   LIG d   1       7.954  -1.219  -3.822  0.00  0.00     0.066 H 
ATOM     39  H   LIG d   1       7.077  -0.140  -2.685  0.00  0.00     0.066 H 
ENDBRANCH  35  36
ENDBRANCH   7  35
BRANCH  15  40
ATOM     40  O   LIG d   1       1.057  -1.021 -12.237  0.00  0.00    -0.491 OA
BRANCH  40  41
ATOM     41  C   LIG d   1       0.357  -2.233 -12.527  0.00  0.00     0.079 C 
ATOM     42  H   LIG d   1       0.006  -2.687 -11.589  0.00  0.00     0.066 H 
ATOM     43  H   LIG d   1       1.032  -2.932 -13.043  0.00  0.00     0.066 H 
ATOM     44  H   LIG d   1      -0.505  -2.012 -13.173  0.00  0.00     0.066 H 
ENDBRANCH  40  41
ENDBRANCH  15  40
BRANCH   6  45
ATOM     45  O   LIG d   1       4.114  -0.109  -2.165  0.00  0.00    -0.491 OA
BRANCH  45  46
ATOM     46  C   LIG d   1       4.520   1.159  -1.647  0.00  0.00     0.079 C 
ATOM     47  H   LIG d   1       5.512   1.417  -2.047  0.00  0.00     0.066 H 
ATOM     48  H   LIG d   1       4.569   1.109  -0.549  0.00  0.00     0.066 H 
ATOM     49  H   LIG d   1       3.793   1.928  -1.947  0.00  0.00     0.066 H 
ENDBRANCH  45  46
ENDBRANCH   6  45
BRANCH  16  50
ATOM     50  O   LIG d   1       3.215  -1.045 -13.953  0.00  0.00    -0.491 OA
BRANCH  50  51
ATOM     51  C   LIG d   1       4.332  -0.618 -14.737  0.00  0.00     0.079 C 
ATOM     52  H   LIG d   1       3.981  -0.283 -15.723  0.00  0.00     0.066 H 
ATOM     53  H   LIG d   1       5.034  -1.455 -14.862  0.00  0.00     0.066 H 
ATOM     54  H   LIG d   1       4.841   0.214 -14.226  0.00  0.00     0.066 H 
ENDBRANCH  50  51
ENDBRANCH  16  50
TORSDOF 9
ENDMDL
MODEL 3
REMARK VINA RESULT:      -5.0      8.078     10.772
REMARK  9 active torsions:
REMARK  status: ('A' for Active; 'I' for Inactive)
REMARK    1  A    between atoms: C_1  and  C_2 
REMARK    2  A    between atoms: C_7  and  O_28 
REMARK    3  A    between atoms: C_8  and  O_26 
REMARK    4  A    between atoms: C_16  and  O_24 
REMARK    5  A    between atoms: C_17  and  O_22 
REMARK    6  A    between atoms: O_22  and  C_23 
REMARK    7  A    between atoms: O_24  and  C_25 
REMARK    8  A    between atoms: O_26  and  C_27 
REMARK    9  A    between atoms: O_28  and  C_29 
ROOT
ATOM      1  C   LIG d   1       7.277   0.264  -6.598  0.00  0.00     0.002 C 
ATOM      2  H   LIG d   1       6.663   0.436  -7.494  0.00  0.00     0.036 H 
ATOM      3  C   LIG d   1       8.117   1.492  -6.363  0.00  0.00    -0.035 A 
ATOM      4  C   LIG d   1       8.741   2.085  -7.450  0.00  0.00    -0.054 A 
ATOM      5  C   LIG d   1       9.523   3.209  -7.282  0.00  0.00    -0.016 A 
ATOM      6  C   LIG d   1       9.689   3.751  -6.018  0.00  0.00     0.162 A 
ATOM      7  C   LIG d   1       9.064   3.159  -4.928  0.00  0.00     0.166 A 
ATOM      8  C   LIG d   1       8.276   2.028  -5.102  0.00  0.00     0.015 A 
ATOM      9  C   LIG d   1       7.612   1.422  -3.894  0.00  0.00     0.029 C 
ATOM     10  N   LIG d   1       7.181   0.045  -4.175  0.00  0.00    -0.290 N 
ATOM     11  C   LIG d   1       6.365   0.008  -5.393  0.00  0.00     0.043 C 
ATOM     12  H   LIG d   1       5.586   0.776  -5.274  0.00  0.00     0.052 H 
ATOM     13  C   LIG d   1       5.697  -1.330  -5.570  0.00  0.00    -0.023 A 
ATOM     14  C   LIG d   1       5.118  -1.613  -6.800  0.00  0.00    -0.011 A 
ATOM     15  C   LIG d   1       4.492  -2.827  -7.019  0.00  0.00     0.162 A 
ATOM     16  C   LIG d   1       4.445  -3.773  -5.999  0.00  0.00     0.162 A 
ATOM     17  C   LIG d   1       5.022  -3.488  -4.774  0.00  0.00    -0.013 A 
ATOM     18  C   LIG d   1       5.646  -2.268  -4.562  0.00  0.00    -0.038 A 
ATOM     19  C   LIG d   1       6.260  -2.000  -3.211  0.00  0.00    -0.014 C 
ATOM     20  C   LIG d   1       6.437  -0.493  -3.025  0.00  0.00     0.004 C 
ATOM     21  H   LIG d   1       8.612   1.664  -8.436  0.00  0.00     0.062 H 
ATOM     22  H   LIG d   1      10.006   3.665  -8.134  0.00  0.00     0.066 H 
ATOM     23  H   LIG d   1       8.322   1.409  -3.054  0.00  0.00     0.048 H 
ATOM     24  H   LIG d   1       6.731   2.022  -3.619  0.00  0.00     0.048 H 
ATOM     25  H   LIG d   1       5.156  -0.879  -7.592  0.00  0.00     0.066 H 
ATOM     26  H   LIG d   1       4.991  -4.221  -3.981  0.00  0.00     0.066 H 
ATOM     27  H   LIG d   1       5.599  -2.392  -2.423  0.00  0.00     0.033 H 
ATOM     28  H   LIG d   1       7.240  -2.495  -3.148  0.00  0.00     0.033 H 
ATOM     29  H   LIG d   1       6.999  -0.296  -2.100  0.00  0.00     0.043 H 
ATOM     30  H   LIG d   1       5.451  -0.008  -2.965  0.00  0.00     0.043 H 
ENDROOT
BRANCH   1  31
ATOM     31  C   LIG d   1       8.192  -0.945  -6.806  0.00  0.00    -0.057 C 
ATOM     32  H   LIG d   1       8.040  -1.663  -5.987  0.00  0.00     0.024 H 
ATOM     33  H   LIG d   1       9.240  -0.614  -6.816  0.00  0.00     0.024 H 
ATOM     34  H   LIG d   1       7.950  -1.427  -7.766  0.00  0.00     0.024 H 
ENDBRANCH   1  31
BRANCH   7  35
ATOM     35  O   LIG d   1       9.225   3.688  -3.685  0.00  0.00    -0.491 OA
BRANCH  35  36
ATOM     36  C   LIG d   1      10.367   3.259  -2.939  0.00  0.00     0.079 C 
ATOM     37  H   LIG d   1      11.266   3.340  -3.567  0.00  0.00     0.066 H 
ATOM     38  H   LIG d   1      10.230   2.212  -2.630  0.00  0.00     0.066 H 
ATOM     39  H   LIG d   1      10.482   3.893  -2.048  0.00  0.00     0.066 H 
ENDBRANCH  35  36
ENDBRANCH   7  35
BRANCH  15  40
ATOM     40  O   LIG d   1       3.927  -3.096  -8.225  0.00  0.00    -0.491 OA
BRANCH  40  41
ATOM     41  C   LIG d   1       3.201  -2.036  -8.853  0.00  0.00     0.079 C 
ATOM     42  H   LIG d   1       3.691  -1.767  -9.800  0.00  0.00     0.066 H 
ATOM     43  H   LIG d   1       3.184  -1.160  -8.187  0.00  0.00     0.066 H 
ATOM     44  H   LIG d   1       2.171  -2.365  -9.052  0.00  0.00     0.066 H 
ENDBRANCH  40  41
ENDBRANCH  15  40
BRANCH   6  45
ATOM     45  O   LIG d   1      10.459   4.859  -5.844  0.00  0.00    -0.491 OA
BRANCH  45  46
ATOM     46  C   LIG d   1       9.889   6.111  -6.226  0.00  0.00     0.079 C 
ATOM     47  H   LIG d   1       9.768   6.746  -5.335  0.00  0.00     0.066 H 
ATOM     48  H   LIG d   1       8.905   5.941  -6.690  0.00  0.00     0.066 H 
ATOM     49  H   LIG d   1      10.551   6.613  -6.946  0.00  0.00     0.066 H 
ENDBRANCH  45  46
ENDBRANCH   6  45
BRANCH  16  50
ATOM     50  O   LIG d   1       3.834  -4.971  -6.205  0.00  0.00    -0.491 OA
BRANCH  50  51
ATOM     51  C   LIG d   1       4.591  -6.146  -5.905  0.00  0.00     0.079 C 
ATOM     52  H   LIG d   1       4.726  -6.738  -6.821  0.00  0.00     0.066 H 
ATOM     53  H   LIG d   1       4.055  -6.746  -5.156  0.00  0.00     0.066 H 
ATOM     54  H   LIG d   1       5.574  -5.855  -5.507  0.00  0.00     0.066 H 
ENDBRANCH  50  51
ENDBRANCH  16  50
TORSDOF 9
ENDMDL
MODEL 4
REMARK VINA RESULT:      -5.0      2.886      4.989
REMARK  9 active torsions:
REMARK  status: ('A' for Active; 'I' for Inactive)
REMARK    1  A    between atoms: C_1  and  C_2 
REMARK    2  A    between atoms: C_7  and  O_28 
REMARK    3  A    between atoms: C_8  and  O_26 
REMARK    4  A    between atoms: C_16  and  O_24 
REMARK    5  A    between atoms: C_17  and  O_22 
REMARK    6  A    between atoms: O_22  and  C_23 
REMARK    7  A    between atoms: O_24  and  C_25 
REMARK    8  A    between atoms: O_26  and  C_27 
REMARK    9  A    between atoms: O_28  and  C_29 
ROOT
ATOM      1  C   LIG d   1      11.023   9.225  -1.228  0.00  0.00     0.002 C 
ATOM      2  H   LIG d   1      10.229   9.602  -1.889  0.00  0.00     0.036 H 
ATOM      3  C   LIG d   1      11.400  10.326  -0.272  0.00  0.00    -0.035 A 
ATOM      4  C   LIG d   1      11.552  11.611  -0.771  0.00  0.00    -0.054 A 
ATOM      5  C   LIG d   1      11.901  12.651   0.067  0.00  0.00    -0.016 A 
ATOM      6  C   LIG d   1      12.100  12.411   1.417  0.00  0.00     0.162 A 
ATOM      7  C   LIG d   1      11.947  11.125   1.918  0.00  0.00     0.166 A 
ATOM      8  C   LIG d   1      11.594  10.081   1.071  0.00  0.00     0.015 A 
ATOM      9  C   LIG d   1      11.433   8.704   1.657  0.00  0.00     0.029 C 
ATOM     10  N   LIG d   1      11.474   7.682   0.601  0.00  0.00    -0.290 N 
ATOM     11  C   LIG d   1      10.509   8.005  -0.455  0.00  0.00     0.043 C 
ATOM     12  H   LIG d   1       9.545   8.189   0.044  0.00  0.00     0.052 H 
ATOM     13  C   LIG d   1      10.340   6.859  -1.418  0.00  0.00    -0.023 A 
ATOM     14  C   LIG d   1       9.677   7.104  -2.613  0.00  0.00    -0.011 A 
ATOM     15  C   LIG d   1       9.494   6.090  -3.535  0.00  0.00     0.162 A 
ATOM     16  C   LIG d   1       9.982   4.814  -3.263  0.00  0.00     0.162 A 
ATOM     17  C   LIG d   1      10.642   4.574  -2.071  0.00  0.00    -0.013 A 
ATOM     18  C   LIG d   1      10.820   5.595  -1.151  0.00  0.00    -0.038 A 
ATOM     19  C   LIG d   1      11.543   5.287   0.136  0.00  0.00    -0.014 C 
ATOM     20  C   LIG d   1      11.204   6.355   1.175  0.00  0.00     0.004 C 
ATOM     21  H   LIG d   1      11.397  11.799  -1.823  0.00  0.00     0.062 H 
ATOM     22  H   LIG d   1      12.018  13.649  -0.329  0.00  0.00     0.066 H 
ATOM     23  H   LIG d   1      12.247   8.512   2.371  0.00  0.00     0.048 H 
ATOM     24  H   LIG d   1      10.466   8.638   2.179  0.00  0.00     0.048 H 
ATOM     25  H   LIG d   1       9.300   8.094  -2.824  0.00  0.00     0.066 H 
ATOM     26  H   LIG d   1      11.024   3.586  -1.859  0.00  0.00     0.066 H 
ATOM     27  H   LIG d   1      11.227   4.300   0.506  0.00  0.00     0.033 H 
ATOM     28  H   LIG d   1      12.628   5.282  -0.045  0.00  0.00     0.033 H 
ATOM     29  H   LIG d   1      11.824   6.210   2.072  0.00  0.00     0.043 H 
ATOM     30  H   LIG d   1      10.141   6.283   1.449  0.00  0.00     0.043 H 
ENDROOT
BRANCH   1  31
ATOM     31  C   LIG d   1      12.250   8.823  -2.049  0.00  0.00    -0.057 C 
ATOM     32  H   LIG d   1      12.965   9.658  -2.070  0.00  0.00     0.024 H 
ATOM     33  H   LIG d   1      11.941   8.577  -3.075  0.00  0.00     0.024 H 
ATOM     34  H   LIG d   1      12.727   7.944  -1.589  0.00  0.00     0.024 H 
ENDBRANCH   1  31
BRANCH   7  35
ATOM     35  O   LIG d   1      12.142  10.886   3.243  0.00  0.00    -0.491 OA
BRANCH  35  36
ATOM     36  C   LIG d   1      13.487  10.652   3.668  0.00  0.00     0.079 C 
ATOM     37  H   LIG d   1      13.688   9.571   3.668  0.00  0.00     0.066 H 
ATOM     38  H   LIG d   1      13.623  11.050   4.685  0.00  0.00     0.066 H 
ATOM     39  H   LIG d   1      14.182  11.156   2.981  0.00  0.00     0.066 H 
ENDBRANCH  35  36
ENDBRANCH   7  35
BRANCH  15  40
ATOM     40  O   LIG d   1       8.843   6.337  -4.702  0.00  0.00    -0.491 OA
BRANCH  40  41
ATOM     41  C   LIG d   1       9.307   7.440  -5.483  0.00  0.00     0.079 C 
ATOM     42  H   LIG d   1       9.133   7.234  -6.549  0.00  0.00     0.066 H 
ATOM     43  H   LIG d   1      10.383   7.586  -5.309  0.00  0.00     0.066 H 
ATOM     44  H   LIG d   1       8.762   8.350  -5.191  0.00  0.00     0.066 H 
ENDBRANCH  40  41
ENDBRANCH  15  40
BRANCH   6  45
ATOM     45  O   LIG d   1      12.444  13.432   2.248  0.00  0.00    -0.491 OA
BRANCH  45  46
ATOM     46  C   LIG d   1      12.152  14.757   1.803  0.00  0.00     0.079 C 
ATOM     47  H   LIG d   1      11.074  14.950   1.906  0.00  0.00     0.066 H 
ATOM     48  H   LIG d   1      12.443  14.862   0.746  0.00  0.00     0.066 H 
ATOM     49  H   LIG d   1      12.714  15.481   2.411  0.00  0.00     0.066 H 
ENDBRANCH  45  46
ENDBRANCH   6  45
BRANCH  16  50
ATOM     50  O   LIG d   1       9.809   3.810  -4.165  0.00  0.00    -0.491 OA
BRANCH  50  51
ATOM     51  C   LIG d   1       9.088   2.657  -3.722  0.00  0.00     0.079 C 
ATOM     52  H   LIG d   1       8.096   2.962  -3.361  0.00  0.00     0.066 H 
ATOM     53  H   LIG d   1       9.642   2.170  -2.906  0.00  0.00     0.066 H 
ATOM     54  H   LIG d   1       8.975   1.953  -4.560  0.00  0.00     0.066 H 
ENDBRANCH  50  51
ENDBRANCH  16  50
TORSDOF 9
ENDMDL
MODEL 5
REMARK VINA RESULT:      -5.0      2.659      8.209
REMARK  9 active torsions:
REMARK  status: ('A' for Active; 'I' for Inactive)
REMARK    1  A    between atoms: C_1  and  C_2 
REMARK    2  A    between atoms: C_7  and  O_28 
REMARK    3  A    between atoms: C_8  and  O_26 
REMARK    4  A    between atoms: C_16  and  O_24 
REMARK    5  A    between atoms: C_17  and  O_22 
REMARK    6  A    between atoms: O_22  and  C_23 
REMARK    7  A    between atoms: O_24  and  C_25 
REMARK    8  A    between atoms: O_26  and  C_27 
REMARK    9  A    between atoms: O_28  and  C_29 
ROOT
ATOM      1  C   LIG d   1      10.388   6.493  -5.770  0.00  0.00     0.002 C 
ATOM      2  H   LIG d   1      11.206   7.226  -5.818  0.00  0.00     0.036 H 
ATOM      3  C   LIG d   1       9.864   6.281  -7.166  0.00  0.00    -0.035 A 
ATOM      4  C   LIG d   1       9.668   7.392  -7.973  0.00  0.00    -0.054 A 
ATOM      5  C   LIG d   1       9.185   7.247  -9.258  0.00  0.00    -0.016 A 
ATOM      6  C   LIG d   1       8.894   5.984  -9.747  0.00  0.00     0.162 A 
ATOM      7  C   LIG d   1       9.091   4.871  -8.940  0.00  0.00     0.166 A 
ATOM      8  C   LIG d   1       9.578   5.021  -7.647  0.00  0.00     0.015 A 
ATOM      9  C   LIG d   1       9.782   3.787  -6.808  0.00  0.00     0.029 C 
ATOM     10  N   LIG d   1       9.893   4.139  -5.386  0.00  0.00    -0.290 N 
ATOM     11  C   LIG d   1      10.917   5.172  -5.197  0.00  0.00     0.043 C 
ATOM     12  H   LIG d   1      11.823   4.816  -5.710  0.00  0.00     0.052 H 
ATOM     13  C   LIG d   1      11.237   5.373  -3.740  0.00  0.00    -0.023 A 
ATOM     14  C   LIG d   1      11.977   6.492  -3.382  0.00  0.00    -0.011 A 
ATOM     15  C   LIG d   1      12.300   6.727  -2.058  0.00  0.00     0.162 A 
ATOM     16  C   LIG d   1      11.877   5.836  -1.076  0.00  0.00     0.162 A 
ATOM     17  C   LIG d   1      11.140   4.721  -1.436  0.00  0.00    -0.013 A 
ATOM     18  C   LIG d   1      10.822   4.491  -2.765  0.00  0.00    -0.038 A 
ATOM     19  C   LIG d   1      10.019   3.263  -3.112  0.00  0.00    -0.014 C 
ATOM     20  C   LIG d   1      10.202   2.939  -4.594  0.00  0.00     0.004 C 
ATOM     21  H   LIG d   1       9.895   8.376  -7.594  0.00  0.00     0.062 H 
ATOM     22  H   LIG d   1       9.035   8.117  -9.881  0.00  0.00     0.066 H 
ATOM     23  H   LIG d   1       8.927   3.109  -6.942  0.00  0.00     0.048 H 
ATOM     24  H   LIG d   1      10.706   3.279  -7.122  0.00  0.00     0.048 H 
ATOM     25  H   LIG d   1      12.305   7.184  -4.144  0.00  0.00     0.066 H 
ATOM     26  H   LIG d   1      10.807   4.029  -0.676  0.00  0.00     0.066 H 
ATOM     27  H   LIG d   1      10.368   2.414  -2.504  0.00  0.00     0.033 H 
ATOM     28  H   LIG d   1       8.955   3.449  -2.905  0.00  0.00     0.033 H 
ATOM     29  H   LIG d   1       9.523   2.124  -4.883  0.00  0.00     0.043 H 
ATOM     30  H   LIG d   1      11.242   2.633  -4.782  0.00  0.00     0.043 H 
ENDROOT
BRANCH   1  31
ATOM     31  C   LIG d   1       9.260   7.015  -4.877  0.00  0.00    -0.057 C 
ATOM     32  H   LIG d   1       9.673   7.714  -4.137  0.00  0.00     0.024 H 
ATOM     33  H   LIG d   1       8.782   6.171  -4.359  0.00  0.00     0.024 H 
ATOM     34  H   LIG d   1       8.514   7.535  -5.496  0.00  0.00     0.024 H 
ENDBRANCH   1  31
BRANCH   7  35
ATOM     35  O   LIG d   1       8.805   3.629  -9.416  0.00  0.00    -0.491 OA
BRANCH  35  36
ATOM     36  C   LIG d   1       9.810   2.991 -10.208  0.00  0.00     0.079 C 
ATOM     37  H   LIG d   1      10.101   2.042  -9.734  0.00  0.00     0.066 H 
ATOM     38  H   LIG d   1      10.689   3.647 -10.282  0.00  0.00     0.066 H 
ATOM     39  H   LIG d   1       9.413   2.793 -11.214  0.00  0.00     0.066 H 
ENDBRANCH  35  36
ENDBRANCH   7  35
BRANCH  15  40
ATOM     40  O   LIG d   1      13.025   7.824  -1.716  0.00  0.00    -0.491 OA
BRANCH  40  41
ATOM     41  C   LIG d   1      12.334   9.075  -1.683  0.00  0.00     0.079 C 
ATOM     42  H   LIG d   1      12.147   9.363  -0.638  0.00  0.00     0.066 H 
ATOM     43  H   LIG d   1      11.375   8.979  -2.214  0.00  0.00     0.066 H 
ATOM     44  H   LIG d   1      12.948   9.846  -2.173  0.00  0.00     0.066 H 
ENDBRANCH  40  41
ENDBRANCH  15  40
BRANCH   6  45
ATOM     45  O   LIG d   1       8.418   5.834 -11.013  0.00  0.00    -0.491 OA
BRANCH  45  46
ATOM     46  C   LIG d   1       9.219   6.357 -12.073  0.00  0.00     0.079 C 
ATOM     47  H   LIG d   1       9.090   7.449 -12.126  0.00  0.00     0.066 H 
ATOM     48  H   LIG d   1       8.908   5.905 -13.027  0.00  0.00     0.066 H 
ATOM     49  H   LIG d   1      10.277   6.122 -11.885  0.00  0.00     0.066 H 
ENDBRANCH  45  46
ENDBRANCH   6  45
BRANCH  16  50
ATOM     50  O   LIG d   1      12.187   6.059   0.229  0.00  0.00    -0.491 OA
BRANCH  50  51
ATOM     51  C   LIG d   1      11.154   5.829   1.191  0.00  0.00     0.079 C 
ATOM     52  H   LIG d   1      11.086   6.691   1.869  0.00  0.00     0.066 H 
ATOM     53  H   LIG d   1      11.388   4.923   1.769  0.00  0.00     0.066 H 
ATOM     54  H   LIG d   1      10.194   5.694   0.670  0.00  0.00     0.066 H 
ENDBRANCH  50  51
ENDBRANCH  16  50
TORSDOF 9
ENDMDL
MODEL 6
REMARK VINA RESULT:      -5.0      2.364      4.170
REMARK  9 active torsions:
REMARK  status: ('A' for Active; 'I' for Inactive)
REMARK    1  A    between atoms: C_1  and  C_2 
REMARK    2  A    between atoms: C_7  and  O_28 
REMARK    3  A    between atoms: C_8  and  O_26 
REMARK    4  A    between atoms: C_16  and  O_24 
REMARK    5  A    between atoms: C_17  and  O_22 
REMARK    6  A    between atoms: O_22  and  C_23 
REMARK    7  A    between atoms: O_24  and  C_25 
REMARK    8  A    between atoms: O_26  and  C_27 
REMARK    9  A    between atoms: O_28  and  C_29 
ROOT
ATOM      1  C   LIG d   1      10.487   5.613  -4.825  0.00  0.00     0.002 C 
ATOM      2  H   LIG d   1      11.303   4.900  -5.009  0.00  0.00     0.036 H 
ATOM      3  C   LIG d   1      10.514   5.991  -3.367  0.00  0.00    -0.035 A 
ATOM      4  C   LIG d   1      10.700   4.988  -2.427  0.00  0.00    -0.054 A 
ATOM      5  C   LIG d   1      10.727   5.287  -1.080  0.00  0.00    -0.016 A 
ATOM      6  C   LIG d   1      10.570   6.598  -0.661  0.00  0.00     0.162 A 
ATOM      7  C   LIG d   1      10.385   7.603  -1.601  0.00  0.00     0.166 A 
ATOM      8  C   LIG d   1      10.359   7.298  -2.957  0.00  0.00     0.015 A 
ATOM      9  C   LIG d   1      10.162   8.420  -3.942  0.00  0.00     0.029 C 
ATOM     10  N   LIG d   1       9.751   7.894  -5.252  0.00  0.00    -0.290 N 
ATOM     11  C   LIG d   1      10.686   6.857  -5.698  0.00  0.00     0.043 C 
ATOM     12  H   LIG d   1      11.697   7.284  -5.611  0.00  0.00     0.052 H 
ATOM     13  C   LIG d   1      10.447   6.479  -7.136  0.00  0.00    -0.023 A 
ATOM     14  C   LIG d   1      11.061   5.332  -7.620  0.00  0.00    -0.011 A 
ATOM     15  C   LIG d   1      10.875   4.937  -8.933  0.00  0.00     0.162 A 
ATOM     16  C   LIG d   1      10.065   5.694  -9.774  0.00  0.00     0.162 A 
ATOM     17  C   LIG d   1       9.455   6.838  -9.288  0.00  0.00    -0.013 A 
ATOM     18  C   LIG d   1       9.646   7.228  -7.972  0.00  0.00    -0.038 A 
ATOM     19  C   LIG d   1       8.964   8.481  -7.486  0.00  0.00    -0.014 C 
ATOM     20  C   LIG d   1       9.671   8.990  -6.230  0.00  0.00     0.004 C 
ATOM     21  H   LIG d   1      10.823   3.966  -2.752  0.00  0.00     0.062 H 
ATOM     22  H   LIG d   1      10.872   4.500  -0.354  0.00  0.00     0.066 H 
ATOM     23  H   LIG d   1       9.383   9.101  -3.570  0.00  0.00     0.048 H 
ATOM     24  H   LIG d   1      11.106   8.973  -4.061  0.00  0.00     0.048 H 
ATOM     25  H   LIG d   1      11.689   4.744  -6.968  0.00  0.00     0.066 H 
ATOM     26  H   LIG d   1       8.822   7.426  -9.937  0.00  0.00     0.066 H 
ATOM     27  H   LIG d   1       9.010   9.251  -8.271  0.00  0.00     0.033 H 
ATOM     28  H   LIG d   1       7.912   8.259  -7.251  0.00  0.00     0.033 H 
ATOM     29  H   LIG d   1       9.105   9.827  -5.798  0.00  0.00     0.043 H 
ATOM     30  H   LIG d   1      10.686   9.328  -6.487  0.00  0.00     0.043 H 
ENDROOT
BRANCH   1  31
ATOM     31  C   LIG d   1       9.138   4.972  -5.158  0.00  0.00    -0.057 C 
ATOM     32  H   LIG d   1       8.847   5.244  -6.183  0.00  0.00     0.024 H 
ATOM     33  H   LIG d   1       8.376   5.332  -4.451  0.00  0.00     0.024 H 
ATOM     34  H   LIG d   1       9.223   3.877  -5.079  0.00  0.00     0.024 H 
ENDBRANCH   1  31
BRANCH   7  35
ATOM     35  O   LIG d   1      10.229   8.892  -1.194  0.00  0.00    -0.491 OA
BRANCH  35  36
ATOM     36  C   LIG d   1       8.914   9.295  -0.804  0.00  0.00     0.079 C 
ATOM     37  H   LIG d   1       8.402   9.755  -1.662  0.00  0.00     0.066 H 
ATOM     38  H   LIG d   1       8.982  10.025   0.015  0.00  0.00     0.066 H 
ATOM     39  H   LIG d   1       8.346   8.415  -0.466  0.00  0.00     0.066 H 
ENDBRANCH  35  36
ENDBRANCH   7  35
BRANCH  15  40
ATOM     40  O   LIG d   1      11.481   3.813  -9.400  0.00  0.00    -0.491 OA
BRANCH  40  41
ATOM     41  C   LIG d   1      10.932   2.560  -8.985  0.00  0.00     0.079 C 
ATOM     42  H   LIG d   1       9.842   2.570  -9.134  0.00  0.00     0.066 H 
ATOM     43  H   LIG d   1      11.155   2.396  -7.921  0.00  0.00     0.066 H 
ATOM     44  H   LIG d   1      11.377   1.750  -9.582  0.00  0.00     0.066 H 
ENDBRANCH  40  41
ENDBRANCH  15  40
BRANCH   6  45
ATOM     45  O   LIG d   1      10.596   6.899   0.665  0.00  0.00    -0.491 OA
BRANCH  45  46
ATOM     46  C   LIG d   1      11.029   5.870   1.555  0.00  0.00     0.079 C 
ATOM     47  H   LIG d   1      10.311   5.037   1.531  0.00  0.00     0.066 H 
ATOM     48  H   LIG d   1      11.090   6.270   2.579  0.00  0.00     0.066 H 
ATOM     49  H   LIG d   1      12.020   5.508   1.244  0.00  0.00     0.066 H 
ENDBRANCH  45  46
ENDBRANCH   6  45
BRANCH  16  50
ATOM     50  O   LIG d   1       9.874   5.313 -11.066  0.00  0.00    -0.491 OA
BRANCH  50  51
ATOM     51  C   LIG d   1       9.151   6.213 -11.908  0.00  0.00     0.079 C 
ATOM     52  H   LIG d   1       8.140   6.363 -11.502  0.00  0.00     0.066 H 
ATOM     53  H   LIG d   1       9.081   5.792 -12.921  0.00  0.00     0.066 H 
ATOM     54  H   LIG d   1       9.677   7.179 -11.948  0.00  0.00     0.066 H 
ENDBRANCH  50  51
ENDBRANCH  16  50
TORSDOF 9
ENDMDL
MODEL 7
REMARK VINA RESULT:      -4.9      3.512      7.479
REMARK  9 active torsions:
REMARK  status: ('A' for Active; 'I' for Inactive)
REMARK    1  A    between atoms: C_1  and  C_2 
REMARK    2  A    between atoms: C_7  and  O_28 
REMARK    3  A    between atoms: C_8  and  O_26 
REMARK    4  A    between atoms: C_16  and  O_24 
REMARK    5  A    between atoms: C_17  and  O_22 
REMARK    6  A    between atoms: O_22  and  C_23 
REMARK    7  A    between atoms: O_24  and  C_25 
REMARK    8  A    between atoms: O_26  and  C_27 
REMARK    9  A    between atoms: O_28  and  C_29 
ROOT
ATOM      1  C   LIG d   1      10.456   7.594  -2.117  0.00  0.00     0.002 C 
ATOM      2  H   LIG d   1      10.963   8.349  -2.735  0.00  0.00     0.036 H 
ATOM      3  C   LIG d   1      10.083   6.435  -3.003  0.00  0.00    -0.035 A 
ATOM      4  C   LIG d   1       9.532   6.705  -4.247  0.00  0.00    -0.054 A 
ATOM      5  C   LIG d   1       9.171   5.675  -5.092  0.00  0.00    -0.016 A 
ATOM      6  C   LIG d   1       9.360   4.361  -4.696  0.00  0.00     0.162 A 
ATOM      7  C   LIG d   1       9.912   4.089  -3.451  0.00  0.00     0.166 A 
ATOM      8  C   LIG d   1      10.275   5.129  -2.604  0.00  0.00     0.015 A 
ATOM      9  C   LIG d   1      10.876   4.790  -1.266  0.00  0.00     0.029 C 
ATOM     10  N   LIG d   1      10.812   5.946  -0.360  0.00  0.00    -0.290 N 
ATOM     11  C   LIG d   1      11.399   7.126  -1.002  0.00  0.00     0.043 C 
ATOM     12  H   LIG d   1      12.388   6.822  -1.378  0.00  0.00     0.052 H 
ATOM     13  C   LIG d   1      11.584   8.254  -0.022  0.00  0.00    -0.023 A 
ATOM     14  C   LIG d   1      11.870   9.516  -0.526  0.00  0.00    -0.011 A 
ATOM     15  C   LIG d   1      12.048  10.589   0.329  0.00  0.00     0.162 A 
ATOM     16  C   LIG d   1      11.938  10.403   1.704  0.00  0.00     0.162 A 
ATOM     17  C   LIG d   1      11.653   9.143   2.203  0.00  0.00    -0.013 A 
ATOM     18  C   LIG d   1      11.477   8.073   1.340  0.00  0.00    -0.038 A 
ATOM     19  C   LIG d   1      11.171   6.718   1.927  0.00  0.00    -0.014 C 
ATOM     20  C   LIG d   1      11.501   5.634   0.902  0.00  0.00     0.004 C 
ATOM     21  H   LIG d   1       9.386   7.729  -4.557  0.00  0.00     0.062 H 
ATOM     22  H   LIG d   1       8.743   5.892  -6.059  0.00  0.00     0.066 H 
ATOM     23  H   LIG d   1      10.320   3.954  -0.817  0.00  0.00     0.048 H 
ATOM     24  H   LIG d   1      11.929   4.500  -1.399  0.00  0.00     0.048 H 
ATOM     25  H   LIG d   1      11.955   9.661  -1.592  0.00  0.00     0.066 H 
ATOM     26  H   LIG d   1      11.563   8.995   3.269  0.00  0.00     0.066 H 
ATOM     27  H   LIG d   1      11.778   6.565   2.832  0.00  0.00     0.033 H 
ATOM     28  H   LIG d   1      10.103   6.664   2.188  0.00  0.00     0.033 H 
ATOM     29  H   LIG d   1      11.162   4.656   1.273  0.00  0.00     0.043 H 
ATOM     30  H   LIG d   1      12.587   5.604   0.730  0.00  0.00     0.043 H 
ENDROOT
BRANCH   1  31
ATOM     31  C   LIG d   1       9.190   8.184  -1.493  0.00  0.00    -0.057 C 
ATOM     32  H   LIG d   1       9.099   7.839  -0.453  0.00  0.00     0.024 H 
ATOM     33  H   LIG d   1       8.311   7.857  -2.067  0.00  0.00     0.024 H 
ATOM     34  H   LIG d   1       9.250   9.283  -1.509  0.00  0.00     0.024 H 
ENDBRANCH   1  31
BRANCH   7  35
ATOM     35  O   LIG d   1      10.098   2.800  -3.058  0.00  0.00    -0.491 OA
BRANCH  35  36
ATOM     36  C   LIG d   1      11.318   2.170  -3.456  0.00  0.00     0.079 C 
ATOM     37  H   LIG d   1      11.216   1.790  -4.483  0.00  0.00     0.066 H 
ATOM     38  H   LIG d   1      11.536   1.333  -2.777  0.00  0.00     0.066 H 
ATOM     39  H   LIG d   1      12.138   2.901  -3.413  0.00  0.00     0.066 H 
ENDBRANCH  35  36
ENDBRANCH   7  35
BRANCH  15  40
ATOM     40  O   LIG d   1      12.329  11.821  -0.172  0.00  0.00    -0.491 OA
BRANCH  40  41
ATOM     41  C   LIG d   1      13.667  12.050  -0.619  0.00  0.00     0.079 C 
ATOM     42  H   LIG d   1      14.368  11.490   0.017  0.00  0.00     0.066 H 
ATOM     43  H   LIG d   1      13.895  13.125  -0.559  0.00  0.00     0.066 H 
ATOM     44  H   LIG d   1      13.767  11.713  -1.662  0.00  0.00     0.066 H 
ENDBRANCH  40  41
ENDBRANCH  15  40
BRANCH   6  45
ATOM     45  O   LIG d   1       9.006   3.340  -5.523  0.00  0.00    -0.491 OA
BRANCH  45  46
ATOM     46  C   LIG d   1       9.674   3.266  -6.784  0.00  0.00     0.079 C 
ATOM     47  H   LIG d   1      10.052   2.245  -6.939  0.00  0.00     0.066 H 
ATOM     48  H   LIG d   1      10.516   3.974  -6.795  0.00  0.00     0.066 H 
ATOM     49  H   LIG d   1       8.969   3.522  -7.588  0.00  0.00     0.066 H 
ENDBRANCH  45  46
ENDBRANCH   6  45
BRANCH  16  50
ATOM     50  O   LIG d   1      12.109  11.452   2.552  0.00  0.00    -0.491 OA
BRANCH  50  51
ATOM     51  C   LIG d   1      12.977  11.248   3.670  0.00  0.00     0.079 C 
ATOM     52  H   LIG d   1      13.405  10.236   3.621  0.00  0.00     0.066 H 
ATOM     53  H   LIG d   1      12.407  11.361   4.603  0.00  0.00     0.066 H 
ATOM     54  H   LIG d   1      13.788  11.991   3.643  0.00  0.00     0.066 H 
ENDBRANCH  50  51
ENDBRANCH  16  50
TORSDOF 9
ENDMDL
MODEL 8
REMARK VINA RESULT:      -4.9      1.905      8.121
REMARK  9 active torsions:
REMARK  status: ('A' for Active; 'I' for Inactive)
REMARK    1  A    between atoms: C_1  and  C_2 
REMARK    2  A    between atoms: C_7  and  O_28 
REMARK    3  A    between atoms: C_8  and  O_26 
REMARK    4  A    between atoms: C_16  and  O_24 
REMARK    5  A    between atoms: C_17  and  O_22 
REMARK    6  A    between atoms: O_22  and  C_23 
REMARK    7  A    between atoms: O_24  and  C_25 
REMARK    8  A    between atoms: O_26  and  C_27 
REMARK    9  A    between atoms: O_28  and  C_29 
ROOT
ATOM      1  C   LIG d   1      10.154   5.961  -4.872  0.00  0.00     0.002 C 
ATOM      2  H   LIG d   1       9.656   5.238  -4.211  0.00  0.00     0.036 H 
ATOM      3  C   LIG d   1       9.898   5.548  -6.298  0.00  0.00    -0.035 A 
ATOM      4  C   LIG d   1      10.016   4.206  -6.628  0.00  0.00    -0.054 A 
ATOM      5  C   LIG d   1       9.795   3.781  -7.923  0.00  0.00    -0.016 A 
ATOM      6  C   LIG d   1       9.451   4.700  -8.900  0.00  0.00     0.162 A 
ATOM      7  C   LIG d   1       9.331   6.044  -8.571  0.00  0.00     0.166 A 
ATOM      8  C   LIG d   1       9.553   6.467  -7.266  0.00  0.00     0.015 A 
ATOM      9  C   LIG d   1       9.406   7.932  -6.951  0.00  0.00     0.029 C 
ATOM     10  N   LIG d   1      10.063   8.258  -5.677  0.00  0.00    -0.290 N 
ATOM     11  C   LIG d   1       9.586   7.362  -4.617  0.00  0.00     0.043 C 
ATOM     12  H   LIG d   1       8.487   7.392  -4.651  0.00  0.00     0.052 H 
ATOM     13  C   LIG d   1      10.039   7.826  -3.258  0.00  0.00    -0.023 A 
ATOM     14  C   LIG d   1       9.903   6.948  -2.191  0.00  0.00    -0.011 A 
ATOM     15  C   LIG d   1      10.303   7.320  -0.920  0.00  0.00     0.162 A 
ATOM     16  C   LIG d   1      10.848   8.583  -0.710  0.00  0.00     0.162 A 
ATOM     17  C   LIG d   1      10.981   9.457  -1.776  0.00  0.00    -0.013 A 
ATOM     18  C   LIG d   1      10.576   9.077  -3.046  0.00  0.00    -0.038 A 
ATOM     19  C   LIG d   1      10.738  10.061  -4.177  0.00  0.00    -0.014 C 
ATOM     20  C   LIG d   1       9.815   9.665  -5.329  0.00  0.00     0.004 C 
ATOM     21  H   LIG d   1      10.284   3.489  -5.867  0.00  0.00     0.062 H 
ATOM     22  H   LIG d   1       9.890   2.735  -8.173  0.00  0.00     0.066 H 
ATOM     23  H   LIG d   1       9.868   8.527  -7.752  0.00  0.00     0.048 H 
ATOM     24  H   LIG d   1       8.338   8.186  -6.876  0.00  0.00     0.048 H 
ATOM     25  H   LIG d   1       9.481   5.967  -2.354  0.00  0.00     0.066 H 
ATOM     26  H   LIG d   1      11.407  10.437  -1.618  0.00  0.00     0.066 H 
ATOM     27  H   LIG d   1      10.475  11.070  -3.825  0.00  0.00     0.033 H 
ATOM     28  H   LIG d   1      11.782  10.054  -4.524  0.00  0.00     0.033 H 
ATOM     29  H   LIG d   1      10.019  10.301  -6.204  0.00  0.00     0.043 H 
ATOM     30  H   LIG d   1       8.765   9.789  -5.023  0.00  0.00     0.043 H 
ENDROOT
BRANCH   1  31
ATOM     31  C   LIG d   1      11.661   5.970  -4.609  0.00  0.00    -0.057 C 
ATOM     32  H   LIG d   1      11.879   5.378  -3.709  0.00  0.00     0.024 H 
ATOM     33  H   LIG d   1      12.001   7.005  -4.459  0.00  0.00     0.024 H 
ATOM     34  H   LIG d   1      12.186   5.533  -5.472  0.00  0.00     0.024 H 
ENDBRANCH   1  31
BRANCH   7  35
ATOM     35  O   LIG d   1       8.994   6.949  -9.529  0.00  0.00    -0.491 OA
BRANCH  35  36
ATOM     36  C   LIG d   1      10.057   7.473 -10.328  0.00  0.00     0.079 C 
ATOM     37  H   LIG d   1       9.935   7.134 -11.367  0.00  0.00     0.066 H 
ATOM     38  H   LIG d   1      11.020   7.116  -9.937  0.00  0.00     0.066 H 
ATOM     39  H   LIG d   1      10.033   8.573 -10.295  0.00  0.00     0.066 H 
ENDBRANCH  35  36
ENDBRANCH   7  35
BRANCH  15  40
ATOM     40  O   LIG d   1      10.166   6.455   0.119  0.00  0.00    -0.491 OA
BRANCH  40  41
ATOM     41  C   LIG d   1      11.260   5.571   0.377  0.00  0.00     0.079 C 
ATOM     42  H   LIG d   1      11.663   5.199  -0.577  0.00  0.00     0.066 H 
ATOM     43  H   LIG d   1      10.911   4.723   0.983  0.00  0.00     0.066 H 
ATOM     44  H   LIG d   1      12.047   6.112   0.922  0.00  0.00     0.066 H 
ENDBRANCH  40  41
ENDBRANCH  15  40
BRANCH   6  45
ATOM     45  O   LIG d   1       9.233   4.288 -10.178  0.00  0.00    -0.491 OA
BRANCH  45  46
ATOM     46  C   LIG d   1      10.328   3.671 -10.857  0.00  0.00     0.079 C 
ATOM     47  H   LIG d   1       9.944   3.014 -11.652  0.00  0.00     0.066 H 
ATOM     48  H   LIG d   1      10.914   3.075 -10.141  0.00  0.00     0.066 H 
ATOM     49  H   LIG d   1      10.970   4.446 -11.300  0.00  0.00     0.066 H 
ENDBRANCH  45  46
ENDBRANCH   6  45
BRANCH  16  50
ATOM     50  O   LIG d   1      11.246   8.958   0.535  0.00  0.00    -0.491 OA
BRANCH  50  51
ATOM     51  C   LIG d   1      11.161  10.349   0.853  0.00  0.00     0.079 C 
ATOM     52  H   LIG d   1      12.113  10.685   1.288  0.00  0.00     0.066 H 
ATOM     53  H   LIG d   1      10.350  10.511   1.577  0.00  0.00     0.066 H 
ATOM     54  H   LIG d   1      10.954  10.922  -0.064  0.00  0.00     0.066 H 
ENDBRANCH  50  51
ENDBRANCH  16  50
TORSDOF 9
ENDMDL
MODEL 9
REMARK VINA RESULT:      -4.8     11.939     14.536
REMARK  9 active torsions:
REMARK  status: ('A' for Active; 'I' for Inactive)
REMARK    1  A    between atoms: C_1  and  C_2 
REMARK    2  A    between atoms: C_7  and  O_28 
REMARK    3  A    between atoms: C_8  and  O_26 
REMARK    4  A    between atoms: C_16  and  O_24 
REMARK    5  A    between atoms: C_17  and  O_22 
REMARK    6  A    between atoms: O_22  and  C_23 
REMARK    7  A    between atoms: O_24  and  C_25 
REMARK    8  A    between atoms: O_26  and  C_27 
REMARK    9  A    between atoms: O_28  and  C_29 
ROOT
ATOM      1  C   LIG d   1       5.124  -4.218  -4.888  0.00  0.00     0.002 C 
ATOM      2  H   LIG d   1       4.650  -4.924  -4.191  0.00  0.00     0.036 H 
ATOM      3  C   LIG d   1       5.263  -2.891  -4.190  0.00  0.00    -0.035 A 
ATOM      4  C   LIG d   1       4.191  -2.418  -3.448  0.00  0.00    -0.054 A 
ATOM      5  C   LIG d   1       4.271  -1.205  -2.795  0.00  0.00    -0.016 A 
ATOM      6  C   LIG d   1       5.430  -0.452  -2.880  0.00  0.00     0.162 A 
ATOM      7  C   LIG d   1       6.505  -0.924  -3.623  0.00  0.00     0.166 A 
ATOM      8  C   LIG d   1       6.420  -2.147  -4.278  0.00  0.00     0.015 A 
ATOM      9  C   LIG d   1       7.611  -2.623  -5.066  0.00  0.00     0.029 C 
ATOM     10  N   LIG d   1       7.221  -3.685  -6.004  0.00  0.00    -0.290 N 
ATOM     11  C   LIG d   1       6.503  -4.749  -5.295  0.00  0.00     0.043 C 
ATOM     12  H   LIG d   1       7.126  -5.029  -4.432  0.00  0.00     0.052 H 
ATOM     13  C   LIG d   1       6.314  -5.963  -6.166  0.00  0.00    -0.023 A 
ATOM     14  C   LIG d   1       5.425  -6.940  -5.739  0.00  0.00    -0.011 A 
ATOM     15  C   LIG d   1       5.211  -8.076  -6.499  0.00  0.00     0.162 A 
ATOM     16  C   LIG d   1       5.892  -8.239  -7.703  0.00  0.00     0.162 A 
ATOM     17  C   LIG d   1       6.778  -7.264  -8.125  0.00  0.00    -0.013 A 
ATOM     18  C   LIG d   1       6.988  -6.129  -7.357  0.00  0.00    -0.038 A 
ATOM     19  C   LIG d   1       7.964  -5.093  -7.854  0.00  0.00    -0.014 C 
ATOM     20  C   LIG d   1       8.412  -4.216  -6.686  0.00  0.00     0.004 C 
ATOM     21  H   LIG d   1       3.287  -3.005  -3.380  0.00  0.00     0.062 H 
ATOM     22  H   LIG d   1       3.432  -0.844  -2.219  0.00  0.00     0.066 H 
ATOM     23  H   LIG d   1       8.033  -1.782  -5.635  0.00  0.00     0.048 H 
ATOM     24  H   LIG d   1       8.373  -3.018  -4.378  0.00  0.00     0.048 H 
ATOM     25  H   LIG d   1       4.896  -6.814  -4.806  0.00  0.00     0.066 H 
ATOM     26  H   LIG d   1       7.305  -7.385  -9.060  0.00  0.00     0.066 H 
ATOM     27  H   LIG d   1       8.839  -5.596  -8.293  0.00  0.00     0.033 H 
ATOM     28  H   LIG d   1       7.478  -4.468  -8.618  0.00  0.00     0.033 H 
ATOM     29  H   LIG d   1       9.023  -3.381  -7.060  0.00  0.00     0.043 H 
ATOM     30  H   LIG d   1       9.004  -4.814  -5.978  0.00  0.00     0.043 H 
ENDROOT
BRANCH   1  31
ATOM     31  C   LIG d   1       4.259  -4.047  -6.138  0.00  0.00    -0.057 C 
ATOM     32  H   LIG d   1       3.716  -4.982  -6.339  0.00  0.00     0.024 H 
ATOM     33  H   LIG d   1       4.900  -3.802  -6.997  0.00  0.00     0.024 H 
ATOM     34  H   LIG d   1       3.536  -3.232  -5.976  0.00  0.00     0.024 H 
ENDBRANCH   1  31
BRANCH   7  35
ATOM     35  O   LIG d   1       7.645  -0.186  -3.709  0.00  0.00    -0.491 OA
BRANCH  35  36
ATOM     36  C   LIG d   1       7.664   0.867  -4.675  0.00  0.00     0.079 C 
ATOM     37  H   LIG d   1       7.064   1.712  -4.308  0.00  0.00     0.066 H 
ATOM     38  H   LIG d   1       7.241   0.503  -5.623  0.00  0.00     0.066 H 
ATOM     39  H   LIG d   1       8.701   1.196  -4.839  0.00  0.00     0.066 H 
ENDBRANCH  35  36
ENDBRANCH   7  35
BRANCH  15  40
ATOM     40  O   LIG d   1       4.340  -9.028  -6.074  0.00  0.00    -0.491 OA
BRANCH  40  41
ATOM     41  C   LIG d   1       4.726  -9.799  -4.934  0.00  0.00     0.079 C 
ATOM     42  H   LIG d   1       5.796  -9.643  -4.731  0.00  0.00     0.066 H 
ATOM     43  H   LIG d   1       4.542 -10.865  -5.132  0.00  0.00     0.066 H 
ATOM     44  H   LIG d   1       4.137  -9.481  -4.061  0.00  0.00     0.066 H 
ENDBRANCH  40  41
ENDBRANCH  15  40
BRANCH   6  45
ATOM     45  O   LIG d   1       5.516   0.745  -2.240  0.00  0.00    -0.491 OA
BRANCH  45  46
ATOM     46  C   LIG d   1       4.288   1.357  -1.843  0.00  0.00     0.079 C 
ATOM     47  H   LIG d   1       3.509   1.133  -2.587  0.00  0.00     0.066 H 
ATOM     48  H   LIG d   1       4.425   2.447  -1.774  0.00  0.00     0.066 H 
ATOM     49  H   LIG d   1       3.981   0.964  -0.863  0.00  0.00     0.066 H 
ENDBRANCH  45  46
ENDBRANCH   6  45
BRANCH  16  50
ATOM     50  O   LIG d   1       5.687  -9.351  -8.459  0.00  0.00    -0.491 OA
BRANCH  50  51
ATOM     51  C   LIG d   1       5.010  -9.173  -9.705  0.00  0.00     0.079 C 
ATOM     52  H   LIG d   1       4.408  -8.253  -9.667  0.00  0.00     0.066 H 
ATOM     53  H   LIG d   1       4.353 -10.034  -9.892  0.00  0.00     0.066 H 
ATOM     54  H   LIG d   1       5.750  -9.094 -10.515  0.00  0.00     0.066 H 
ENDBRANCH  50  51
ENDBRANCH  16  50
TORSDOF 9
ENDMDL
MODEL 10
REMARK VINA RESULT:      -4.8      4.267      5.844
REMARK  9 active torsions:
REMARK  status: ('A' for Active; 'I' for Inactive)
REMARK    1  A    between atoms: C_1  and  C_2 
REMARK    2  A    between atoms: C_7  and  O_28 
REMARK    3  A    between atoms: C_8  and  O_26 
REMARK    4  A    between atoms: C_16  and  O_24 
REMARK    5  A    between atoms: C_17  and  O_22 
REMARK    6  A    between atoms: O_22  and  C_23 
REMARK    7  A    between atoms: O_24  and  C_25 
REMARK    8  A    between atoms: O_26  and  C_27 
REMARK    9  A    between atoms: O_28  and  C_29 
ROOT
ATOM      1  C   LIG d   1      10.112   4.991  -2.361  0.00  0.00     0.002 C 
ATOM      2  H   LIG d   1       9.192   4.657  -1.859  0.00  0.00     0.036 H 
ATOM      3  C   LIG d   1      10.842   5.923  -1.430  0.00  0.00    -0.035 A 
ATOM      4  C   LIG d   1      10.110   6.885  -0.749  0.00  0.00    -0.054 A 
ATOM      5  C   LIG d   1      10.737   7.763   0.111  0.00  0.00    -0.016 A 
ATOM      6  C   LIG d   1      12.108   7.685   0.298  0.00  0.00     0.162 A 
ATOM      7  C   LIG d   1      12.842   6.722  -0.382  0.00  0.00     0.166 A 
ATOM      8  C   LIG d   1      12.206   5.838  -1.246  0.00  0.00     0.015 A 
ATOM      9  C   LIG d   1      13.039   4.806  -1.959  0.00  0.00     0.029 C 
ATOM     10  N   LIG d   1      12.309   4.253  -3.108  0.00  0.00    -0.290 N 
ATOM     11  C   LIG d   1      10.987   3.775  -2.687  0.00  0.00     0.043 C 
ATOM     12  H   LIG d   1      11.151   3.120  -1.818  0.00  0.00     0.052 H 
ATOM     13  C   LIG d   1      10.317   2.976  -3.773  0.00  0.00    -0.023 A 
ATOM     14  C   LIG d   1       8.966   2.690  -3.633  0.00  0.00    -0.011 A 
ATOM     15  C   LIG d   1       8.299   1.961  -4.601  0.00  0.00     0.162 A 
ATOM     16  C   LIG d   1       8.987   1.512  -5.724  0.00  0.00     0.162 A 
ATOM     17  C   LIG d   1      10.335   1.798  -5.860  0.00  0.00    -0.013 A 
ATOM     18  C   LIG d   1      10.996   2.529  -4.885  0.00  0.00    -0.038 A 
ATOM     19  C   LIG d   1      12.465   2.815  -5.074  0.00  0.00    -0.014 C 
ATOM     20  C   LIG d   1      13.089   3.169  -3.725  0.00  0.00     0.004 C 
ATOM     21  H   LIG d   1       9.042   6.946  -0.894  0.00  0.00     0.062 H 
ATOM     22  H   LIG d   1      10.161   8.510   0.637  0.00  0.00     0.066 H 
ATOM     23  H   LIG d   1      13.969   5.270  -2.317  0.00  0.00     0.048 H 
ATOM     24  H   LIG d   1      13.282   3.988  -1.264  0.00  0.00     0.048 H 
ATOM     25  H   LIG d   1       8.431   3.039  -2.762  0.00  0.00     0.066 H 
ATOM     26  H   LIG d   1      10.871   1.455  -6.732  0.00  0.00     0.066 H 
ATOM     27  H   LIG d   1      12.962   1.924  -5.487  0.00  0.00     0.033 H 
ATOM     28  H   LIG d   1      12.588   3.659  -5.769  0.00  0.00     0.033 H 
ATOM     29  H   LIG d   1      14.127   3.502  -3.872  0.00  0.00     0.043 H 
ATOM     30  H   LIG d   1      13.078   2.287  -3.067  0.00  0.00     0.043 H 
ENDROOT
BRANCH   1  31
ATOM     31  C   LIG d   1       9.771   5.731  -3.656  0.00  0.00    -0.057 C 
ATOM     32  H   LIG d   1      10.096   6.778  -3.575  0.00  0.00     0.024 H 
ATOM     33  H   LIG d   1       8.685   5.695  -3.824  0.00  0.00     0.024 H 
ATOM     34  H   LIG d   1      10.289   5.250  -4.500  0.00  0.00     0.024 H 
ENDBRANCH   1  31
BRANCH   7  35
ATOM     35  O   LIG d   1      14.188   6.643  -0.201  0.00  0.00    -0.491 OA
BRANCH  35  36
ATOM     36  C   LIG d   1      14.998   7.540  -0.964  0.00  0.00     0.079 C 
ATOM     37  H   LIG d   1      16.022   7.143  -1.029  0.00  0.00     0.066 H 
ATOM     38  H   LIG d   1      15.018   8.523  -0.472  0.00  0.00     0.066 H 
ATOM     39  H   LIG d   1      14.578   7.644  -1.975  0.00  0.00     0.066 H 
ENDBRANCH  35  36
ENDBRANCH   7  35
BRANCH  15  40
ATOM     40  O   LIG d   1       6.976   1.684  -4.456  0.00  0.00    -0.491 OA
BRANCH  40  41
ATOM     41  C   LIG d   1       6.622   0.689  -3.493  0.00  0.00     0.079 C 
ATOM     42  H   LIG d   1       6.741   1.100  -2.480  0.00  0.00     0.066 H 
ATOM     43  H   LIG d   1       7.278  -0.186  -3.613  0.00  0.00     0.066 H 
ATOM     44  H   LIG d   1       5.576   0.386  -3.647  0.00  0.00     0.066 H 
ENDBRANCH  40  41
ENDBRANCH  15  40
BRANCH   6  45
ATOM     45  O   LIG d   1      12.732   8.548   1.144  0.00  0.00    -0.491 OA
BRANCH  45  46
ATOM     46  C   LIG d   1      11.899   9.389   1.944  0.00  0.00     0.079 C 
ATOM     47  H   LIG d   1      12.465  10.280   2.253  0.00  0.00     0.066 H 
ATOM     48  H   LIG d   1      11.569   8.836   2.837  0.00  0.00     0.066 H 
ATOM     49  H   LIG d   1      11.020   9.698   1.360  0.00  0.00     0.066 H 
ENDBRANCH  45  46
ENDBRANCH   6  45
BRANCH  16  50
ATOM     50  O   LIG d   1       8.339   0.796  -6.682  0.00  0.00    -0.491 OA
BRANCH  50  51
ATOM     51  C   LIG d   1       8.750  -0.562  -6.866  0.00  0.00     0.079 C 
ATOM     52  H   LIG d   1       8.943  -0.745  -7.932  0.00  0.00     0.066 H 
ATOM     53  H   LIG d   1       7.954  -1.235  -6.515  0.00  0.00     0.066 H 
ATOM     54  H   LIG d   1       9.668  -0.747  -6.289  0.00  0.00     0.066 H 
ENDBRANCH  50  51
ENDBRANCH  16  50
TORSDOF 9
ENDMDL
