MODEL 1
REMARK VINA RESULT:      -6.4      0.000      0.000
REMARK  12 active torsions:
REMARK  status: ('A' for Active; 'I' for Inactive)
REMARK    1  A    between atoms: C_1  and  C_2 
REMARK    2  A    between atoms: C_9  and  C_30 
REMARK    3  A    between atoms: C_10  and  C_16 
REMARK    4  A    between atoms: C_16  and  C_17 
REMARK       I    between atoms: C_17  and  N_19 
REMARK    5  A    between atoms: N_19  and  C_20 
REMARK    6  A    between atoms: C_20  and  C_22 
REMARK    7  A    between atoms: C_20  and  C_26 
REMARK    8  A    between atoms: C_22  and  C_23 
REMARK    9  A    between atoms: C_23  and  C_24 
REMARK   10  A    between atoms: C_23  and  C_25 
REMARK   11  A    between atoms: C_26  and  O_28 
REMARK   12  A    between atoms: O_28  and  C_29 
ROOT
ATOM      1  C   LIG d   1       5.675  -4.004  -6.532  0.00  0.00     0.056 C 
ATOM      2  H   LIG d   1       6.742  -3.778  -6.536  0.00  0.00     0.041 H 
ATOM      3  H   LIG d   1       5.252  -3.778  -7.510  0.00  0.00     0.041 H 
ENDROOT
BRANCH   1   4
ATOM      4  C   LIG d   1       5.473  -5.464  -6.221  0.00  0.00     0.049 A 
ATOM      5  C   LIG d   1       6.435  -6.159  -5.562  0.00  0.00    -0.029 A 
ATOM      6  C   LIG d   1       6.195  -7.577  -5.280  0.00  0.00     0.022 A 
ATOM      7  C   LIG d   1       7.147  -8.342  -4.606  0.00  0.00    -0.040 A 
ATOM      8  C   LIG d   1       4.982  -8.163  -5.701  0.00  0.00     0.143 A 
ATOM      9  C   LIG d   1       6.889  -9.683  -4.356  0.00  0.00     0.024 A 
ATOM     10  H   LIG d   1       8.076  -7.896  -4.283  0.00  0.00     0.063 H 
ATOM     11  C   LIG d   1       7.636 -10.761  -3.694  0.00  0.00    -0.005 A 
ATOM     12  C   LIG d   1       5.679 -10.269  -4.779  0.00  0.00     0.139 A 
ATOM     13  C   LIG d   1       6.857 -11.848  -3.758  0.00  0.00     0.096 A 
ATOM     14  O   LIG d   1       5.707 -11.561  -4.396  0.00  0.00    -0.463 OA
ATOM     15  H   LIG d   1       7.115 -12.818  -3.358  0.00  0.00     0.103 H 
ATOM     16  C   LIG d   1       4.738  -9.502  -5.453  0.00  0.00     0.024 A 
ATOM     17  H   LIG d   1       3.809  -9.949  -5.774  0.00  0.00     0.069 H 
ATOM     18  O   LIG d   1       4.068  -7.412  -6.354  0.00  0.00    -0.422 OA
ATOM     19  C   LIG d   1       4.282  -6.112  -6.614  0.00  0.00     0.341 A 
ATOM     20  O   LIG d   1       3.428  -5.477  -7.205  0.00  0.00    -0.245 OA
BRANCH   5  21
ATOM     21  C   LIG d   1       7.714  -5.490  -5.130  0.00  0.00    -0.038 C 
ATOM     22  H   LIG d   1       7.490  -4.498  -4.737  0.00  0.00     0.028 H 
ATOM     23  H   LIG d   1       8.194  -6.088  -4.355  0.00  0.00     0.028 H 
ATOM     24  H   LIG d   1       8.382  -5.398  -5.986  0.00  0.00     0.028 H 
ENDBRANCH   5  21
BRANCH  11  25
ATOM     25  C   LIG d   1       9.001 -10.662  -3.062  0.00  0.00    -0.036 C 
ATOM     26  H   LIG d   1       8.897 -10.602  -1.980  0.00  0.00     0.028 H 
ATOM     27  H   LIG d   1       9.586 -11.544  -3.323  0.00  0.00     0.028 H 
ATOM     28  H   LIG d   1       9.506  -9.769  -3.430  0.00  0.00     0.028 H 
ENDBRANCH  11  25
ENDBRANCH   1   4
BRANCH   1  29
ATOM     29  C   LIG d   1       4.989  -3.167  -5.482  0.00  0.00     0.218 C 
ATOM     30  O   LIG d   1       4.421  -3.704  -4.555  0.00  0.00    -0.275 OA
ATOM     31  N   LIG d   1       5.005  -1.823  -5.575  0.00  0.00    -0.302 N 
ATOM     32  H   LIG d   1       5.459  -1.394  -6.318  0.00  0.00     0.149 HD
BRANCH  31  33
ATOM     33  C   LIG d   1       4.338  -1.009  -4.555  0.00  0.00     0.121 C 
ATOM     34  H   LIG d   1       3.809  -1.661  -3.860  0.00  0.00     0.061 H 
BRANCH  33  35
ATOM     35  C   LIG d   1       5.382  -0.190  -3.794  0.00  0.00    -0.022 C 
ATOM     36  H   LIG d   1       6.378  -0.567  -4.022  0.00  0.00     0.029 H 
ATOM     37  H   LIG d   1       5.312   0.856  -4.095  0.00  0.00     0.029 H 
BRANCH  35  38
ATOM     38  C   LIG d   1       5.124  -0.306  -2.291  0.00  0.00    -0.044 C 
ATOM     39  H   LIG d   1       6.073  -0.419  -1.767  0.00  0.00     0.030 H 
BRANCH  38  40
ATOM     40  C   LIG d   1       4.415   0.956  -1.796  0.00  0.00    -0.063 C 
ATOM     41  H   LIG d   1       3.958   0.759  -0.826  0.00  0.00     0.023 H 
ATOM     42  H   LIG d   1       5.140   1.764  -1.697  0.00  0.00     0.023 H 
ATOM     43  H   LIG d   1       3.644   1.244  -2.509  0.00  0.00     0.023 H 
ENDBRANCH  38  40
BRANCH  38  44
ATOM     44  C   LIG d   1       4.243  -1.528  -2.017  0.00  0.00    -0.063 C 
ATOM     45  H   LIG d   1       3.885  -1.495  -0.988  0.00  0.00     0.023 H 
ATOM     46  H   LIG d   1       3.391  -1.520  -2.698  0.00  0.00     0.023 H 
ATOM     47  H   LIG d   1       4.824  -2.436  -2.171  0.00  0.00     0.023 H 
ENDBRANCH  38  44
ENDBRANCH  35  38
ENDBRANCH  33  35
BRANCH  33  48
ATOM     48  C   LIG d   1       3.355  -0.079  -5.219  0.00  0.00     0.327 C 
ATOM     49  O   LIG d   1       2.319   0.201  -4.664  0.00  0.00    -0.249 OA
BRANCH  48  50
ATOM     50  O   LIG d   1       3.629   0.436  -6.427  0.00  0.00    -0.467 OA
BRANCH  50  51
ATOM     51  C   LIG d   1       2.741   0.097  -7.495  0.00  0.00     0.082 C 
ATOM     52  H   LIG d   1       1.954   0.847  -7.565  0.00  0.00     0.066 H 
ATOM     53  H   LIG d   1       3.297   0.065  -8.432  0.00  0.00     0.066 H 
ATOM     54  H   LIG d   1       2.297  -0.880  -7.301  0.00  0.00     0.066 H 
ENDBRANCH  50  51
ENDBRANCH  48  50
ENDBRANCH  33  48
ENDBRANCH  31  33
ENDBRANCH   1  29
TORSDOF 12
ENDMDL
MODEL 2
REMARK VINA RESULT:      -6.2      5.514      9.389
REMARK  12 active torsions:
REMARK  status: ('A' for Active; 'I' for Inactive)
REMARK    1  A    between atoms: C_1  and  C_2 
REMARK    2  A    between atoms: C_9  and  C_30 
REMARK    3  A    between atoms: C_10  and  C_16 
REMARK    4  A    between atoms: C_16  and  C_17 
REMARK       I    between atoms: C_17  and  N_19 
REMARK    5  A    between atoms: N_19  and  C_20 
REMARK    6  A    between atoms: C_20  and  C_22 
REMARK    7  A    between atoms: C_20  and  C_26 
REMARK    8  A    between atoms: C_22  and  C_23 
REMARK    9  A    between atoms: C_23  and  C_24 
REMARK   10  A    between atoms: C_23  and  C_25 
REMARK   11  A    between atoms: C_26  and  O_28 
REMARK   12  A    between atoms: O_28  and  C_29 
ROOT
ATOM      1  C   LIG d   1       6.946  -1.557  -5.947  0.00  0.00     0.056 C 
ATOM      2  H   LIG d   1       7.310  -1.757  -6.955  0.00  0.00     0.041 H 
ATOM      3  H   LIG d   1       7.269  -2.355  -5.279  0.00  0.00     0.041 H 
ENDROOT
BRANCH   1   4
ATOM      4  C   LIG d   1       7.501  -0.242  -5.465  0.00  0.00     0.049 A 
ATOM      5  C   LIG d   1       8.036   0.637  -6.351  0.00  0.00    -0.029 A 
ATOM      6  C   LIG d   1       8.563   1.904  -5.837  0.00  0.00     0.022 A 
ATOM      7  C   LIG d   1       9.124   2.846  -6.700  0.00  0.00    -0.040 A 
ATOM      8  C   LIG d   1       8.497   2.162  -4.452  0.00  0.00     0.143 A 
ATOM      9  C   LIG d   1       9.615   4.036  -6.181  0.00  0.00     0.024 A 
ATOM     10  H   LIG d   1       9.176   2.651  -7.761  0.00  0.00     0.063 H 
ATOM     11  C   LIG d   1      10.254   5.221  -6.769  0.00  0.00    -0.005 A 
ATOM     12  C   LIG d   1       9.551   4.292  -4.796  0.00  0.00     0.139 A 
ATOM     13  C   LIG d   1      10.503   6.055  -5.752  0.00  0.00     0.096 A 
ATOM     14  O   LIG d   1      10.091   5.510  -4.592  0.00  0.00    -0.463 OA
ATOM     15  H   LIG d   1      10.968   7.024  -5.847  0.00  0.00     0.103 H 
ATOM     16  C   LIG d   1       8.996   3.348  -3.944  0.00  0.00     0.024 A 
ATOM     17  H   LIG d   1       8.943   3.545  -2.883  0.00  0.00     0.069 H 
ATOM     18  O   LIG d   1       7.951   1.241  -3.626  0.00  0.00    -0.422 OA
ATOM     19  C   LIG d   1       7.467   0.079  -4.091  0.00  0.00     0.341 A 
ATOM     20  O   LIG d   1       6.985  -0.718  -3.308  0.00  0.00    -0.245 OA
BRANCH   5  21
ATOM     21  C   LIG d   1       8.083   0.318  -7.823  0.00  0.00    -0.038 C 
ATOM     22  H   LIG d   1       7.475   1.039  -8.370  0.00  0.00     0.028 H 
ATOM     23  H   LIG d   1       9.114   0.374  -8.174  0.00  0.00     0.028 H 
ATOM     24  H   LIG d   1       7.695  -0.686  -7.990  0.00  0.00     0.028 H 
ENDBRANCH   5  21
BRANCH  11  25
ATOM     25  C   LIG d   1      10.561   5.455  -8.226  0.00  0.00    -0.036 C 
ATOM     26  H   LIG d   1      10.562   4.503  -8.755  0.00  0.00     0.028 H 
ATOM     27  H   LIG d   1       9.804   6.109  -8.657  0.00  0.00     0.028 H 
ATOM     28  H   LIG d   1      11.542   5.924  -8.319  0.00  0.00     0.028 H 
ENDBRANCH  11  25
ENDBRANCH   1   4
BRANCH   1  29
ATOM     29  C   LIG d   1       5.440  -1.492  -5.961  0.00  0.00     0.218 C 
ATOM     30  O   LIG d   1       4.791  -2.509  -6.077  0.00  0.00    -0.275 OA
ATOM     31  N   LIG d   1       4.816  -0.303  -5.848  0.00  0.00    -0.302 N 
ATOM     32  H   LIG d   1       5.336   0.511  -5.755  0.00  0.00     0.149 HD
BRANCH  31  33
ATOM     33  C   LIG d   1       3.352  -0.240  -5.862  0.00  0.00     0.121 C 
ATOM     34  H   LIG d   1       2.944  -1.246  -5.771  0.00  0.00     0.061 H 
BRANCH  33  35
ATOM     35  C   LIG d   1       2.867   0.616  -4.690  0.00  0.00    -0.022 C 
ATOM     36  H   LIG d   1       3.065   1.666  -4.900  0.00  0.00     0.029 H 
ATOM     37  H   LIG d   1       1.796   0.468  -4.552  0.00  0.00     0.029 H 
BRANCH  35  38
ATOM     38  C   LIG d   1       3.607   0.202  -3.417  0.00  0.00    -0.044 C 
ATOM     39  H   LIG d   1       4.638  -0.052  -3.662  0.00  0.00     0.030 H 
BRANCH  38  40
ATOM     40  C   LIG d   1       3.591   1.361  -2.418  0.00  0.00    -0.063 C 
ATOM     41  H   LIG d   1       4.592   1.786  -2.339  0.00  0.00     0.023 H 
ATOM     42  H   LIG d   1       2.898   2.128  -2.764  0.00  0.00     0.023 H 
ATOM     43  H   LIG d   1       3.273   0.996  -1.442  0.00  0.00     0.023 H 
ENDBRANCH  38  40
BRANCH  38  44
ATOM     44  C   LIG d   1       2.917  -1.016  -2.798  0.00  0.00    -0.063 C 
ATOM     45  H   LIG d   1       3.666  -1.760  -2.527  0.00  0.00     0.023 H 
ATOM     46  H   LIG d   1       2.372  -0.709  -1.904  0.00  0.00     0.023 H 
ATOM     47  H   LIG d   1       2.221  -1.444  -3.518  0.00  0.00     0.023 H 
ENDBRANCH  38  44
ENDBRANCH  35  38
ENDBRANCH  33  35
BRANCH  33  48
ATOM     48  C   LIG d   1       2.889   0.375  -7.158  0.00  0.00     0.327 C 
ATOM     49  O   LIG d   1       2.429  -0.325  -8.029  0.00  0.00    -0.249 OA
BRANCH  48  50
ATOM     50  O   LIG d   1       2.988   1.700  -7.346  0.00  0.00    -0.467 OA
BRANCH  50  51
ATOM     51  C   LIG d   1       3.038   2.162  -8.698  0.00  0.00     0.082 C 
ATOM     52  H   LIG d   1       2.048   2.083  -9.146  0.00  0.00     0.066 H 
ATOM     53  H   LIG d   1       3.361   3.203  -8.713  0.00  0.00     0.066 H 
ATOM     54  H   LIG d   1       3.743   1.554  -9.264  0.00  0.00     0.066 H 
ENDBRANCH  50  51
ENDBRANCH  48  50
ENDBRANCH  33  48
ENDBRANCH  31  33
ENDBRANCH   1  29
TORSDOF 12
ENDMDL
MODEL 3
REMARK VINA RESULT:      -6.2      6.516     12.072
REMARK  12 active torsions:
REMARK  status: ('A' for Active; 'I' for Inactive)
REMARK    1  A    between atoms: C_1  and  C_2 
REMARK    2  A    between atoms: C_9  and  C_30 
REMARK    3  A    between atoms: C_10  and  C_16 
REMARK    4  A    between atoms: C_16  and  C_17 
REMARK       I    between atoms: C_17  and  N_19 
REMARK    5  A    between atoms: N_19  and  C_20 
REMARK    6  A    between atoms: C_20  and  C_22 
REMARK    7  A    between atoms: C_20  and  C_26 
REMARK    8  A    between atoms: C_22  and  C_23 
REMARK    9  A    between atoms: C_23  and  C_24 
REMARK   10  A    between atoms: C_23  and  C_25 
REMARK   11  A    between atoms: C_26  and  O_28 
REMARK   12  A    between atoms: O_28  and  C_29 
ROOT
ATOM      1  C   LIG d   1       9.524   1.383  -5.282  0.00  0.00     0.056 C 
ATOM      2  H   LIG d   1       9.864   1.244  -6.309  0.00  0.00     0.041 H 
ATOM      3  H   LIG d   1      10.168   0.821  -4.607  0.00  0.00     0.041 H 
ENDROOT
BRANCH   1   4
ATOM      4  C   LIG d   1       9.580   2.847  -4.928  0.00  0.00     0.049 A 
ATOM      5  C   LIG d   1       9.576   3.784  -5.910  0.00  0.00    -0.029 A 
ATOM      6  C   LIG d   1       9.630   5.196  -5.519  0.00  0.00     0.022 A 
ATOM      7  C   LIG d   1       9.629   6.204  -6.483  0.00  0.00    -0.040 A 
ATOM      8  C   LIG d   1       9.685   5.526  -4.148  0.00  0.00     0.143 A 
ATOM      9  C   LIG d   1       9.683   7.531  -6.080  0.00  0.00     0.024 A 
ATOM     10  H   LIG d   1       9.587   5.955  -7.534  0.00  0.00     0.063 H 
ATOM     11  C   LIG d   1       9.699   8.816  -6.792  0.00  0.00    -0.005 A 
ATOM     12  C   LIG d   1       9.741   7.860  -4.710  0.00  0.00     0.139 A 
ATOM     13  C   LIG d   1       9.752   9.765  -5.849  0.00  0.00     0.096 A 
ATOM     14  O   LIG d   1       9.777   9.205  -4.625  0.00  0.00    -0.463 OA
ATOM     15  H   LIG d   1       9.774  10.827  -6.041  0.00  0.00     0.103 H 
ATOM     16  C   LIG d   1       9.746   6.851  -3.757  0.00  0.00     0.024 A 
ATOM     17  H   LIG d   1       9.786   7.102  -2.708  0.00  0.00     0.069 H 
ATOM     18  O   LIG d   1       9.687   4.540  -3.223  0.00  0.00    -0.422 OA
ATOM     19  C   LIG d   1       9.636   3.246  -3.576  0.00  0.00     0.341 A 
ATOM     20  O   LIG d   1       9.639   2.394  -2.706  0.00  0.00    -0.245 OA
BRANCH   5  21
ATOM     21  C   LIG d   1       9.515   3.385  -7.362  0.00  0.00    -0.038 C 
ATOM     22  H   LIG d   1       9.362   4.273  -7.976  0.00  0.00     0.028 H 
ATOM     23  H   LIG d   1      10.451   2.903  -7.646  0.00  0.00     0.028 H 
ATOM     24  H   LIG d   1       8.688   2.692  -7.513  0.00  0.00     0.028 H 
ENDBRANCH   5  21
BRANCH  11  25
ATOM     25  C   LIG d   1       9.656   9.026  -8.284  0.00  0.00    -0.036 C 
ATOM     26  H   LIG d   1       8.646   8.842  -8.648  0.00  0.00     0.028 H 
ATOM     27  H   LIG d   1       9.946  10.050  -8.515  0.00  0.00     0.028 H 
ATOM     28  H   LIG d   1      10.347   8.334  -8.767  0.00  0.00     0.028 H 
ENDBRANCH  11  25
ENDBRANCH   1   4
BRANCH   1  29
ATOM     29  C   LIG d   1       8.105   0.889  -5.153  0.00  0.00     0.218 C 
ATOM     30  O   LIG d   1       7.312   1.083  -6.049  0.00  0.00    -0.275 OA
ATOM     31  N   LIG d   1       7.719   0.233  -4.041  0.00  0.00    -0.302 N 
ATOM     32  H   LIG d   1       8.354   0.078  -3.324  0.00  0.00     0.149 HD
BRANCH  31  33
ATOM     33  C   LIG d   1       6.340  -0.247  -3.915  0.00  0.00     0.121 C 
ATOM     34  H   LIG d   1       5.938  -0.461  -4.906  0.00  0.00     0.061 H 
BRANCH  33  35
ATOM     35  C   LIG d   1       6.319  -1.521  -3.069  0.00  0.00    -0.022 C 
ATOM     36  H   LIG d   1       7.276  -2.033  -3.159  0.00  0.00     0.029 H 
ATOM     37  H   LIG d   1       6.142  -1.261  -2.026  0.00  0.00     0.029 H 
BRANCH  35  38
ATOM     38  C   LIG d   1       5.201  -2.442  -3.562  0.00  0.00    -0.044 C 
ATOM     39  H   LIG d   1       5.531  -3.479  -3.502  0.00  0.00     0.030 H 
BRANCH  38  40
ATOM     40  C   LIG d   1       3.960  -2.250  -2.689  0.00  0.00    -0.063 C 
ATOM     41  H   LIG d   1       3.255  -3.060  -2.876  0.00  0.00     0.023 H 
ATOM     42  H   LIG d   1       4.251  -2.259  -1.638  0.00  0.00     0.023 H 
ATOM     43  H   LIG d   1       3.490  -1.297  -2.928  0.00  0.00     0.023 H 
ENDBRANCH  38  40
BRANCH  38  44
ATOM     44  C   LIG d   1       4.861  -2.100  -5.015  0.00  0.00    -0.063 C 
ATOM     45  H   LIG d   1       5.243  -1.107  -5.254  0.00  0.00     0.023 H 
ATOM     46  H   LIG d   1       5.320  -2.834  -5.677  0.00  0.00     0.023 H 
ATOM     47  H   LIG d   1       3.780  -2.115  -5.149  0.00  0.00     0.023 H 
ENDBRANCH  38  44
ENDBRANCH  35  38
ENDBRANCH  33  35
BRANCH  33  48
ATOM     48  C   LIG d   1       5.499   0.812  -3.250  0.00  0.00     0.327 C 
ATOM     49  O   LIG d   1       5.914   1.390  -2.274  0.00  0.00    -0.249 OA
BRANCH  48  50
ATOM     50  O   LIG d   1       4.286   1.112  -3.741  0.00  0.00    -0.467 OA
BRANCH  50  51
ATOM     51  C   LIG d   1       3.308   1.585  -2.812  0.00  0.00     0.082 C 
ATOM     52  H   LIG d   1       2.469   2.018  -3.357  0.00  0.00     0.066 H 
ATOM     53  H   LIG d   1       2.955   0.754  -2.202  0.00  0.00     0.066 H 
ATOM     54  H   LIG d   1       3.754   2.344  -2.170  0.00  0.00     0.066 H 
ENDBRANCH  50  51
ENDBRANCH  48  50
ENDBRANCH  33  48
ENDBRANCH  31  33
ENDBRANCH   1  29
TORSDOF 12
ENDMDL
MODEL 4
REMARK VINA RESULT:      -6.0      6.305     11.370
REMARK  12 active torsions:
REMARK  status: ('A' for Active; 'I' for Inactive)
REMARK    1  A    between atoms: C_1  and  C_2 
REMARK    2  A    between atoms: C_9  and  C_30 
REMARK    3  A    between atoms: C_10  and  C_16 
REMARK    4  A    between atoms: C_16  and  C_17 
REMARK       I    between atoms: C_17  and  N_19 
REMARK    5  A    between atoms: N_19  and  C_20 
REMARK    6  A    between atoms: C_20  and  C_22 
REMARK    7  A    between atoms: C_20  and  C_26 
REMARK    8  A    between atoms: C_22  and  C_23 
REMARK    9  A    between atoms: C_23  and  C_24 
REMARK   10  A    between atoms: C_23  and  C_25 
REMARK   11  A    between atoms: C_26  and  O_28 
REMARK   12  A    between atoms: O_28  and  C_29 
ROOT
ATOM      1  C   LIG d   1       8.675   0.347  -6.737  0.00  0.00     0.056 C 
ATOM      2  H   LIG d   1       8.567  -0.146  -7.703  0.00  0.00     0.041 H 
ATOM      3  H   LIG d   1       9.456  -0.148  -6.162  0.00  0.00     0.041 H 
ENDROOT
BRANCH   1   4
ATOM      4  C   LIG d   1       9.045   1.792  -6.949  0.00  0.00     0.049 A 
ATOM      5  C   LIG d   1       8.896   2.359  -8.174  0.00  0.00    -0.029 A 
ATOM      6  C   LIG d   1       9.268   3.768  -8.334  0.00  0.00     0.022 A 
ATOM      7  C   LIG d   1       9.138   4.404  -9.568  0.00  0.00    -0.040 A 
ATOM      8  C   LIG d   1       9.763   4.477  -7.218  0.00  0.00     0.143 A 
ATOM      9  C   LIG d   1       9.500   5.739  -9.686  0.00  0.00     0.024 A 
ATOM     10  H   LIG d   1       8.760   3.865 -10.424  0.00  0.00     0.063 H 
ATOM     11  C   LIG d   1       9.499   6.705 -10.794  0.00  0.00    -0.005 A 
ATOM     12  C   LIG d   1       9.997   6.446  -8.572  0.00  0.00     0.139 A 
ATOM     13  C   LIG d   1       9.961   7.855 -10.287  0.00  0.00     0.096 A 
ATOM     14  O   LIG d   1      10.254   7.705  -8.983  0.00  0.00    -0.463 OA
ATOM     15  H   LIG d   1      10.082   8.771 -10.845  0.00  0.00     0.103 H 
ATOM     16  C   LIG d   1      10.129   5.805  -7.349  0.00  0.00     0.024 A 
ATOM     17  H   LIG d   1      10.505   6.347  -6.494  0.00  0.00     0.069 H 
ATOM     18  O   LIG d   1       9.886   3.848  -6.027  0.00  0.00    -0.422 OA
ATOM     19  C   LIG d   1       9.546   2.559  -5.876  0.00  0.00     0.341 A 
ATOM     20  O   LIG d   1       9.675   2.037  -4.783  0.00  0.00    -0.245 OA
BRANCH   5  21
ATOM     21  C   LIG d   1       8.362   1.563  -9.336  0.00  0.00    -0.038 C 
ATOM     22  H   LIG d   1       8.466   2.144 -10.252  0.00  0.00     0.028 H 
ATOM     23  H   LIG d   1       8.926   0.634  -9.430  0.00  0.00     0.028 H 
ATOM     24  H   LIG d   1       7.310   1.335  -9.167  0.00  0.00     0.028 H 
ENDBRANCH   5  21
BRANCH  11  25
ATOM     25  C   LIG d   1       9.060   6.453 -12.214  0.00  0.00    -0.036 C 
ATOM     26  H   LIG d   1       9.934   6.264 -12.836  0.00  0.00     0.028 H 
ATOM     27  H   LIG d   1       8.399   5.587 -12.241  0.00  0.00     0.028 H 
ATOM     28  H   LIG d   1       8.529   7.328 -12.589  0.00  0.00     0.028 H 
ENDBRANCH  11  25
ENDBRANCH   1   4
BRANCH   1  29
ATOM     29  C   LIG d   1       7.370   0.268  -5.985  0.00  0.00     0.218 C 
ATOM     30  O   LIG d   1       6.329   0.525  -6.550  0.00  0.00    -0.275 OA
ATOM     31  N   LIG d   1       7.362  -0.087  -4.685  0.00  0.00    -0.302 N 
ATOM     32  H   LIG d   1       8.196  -0.293  -4.233  0.00  0.00     0.149 HD
BRANCH  31  33
ATOM     33  C   LIG d   1       6.094  -0.164  -3.955  0.00  0.00     0.121 C 
ATOM     34  H   LIG d   1       5.267  -0.184  -4.664  0.00  0.00     0.061 H 
BRANCH  33  35
ATOM     35  C   LIG d   1       6.070  -1.437  -3.107  0.00  0.00    -0.022 C 
ATOM     36  H   LIG d   1       6.980  -2.009  -3.284  0.00  0.00     0.029 H 
ATOM     37  H   LIG d   1       6.009  -1.169  -2.052  0.00  0.00     0.029 H 
BRANCH  35  38
ATOM     38  C   LIG d   1       4.854  -2.282  -3.489  0.00  0.00    -0.044 C 
ATOM     39  H   LIG d   1       5.163  -3.315  -3.642  0.00  0.00     0.030 H 
BRANCH  38  40
ATOM     40  C   LIG d   1       3.816  -2.220  -2.367  0.00  0.00    -0.063 C 
ATOM     41  H   LIG d   1       2.829  -2.440  -2.773  0.00  0.00     0.023 H 
ATOM     42  H   LIG d   1       4.066  -2.954  -1.601  0.00  0.00     0.023 H 
ATOM     43  H   LIG d   1       3.814  -1.223  -1.928  0.00  0.00     0.023 H 
ENDBRANCH  38  40
BRANCH  38  44
ATOM     44  C   LIG d   1       4.242  -1.738  -4.783  0.00  0.00    -0.063 C 
ATOM     45  H   LIG d   1       3.466  -1.012  -4.541  0.00  0.00     0.023 H 
ATOM     46  H   LIG d   1       5.018  -1.255  -5.377  0.00  0.00     0.023 H 
ATOM     47  H   LIG d   1       3.807  -2.559  -5.352  0.00  0.00     0.023 H 
ENDBRANCH  38  44
ENDBRANCH  35  38
ENDBRANCH  33  35
BRANCH  33  48
ATOM     48  C   LIG d   1       5.958   1.040  -3.058  0.00  0.00     0.327 C 
ATOM     49  O   LIG d   1       6.613   2.032  -3.274  0.00  0.00    -0.249 OA
BRANCH  48  50
ATOM     50  O   LIG d   1       5.109   1.010  -2.020  0.00  0.00    -0.467 OA
BRANCH  50  51
ATOM     51  C   LIG d   1       3.757   1.400  -2.274  0.00  0.00     0.082 C 
ATOM     52  H   LIG d   1       3.733   2.440  -2.600  0.00  0.00     0.066 H 
ATOM     53  H   LIG d   1       3.338   0.766  -3.056  0.00  0.00     0.066 H 
ATOM     54  H   LIG d   1       3.169   1.290  -1.363  0.00  0.00     0.066 H 
ENDBRANCH  50  51
ENDBRANCH  48  50
ENDBRANCH  33  48
ENDBRANCH  31  33
ENDBRANCH   1  29
TORSDOF 12
ENDMDL
MODEL 5
REMARK VINA RESULT:      -5.9      4.218      8.155
REMARK  12 active torsions:
REMARK  status: ('A' for Active; 'I' for Inactive)
REMARK    1  A    between atoms: C_1  and  C_2 
REMARK    2  A    between atoms: C_9  and  C_30 
REMARK    3  A    between atoms: C_10  and  C_16 
REMARK    4  A    between atoms: C_16  and  C_17 
REMARK       I    between atoms: C_17  and  N_19 
REMARK    5  A    between atoms: N_19  and  C_20 
REMARK    6  A    between atoms: C_20  and  C_22 
REMARK    7  A    between atoms: C_20  and  C_26 
REMARK    8  A    between atoms: C_22  and  C_23 
REMARK    9  A    between atoms: C_23  and  C_24 
REMARK   10  A    between atoms: C_23  and  C_25 
REMARK   11  A    between atoms: C_26  and  O_28 
REMARK   12  A    between atoms: O_28  and  C_29 
ROOT
ATOM      1  C   LIG d   1       5.842   0.597  -7.201  0.00  0.00     0.056 C 
ATOM      2  H   LIG d   1       6.686   0.810  -7.857  0.00  0.00     0.041 H 
ATOM      3  H   LIG d   1       5.600   1.486  -6.619  0.00  0.00     0.041 H 
ENDROOT
BRANCH   1   4
ATOM      4  C   LIG d   1       4.649   0.200  -8.031  0.00  0.00     0.049 A 
ATOM      5  C   LIG d   1       4.824  -0.280  -9.288  0.00  0.00    -0.029 A 
ATOM      6  C   LIG d   1       3.635  -0.654 -10.059  0.00  0.00     0.022 A 
ATOM      7  C   LIG d   1       3.753  -1.153 -11.356  0.00  0.00    -0.040 A 
ATOM      8  C   LIG d   1       2.362  -0.503  -9.470  0.00  0.00     0.143 A 
ATOM      9  C   LIG d   1       2.607  -1.497 -12.059  0.00  0.00     0.024 A 
ATOM     10  H   LIG d   1       4.727  -1.270 -11.810  0.00  0.00     0.063 H 
ATOM     11  C   LIG d   1       2.355  -2.036 -13.403  0.00  0.00    -0.005 A 
ATOM     12  C   LIG d   1       1.335  -1.343 -11.472  0.00  0.00     0.139 A 
ATOM     13  C   LIG d   1       1.027  -2.166 -13.510  0.00  0.00     0.096 A 
ATOM     14  O   LIG d   1       0.426  -1.759 -12.377  0.00  0.00    -0.463 OA
ATOM     15  H   LIG d   1       0.511  -2.542 -14.381  0.00  0.00     0.103 H 
ATOM     16  C   LIG d   1       1.225  -0.842 -10.183  0.00  0.00     0.024 A 
ATOM     17  H   LIG d   1       0.251  -0.728  -9.730  0.00  0.00     0.069 H 
ATOM     18  O   LIG d   1       2.260  -0.017  -8.212  0.00  0.00    -0.422 OA
ATOM     19  C   LIG d   1       3.346   0.326  -7.502  0.00  0.00     0.341 A 
ATOM     20  O   LIG d   1       3.203   0.759  -6.373  0.00  0.00    -0.245 OA
BRANCH   5  21
ATOM     21  C   LIG d   1       6.205  -0.425  -9.875  0.00  0.00    -0.038 C 
ATOM     22  H   LIG d   1       6.947  -0.131  -9.133  0.00  0.00     0.028 H 
ATOM     23  H   LIG d   1       6.370  -1.463 -10.162  0.00  0.00     0.028 H 
ATOM     24  H   LIG d   1       6.295   0.215 -10.752  0.00  0.00     0.028 H 
ENDBRANCH   5  21
BRANCH  11  25
ATOM     25  C   LIG d   1       3.385  -2.381 -14.448  0.00  0.00    -0.036 C 
ATOM     26  H   LIG d   1       2.975  -2.190 -15.439  0.00  0.00     0.028 H 
ATOM     27  H   LIG d   1       4.274  -1.769 -14.298  0.00  0.00     0.028 H 
ATOM     28  H   LIG d   1       3.651  -3.435 -14.361  0.00  0.00     0.028 H 
ENDBRANCH  11  25
ENDBRANCH   1   4
BRANCH   1  29
ATOM     29  C   LIG d   1       6.203  -0.531  -6.268  0.00  0.00     0.218 C 
ATOM     30  O   LIG d   1       7.256  -1.117  -6.406  0.00  0.00    -0.275 OA
ATOM     31  N   LIG d   1       5.356  -0.890  -5.284  0.00  0.00    -0.302 N 
ATOM     32  H   LIG d   1       4.513  -0.421  -5.175  0.00  0.00     0.149 HD
BRANCH  31  33
ATOM     33  C   LIG d   1       5.707  -1.987  -4.379  0.00  0.00     0.121 C 
ATOM     34  H   LIG d   1       6.789  -2.121  -4.373  0.00  0.00     0.061 H 
BRANCH  33  35
ATOM     35  C   LIG d   1       5.226  -1.655  -2.965  0.00  0.00    -0.022 C 
ATOM     36  H   LIG d   1       4.693  -2.511  -2.552  0.00  0.00     0.029 H 
ATOM     37  H   LIG d   1       6.084  -1.423  -2.335  0.00  0.00     0.029 H 
BRANCH  35  38
ATOM     38  C   LIG d   1       4.288  -0.447  -3.015  0.00  0.00    -0.044 C 
ATOM     39  H   LIG d   1       4.420   0.076  -3.962  0.00  0.00     0.030 H 
BRANCH  38  40
ATOM     40  C   LIG d   1       2.839  -0.920  -2.892  0.00  0.00    -0.063 C 
ATOM     41  H   LIG d   1       2.511  -0.820  -1.857  0.00  0.00     0.023 H 
ATOM     42  H   LIG d   1       2.202  -0.312  -3.534  0.00  0.00     0.023 H 
ATOM     43  H   LIG d   1       2.770  -1.965  -3.195  0.00  0.00     0.023 H 
ENDBRANCH  38  40
BRANCH  38  44
ATOM     44  C   LIG d   1       4.617   0.502  -1.861  0.00  0.00    -0.063 C 
ATOM     45  H   LIG d   1       3.697   0.955  -1.489  0.00  0.00     0.023 H 
ATOM     46  H   LIG d   1       5.096  -0.057  -1.057  0.00  0.00     0.023 H 
ATOM     47  H   LIG d   1       5.290   1.283  -2.212  0.00  0.00     0.023 H 
ENDBRANCH  38  44
ENDBRANCH  35  38
ENDBRANCH  33  35
BRANCH  33  48
ATOM     48  C   LIG d   1       5.046  -3.257  -4.849  0.00  0.00     0.327 C 
ATOM     49  O   LIG d   1       4.272  -3.840  -4.127  0.00  0.00    -0.249 OA
BRANCH  48  50
ATOM     50  O   LIG d   1       5.319  -3.743  -6.070  0.00  0.00    -0.467 OA
BRANCH  50  51
ATOM     51  C   LIG d   1       4.238  -4.346  -6.785  0.00  0.00     0.082 C 
ATOM     52  H   LIG d   1       4.377  -4.189  -7.855  0.00  0.00     0.066 H 
ATOM     53  H   LIG d   1       4.216  -5.415  -6.575  0.00  0.00     0.066 H 
ATOM     54  H   LIG d   1       3.297  -3.894  -6.471  0.00  0.00     0.066 H 
ENDBRANCH  50  51
ENDBRANCH  48  50
ENDBRANCH  33  48
ENDBRANCH  31  33
ENDBRANCH   1  29
TORSDOF 12
ENDMDL
MODEL 6
REMARK VINA RESULT:      -5.8      6.293     11.966
REMARK  12 active torsions:
REMARK  status: ('A' for Active; 'I' for Inactive)
REMARK    1  A    between atoms: C_1  and  C_2 
REMARK    2  A    between atoms: C_9  and  C_30 
REMARK    3  A    between atoms: C_10  and  C_16 
REMARK    4  A    between atoms: C_16  and  C_17 
REMARK       I    between atoms: C_17  and  N_19 
REMARK    5  A    between atoms: N_19  and  C_20 
REMARK    6  A    between atoms: C_20  and  C_22 
REMARK    7  A    between atoms: C_20  and  C_26 
REMARK    8  A    between atoms: C_22  and  C_23 
REMARK    9  A    between atoms: C_23  and  C_24 
REMARK   10  A    between atoms: C_23  and  C_25 
REMARK   11  A    between atoms: C_26  and  O_28 
REMARK   12  A    between atoms: O_28  and  C_29 
ROOT
ATOM      1  C   LIG d   1       9.681   1.527  -5.652  0.00  0.00     0.056 C 
ATOM      2  H   LIG d   1      10.008   1.225  -6.648  0.00  0.00     0.041 H 
ATOM      3  H   LIG d   1      10.343   1.094  -4.905  0.00  0.00     0.041 H 
ENDROOT
BRANCH   1   4
ATOM      4  C   LIG d   1       9.718   3.030  -5.546  0.00  0.00     0.049 A 
ATOM      5  C   LIG d   1       9.824   3.624  -4.330  0.00  0.00    -0.029 A 
ATOM      6  C   LIG d   1       9.858   5.088  -4.275  0.00  0.00     0.022 A 
ATOM      7  C   LIG d   1       9.965   5.754  -3.054  0.00  0.00    -0.040 A 
ATOM      8  C   LIG d   1       9.780   5.821  -5.478  0.00  0.00     0.143 A 
ATOM      9  C   LIG d   1       9.993   7.141  -3.036  0.00  0.00     0.024 A 
ATOM     10  H   LIG d   1      10.025   5.196  -2.131  0.00  0.00     0.063 H 
ATOM     11  C   LIG d   1      10.095   8.148  -1.971  0.00  0.00    -0.005 A 
ATOM     12  C   LIG d   1       9.912   7.873  -4.239  0.00  0.00     0.139 A 
ATOM     13  C   LIG d   1      10.078   9.340  -2.581  0.00  0.00     0.096 A 
ATOM     14  O   LIG d   1       9.970   9.180  -3.913  0.00  0.00    -0.463 OA
ATOM     15  H   LIG d   1      10.139  10.293  -2.077  0.00  0.00     0.103 H 
ATOM     16  C   LIG d   1       9.801   7.204  -5.449  0.00  0.00     0.024 A 
ATOM     17  H   LIG d   1       9.743   7.763  -6.370  0.00  0.00     0.069 H 
ATOM     18  O   LIG d   1       9.675   5.164  -6.655  0.00  0.00    -0.422 OA
ATOM     19  C   LIG d   1       9.644   3.823  -6.711  0.00  0.00     0.341 A 
ATOM     20  O   LIG d   1       9.549   3.277  -7.795  0.00  0.00    -0.245 OA
BRANCH   5  21
ATOM     21  C   LIG d   1       9.906   2.799  -3.071  0.00  0.00    -0.038 C 
ATOM     22  H   LIG d   1       9.309   3.270  -2.290  0.00  0.00     0.028 H 
ATOM     23  H   LIG d   1       9.522   1.798  -3.267  0.00  0.00     0.028 H 
ATOM     24  H   LIG d   1      10.944   2.735  -2.746  0.00  0.00     0.028 H 
ENDBRANCH   5  21
BRANCH  11  25
ATOM     25  C   LIG d   1      10.205   7.892  -0.490  0.00  0.00    -0.036 C 
ATOM     26  H   LIG d   1       9.988   8.810   0.055  0.00  0.00     0.028 H 
ATOM     27  H   LIG d   1       9.491   7.120  -0.201  0.00  0.00     0.028 H 
ATOM     28  H   LIG d   1      11.216   7.559  -0.253  0.00  0.00     0.028 H 
ENDBRANCH  11  25
ENDBRANCH   1   4
BRANCH   1  29
ATOM     29  C   LIG d   1       8.272   1.042  -5.419  0.00  0.00     0.218 C 
ATOM     30  O   LIG d   1       7.403   1.297  -6.225  0.00  0.00    -0.275 OA
ATOM     31  N   LIG d   1       7.980   0.328  -4.314  0.00  0.00    -0.302 N 
ATOM     32  H   LIG d   1       8.676   0.125  -3.670  0.00  0.00     0.149 HD
BRANCH  31  33
ATOM     33  C   LIG d   1       6.611  -0.143  -4.088  0.00  0.00     0.121 C 
ATOM     34  H   LIG d   1       6.058  -0.116  -5.026  0.00  0.00     0.061 H 
BRANCH  33  35
ATOM     35  C   LIG d   1       6.647  -1.577  -3.556  0.00  0.00    -0.022 C 
ATOM     36  H   LIG d   1       7.668  -1.954  -3.595  0.00  0.00     0.029 H 
ATOM     37  H   LIG d   1       6.294  -1.590  -2.525  0.00  0.00     0.029 H 
BRANCH  35  38
ATOM     38  C   LIG d   1       5.743  -2.462  -4.416  0.00  0.00    -0.044 C 
ATOM     39  H   LIG d   1       5.417  -1.904  -5.293  0.00  0.00     0.030 H 
BRANCH  38  40
ATOM     40  C   LIG d   1       6.517  -3.704  -4.859  0.00  0.00    -0.063 C 
ATOM     41  H   LIG d   1       6.812  -3.595  -5.903  0.00  0.00     0.023 H 
ATOM     42  H   LIG d   1       7.409  -3.816  -4.241  0.00  0.00     0.023 H 
ATOM     43  H   LIG d   1       5.886  -4.585  -4.750  0.00  0.00     0.023 H 
ENDBRANCH  38  40
BRANCH  38  44
ATOM     44  C   LIG d   1       4.519  -2.887  -3.600  0.00  0.00    -0.063 C 
ATOM     45  H   LIG d   1       3.613  -2.538  -4.095  0.00  0.00     0.023 H 
ATOM     46  H   LIG d   1       4.495  -3.974  -3.523  0.00  0.00     0.023 H 
ATOM     47  H   LIG d   1       4.579  -2.453  -2.602  0.00  0.00     0.023 H 
ENDBRANCH  38  44
ENDBRANCH  35  38
ENDBRANCH  33  35
BRANCH  33  48
ATOM     48  C   LIG d   1       5.933   0.751  -3.080  0.00  0.00     0.327 C 
ATOM     49  O   LIG d   1       6.166   1.936  -3.069  0.00  0.00    -0.249 OA
BRANCH  48  50
ATOM     50  O   LIG d   1       5.071   0.229  -2.194  0.00  0.00    -0.467 OA
BRANCH  50  51
ATOM     51  C   LIG d   1       3.694   0.581  -2.343  0.00  0.00     0.082 C 
ATOM     52  H   LIG d   1       3.285   0.088  -3.225  0.00  0.00     0.066 H 
ATOM     53  H   LIG d   1       3.140   0.263  -1.460  0.00  0.00     0.066 H 
ATOM     54  H   LIG d   1       3.606   1.662  -2.458  0.00  0.00     0.066 H 
ENDBRANCH  50  51
ENDBRANCH  48  50
ENDBRANCH  33  48
ENDBRANCH  31  33
ENDBRANCH   1  29
TORSDOF 12
ENDMDL
MODEL 7
REMARK VINA RESULT:      -5.6      6.597     12.095
REMARK  12 active torsions:
REMARK  status: ('A' for Active; 'I' for Inactive)
REMARK    1  A    between atoms: C_1  and  C_2 
REMARK    2  A    between atoms: C_9  and  C_30 
REMARK    3  A    between atoms: C_10  and  C_16 
REMARK    4  A    between atoms: C_16  and  C_17 
REMARK       I    between atoms: C_17  and  N_19 
REMARK    5  A    between atoms: N_19  and  C_20 
REMARK    6  A    between atoms: C_20  and  C_22 
REMARK    7  A    between atoms: C_20  and  C_26 
REMARK    8  A    between atoms: C_22  and  C_23 
REMARK    9  A    between atoms: C_23  and  C_24 
REMARK   10  A    between atoms: C_23  and  C_25 
REMARK   11  A    between atoms: C_26  and  O_28 
REMARK   12  A    between atoms: O_28  and  C_29 
ROOT
ATOM      1  C   LIG d   1       9.651   1.978  -4.322  0.00  0.00     0.056 C 
ATOM      2  H   LIG d   1      10.270   1.165  -4.704  0.00  0.00     0.041 H 
ATOM      3  H   LIG d   1      10.029   2.297  -3.352  0.00  0.00     0.041 H 
ENDROOT
BRANCH   1   4
ATOM      4  C   LIG d   1       9.696   3.137  -5.285  0.00  0.00     0.049 A 
ATOM      5  C   LIG d   1       9.638   4.410  -4.819  0.00  0.00    -0.029 A 
ATOM      6  C   LIG d   1       9.685   5.506  -5.791  0.00  0.00     0.022 A 
ATOM      7  C   LIG d   1       9.628   6.835  -5.372  0.00  0.00    -0.040 A 
ATOM      8  C   LIG d   1       9.788   5.199  -7.165  0.00  0.00     0.143 A 
ATOM      9  C   LIG d   1       9.675   7.849  -6.319  0.00  0.00     0.024 A 
ATOM     10  H   LIG d   1       9.549   7.074  -4.321  0.00  0.00     0.063 H 
ATOM     11  C   LIG d   1       9.640   9.317  -6.248  0.00  0.00    -0.005 A 
ATOM     12  C   LIG d   1       9.775   7.542  -7.691  0.00  0.00     0.139 A 
ATOM     13  C   LIG d   1       9.726   9.754  -7.510  0.00  0.00     0.096 A 
ATOM     14  O   LIG d   1       9.805   8.713  -8.359  0.00  0.00    -0.463 OA
ATOM     15  H   LIG d   1       9.730  10.792  -7.805  0.00  0.00     0.103 H 
ATOM     16  C   LIG d   1       9.826   6.217  -8.100  0.00  0.00     0.024 A 
ATOM     17  H   LIG d   1       9.907   5.981  -9.151  0.00  0.00     0.069 H 
ATOM     18  O   LIG d   1       9.841   3.907  -7.559  0.00  0.00    -0.422 OA
ATOM     19  C   LIG d   1       9.799   2.900  -6.672  0.00  0.00     0.341 A 
ATOM     20  O   LIG d   1       9.850   1.753  -7.076  0.00  0.00    -0.245 OA
BRANCH   5  21
ATOM     21  C   LIG d   1       9.529   4.690  -3.342  0.00  0.00    -0.038 C 
ATOM     22  H   LIG d   1       8.957   5.605  -3.188  0.00  0.00     0.028 H 
ATOM     23  H   LIG d   1       9.023   3.859  -2.851  0.00  0.00     0.028 H 
ATOM     24  H   LIG d   1      10.526   4.810  -2.921  0.00  0.00     0.028 H 
ENDBRANCH   5  21
BRANCH  11  25
ATOM     25  C   LIG d   1       9.535  10.161  -5.003  0.00  0.00    -0.036 C 
ATOM     26  H   LIG d   1       9.257  11.178  -5.276  0.00  0.00     0.028 H 
ATOM     27  H   LIG d   1       8.777   9.741  -4.342  0.00  0.00     0.028 H 
ATOM     28  H   LIG d   1      10.498  10.172  -4.491  0.00  0.00     0.028 H 
ENDBRANCH  11  25
ENDBRANCH   1   4
BRANCH   1  29
ATOM     29  C   LIG d   1       8.229   1.500  -4.177  0.00  0.00     0.218 C 
ATOM     30  O   LIG d   1       7.312   2.210  -4.531  0.00  0.00    -0.275 OA
ATOM     31  N   LIG d   1       7.977   0.285  -3.652  0.00  0.00    -0.302 N 
ATOM     32  H   LIG d   1       8.711  -0.283  -3.368  0.00  0.00     0.149 HD
BRANCH  31  33
ATOM     33  C   LIG d   1       6.595  -0.179  -3.510  0.00  0.00     0.121 C 
ATOM     34  H   LIG d   1       6.566  -1.033  -2.833  0.00  0.00     0.061 H 
BRANCH  33  35
ATOM     35  C   LIG d   1       5.732   0.950  -2.944  0.00  0.00    -0.022 C 
ATOM     36  H   LIG d   1       6.364   1.655  -2.405  0.00  0.00     0.029 H 
ATOM     37  H   LIG d   1       5.227   1.466  -3.761  0.00  0.00     0.029 H 
BRANCH  35  38
ATOM     38  C   LIG d   1       4.690   0.366  -1.988  0.00  0.00    -0.044 C 
ATOM     39  H   LIG d   1       4.884   0.723  -0.977  0.00  0.00     0.030 H 
BRANCH  38  40
ATOM     40  C   LIG d   1       3.293   0.807  -2.425  0.00  0.00    -0.063 C 
ATOM     41  H   LIG d   1       2.611  -0.043  -2.374  0.00  0.00     0.023 H 
ATOM     42  H   LIG d   1       2.937   1.597  -1.763  0.00  0.00     0.023 H 
ATOM     43  H   LIG d   1       3.332   1.180  -3.448  0.00  0.00     0.023 H 
ENDBRANCH  38  40
BRANCH  38  44
ATOM     44  C   LIG d   1       4.776  -1.162  -2.012  0.00  0.00    -0.063 C 
ATOM     45  H   LIG d   1       3.853  -1.584  -1.615  0.00  0.00     0.023 H 
ATOM     46  H   LIG d   1       4.917  -1.501  -3.039  0.00  0.00     0.023 H 
ATOM     47  H   LIG d   1       5.617  -1.489  -1.403  0.00  0.00     0.023 H 
ENDBRANCH  38  44
ENDBRANCH  35  38
ENDBRANCH  33  35
BRANCH  33  48
ATOM     48  C   LIG d   1       6.062  -0.590  -4.859  0.00  0.00     0.327 C 
ATOM     49  O   LIG d   1       6.490  -1.581  -5.402  0.00  0.00    -0.249 OA
BRANCH  48  50
ATOM     50  O   LIG d   1       5.114   0.147  -5.459  0.00  0.00    -0.467 OA
BRANCH  50  51
ATOM     51  C   LIG d   1       3.931  -0.536  -5.880  0.00  0.00     0.082 C 
ATOM     52  H   LIG d   1       3.188  -0.502  -5.083  0.00  0.00     0.066 H 
ATOM     53  H   LIG d   1       3.531  -0.053  -6.771  0.00  0.00     0.066 H 
ATOM     54  H   LIG d   1       4.172  -1.575  -6.107  0.00  0.00     0.066 H 
ENDBRANCH  50  51
ENDBRANCH  48  50
ENDBRANCH  33  48
ENDBRANCH  31  33
ENDBRANCH   1  29
TORSDOF 12
ENDMDL
MODEL 8
REMARK VINA RESULT:      -5.6      2.317      3.436
REMARK  12 active torsions:
REMARK  status: ('A' for Active; 'I' for Inactive)
REMARK    1  A    between atoms: C_1  and  C_2 
REMARK    2  A    between atoms: C_9  and  C_30 
REMARK    3  A    between atoms: C_10  and  C_16 
REMARK    4  A    between atoms: C_16  and  C_17 
REMARK       I    between atoms: C_17  and  N_19 
REMARK    5  A    between atoms: N_19  and  C_20 
REMARK    6  A    between atoms: C_20  and  C_22 
REMARK    7  A    between atoms: C_20  and  C_26 
REMARK    8  A    between atoms: C_22  and  C_23 
REMARK    9  A    between atoms: C_23  and  C_24 
REMARK   10  A    between atoms: C_23  and  C_25 
REMARK   11  A    between atoms: C_26  and  O_28 
REMARK   12  A    between atoms: O_28  and  C_29 
ROOT
ATOM      1  C   LIG d   1       5.604  -6.815  -6.466  0.00  0.00     0.056 C 
ATOM      2  H   LIG d   1       6.175  -6.549  -7.357  0.00  0.00     0.041 H 
ATOM      3  H   LIG d   1       4.847  -7.553  -6.727  0.00  0.00     0.041 H 
ENDROOT
BRANCH   1   4
ATOM      4  C   LIG d   1       6.532  -7.391  -5.429  0.00  0.00     0.049 A 
ATOM      5  C   LIG d   1       6.121  -8.421  -4.645  0.00  0.00    -0.029 A 
ATOM      6  C   LIG d   1       7.058  -8.950  -3.650  0.00  0.00     0.022 A 
ATOM      7  C   LIG d   1       6.692 -10.007  -2.816  0.00  0.00    -0.040 A 
ATOM      8  C   LIG d   1       8.343  -8.375  -3.544  0.00  0.00     0.143 A 
ATOM      9  C   LIG d   1       7.603 -10.484  -1.884  0.00  0.00     0.024 A 
ATOM     10  H   LIG d   1       5.710 -10.449  -2.895  0.00  0.00     0.063 H 
ATOM     11  C   LIG d   1       7.566 -11.549  -0.872  0.00  0.00    -0.005 A 
ATOM     12  C   LIG d   1       8.885  -9.908  -1.776  0.00  0.00     0.139 A 
ATOM     13  C   LIG d   1       8.765 -11.537  -0.274  0.00  0.00     0.096 A 
ATOM     14  O   LIG d   1       9.540 -10.573  -0.804  0.00  0.00    -0.463 OA
ATOM     15  H   LIG d   1       9.065 -12.204   0.520  0.00  0.00     0.103 H 
ATOM     16  C   LIG d   1       9.240  -8.854  -2.606  0.00  0.00     0.024 A 
ATOM     17  H   LIG d   1      10.223  -8.414  -2.527  0.00  0.00     0.069 H 
ATOM     18  O   LIG d   1       8.685  -7.351  -4.357  0.00  0.00    -0.422 OA
ATOM     19  C   LIG d   1       7.831  -6.863  -5.270  0.00  0.00     0.341 A 
ATOM     20  O   LIG d   1       8.186  -5.939  -5.980  0.00  0.00    -0.245 OA
BRANCH   5  21
ATOM     21  C   LIG d   1       4.740  -9.004  -4.795  0.00  0.00    -0.038 C 
ATOM     22  H   LIG d   1       4.197  -8.455  -5.565  0.00  0.00     0.028 H 
ATOM     23  H   LIG d   1       4.817 -10.053  -5.083  0.00  0.00     0.028 H 
ATOM     24  H   LIG d   1       4.208  -8.924  -3.848  0.00  0.00     0.028 H 
ENDBRANCH   5  21
BRANCH  11  25
ATOM     25  C   LIG d   1       6.415 -12.474  -0.571  0.00  0.00    -0.036 C 
ATOM     26  H   LIG d   1       5.481 -11.914  -0.604  0.00  0.00     0.028 H 
ATOM     27  H   LIG d   1       6.387 -13.272  -1.313  0.00  0.00     0.028 H 
ATOM     28  H   LIG d   1       6.546 -12.905   0.422  0.00  0.00     0.028 H 
ENDBRANCH  11  25
ENDBRANCH   1   4
BRANCH   1  29
ATOM     29  C   LIG d   1       4.935  -5.583  -5.912  0.00  0.00     0.218 C 
ATOM     30  O   LIG d   1       3.885  -5.680  -5.313  0.00  0.00    -0.275 OA
ATOM     31  N   LIG d   1       5.502  -4.373  -6.085  0.00  0.00    -0.302 N 
ATOM     32  H   LIG d   1       6.342  -4.295  -6.564  0.00  0.00     0.149 HD
BRANCH  31  33
ATOM     33  C   LIG d   1       4.852  -3.175  -5.547  0.00  0.00     0.121 C 
ATOM     34  H   LIG d   1       3.788  -3.370  -5.410  0.00  0.00     0.061 H 
BRANCH  33  35
ATOM     35  C   LIG d   1       5.483  -2.813  -4.201  0.00  0.00    -0.022 C 
ATOM     36  H   LIG d   1       5.446  -3.676  -3.538  0.00  0.00     0.029 H 
ATOM     37  H   LIG d   1       6.520  -2.516  -4.355  0.00  0.00     0.029 H 
BRANCH  35  38
ATOM     38  C   LIG d   1       4.709  -1.653  -3.571  0.00  0.00    -0.044 C 
ATOM     39  H   LIG d   1       4.060  -1.200  -4.320  0.00  0.00     0.030 H 
BRANCH  38  40
ATOM     40  C   LIG d   1       3.861  -2.177  -2.411  0.00  0.00    -0.063 C 
ATOM     41  H   LIG d   1       4.205  -3.172  -2.130  0.00  0.00     0.023 H 
ATOM     42  H   LIG d   1       3.959  -1.505  -1.558  0.00  0.00     0.023 H 
ATOM     43  H   LIG d   1       2.816  -2.226  -2.717  0.00  0.00     0.023 H 
ENDBRANCH  38  40
BRANCH  38  44
ATOM     44  C   LIG d   1       5.695  -0.605  -3.051  0.00  0.00    -0.063 C 
ATOM     45  H   LIG d   1       6.690  -1.044  -2.980  0.00  0.00     0.023 H 
ATOM     46  H   LIG d   1       5.721   0.242  -3.738  0.00  0.00     0.023 H 
ATOM     47  H   LIG d   1       5.377  -0.263  -2.067  0.00  0.00     0.023 H 
ENDBRANCH  38  44
ENDBRANCH  35  38
ENDBRANCH  33  35
BRANCH  33  48
ATOM     48  C   LIG d   1       5.032  -2.030  -6.511  0.00  0.00     0.327 C 
ATOM     49  O   LIG d   1       6.132  -1.571  -6.705  0.00  0.00    -0.249 OA
BRANCH  48  50
ATOM     50  O   LIG d   1       3.969  -1.521  -7.153  0.00  0.00    -0.467 OA
BRANCH  50  51
ATOM     51  C   LIG d   1       3.568  -0.196  -6.795  0.00  0.00     0.082 C 
ATOM     52  H   LIG d   1       3.321  -0.165  -5.733  0.00  0.00     0.066 H 
ATOM     53  H   LIG d   1       4.384   0.498  -6.997  0.00  0.00     0.066 H 
ATOM     54  H   LIG d   1       2.694   0.090  -7.379  0.00  0.00     0.066 H 
ENDBRANCH  50  51
ENDBRANCH  48  50
ENDBRANCH  33  48
ENDBRANCH  31  33
ENDBRANCH   1  29
TORSDOF 12
ENDMDL
MODEL 9
REMARK VINA RESULT:      -5.6      3.410      5.900
REMARK  12 active torsions:
REMARK  status: ('A' for Active; 'I' for Inactive)
REMARK    1  A    between atoms: C_1  and  C_2 
REMARK    2  A    between atoms: C_9  and  C_30 
REMARK    3  A    between atoms: C_10  and  C_16 
REMARK    4  A    between atoms: C_16  and  C_17 
REMARK       I    between atoms: C_17  and  N_19 
REMARK    5  A    between atoms: N_19  and  C_20 
REMARK    6  A    between atoms: C_20  and  C_22 
REMARK    7  A    between atoms: C_20  and  C_26 
REMARK    8  A    between atoms: C_22  and  C_23 
REMARK    9  A    between atoms: C_23  and  C_24 
REMARK   10  A    between atoms: C_23  and  C_25 
REMARK   11  A    between atoms: C_26  and  O_28 
REMARK   12  A    between atoms: O_28  and  C_29 
ROOT
ATOM      1  C   LIG d   1       4.034  -0.690  -4.140  0.00  0.00     0.056 C 
ATOM      2  H   LIG d   1       3.395  -1.526  -3.854  0.00  0.00     0.041 H 
ATOM      3  H   LIG d   1       3.992   0.079  -3.370  0.00  0.00     0.041 H 
ENDROOT
BRANCH   1   4
ATOM      4  C   LIG d   1       5.453  -1.172  -4.292  0.00  0.00     0.049 A 
ATOM      5  C   LIG d   1       5.712  -2.501  -4.400  0.00  0.00    -0.029 A 
ATOM      6  C   LIG d   1       7.108  -2.924  -4.547  0.00  0.00     0.022 A 
ATOM      7  C   LIG d   1       7.436  -4.275  -4.662  0.00  0.00    -0.040 A 
ATOM      8  C   LIG d   1       8.122  -1.943  -4.571  0.00  0.00     0.143 A 
ATOM      9  C   LIG d   1       8.767  -4.642  -4.799  0.00  0.00     0.024 A 
ATOM     10  H   LIG d   1       6.662  -5.028  -4.644  0.00  0.00     0.063 H 
ATOM     11  C   LIG d   1       9.463  -5.929  -4.941  0.00  0.00    -0.005 A 
ATOM     12  C   LIG d   1       9.781  -3.662  -4.819  0.00  0.00     0.139 A 
ATOM     13  C   LIG d   1      10.767  -5.639  -5.039  0.00  0.00     0.096 A 
ATOM     14  O   LIG d   1      10.955  -4.308  -4.968  0.00  0.00    -0.463 OA
ATOM     15  H   LIG d   1      11.555  -6.368  -5.158  0.00  0.00     0.103 H 
ATOM     16  C   LIG d   1       9.447  -2.321  -4.700  0.00  0.00     0.024 A 
ATOM     17  H   LIG d   1      10.222  -1.569  -4.720  0.00  0.00     0.069 H 
ATOM     18  O   LIG d   1       7.792  -0.637  -4.457  0.00  0.00    -0.422 OA
ATOM     19  C   LIG d   1       6.516  -0.244  -4.323  0.00  0.00     0.341 A 
ATOM     20  O   LIG d   1       6.269   0.944  -4.225  0.00  0.00    -0.245 OA
BRANCH   5  21
ATOM     21  C   LIG d   1       4.596  -3.512  -4.371  0.00  0.00    -0.038 C 
ATOM     22  H   LIG d   1       3.730  -3.082  -3.866  0.00  0.00     0.028 H 
ATOM     23  H   LIG d   1       4.323  -3.782  -5.391  0.00  0.00     0.028 H 
ATOM     24  H   LIG d   1       4.925  -4.401  -3.834  0.00  0.00     0.028 H 
ENDBRANCH   5  21
BRANCH  11  25
ATOM     25  C   LIG d   1       8.836  -7.299  -4.976  0.00  0.00    -0.036 C 
ATOM     26  H   LIG d   1       9.548  -8.034  -4.601  0.00  0.00     0.028 H 
ATOM     27  H   LIG d   1       7.943  -7.305  -4.351  0.00  0.00     0.028 H 
ATOM     28  H   LIG d   1       8.564  -7.547  -6.002  0.00  0.00     0.028 H 
ENDBRANCH  11  25
ENDBRANCH   1   4
BRANCH   1  29
ATOM     29  C   LIG d   1       3.555  -0.118  -5.450  0.00  0.00     0.218 C 
ATOM     30  O   LIG d   1       2.940   0.928  -5.466  0.00  0.00    -0.275 OA
ATOM     31  N   LIG d   1       3.806  -0.769  -6.602  0.00  0.00    -0.302 N 
ATOM     32  H   LIG d   1       4.298  -1.606  -6.589  0.00  0.00     0.149 HD
BRANCH  31  33
ATOM     33  C   LIG d   1       3.340  -0.213  -7.875  0.00  0.00     0.121 C 
ATOM     34  H   LIG d   1       2.586   0.550  -7.683  0.00  0.00     0.061 H 
BRANCH  33  35
ATOM     35  C   LIG d   1       4.520   0.412  -8.621  0.00  0.00    -0.022 C 
ATOM     36  H   LIG d   1       5.339   0.588  -7.925  0.00  0.00     0.029 H 
ATOM     37  H   LIG d   1       4.852  -0.265  -9.408  0.00  0.00     0.029 H 
BRANCH  35  38
ATOM     38  C   LIG d   1       4.085   1.741  -9.242  0.00  0.00    -0.044 C 
ATOM     39  H   LIG d   1       4.877   2.478  -9.115  0.00  0.00     0.030 H 
BRANCH  38  40
ATOM     40  C   LIG d   1       3.810   1.541 -10.733  0.00  0.00    -0.063 C 
ATOM     41  H   LIG d   1       4.428   2.227 -11.312  0.00  0.00     0.023 H 
ATOM     42  H   LIG d   1       4.050   0.514 -11.013  0.00  0.00     0.023 H 
ATOM     43  H   LIG d   1       2.758   1.737 -10.939  0.00  0.00     0.023 H 
ENDBRANCH  38  40
BRANCH  38  44
ATOM     44  C   LIG d   1       2.813   2.235  -8.549  0.00  0.00    -0.063 C 
ATOM     45  H   LIG d   1       2.387   1.429  -7.952  0.00  0.00     0.023 H 
ATOM     46  H   LIG d   1       3.057   3.077  -7.901  0.00  0.00     0.023 H 
ATOM     47  H   LIG d   1       2.090   2.553  -9.300  0.00  0.00     0.023 H 
ENDBRANCH  38  44
ENDBRANCH  35  38
ENDBRANCH  33  35
BRANCH  33  48
ATOM     48  C   LIG d   1       2.741  -1.313  -8.714  0.00  0.00     0.327 C 
ATOM     49  O   LIG d   1       1.758  -1.095  -9.383  0.00  0.00    -0.249 OA
BRANCH  48  50
ATOM     50  O   LIG d   1       3.297  -2.533  -8.716  0.00  0.00    -0.467 OA
BRANCH  50  51
ATOM     51  C   LIG d   1       2.748  -3.496  -9.620  0.00  0.00     0.082 C 
ATOM     52  H   LIG d   1       2.618  -4.447  -9.103  0.00  0.00     0.066 H 
ATOM     53  H   LIG d   1       1.781  -3.144  -9.980  0.00  0.00     0.066 H 
ATOM     54  H   LIG d   1       3.424  -3.629 -10.464  0.00  0.00     0.066 H 
ENDBRANCH  50  51
ENDBRANCH  48  50
ENDBRANCH  33  48
ENDBRANCH  31  33
ENDBRANCH   1  29
TORSDOF 12
ENDMDL
