MODEL 1
REMARK VINA RESULT:      -7.0      0.000      0.000
REMARK  4 active torsions:
REMARK  status: ('A' for Active; 'I' for Inactive)
REMARK    1  A    between atoms: C_1  and  C_2 
REMARK    2  A    between atoms: C_5  and  C_8 
REMARK    3  A    between atoms: C_9  and  C_19 
REMARK    4  A    between atoms: N_11  and  C_13 
ROOT
ATOM      1  C   LIG d   1       7.867   1.556  -4.084  0.00  0.00     0.105 A 
ATOM      2  C   LIG d   1       8.241   1.790  -5.481  0.00  0.00     0.083 A 
ATOM      3  C   LIG d   1       9.233   2.732  -5.468  0.00  0.00     0.044 A 
ATOM      4  N   LIG d   1       9.471   3.069  -4.185  0.00  0.00    -0.238 N 
ATOM      5  N   LIG d   1       8.621   2.342  -3.346  0.00  0.00    -0.166 NA
ATOM      6  H   LIG d   1       9.737   3.135  -6.334  0.00  0.00     0.084 H 
ENDROOT
BRANCH   1   7
ATOM      7  C   LIG d   1       6.831   0.614  -3.595  0.00  0.00     0.003 A 
ATOM      8  C   LIG d   1       5.653   1.101  -3.032  0.00  0.00    -0.052 A 
ATOM      9  C   LIG d   1       4.692   0.220  -2.579  0.00  0.00    -0.058 A 
ATOM     10  H   LIG d   1       5.492   2.166  -2.949  0.00  0.00     0.062 H 
ATOM     11  C   LIG d   1       4.896  -1.144  -2.684  0.00  0.00    -0.050 A 
ATOM     12  H   LIG d   1       3.779   0.597  -2.142  0.00  0.00     0.062 H 
ATOM     13  C   LIG d   1       6.066  -1.633  -3.237  0.00  0.00    -0.058 A 
ATOM     14  C   LIG d   1       7.031  -0.761  -3.698  0.00  0.00    -0.052 A 
ATOM     15  H   LIG d   1       6.222  -2.699  -3.313  0.00  0.00     0.062 H 
ATOM     16  H   LIG d   1       7.942  -1.144  -4.134  0.00  0.00     0.062 H 
BRANCH  11  17
ATOM     17  C   LIG d   1       3.843  -2.101  -2.187  0.00  0.00    -0.040 C 
ATOM     18  H   LIG d   1       4.243  -3.114  -2.189  0.00  0.00     0.028 H 
ATOM     19  H   LIG d   1       3.552  -1.826  -1.174  0.00  0.00     0.028 H 
ATOM     20  H   LIG d   1       2.972  -2.052  -2.842  0.00  0.00     0.028 H 
ENDBRANCH  11  17
ENDBRANCH   1   7
BRANCH   2  21
ATOM     21  C   LIG d   1       7.663   1.136  -6.670  0.00  0.00     0.232 A 
ATOM     22  O   LIG d   1       7.804  -0.166  -6.981  0.00  0.00    -0.435 OA
ATOM     23  C   LIG d   1       7.136  -0.399  -8.133  0.00  0.00     0.156 A 
ATOM     24  C   LIG d   1       6.581   0.829  -8.525  0.00  0.00     0.111 A 
ATOM     25  C   LIG d   1       6.933  -1.527  -8.913  0.00  0.00    -0.016 A 
ATOM     26  N   LIG d   1       6.941   1.739  -7.582  0.00  0.00    -0.209 NA
ATOM     27  C   LIG d   1       5.828   0.906  -9.699  0.00  0.00    -0.014 A 
ATOM     28  C   LIG d   1       5.636  -0.226 -10.462  0.00  0.00     0.043 A 
ATOM     29  H   LIG d   1       5.397   1.847 -10.008  0.00  0.00     0.065 H 
ATOM     30  C   LIG d   1       6.187  -1.438 -10.070  0.00  0.00    -0.040 A 
ATOM     31 CL   LIG d   1       4.700  -0.135 -11.922  0.00  0.00    -0.084 Cl
ATOM     32  H   LIG d   1       6.030  -2.319 -10.676  0.00  0.00     0.063 H 
ATOM     33  H   LIG d   1       7.357  -2.474  -8.615  0.00  0.00     0.066 H 
ENDBRANCH   2  21
BRANCH   4  34
ATOM     34  C   LIG d   1      10.420   4.007  -3.758  0.00  0.00     0.065 A 
ATOM     35  C   LIG d   1      10.310   4.583  -2.500  0.00  0.00    -0.036 A 
ATOM     36  C   LIG d   1      11.250   5.505  -2.080  0.00  0.00    -0.060 A 
ATOM     37  H   LIG d   1       9.494   4.309  -1.848  0.00  0.00     0.064 H 
ATOM     38  C   LIG d   1      12.293   5.860  -2.915  0.00  0.00    -0.062 A 
ATOM     39  H   LIG d   1      11.169   5.950  -1.099  0.00  0.00     0.062 H 
ATOM     40  C   LIG d   1      12.402   5.291  -4.171  0.00  0.00    -0.060 A 
ATOM     41  H   LIG d   1      13.024   6.584  -2.585  0.00  0.00     0.062 H 
ATOM     42  C   LIG d   1      11.469   4.366  -4.595  0.00  0.00    -0.036 A 
ATOM     43  H   LIG d   1      13.218   5.570  -4.820  0.00  0.00     0.062 H 
ATOM     44  H   LIG d   1      11.554   3.922  -5.575  0.00  0.00     0.064 H 
ENDBRANCH   4  34
TORSDOF 4
ENDMDL
MODEL 2
REMARK VINA RESULT:      -6.8      4.400      6.183
REMARK  4 active torsions:
REMARK  status: ('A' for Active; 'I' for Inactive)
REMARK    1  A    between atoms: C_1  and  C_2 
REMARK    2  A    between atoms: C_5  and  C_8 
REMARK    3  A    between atoms: C_9  and  C_19 
REMARK    4  A    between atoms: N_11  and  C_13 
ROOT
ATOM      1  C   LIG d   1       7.046  -2.631  -3.920  0.00  0.00     0.105 A 
ATOM      2  C   LIG d   1       6.907  -3.345  -5.191  0.00  0.00     0.083 A 
ATOM      3  C   LIG d   1       7.924  -4.259  -5.239  0.00  0.00     0.044 A 
ATOM      4  N   LIG d   1       8.644  -4.141  -4.107  0.00  0.00    -0.238 N 
ATOM      5  N   LIG d   1       8.096  -3.133  -3.308  0.00  0.00    -0.166 NA
ATOM      6  H   LIG d   1       8.116  -4.954  -6.044  0.00  0.00     0.084 H 
ENDROOT
BRANCH   1   7
ATOM      7  C   LIG d   1       6.170  -1.543  -3.420  0.00  0.00     0.003 A 
ATOM      8  C   LIG d   1       6.564  -0.212  -3.551  0.00  0.00    -0.052 A 
ATOM      9  C   LIG d   1       5.744   0.796  -3.084  0.00  0.00    -0.058 A 
ATOM     10  H   LIG d   1       7.508   0.030  -4.016  0.00  0.00     0.062 H 
ATOM     11  C   LIG d   1       4.535   0.487  -2.489  0.00  0.00    -0.050 A 
ATOM     12  H   LIG d   1       6.049   1.827  -3.185  0.00  0.00     0.062 H 
ATOM     13  C   LIG d   1       4.141  -0.832  -2.352  0.00  0.00    -0.058 A 
ATOM     14  C   LIG d   1       4.950  -1.848  -2.820  0.00  0.00    -0.052 A 
ATOM     15  H   LIG d   1       3.198  -1.067  -1.883  0.00  0.00     0.062 H 
ATOM     16  H   LIG d   1       4.641  -2.877  -2.716  0.00  0.00     0.062 H 
BRANCH  11  17
ATOM     17  C   LIG d   1       3.645   1.592  -1.982  0.00  0.00    -0.040 C 
ATOM     18  H   LIG d   1       4.252   2.352  -1.491  0.00  0.00     0.028 H 
ATOM     19  H   LIG d   1       3.108   2.040  -2.818  0.00  0.00     0.028 H 
ATOM     20  H   LIG d   1       2.929   1.183  -1.268  0.00  0.00     0.028 H 
ENDBRANCH  11  17
ENDBRANCH   1   7
BRANCH   2  21
ATOM     21  C   LIG d   1       5.873  -3.123  -6.220  0.00  0.00     0.232 A 
ATOM     22  O   LIG d   1       5.348  -4.081  -7.007  0.00  0.00    -0.435 OA
ATOM     23  C   LIG d   1       4.432  -3.505  -7.818  0.00  0.00     0.156 A 
ATOM     24  C   LIG d   1       4.423  -2.138  -7.498  0.00  0.00     0.111 A 
ATOM     25  C   LIG d   1       3.594  -3.986  -8.811  0.00  0.00    -0.016 A 
ATOM     26  N   LIG d   1       5.333  -1.963  -6.504  0.00  0.00    -0.209 NA
ATOM     27  C   LIG d   1       3.568  -1.272  -8.184  0.00  0.00    -0.014 A 
ATOM     28  C   LIG d   1       2.740  -1.768  -9.168  0.00  0.00     0.043 A 
ATOM     29  H   LIG d   1       3.554  -0.219  -7.944  0.00  0.00     0.065 H 
ATOM     30  C   LIG d   1       2.753  -3.121  -9.480  0.00  0.00    -0.040 A 
ATOM     31 CL   LIG d   1       1.676  -0.695 -10.022  0.00  0.00    -0.084 Cl
ATOM     32  H   LIG d   1       2.100  -3.498 -10.253  0.00  0.00     0.063 H 
ATOM     33  H   LIG d   1       3.597  -5.037  -9.059  0.00  0.00     0.066 H 
ENDBRANCH   2  21
BRANCH   4  34
ATOM     34  C   LIG d   1       9.772  -4.907  -3.782  0.00  0.00     0.065 A 
ATOM     35  C   LIG d   1       9.625  -6.232  -3.395  0.00  0.00    -0.036 A 
ATOM     36  C   LIG d   1      10.739  -6.985  -3.080  0.00  0.00    -0.060 A 
ATOM     37  H   LIG d   1       8.641  -6.674  -3.343  0.00  0.00     0.064 H 
ATOM     38  C   LIG d   1      11.999  -6.418  -3.142  0.00  0.00    -0.062 A 
ATOM     39  H   LIG d   1      10.627  -8.017  -2.784  0.00  0.00     0.062 H 
ATOM     40  C   LIG d   1      12.148  -5.097  -3.522  0.00  0.00    -0.060 A 
ATOM     41  H   LIG d   1      12.868  -7.009  -2.891  0.00  0.00     0.062 H 
ATOM     42  C   LIG d   1      11.038  -4.340  -3.843  0.00  0.00    -0.036 A 
ATOM     43  H   LIG d   1      13.133  -4.658  -3.570  0.00  0.00     0.062 H 
ATOM     44  H   LIG d   1      11.155  -3.309  -4.140  0.00  0.00     0.064 H 
ENDBRANCH   4  34
TORSDOF 4
ENDMDL
MODEL 3
REMARK VINA RESULT:      -6.8      4.658      7.158
REMARK  4 active torsions:
REMARK  status: ('A' for Active; 'I' for Inactive)
REMARK    1  A    between atoms: C_1  and  C_2 
REMARK    2  A    between atoms: C_5  and  C_8 
REMARK    3  A    between atoms: C_9  and  C_19 
REMARK    4  A    between atoms: N_11  and  C_13 
ROOT
ATOM      1  C   LIG d   1       6.384  -3.289  -4.857  0.00  0.00     0.105 A 
ATOM      2  C   LIG d   1       5.979  -3.580  -6.234  0.00  0.00     0.083 A 
ATOM      3  C   LIG d   1       6.679  -4.691  -6.620  0.00  0.00     0.044 A 
ATOM      4  N   LIG d   1       7.458  -5.073  -5.589  0.00  0.00    -0.238 N 
ATOM      5  N   LIG d   1       7.270  -4.199  -4.514  0.00  0.00    -0.166 NA
ATOM      6  H   LIG d   1       6.619  -5.175  -7.584  0.00  0.00     0.084 H 
ENDROOT
BRANCH   1   7
ATOM      7  C   LIG d   1       5.892  -2.174  -4.010  0.00  0.00     0.003 A 
ATOM      8  C   LIG d   1       6.609  -0.981  -3.939  0.00  0.00    -0.052 A 
ATOM      9  C   LIG d   1       6.146   0.052  -3.150  0.00  0.00    -0.058 A 
ATOM     10  H   LIG d   1       7.526  -0.866  -4.499  0.00  0.00     0.062 H 
ATOM     11  C   LIG d   1       4.972  -0.094  -2.433  0.00  0.00    -0.050 A 
ATOM     12  H   LIG d   1       6.701   0.978  -3.093  0.00  0.00     0.062 H 
ATOM     13  C   LIG d   1       4.260  -1.278  -2.496  0.00  0.00    -0.058 A 
ATOM     14  C   LIG d   1       4.711  -2.316  -3.285  0.00  0.00    -0.052 A 
ATOM     15  H   LIG d   1       3.346  -1.388  -1.930  0.00  0.00     0.062 H 
ATOM     16  H   LIG d   1       4.151  -3.238  -3.337  0.00  0.00     0.062 H 
BRANCH  11  17
ATOM     17  C   LIG d   1       4.472   1.039  -1.573  0.00  0.00    -0.040 C 
ATOM     18  H   LIG d   1       3.735   0.660  -0.867  0.00  0.00     0.028 H 
ATOM     19  H   LIG d   1       5.307   1.477  -1.028  0.00  0.00     0.028 H 
ATOM     20  H   LIG d   1       4.013   1.798  -2.206  0.00  0.00     0.028 H 
ENDBRANCH  11  17
ENDBRANCH   1   7
BRANCH   2  21
ATOM     21  C   LIG d   1       5.006  -2.826  -7.045  0.00  0.00     0.232 A 
ATOM     22  O   LIG d   1       4.601  -1.567  -6.793  0.00  0.00    -0.435 OA
ATOM     23  C   LIG d   1       3.712  -1.210  -7.748  0.00  0.00     0.156 A 
ATOM     24  C   LIG d   1       3.580  -2.318  -8.600  0.00  0.00     0.111 A 
ATOM     25  C   LIG d   1       2.983  -0.059  -7.997  0.00  0.00    -0.016 A 
ATOM     26  N   LIG d   1       4.404  -3.285  -8.115  0.00  0.00    -0.209 NA
ATOM     27  C   LIG d   1       2.714  -2.252  -9.694  0.00  0.00    -0.014 A 
ATOM     28  C   LIG d   1       1.997  -1.098  -9.926  0.00  0.00     0.043 A 
ATOM     29  H   LIG d   1       2.607  -3.099 -10.355  0.00  0.00     0.065 H 
ATOM     30  C   LIG d   1       2.131  -0.005  -9.081  0.00  0.00    -0.040 A 
ATOM     31 CL   LIG d   1       0.919  -1.011 -11.285  0.00  0.00    -0.084 Cl
ATOM     32  H   LIG d   1       1.563   0.893  -9.273  0.00  0.00     0.063 H 
ATOM     33  H   LIG d   1       3.082   0.796  -7.345  0.00  0.00     0.066 H 
ENDBRANCH   2  21
BRANCH   4  34
ATOM     34  C   LIG d   1       8.326  -6.172  -5.596  0.00  0.00     0.065 A 
ATOM     35  C   LIG d   1       8.776  -6.710  -4.397  0.00  0.00    -0.036 A 
ATOM     36  C   LIG d   1       9.628  -7.797  -4.407  0.00  0.00    -0.060 A 
ATOM     37  H   LIG d   1       8.457  -6.282  -3.459  0.00  0.00     0.064 H 
ATOM     38  C   LIG d   1      10.041  -8.343  -5.609  0.00  0.00    -0.062 A 
ATOM     39  H   LIG d   1       9.974  -8.219  -3.476  0.00  0.00     0.062 H 
ATOM     40  C   LIG d   1       9.598  -7.806  -6.804  0.00  0.00    -0.060 A 
ATOM     41  H   LIG d   1      10.710  -9.191  -5.613  0.00  0.00     0.062 H 
ATOM     42  C   LIG d   1       8.742  -6.723  -6.801  0.00  0.00    -0.036 A 
ATOM     43  H   LIG d   1       9.921  -8.236  -7.740  0.00  0.00     0.062 H 
ATOM     44  H   LIG d   1       8.397  -6.304  -7.734  0.00  0.00     0.064 H 
ENDBRANCH   4  34
TORSDOF 4
ENDMDL
MODEL 4
REMARK VINA RESULT:      -6.7      5.826      8.448
REMARK  4 active torsions:
REMARK  status: ('A' for Active; 'I' for Inactive)
REMARK    1  A    between atoms: C_1  and  C_2 
REMARK    2  A    between atoms: C_5  and  C_8 
REMARK    3  A    between atoms: C_9  and  C_19 
REMARK    4  A    between atoms: N_11  and  C_13 
ROOT
ATOM      1  C   LIG d   1       4.698  -3.108  -6.558  0.00  0.00     0.105 A 
ATOM      2  C   LIG d   1       4.964  -3.979  -5.411  0.00  0.00     0.083 A 
ATOM      3  C   LIG d   1       4.820  -3.207  -4.291  0.00  0.00     0.044 A 
ATOM      4  N   LIG d   1       4.494  -1.960  -4.683  0.00  0.00    -0.238 N 
ATOM      5  N   LIG d   1       4.427  -1.913  -6.079  0.00  0.00    -0.166 NA
ATOM      6  H   LIG d   1       4.948  -3.538  -3.271  0.00  0.00     0.084 H 
ENDROOT
BRANCH   1   7
ATOM      7  C   LIG d   1       4.732  -3.498  -7.988  0.00  0.00     0.003 A 
ATOM      8  C   LIG d   1       5.858  -3.221  -8.762  0.00  0.00    -0.052 A 
ATOM      9  C   LIG d   1       5.883  -3.587 -10.093  0.00  0.00    -0.058 A 
ATOM     10  H   LIG d   1       6.707  -2.721  -8.322  0.00  0.00     0.062 H 
ATOM     11  C   LIG d   1       4.796  -4.228 -10.658  0.00  0.00    -0.050 A 
ATOM     12  H   LIG d   1       6.755  -3.373 -10.694  0.00  0.00     0.062 H 
ATOM     13  C   LIG d   1       3.674  -4.501  -9.896  0.00  0.00    -0.058 A 
ATOM     14  C   LIG d   1       3.639  -4.144  -8.563  0.00  0.00    -0.052 A 
ATOM     15  H   LIG d   1       2.826  -4.998 -10.343  0.00  0.00     0.062 H 
ATOM     16  H   LIG d   1       2.764  -4.361  -7.968  0.00  0.00     0.062 H 
BRANCH  11  17
ATOM     17  C   LIG d   1       4.831  -4.625 -12.111  0.00  0.00    -0.040 C 
ATOM     18  H   LIG d   1       5.853  -4.559 -12.482  0.00  0.00     0.028 H 
ATOM     19  H   LIG d   1       4.471  -5.649 -12.217  0.00  0.00     0.028 H 
ATOM     20  H   LIG d   1       4.192  -3.955 -12.686  0.00  0.00     0.028 H 
ENDBRANCH  11  17
ENDBRANCH   1   7
BRANCH   2  21
ATOM     21  C   LIG d   1       5.317  -5.411  -5.455  0.00  0.00     0.232 A 
ATOM     22  O   LIG d   1       6.566  -5.895  -5.583  0.00  0.00    -0.435 OA
ATOM     23  C   LIG d   1       6.498  -7.246  -5.581  0.00  0.00     0.156 A 
ATOM     24  C   LIG d   1       5.139  -7.573  -5.453  0.00  0.00     0.111 A 
ATOM     25  C   LIG d   1       7.443  -8.254  -5.678  0.00  0.00    -0.016 A 
ATOM     26  N   LIG d   1       4.459  -6.399  -5.379  0.00  0.00    -0.209 NA
ATOM     27  C   LIG d   1       4.749  -8.914  -5.424  0.00  0.00    -0.014 A 
ATOM     28  C   LIG d   1       5.703  -9.904  -5.522  0.00  0.00     0.043 A 
ATOM     29  H   LIG d   1       3.706  -9.175  -5.325  0.00  0.00     0.065 H 
ATOM     30  C   LIG d   1       7.046  -9.575  -5.648  0.00  0.00    -0.040 A 
ATOM     31 CL   LIG d   1       5.223 -11.573  -5.487  0.00  0.00    -0.084 Cl
ATOM     32  H   LIG d   1       7.785 -10.359  -5.725  0.00  0.00     0.063 H 
ATOM     33  H   LIG d   1       8.490  -8.007  -5.776  0.00  0.00     0.066 H 
ENDBRANCH   2  21
BRANCH   4  34
ATOM     34  C   LIG d   1       4.263  -0.877  -3.826  0.00  0.00     0.065 A 
ATOM     35  C   LIG d   1       4.819  -0.867  -2.554  0.00  0.00    -0.036 A 
ATOM     36  C   LIG d   1       4.593   0.206  -1.712  0.00  0.00    -0.060 A 
ATOM     37  H   LIG d   1       5.430  -1.693  -2.224  0.00  0.00     0.064 H 
ATOM     38  C   LIG d   1       3.806   1.262  -2.132  0.00  0.00    -0.062 A 
ATOM     39  H   LIG d   1       5.029   0.217  -0.724  0.00  0.00     0.062 H 
ATOM     40  C   LIG d   1       3.247   1.252  -3.397  0.00  0.00    -0.060 A 
ATOM     41  H   LIG d   1       3.628   2.097  -1.469  0.00  0.00     0.062 H 
ATOM     42  C   LIG d   1       3.473   0.186  -4.245  0.00  0.00    -0.036 A 
ATOM     43  H   LIG d   1       2.634   2.079  -3.721  0.00  0.00     0.062 H 
ATOM     44  H   LIG d   1       3.037   0.179  -5.232  0.00  0.00     0.064 H 
ENDBRANCH   4  34
TORSDOF 4
ENDMDL
MODEL 5
REMARK VINA RESULT:      -6.6      3.597      8.178
REMARK  4 active torsions:
REMARK  status: ('A' for Active; 'I' for Inactive)
REMARK    1  A    between atoms: C_1  and  C_2 
REMARK    2  A    between atoms: C_5  and  C_8 
REMARK    3  A    between atoms: C_9  and  C_19 
REMARK    4  A    between atoms: N_11  and  C_13 
ROOT
ATOM      1  C   LIG d   1       7.971   1.386  -5.686  0.00  0.00     0.105 A 
ATOM      2  C   LIG d   1       8.071   2.100  -4.411  0.00  0.00     0.083 A 
ATOM      3  C   LIG d   1       7.238   1.458  -3.536  0.00  0.00     0.044 A 
ATOM      4  N   LIG d   1       6.659   0.431  -4.189  0.00  0.00    -0.238 N 
ATOM      5  N   LIG d   1       7.116   0.402  -5.511  0.00  0.00    -0.166 NA
ATOM      6  H   LIG d   1       7.071   1.728  -2.504  0.00  0.00     0.084 H 
ENDROOT
BRANCH   1   7
ATOM      7  C   LIG d   1       8.694   1.713  -6.939  0.00  0.00     0.003 A 
ATOM      8  C   LIG d   1      10.066   1.488  -7.034  0.00  0.00    -0.052 A 
ATOM      9  C   LIG d   1      10.734   1.794  -8.202  0.00  0.00    -0.058 A 
ATOM     10  H   LIG d   1      10.606   1.076  -6.194  0.00  0.00     0.062 H 
ATOM     11  C   LIG d   1      10.043   2.322  -9.278  0.00  0.00    -0.050 A 
ATOM     12  H   LIG d   1      11.797   1.620  -8.277  0.00  0.00     0.062 H 
ATOM     13  C   LIG d   1       8.682   2.552  -9.188  0.00  0.00    -0.058 A 
ATOM     14  C   LIG d   1       8.004   2.245  -8.026  0.00  0.00    -0.052 A 
ATOM     15  H   LIG d   1       8.149   2.968 -10.030  0.00  0.00     0.062 H 
ATOM     16  H   LIG d   1       6.940   2.421  -7.958  0.00  0.00     0.062 H 
BRANCH  11  17
ATOM     17  C   LIG d   1      10.778   2.654 -10.552  0.00  0.00    -0.040 C 
ATOM     18  H   LIG d   1      10.592   1.876 -11.292  0.00  0.00     0.028 H 
ATOM     19  H   LIG d   1      10.427   3.612 -10.934  0.00  0.00     0.028 H 
ATOM     20  H   LIG d   1      11.847   2.714 -10.348  0.00  0.00     0.028 H 
ENDBRANCH  11  17
ENDBRANCH   1   7
BRANCH   2  21
ATOM     21  C   LIG d   1       8.908   3.281  -4.125  0.00  0.00     0.232 A 
ATOM     22  O   LIG d   1       9.091   4.319  -4.963  0.00  0.00    -0.435 OA
ATOM     23  C   LIG d   1       9.913   5.207  -4.359  0.00  0.00     0.156 A 
ATOM     24  C   LIG d   1      10.236   4.661  -3.107  0.00  0.00     0.111 A 
ATOM     25  C   LIG d   1      10.439   6.434  -4.732  0.00  0.00    -0.016 A 
ATOM     26  N   LIG d   1       9.585   3.472  -3.020  0.00  0.00    -0.209 NA
ATOM     27  C   LIG d   1      11.085   5.360  -2.245  0.00  0.00    -0.014 A 
ATOM     28  C   LIG d   1      11.598   6.579  -2.633  0.00  0.00     0.043 A 
ATOM     29  H   LIG d   1      11.338   4.947  -1.280  0.00  0.00     0.065 H 
ATOM     30  C   LIG d   1      11.276   7.114  -3.873  0.00  0.00    -0.040 A 
ATOM     31 CL   LIG d   1      12.654   7.450  -1.564  0.00  0.00    -0.084 Cl
ATOM     32  H   LIG d   1      11.685   8.070  -4.166  0.00  0.00     0.063 H 
ATOM     33  H   LIG d   1      10.193   6.858  -5.695  0.00  0.00     0.066 H 
ENDBRANCH   2  21
BRANCH   4  34
ATOM     34  C   LIG d   1       5.739  -0.466  -3.632  0.00  0.00     0.065 A 
ATOM     35  C   LIG d   1       5.086  -0.146  -2.449  0.00  0.00    -0.036 A 
ATOM     36  C   LIG d   1       4.175  -1.031  -1.904  0.00  0.00    -0.060 A 
ATOM     37  H   LIG d   1       5.287   0.793  -1.957  0.00  0.00     0.064 H 
ATOM     38  C   LIG d   1       3.921  -2.237  -2.531  0.00  0.00    -0.062 A 
ATOM     39  H   LIG d   1       3.663  -0.782  -0.987  0.00  0.00     0.062 H 
ATOM     40  C   LIG d   1       4.573  -2.560  -3.707  0.00  0.00    -0.060 A 
ATOM     41  H   LIG d   1       3.211  -2.928  -2.101  0.00  0.00     0.062 H 
ATOM     42  C   LIG d   1       5.481  -1.678  -4.259  0.00  0.00    -0.036 A 
ATOM     43  H   LIG d   1       4.372  -3.502  -4.194  0.00  0.00     0.062 H 
ATOM     44  H   LIG d   1       5.990  -1.930  -5.177  0.00  0.00     0.064 H 
ENDBRANCH   4  34
TORSDOF 4
ENDMDL
MODEL 6
REMARK VINA RESULT:      -6.6      3.922      8.052
REMARK  4 active torsions:
REMARK  status: ('A' for Active; 'I' for Inactive)
REMARK    1  A    between atoms: C_1  and  C_2 
REMARK    2  A    between atoms: C_5  and  C_8 
REMARK    3  A    between atoms: C_9  and  C_19 
REMARK    4  A    between atoms: N_11  and  C_13 
ROOT
ATOM      1  C   LIG d   1       8.946   0.680  -4.811  0.00  0.00     0.105 A 
ATOM      2  C   LIG d   1       8.380   1.837  -4.114  0.00  0.00     0.083 A 
ATOM      3  C   LIG d   1       7.215   1.414  -3.534  0.00  0.00     0.044 A 
ATOM      4  N   LIG d   1       7.051   0.110  -3.833  0.00  0.00    -0.238 N 
ATOM      5  N   LIG d   1       8.119  -0.326  -4.622  0.00  0.00    -0.166 NA
ATOM      6  H   LIG d   1       6.545   2.019  -2.942  0.00  0.00     0.084 H 
ENDROOT
BRANCH   1   7
ATOM      7  C   LIG d   1      10.209   0.649  -5.588  0.00  0.00     0.003 A 
ATOM      8  C   LIG d   1      11.418   0.382  -4.947  0.00  0.00    -0.052 A 
ATOM      9  C   LIG d   1      12.590   0.355  -5.675  0.00  0.00    -0.058 A 
ATOM     10  H   LIG d   1      11.437   0.199  -3.883  0.00  0.00     0.062 H 
ATOM     11  C   LIG d   1      12.567   0.590  -7.037  0.00  0.00    -0.050 A 
ATOM     12  H   LIG d   1      13.527   0.149  -5.179  0.00  0.00     0.062 H 
ATOM     13  C   LIG d   1      11.371   0.860  -7.678  0.00  0.00    -0.058 A 
ATOM     14  C   LIG d   1      10.192   0.885  -6.961  0.00  0.00    -0.052 A 
ATOM     15  H   LIG d   1      11.359   1.047  -8.741  0.00  0.00     0.062 H 
ATOM     16  H   LIG d   1       9.258   1.092  -7.463  0.00  0.00     0.062 H 
BRANCH  11  17
ATOM     17  C   LIG d   1      13.850   0.558  -7.826  0.00  0.00    -0.040 C 
ATOM     18  H   LIG d   1      13.645   0.815  -8.865  0.00  0.00     0.028 H 
ATOM     19  H   LIG d   1      14.553   1.277  -7.406  0.00  0.00     0.028 H 
ATOM     20  H   LIG d   1      14.281  -0.443  -7.778  0.00  0.00     0.028 H 
ENDBRANCH  11  17
ENDBRANCH   1   7
BRANCH   2  21
ATOM     21  C   LIG d   1       8.955   3.194  -4.047  0.00  0.00     0.232 A 
ATOM     22  O   LIG d   1       8.969   4.078  -5.062  0.00  0.00    -0.435 OA
ATOM     23  C   LIG d   1       9.572   5.208  -4.630  0.00  0.00     0.156 A 
ATOM     24  C   LIG d   1       9.940   4.974  -3.295  0.00  0.00     0.111 A 
ATOM     25  C   LIG d   1       9.862   6.427  -5.221  0.00  0.00    -0.016 A 
ATOM     26  N   LIG d   1       9.533   3.714  -2.992  0.00  0.00    -0.209 NA
ATOM     27  C   LIG d   1      10.597   5.974  -2.573  0.00  0.00    -0.014 A 
ATOM     28  C   LIG d   1      10.877   7.180  -3.177  0.00  0.00     0.043 A 
ATOM     29  H   LIG d   1      10.883   5.803  -1.546  0.00  0.00     0.065 H 
ATOM     30  C   LIG d   1      10.511   7.406  -4.498  0.00  0.00    -0.040 A 
ATOM     31 CL   LIG d   1      11.693   8.425  -2.283  0.00  0.00    -0.084 Cl
ATOM     32  H   LIG d   1      10.736   8.355  -4.961  0.00  0.00     0.063 H 
ATOM     33  H   LIG d   1       9.580   6.611  -6.247  0.00  0.00     0.066 H 
ENDBRANCH   2  21
BRANCH   4  34
ATOM     34  C   LIG d   1       5.973  -0.684  -3.421  0.00  0.00     0.065 A 
ATOM     35  C   LIG d   1       5.142  -0.250  -2.397  0.00  0.00    -0.036 A 
ATOM     36  C   LIG d   1       4.076  -1.034  -1.996  0.00  0.00    -0.060 A 
ATOM     37  H   LIG d   1       5.325   0.699  -1.917  0.00  0.00     0.064 H 
ATOM     38  C   LIG d   1       3.844  -2.252  -2.608  0.00  0.00    -0.062 A 
ATOM     39  H   LIG d   1       3.426  -0.696  -1.203  0.00  0.00     0.062 H 
ATOM     40  C   LIG d   1       4.673  -2.688  -3.625  0.00  0.00    -0.060 A 
ATOM     41  H   LIG d   1       3.012  -2.864  -2.289  0.00  0.00     0.062 H 
ATOM     42  C   LIG d   1       5.736  -1.908  -4.034  0.00  0.00    -0.036 A 
ATOM     43  H   LIG d   1       4.488  -3.639  -4.101  0.00  0.00     0.062 H 
ATOM     44  H   LIG d   1       6.383  -2.249  -4.828  0.00  0.00     0.064 H 
ENDBRANCH   4  34
TORSDOF 4
ENDMDL
MODEL 7
REMARK VINA RESULT:      -6.5      3.685      8.384
REMARK  4 active torsions:
REMARK  status: ('A' for Active; 'I' for Inactive)
REMARK    1  A    between atoms: C_1  and  C_2 
REMARK    2  A    between atoms: C_5  and  C_8 
REMARK    3  A    between atoms: C_9  and  C_19 
REMARK    4  A    between atoms: N_11  and  C_13 
ROOT
ATOM      1  C   LIG d   1       3.569  -0.408  -8.313  0.00  0.00     0.105 A 
ATOM      2  C   LIG d   1       4.616   0.162  -9.164  0.00  0.00     0.083 A 
ATOM      3  C   LIG d   1       4.271  -0.128 -10.456  0.00  0.00     0.044 A 
ATOM      4  N   LIG d   1       3.114  -0.819 -10.433  0.00  0.00    -0.238 N 
ATOM      5  N   LIG d   1       2.697  -0.987  -9.109  0.00  0.00    -0.166 NA
ATOM      6  H   LIG d   1       4.828   0.147 -11.339  0.00  0.00     0.084 H 
ENDROOT
BRANCH   1   7
ATOM      7  C   LIG d   1       3.507  -0.348  -6.832  0.00  0.00     0.003 A 
ATOM      8  C   LIG d   1       2.645   0.550  -6.204  0.00  0.00    -0.052 A 
ATOM      9  C   LIG d   1       2.592   0.601  -4.826  0.00  0.00    -0.058 A 
ATOM     10  H   LIG d   1       2.022   1.205  -6.794  0.00  0.00     0.062 H 
ATOM     11  C   LIG d   1       3.390  -0.237  -4.068  0.00  0.00    -0.050 A 
ATOM     12  H   LIG d   1       1.925   1.297  -4.338  0.00  0.00     0.062 H 
ATOM     13  C   LIG d   1       4.250  -1.127  -4.686  0.00  0.00    -0.058 A 
ATOM     14  C   LIG d   1       4.309  -1.190  -6.063  0.00  0.00    -0.052 A 
ATOM     15  H   LIG d   1       4.874  -1.776  -4.089  0.00  0.00     0.062 H 
ATOM     16  H   LIG d   1       4.978  -1.888  -6.545  0.00  0.00     0.062 H 
BRANCH  11  17
ATOM     17  C   LIG d   1       3.326  -0.176  -2.564  0.00  0.00    -0.040 C 
ATOM     18  H   LIG d   1       4.182   0.382  -2.186  0.00  0.00     0.028 H 
ATOM     19  H   LIG d   1       2.405   0.320  -2.259  0.00  0.00     0.028 H 
ATOM     20  H   LIG d   1       3.344  -1.189  -2.159  0.00  0.00     0.028 H 
ENDBRANCH  11  17
ENDBRANCH   1   7
BRANCH   2  21
ATOM     21  C   LIG d   1       5.809   0.906  -8.717  0.00  0.00     0.232 A 
ATOM     22  O   LIG d   1       6.405   0.760  -7.519  0.00  0.00    -0.435 OA
ATOM     23  C   LIG d   1       7.464   1.601  -7.470  0.00  0.00     0.156 A 
ATOM     24  C   LIG d   1       7.486   2.281  -8.698  0.00  0.00     0.111 A 
ATOM     25  C   LIG d   1       8.425   1.877  -6.511  0.00  0.00    -0.016 A 
ATOM     26  N   LIG d   1       6.440   1.810  -9.425  0.00  0.00    -0.209 NA
ATOM     27  C   LIG d   1       8.478   3.234  -8.944  0.00  0.00    -0.014 A 
ATOM     28  C   LIG d   1       9.427   3.495  -7.979  0.00  0.00     0.043 A 
ATOM     29  H   LIG d   1       8.503   3.761  -9.885  0.00  0.00     0.065 H 
ATOM     30  C   LIG d   1       9.400   2.819  -6.766  0.00  0.00    -0.040 A 
ATOM     31 CL   LIG d   1      10.662   4.678  -8.281  0.00  0.00    -0.084 Cl
ATOM     32  H   LIG d   1      10.149   3.033  -6.018  0.00  0.00     0.063 H 
ATOM     33  H   LIG d   1       8.413   1.355  -5.566  0.00  0.00     0.066 H 
ENDBRANCH   2  21
BRANCH   4  34
ATOM     34  C   LIG d   1       2.436  -1.298 -11.561  0.00  0.00     0.065 A 
ATOM     35  C   LIG d   1       3.149  -1.679 -12.690  0.00  0.00    -0.036 A 
ATOM     36  C   LIG d   1       2.478  -2.156 -13.800  0.00  0.00    -0.060 A 
ATOM     37  H   LIG d   1       4.226  -1.606 -12.701  0.00  0.00     0.064 H 
ATOM     38  C   LIG d   1       1.098  -2.245 -13.790  0.00  0.00    -0.062 A 
ATOM     39  H   LIG d   1       3.031  -2.457 -14.677  0.00  0.00     0.062 H 
ATOM     40  C   LIG d   1       0.385  -1.862 -12.668  0.00  0.00    -0.060 A 
ATOM     41  H   LIG d   1       0.576  -2.615 -14.660  0.00  0.00     0.062 H 
ATOM     42  C   LIG d   1       1.051  -1.389 -11.554  0.00  0.00    -0.036 A 
ATOM     43  H   LIG d   1      -0.692  -1.934 -12.663  0.00  0.00     0.062 H 
ATOM     44  H   LIG d   1       0.494  -1.091 -10.678  0.00  0.00     0.064 H 
ENDBRANCH   4  34
TORSDOF 4
ENDMDL
MODEL 8
REMARK VINA RESULT:      -6.5      3.445      7.021
REMARK  4 active torsions:
REMARK  status: ('A' for Active; 'I' for Inactive)
REMARK    1  A    between atoms: C_1  and  C_2 
REMARK    2  A    between atoms: C_5  and  C_8 
REMARK    3  A    between atoms: C_9  and  C_19 
REMARK    4  A    between atoms: N_11  and  C_13 
ROOT
ATOM      1  C   LIG d   1       8.328   2.007  -4.030  0.00  0.00     0.105 A 
ATOM      2  C   LIG d   1       8.745   0.750  -4.655  0.00  0.00     0.083 A 
ATOM      3  C   LIG d   1       7.729  -0.144  -4.451  0.00  0.00     0.044 A 
ATOM      4  N   LIG d   1       6.756   0.482  -3.761  0.00  0.00    -0.238 N 
ATOM      5  N   LIG d   1       7.140   1.802  -3.505  0.00  0.00    -0.166 NA
ATOM      6  H   LIG d   1       7.711  -1.171  -4.785  0.00  0.00     0.084 H 
ENDROOT
BRANCH   1   7
ATOM      7  C   LIG d   1       9.102   3.272  -3.992  0.00  0.00     0.003 A 
ATOM      8  C   LIG d   1       9.044   4.161  -5.064  0.00  0.00    -0.052 A 
ATOM      9  C   LIG d   1       9.766   5.336  -5.023  0.00  0.00    -0.058 A 
ATOM     10  H   LIG d   1       8.435   3.929  -5.926  0.00  0.00     0.062 H 
ATOM     11  C   LIG d   1      10.545   5.633  -3.919  0.00  0.00    -0.050 A 
ATOM     12  H   LIG d   1       9.722   6.025  -5.853  0.00  0.00     0.062 H 
ATOM     13  C   LIG d   1      10.612   4.753  -2.854  0.00  0.00    -0.058 A 
ATOM     14  C   LIG d   1       9.890   3.577  -2.883  0.00  0.00    -0.052 A 
ATOM     15  H   LIG d   1      11.225   4.988  -1.998  0.00  0.00     0.062 H 
ATOM     16  H   LIG d   1       9.938   2.892  -2.049  0.00  0.00     0.062 H 
BRANCH  11  17
ATOM     17  C   LIG d   1      11.332   6.918  -3.881  0.00  0.00    -0.040 C 
ATOM     18  H   LIG d   1      10.957   7.549  -3.075  0.00  0.00     0.028 H 
ATOM     19  H   LIG d   1      12.384   6.695  -3.708  0.00  0.00     0.028 H 
ATOM     20  H   LIG d   1      11.222   7.439  -4.832  0.00  0.00     0.028 H 
ENDBRANCH  11  17
ENDBRANCH   1   7
BRANCH   2  21
ATOM     21  C   LIG d   1      10.012   0.496  -5.368  0.00  0.00     0.232 A 
ATOM     22  O   LIG d   1      11.187   0.213  -4.775  0.00  0.00    -0.435 OA
ATOM     23  C   LIG d   1      12.116   0.041  -5.743  0.00  0.00     0.156 A 
ATOM     24  C   LIG d   1      11.456   0.241  -6.966  0.00  0.00     0.111 A 
ATOM     25  C   LIG d   1      13.468  -0.263  -5.732  0.00  0.00    -0.016 A 
ATOM     26  N   LIG d   1      10.159   0.519  -6.669  0.00  0.00    -0.209 NA
ATOM     27  C   LIG d   1      12.168   0.133  -8.163  0.00  0.00    -0.014 A 
ATOM     28  C   LIG d   1      13.511  -0.170  -8.133  0.00  0.00     0.043 A 
ATOM     29  H   LIG d   1      11.668   0.285  -9.108  0.00  0.00     0.065 H 
ATOM     30  C   LIG d   1      14.159  -0.368  -6.921  0.00  0.00    -0.040 A 
ATOM     31 CL   LIG d   1      14.400  -0.306  -9.619  0.00  0.00    -0.084 Cl
ATOM     32  H   LIG d   1      15.213  -0.605  -6.909  0.00  0.00     0.063 H 
ATOM     33  H   LIG d   1      13.979  -0.419  -4.794  0.00  0.00     0.066 H 
ENDBRANCH   2  21
BRANCH   4  34
ATOM     34  C   LIG d   1       5.548  -0.102  -3.358  0.00  0.00     0.065 A 
ATOM     35  C   LIG d   1       4.454   0.700  -3.060  0.00  0.00    -0.036 A 
ATOM     36  C   LIG d   1       3.262   0.121  -2.667  0.00  0.00    -0.060 A 
ATOM     37  H   LIG d   1       4.532   1.774  -3.139  0.00  0.00     0.064 H 
ATOM     38  C   LIG d   1       3.162  -1.254  -2.561  0.00  0.00    -0.062 A 
ATOM     39  H   LIG d   1       2.410   0.743  -2.440  0.00  0.00     0.062 H 
ATOM     40  C   LIG d   1       4.252  -2.054  -2.852  0.00  0.00    -0.060 A 
ATOM     41  H   LIG d   1       2.230  -1.703  -2.250  0.00  0.00     0.062 H 
ATOM     42  C   LIG d   1       5.444  -1.482  -3.250  0.00  0.00    -0.036 A 
ATOM     43  H   LIG d   1       4.170  -3.128  -2.769  0.00  0.00     0.062 H 
ATOM     44  H   LIG d   1       6.294  -2.108  -3.477  0.00  0.00     0.064 H 
ENDBRANCH   4  34
TORSDOF 4
ENDMDL
MODEL 9
REMARK VINA RESULT:      -6.3      3.339      6.581
REMARK  4 active torsions:
REMARK  status: ('A' for Active; 'I' for Inactive)
REMARK    1  A    between atoms: C_1  and  C_2 
REMARK    2  A    between atoms: C_5  and  C_8 
REMARK    3  A    between atoms: C_9  and  C_19 
REMARK    4  A    between atoms: N_11  and  C_13 
ROOT
ATOM      1  C   LIG d   1       9.756   2.804  -5.961  0.00  0.00     0.105 A 
ATOM      2  C   LIG d   1       8.779   1.741  -6.210  0.00  0.00     0.083 A 
ATOM      3  C   LIG d   1       8.978   1.321  -7.497  0.00  0.00     0.044 A 
ATOM      4  N   LIG d   1       9.985   2.046  -8.021  0.00  0.00    -0.238 N 
ATOM      5  N   LIG d   1      10.451   2.957  -7.067  0.00  0.00    -0.166 NA
ATOM      6  H   LIG d   1       8.424   0.545  -8.004  0.00  0.00     0.084 H 
ENDROOT
BRANCH   1   7
ATOM      7  C   LIG d   1       9.926   3.566  -4.700  0.00  0.00     0.003 A 
ATOM      8  C   LIG d   1      10.555   2.976  -3.605  0.00  0.00    -0.052 A 
ATOM      9  C   LIG d   1      10.711   3.691  -2.435  0.00  0.00    -0.058 A 
ATOM     10  H   LIG d   1      10.919   1.961  -3.672  0.00  0.00     0.062 H 
ATOM     11  C   LIG d   1      10.247   4.991  -2.348  0.00  0.00    -0.050 A 
ATOM     12  H   LIG d   1      11.198   3.235  -1.585  0.00  0.00     0.062 H 
ATOM     13  C   LIG d   1       9.617   5.580  -3.430  0.00  0.00    -0.058 A 
ATOM     14  C   LIG d   1       9.460   4.876  -4.607  0.00  0.00    -0.052 A 
ATOM     15  H   LIG d   1       9.253   6.594  -3.355  0.00  0.00     0.062 H 
ATOM     16  H   LIG d   1       8.973   5.339  -5.452  0.00  0.00     0.062 H 
BRANCH  11  17
ATOM     17  C   LIG d   1      10.421   5.766  -1.067  0.00  0.00    -0.040 C 
ATOM     18  H   LIG d   1       9.593   6.465  -0.950  0.00  0.00     0.028 H 
ATOM     19  H   LIG d   1      10.436   5.076  -0.224  0.00  0.00     0.028 H 
ATOM     20  H   LIG d   1      11.360   6.318  -1.102  0.00  0.00     0.028 H 
ENDBRANCH  11  17
ENDBRANCH   1   7
BRANCH   2  21
ATOM     21  C   LIG d   1       7.777   1.223  -5.259  0.00  0.00     0.232 A 
ATOM     22  O   LIG d   1       7.193   1.944  -4.284  0.00  0.00    -0.435 OA
ATOM     23  C   LIG d   1       6.333   1.138  -3.621  0.00  0.00     0.156 A 
ATOM     24  C   LIG d   1       6.422  -0.123  -4.231  0.00  0.00     0.111 A 
ATOM     25  C   LIG d   1       5.473   1.326  -2.551  0.00  0.00    -0.016 A 
ATOM     26  N   LIG d   1       7.330  -0.008  -5.236  0.00  0.00    -0.209 NA
ATOM     27  C   LIG d   1       5.643  -1.180  -3.754  0.00  0.00    -0.014 A 
ATOM     28  C   LIG d   1       4.793  -0.974  -2.689  0.00  0.00     0.043 A 
ATOM     29  H   LIG d   1       5.705  -2.153  -4.218  0.00  0.00     0.065 H 
ATOM     30  C   LIG d   1       4.708   0.275  -2.090  0.00  0.00    -0.040 A 
ATOM     31 CL   LIG d   1       3.822  -2.285  -2.093  0.00  0.00    -0.084 Cl
ATOM     32  H   LIG d   1       4.039   0.425  -1.255  0.00  0.00     0.063 H 
ATOM     33  H   LIG d   1       5.400   2.296  -2.080  0.00  0.00     0.066 H 
ENDBRANCH   2  21
BRANCH   4  34
ATOM     34  C   LIG d   1      10.486   1.912  -9.323  0.00  0.00     0.065 A 
ATOM     35  C   LIG d   1      11.594   1.111  -9.562  0.00  0.00    -0.036 A 
ATOM     36  C   LIG d   1      12.082   0.977 -10.848  0.00  0.00    -0.060 A 
ATOM     37  H   LIG d   1      12.071   0.590  -8.746  0.00  0.00     0.064 H 
ATOM     38  C   LIG d   1      11.474   1.648 -11.893  0.00  0.00    -0.062 A 
ATOM     39  H   LIG d   1      12.941   0.350 -11.037  0.00  0.00     0.062 H 
ATOM     40  C   LIG d   1      10.373   2.451 -11.656  0.00  0.00    -0.060 A 
ATOM     41  H   LIG d   1      11.860   1.544 -12.897  0.00  0.00     0.062 H 
ATOM     42  C   LIG d   1       9.877   2.584 -10.374  0.00  0.00    -0.036 A 
ATOM     43  H   LIG d   1       9.900   2.972 -12.475  0.00  0.00     0.062 H 
ATOM     44  H   LIG d   1       9.017   3.211 -10.190  0.00  0.00     0.064 H 
ENDBRANCH   4  34
TORSDOF 4
ENDMDL
