MODEL 1
REMARK VINA RESULT:      -5.5      0.000      0.000
REMARK  9 active torsions:
REMARK  status: ('A' for Active; 'I' for Inactive)
REMARK    1  A    between atoms: C_1  and  C_2 
REMARK    2  A    between atoms: C_4  and  C_24 
REMARK    3  A    between atoms: C_6  and  C_21 
REMARK    4  A    between atoms: C_9  and  C_11 
REMARK    5  A    between atoms: C_11  and  C_12 
REMARK       I    between atoms: C_12  and  N_14 
REMARK    6  A    between atoms: N_17  and  C_20 
REMARK    7  A    between atoms: C_21  and  C_22 
REMARK    8  A    between atoms: C_21  and  C_23 
REMARK    9  A    between atoms: C_24  and  O_25 
ROOT
ATOM      1  C   LIG d   1       3.559   1.507  -9.791  0.00  0.00    -0.073 C 
ATOM      2  C   LIG d   1       3.915   1.149 -10.982  0.00  0.00    -0.079 C 
ATOM      3  C   LIG d   1       3.423  -0.091 -11.671  0.00  0.00     0.004 C 
ATOM      4  H   LIG d   1       2.656   0.208 -12.401  0.00  0.00     0.037 H 
ATOM      5  C   LIG d   1       2.813  -1.053 -10.650  0.00  0.00    -0.030 C 
ATOM      6  H   LIG d   1       3.604  -1.492 -10.025  0.00  0.00     0.031 H 
ATOM      7  C   LIG d   1       1.823  -0.271  -9.777  0.00  0.00    -0.042 C 
ATOM      8  C   LIG d   1       2.610   0.728  -8.928  0.00  0.00    -0.012 C 
ATOM      9  H   LIG d   1       1.917   1.440  -8.457  0.00  0.00     0.035 H 
ATOM     10  H   LIG d   1       4.621   1.768 -11.554  0.00  0.00     0.058 H 
ATOM     11  H   LIG d   1       1.110   0.264 -10.422  0.00  0.00     0.027 H 
ATOM     12  H   LIG d   1       1.275  -0.970  -9.127  0.00  0.00     0.027 H 
ENDROOT
BRANCH   8  13
ATOM     13  C   LIG d   1       3.403  -0.029  -7.860  0.00  0.00     0.031 C 
ATOM     14  H   LIG d   1       3.092  -1.084  -7.850  0.00  0.00     0.036 H 
ATOM     15  H   LIG d   1       4.477   0.034  -8.088  0.00  0.00     0.036 H 
BRANCH  13  16
ATOM     16  C   LIG d   1       3.138   0.584  -6.509  0.00  0.00     0.216 C 
ATOM     17  O   LIG d   1       2.398   1.539  -6.411  0.00  0.00    -0.276 OA
ATOM     18  N   LIG d   1       3.725   0.072  -5.410  0.00  0.00    -0.291 N 
ATOM     19  C   LIG d   1       4.627  -1.086  -5.506  0.00  0.00     0.055 C 
ATOM     20  C   LIG d   1       3.480   0.655  -4.081  0.00  0.00     0.055 C 
ATOM     21  C   LIG d   1       4.172  -2.142  -4.492  0.00  0.00    -0.016 C 
ATOM     22  H   LIG d   1       4.583  -1.501  -6.523  0.00  0.00     0.052 H 
ATOM     23  H   LIG d   1       5.656  -0.771  -5.282  0.00  0.00     0.052 H 
ATOM     24  N   LIG d   1       4.085  -1.532  -3.158  0.00  0.00     0.235 N 
ATOM     25  H   LIG d   1       4.898  -2.968  -4.470  0.00  0.00     0.083 H 
ATOM     26  H   LIG d   1       3.184  -2.531  -4.782  0.00  0.00     0.083 H 
ATOM     27  C   LIG d   1       3.072  -0.469  -3.124  0.00  0.00    -0.016 C 
ATOM     28  H   LIG d   1       5.061  -1.072  -2.937  0.00  0.00     0.203 HD
ATOM     29  H   LIG d   1       2.993  -0.069  -2.102  0.00  0.00     0.083 H 
ATOM     30  H   LIG d   1       2.099  -0.879  -3.433  0.00  0.00     0.083 H 
ATOM     31  H   LIG d   1       4.399   1.140  -3.720  0.00  0.00     0.052 H 
ATOM     32  H   LIG d   1       2.675   1.401  -4.151  0.00  0.00     0.052 H 
BRANCH  24  33
ATOM     33  C   LIG d   1       3.821  -2.547  -2.130  0.00  0.00    -0.043 C 
ATOM     34  H   LIG d   1       4.701  -2.649  -1.480  0.00  0.00     0.078 H 
ATOM     35  H   LIG d   1       3.607  -3.511  -2.614  0.00  0.00     0.078 H 
ATOM     36  H   LIG d   1       2.953  -2.240  -1.527  0.00  0.00     0.078 H 
ENDBRANCH  24  33
ENDBRANCH  13  16
ENDBRANCH   8  13
BRANCH   1  37
ATOM     37  C   LIG d   1       4.130   2.787  -9.237  0.00  0.00    -0.043 C 
ATOM     38  H   LIG d   1       5.229   2.740  -9.267  0.00  0.00     0.027 H 
ATOM     39  H   LIG d   1       3.797   2.917  -8.197  0.00  0.00     0.027 H 
ATOM     40  H   LIG d   1       3.781   3.636  -9.843  0.00  0.00     0.027 H 
ENDBRANCH   1  37
BRANCH   5  41
ATOM     41  C   LIG d   1       2.076  -2.179 -11.380  0.00  0.00    -0.043 C 
ATOM     42  H   LIG d   1       2.764  -2.668 -12.086  0.00  0.00     0.030 H 
BRANCH  41  43
ATOM     43  C   LIG d   1       1.576  -3.205 -10.361  0.00  0.00    -0.062 C 
ATOM     44  H   LIG d   1       0.514  -3.017 -10.145  0.00  0.00     0.023 H 
ATOM     45  H   LIG d   1       2.161  -3.116  -9.434  0.00  0.00     0.023 H 
ATOM     46  H   LIG d   1       1.692  -4.218 -10.774  0.00  0.00     0.023 H 
ENDBRANCH  41  43
BRANCH  41  47
ATOM     47  C   LIG d   1       0.887  -1.597 -12.146  0.00  0.00    -0.062 C 
ATOM     48  H   LIG d   1       0.468  -0.749 -11.584  0.00  0.00     0.023 H 
ATOM     49  H   LIG d   1       0.117  -2.371 -12.271  0.00  0.00     0.023 H 
ATOM     50  H   LIG d   1       1.223  -1.250 -13.135  0.00  0.00     0.023 H 
ENDBRANCH  41  47
ENDBRANCH   5  41
BRANCH   3  51
ATOM     51  C   LIG d   1       4.593  -0.777 -12.377  0.00  0.00     0.051 C 
ATOM     52  H   LIG d   1       5.509  -0.650 -11.780  0.00  0.00     0.056 H 
ATOM     53  H   LIG d   1       4.376  -1.849 -12.491  0.00  0.00     0.056 H 
BRANCH  51  54
ATOM     54  O   LIG d   1       4.782  -0.191 -13.667  0.00  0.00    -0.394 OA
ATOM     55  H   LIG d   1       5.058  -0.823 -14.524  0.00  0.00     0.209 HD
ENDBRANCH  51  54
ENDBRANCH   3  51
TORSDOF 9
ENDMDL
MODEL 2
REMARK VINA RESULT:      -5.5      4.123      7.721
REMARK  9 active torsions:
REMARK  status: ('A' for Active; 'I' for Inactive)
REMARK    1  A    between atoms: C_1  and  C_2 
REMARK    2  A    between atoms: C_4  and  C_24 
REMARK    3  A    between atoms: C_6  and  C_21 
REMARK    4  A    between atoms: C_9  and  C_11 
REMARK    5  A    between atoms: C_11  and  C_12 
REMARK       I    between atoms: C_12  and  N_14 
REMARK    6  A    between atoms: N_17  and  C_20 
REMARK    7  A    between atoms: C_21  and  C_22 
REMARK    8  A    between atoms: C_21  and  C_23 
REMARK    9  A    between atoms: C_24  and  O_25 
ROOT
ATOM      1  C   LIG d   1       6.661  -3.040  -4.319  0.00  0.00    -0.073 C 
ATOM      2  C   LIG d   1       7.158  -1.945  -3.841  0.00  0.00    -0.079 C 
ATOM      3  C   LIG d   1       6.333  -0.805  -3.318  0.00  0.00     0.004 C 
ATOM      4  H   LIG d   1       6.355  -0.848  -2.218  0.00  0.00     0.037 H 
ATOM      5  C   LIG d   1       4.889  -0.931  -3.807  0.00  0.00    -0.030 C 
ATOM      6  H   LIG d   1       4.835  -0.716  -4.884  0.00  0.00     0.031 H 
ATOM      7  C   LIG d   1       4.405  -2.360  -3.528  0.00  0.00    -0.042 C 
ATOM      8  C   LIG d   1       5.190  -3.320  -4.424  0.00  0.00    -0.012 C 
ATOM      9  H   LIG d   1       5.018  -4.356  -4.096  0.00  0.00     0.035 H 
ATOM     10  H   LIG d   1       8.248  -1.806  -3.803  0.00  0.00     0.058 H 
ATOM     11  H   LIG d   1       4.579  -2.606  -2.470  0.00  0.00     0.027 H 
ATOM     12  H   LIG d   1       3.330  -2.433  -3.750  0.00  0.00     0.027 H 
ENDROOT
BRANCH   8  13
ATOM     13  C   LIG d   1       4.743  -3.140  -5.876  0.00  0.00     0.031 C 
ATOM     14  H   LIG d   1       3.927  -2.404  -5.920  0.00  0.00     0.036 H 
ATOM     15  H   LIG d   1       5.591  -2.784  -6.479  0.00  0.00     0.036 H 
BRANCH  13  16
ATOM     16  C   LIG d   1       4.258  -4.459  -6.419  0.00  0.00     0.216 C 
ATOM     17  O   LIG d   1       3.841  -5.310  -5.663  0.00  0.00    -0.276 OA
ATOM     18  N   LIG d   1       4.289  -4.694  -7.746  0.00  0.00    -0.291 N 
ATOM     19  C   LIG d   1       4.792  -3.676  -8.681  0.00  0.00     0.055 C 
ATOM     20  C   LIG d   1       3.820  -5.975  -8.297  0.00  0.00     0.055 C 
ATOM     21  C   LIG d   1       3.751  -3.476  -9.788  0.00  0.00    -0.016 C 
ATOM     22  H   LIG d   1       4.952  -2.731  -8.142  0.00  0.00     0.052 H 
ATOM     23  H   LIG d   1       5.742  -4.015  -9.117  0.00  0.00     0.052 H 
ATOM     24  N   LIG d   1       3.431  -4.775 -10.397  0.00  0.00     0.235 N 
ATOM     25  H   LIG d   1       4.156  -2.801 -10.556  0.00  0.00     0.083 H 
ATOM     26  H   LIG d   1       2.837  -3.037  -9.360  0.00  0.00     0.083 H 
ATOM     27  C   LIG d   1       2.818  -5.684  -9.420  0.00  0.00    -0.016 C 
ATOM     28  H   LIG d   1       4.376  -5.228 -10.731  0.00  0.00     0.203 HD
ATOM     29  H   LIG d   1       2.542  -6.626  -9.917  0.00  0.00     0.083 H 
ATOM     30  H   LIG d   1       1.918  -5.216  -8.995  0.00  0.00     0.083 H 
ATOM     31  H   LIG d   1       4.677  -6.537  -8.696  0.00  0.00     0.052 H 
ATOM     32  H   LIG d   1       3.335  -6.561  -7.503  0.00  0.00     0.052 H 
BRANCH  24  33
ATOM     33  C   LIG d   1       2.568  -4.607 -11.574  0.00  0.00    -0.043 C 
ATOM     34  H   LIG d   1       1.691  -4.002 -11.302  0.00  0.00     0.078 H 
ATOM     35  H   LIG d   1       2.238  -5.594 -11.930  0.00  0.00     0.078 H 
ATOM     36  H   LIG d   1       3.132  -4.099 -12.371  0.00  0.00     0.078 H 
ENDBRANCH  24  33
ENDBRANCH  13  16
ENDBRANCH   8  13
BRANCH   1  37
ATOM     37  C   LIG d   1       7.619  -4.100  -4.798  0.00  0.00    -0.043 C 
ATOM     38  H   LIG d   1       8.531  -3.622  -5.185  0.00  0.00     0.027 H 
ATOM     39  H   LIG d   1       7.145  -4.687  -5.598  0.00  0.00     0.027 H 
ATOM     40  H   LIG d   1       7.878  -4.765  -3.961  0.00  0.00     0.027 H 
ENDBRANCH   1  37
BRANCH   5  41
ATOM     41  C   LIG d   1       4.003   0.066  -3.057  0.00  0.00    -0.043 C 
ATOM     42  H   LIG d   1       4.052   1.046  -3.556  0.00  0.00     0.030 H 
BRANCH  41  43
ATOM     43  C   LIG d   1       2.557  -0.435  -3.058  0.00  0.00    -0.062 C 
ATOM     44  H   LIG d   1       2.120  -0.293  -2.059  0.00  0.00     0.023 H 
ATOM     45  H   LIG d   1       2.541  -1.504  -3.317  0.00  0.00     0.023 H 
ATOM     46  H   LIG d   1       1.973   0.131  -3.798  0.00  0.00     0.023 H 
ENDBRANCH  41  43
BRANCH  41  47
ATOM     47  C   LIG d   1       4.496   0.204  -1.616  0.00  0.00    -0.062 C 
ATOM     48  H   LIG d   1       4.803  -0.783  -1.238  0.00  0.00     0.023 H 
ATOM     49  H   LIG d   1       3.686   0.601  -0.987  0.00  0.00     0.023 H 
ATOM     50  H   LIG d   1       5.355   0.890  -1.587  0.00  0.00     0.023 H 
ENDBRANCH  41  47
ENDBRANCH   5  41
BRANCH   3  51
ATOM     51  C   LIG d   1       6.923   0.517  -3.812  0.00  0.00     0.051 C 
ATOM     52  H   LIG d   1       6.420   1.355  -3.307  0.00  0.00     0.056 H 
ATOM     53  H   LIG d   1       7.999   0.546  -3.585  0.00  0.00     0.056 H 
BRANCH  51  54
ATOM     54  O   LIG d   1       6.731   0.627  -5.223  0.00  0.00    -0.394 OA
ATOM     55  H   LIG d   1       7.593   0.562  -5.903  0.00  0.00     0.209 HD
ENDBRANCH  51  54
ENDBRANCH   3  51
TORSDOF 9
ENDMDL
MODEL 3
REMARK VINA RESULT:      -5.4      5.382      7.192
REMARK  9 active torsions:
REMARK  status: ('A' for Active; 'I' for Inactive)
REMARK    1  A    between atoms: C_1  and  C_2 
REMARK    2  A    between atoms: C_4  and  C_24 
REMARK    3  A    between atoms: C_6  and  C_21 
REMARK    4  A    between atoms: C_9  and  C_11 
REMARK    5  A    between atoms: C_11  and  C_12 
REMARK       I    between atoms: C_12  and  N_14 
REMARK    6  A    between atoms: N_17  and  C_20 
REMARK    7  A    between atoms: C_21  and  C_22 
REMARK    8  A    between atoms: C_21  and  C_23 
REMARK    9  A    between atoms: C_24  and  O_25 
ROOT
ATOM      1  C   LIG d   1       4.644  -2.324  -3.528  0.00  0.00    -0.073 C 
ATOM      2  C   LIG d   1       4.360  -3.400  -4.189  0.00  0.00    -0.079 C 
ATOM      3  C   LIG d   1       5.325  -4.112  -5.091  0.00  0.00     0.004 C 
ATOM      4  H   LIG d   1       5.701  -4.997  -4.555  0.00  0.00     0.037 H 
ATOM      5  C   LIG d   1       6.494  -3.191  -5.444  0.00  0.00    -0.030 C 
ATOM      6  H   LIG d   1       6.157  -2.398  -6.127  0.00  0.00     0.031 H 
ATOM      7  C   LIG d   1       7.037  -2.577  -4.148  0.00  0.00    -0.042 C 
ATOM      8  C   LIG d   1       5.976  -1.634  -3.577  0.00  0.00    -0.012 C 
ATOM      9  H   LIG d   1       6.249  -1.349  -2.550  0.00  0.00     0.035 H 
ATOM     10  H   LIG d   1       3.358  -3.846  -4.109  0.00  0.00     0.058 H 
ATOM     11  H   LIG d   1       7.255  -3.378  -3.426  0.00  0.00     0.027 H 
ATOM     12  H   LIG d   1       7.959  -2.018  -4.364  0.00  0.00     0.027 H 
ENDROOT
BRANCH   8  13
ATOM     13  C   LIG d   1       5.870  -0.393  -4.465  0.00  0.00     0.031 C 
ATOM     14  H   LIG d   1       6.320  -0.604  -5.446  0.00  0.00     0.036 H 
ATOM     15  H   LIG d   1       4.812  -0.125  -4.597  0.00  0.00     0.036 H 
BRANCH  13  16
ATOM     16  C   LIG d   1       6.602   0.753  -3.814  0.00  0.00     0.216 C 
ATOM     17  O   LIG d   1       6.192   1.222  -2.774  0.00  0.00    -0.276 OA
ATOM     18  N   LIG d   1       7.710   1.259  -4.389  0.00  0.00    -0.291 N 
ATOM     19  C   LIG d   1       8.225   0.706  -5.652  0.00  0.00     0.055 C 
ATOM     20  C   LIG d   1       8.439   2.377  -3.771  0.00  0.00     0.055 C 
ATOM     21  C   LIG d   1       9.714   0.390  -5.473  0.00  0.00    -0.016 C 
ATOM     22  H   LIG d   1       7.674  -0.213  -5.901  0.00  0.00     0.052 H 
ATOM     23  H   LIG d   1       8.092   1.443  -6.456  0.00  0.00     0.052 H 
ATOM     24  N   LIG d   1      10.412   1.589  -4.990  0.00  0.00     0.235 N 
ATOM     25  H   LIG d   1      10.142   0.080  -6.438  0.00  0.00     0.083 H 
ATOM     26  H   LIG d   1       9.833  -0.423  -4.742  0.00  0.00     0.083 H 
ATOM     27  C   LIG d   1       9.920   1.995  -3.667  0.00  0.00    -0.016 C 
ATOM     28  H   LIG d   1      10.197   2.407  -5.694  0.00  0.00     0.203 HD
ATOM     29  H   LIG d   1      10.497   2.861  -3.310  0.00  0.00     0.083 H 
ATOM     30  H   LIG d   1      10.035   1.161  -2.960  0.00  0.00     0.083 H 
ATOM     31  H   LIG d   1       8.327   3.276  -4.394  0.00  0.00     0.052 H 
ATOM     32  H   LIG d   1       8.031   2.572  -2.768  0.00  0.00     0.052 H 
BRANCH  24  33
ATOM     33  C   LIG d   1      11.866   1.380  -4.970  0.00  0.00    -0.043 C 
ATOM     34  H   LIG d   1      12.085   0.356  -4.634  0.00  0.00     0.078 H 
ATOM     35  H   LIG d   1      12.330   2.101  -4.280  0.00  0.00     0.078 H 
ATOM     36  H   LIG d   1      12.271   1.530  -5.982  0.00  0.00     0.078 H 
ENDBRANCH  24  33
ENDBRANCH  13  16
ENDBRANCH   8  13
BRANCH   1  37
ATOM     37  C   LIG d   1       3.571  -1.728  -2.652  0.00  0.00    -0.043 C 
ATOM     38  H   LIG d   1       3.033  -0.949  -3.212  0.00  0.00     0.027 H 
ATOM     39  H   LIG d   1       4.033  -1.285  -1.759  0.00  0.00     0.027 H 
ATOM     40  H   LIG d   1       2.867  -2.517  -2.349  0.00  0.00     0.027 H 
ENDBRANCH   1  37
BRANCH   5  41
ATOM     41  C   LIG d   1       7.597  -4.000  -6.131  0.00  0.00    -0.043 C 
ATOM     42  H   LIG d   1       7.180  -4.516  -7.008  0.00  0.00     0.030 H 
BRANCH  41  43
ATOM     43  C   LIG d   1       8.718  -3.058  -6.576  0.00  0.00    -0.062 C 
ATOM     44  H   LIG d   1       9.326  -3.553  -7.348  0.00  0.00     0.023 H 
ATOM     45  H   LIG d   1       9.352  -2.809  -5.713  0.00  0.00     0.023 H 
ATOM     46  H   LIG d   1       8.280  -2.137  -6.988  0.00  0.00     0.023 H 
ENDBRANCH  41  43
BRANCH  41  47
ATOM     47  C   LIG d   1       8.157  -5.033  -5.151  0.00  0.00    -0.062 C 
ATOM     48  H   LIG d   1       8.709  -4.517  -4.351  0.00  0.00     0.023 H 
ATOM     49  H   LIG d   1       8.835  -5.714  -5.684  0.00  0.00     0.023 H 
ATOM     50  H   LIG d   1       7.328  -5.608  -4.712  0.00  0.00     0.023 H 
ENDBRANCH  41  47
ENDBRANCH   5  41
BRANCH   3  51
ATOM     51  C   LIG d   1       4.605  -4.533  -6.373  0.00  0.00     0.051 C 
ATOM     52  H   LIG d   1       4.503  -3.663  -7.039  0.00  0.00     0.056 H 
ATOM     53  H   LIG d   1       5.187  -5.316  -6.881  0.00  0.00     0.056 H 
BRANCH  51  54
ATOM     54  O   LIG d   1       3.309  -5.039  -6.048  0.00  0.00    -0.394 OA
ATOM     55  H   LIG d   1       2.414  -4.432  -6.252  0.00  0.00     0.209 HD
ENDBRANCH  51  54
ENDBRANCH   3  51
TORSDOF 9
ENDMDL
MODEL 4
REMARK VINA RESULT:      -5.3      3.050      7.247
REMARK  9 active torsions:
REMARK  status: ('A' for Active; 'I' for Inactive)
REMARK    1  A    between atoms: C_1  and  C_2 
REMARK    2  A    between atoms: C_4  and  C_24 
REMARK    3  A    between atoms: C_6  and  C_21 
REMARK    4  A    between atoms: C_9  and  C_11 
REMARK    5  A    between atoms: C_11  and  C_12 
REMARK       I    between atoms: C_12  and  N_14 
REMARK    6  A    between atoms: N_17  and  C_20 
REMARK    7  A    between atoms: C_21  and  C_22 
REMARK    8  A    between atoms: C_21  and  C_23 
REMARK    9  A    between atoms: C_24  and  O_25 
ROOT
ATOM      1  C   LIG d   1       6.728  -2.625  -4.135  0.00  0.00    -0.073 C 
ATOM      2  C   LIG d   1       6.865  -1.565  -3.406  0.00  0.00    -0.079 C 
ATOM      3  C   LIG d   1       5.778  -0.553  -3.181  0.00  0.00     0.004 C 
ATOM      4  H   LIG d   1       5.356  -0.726  -2.180  0.00  0.00     0.037 H 
ATOM      5  C   LIG d   1       4.681  -0.716  -4.235  0.00  0.00    -0.030 C 
ATOM      6  H   LIG d   1       5.047  -0.376  -5.215  0.00  0.00     0.031 H 
ATOM      7  C   LIG d   1       4.286  -2.196  -4.301  0.00  0.00    -0.042 C 
ATOM      8  C   LIG d   1       5.468  -2.988  -4.864  0.00  0.00    -0.012 C 
ATOM      9  H   LIG d   1       5.292  -4.064  -4.724  0.00  0.00     0.035 H 
ATOM     10  H   LIG d   1       7.822  -1.360  -2.906  0.00  0.00     0.058 H 
ATOM     11  H   LIG d   1       4.041  -2.555  -3.291  0.00  0.00     0.027 H 
ATOM     12  H   LIG d   1       3.409  -2.313  -4.955  0.00  0.00     0.027 H 
ENDROOT
BRANCH   8  13
ATOM     13  C   LIG d   1       5.633  -2.664  -6.351  0.00  0.00     0.031 C 
ATOM     14  H   LIG d   1       5.476  -1.588  -6.512  0.00  0.00     0.036 H 
ATOM     15  H   LIG d   1       6.647  -2.939  -6.676  0.00  0.00     0.036 H 
BRANCH  13  16
ATOM     16  C   LIG d   1       4.620  -3.444  -7.149  0.00  0.00     0.216 C 
ATOM     17  O   LIG d   1       4.080  -4.414  -6.662  0.00  0.00    -0.276 OA
ATOM     18  N   LIG d   1       4.315  -3.064  -8.406  0.00  0.00    -0.291 N 
ATOM     19  C   LIG d   1       4.959  -1.891  -9.017  0.00  0.00     0.055 C 
ATOM     20  C   LIG d   1       3.329  -3.811  -9.203  0.00  0.00     0.055 C 
ATOM     21  C   LIG d   1       3.866  -0.975  -9.581  0.00  0.00    -0.016 C 
ATOM     22  H   LIG d   1       5.541  -1.354  -8.254  0.00  0.00     0.052 H 
ATOM     23  H   LIG d   1       5.627  -2.219  -9.826  0.00  0.00     0.052 H 
ATOM     24  N   LIG d   1       3.000  -1.748 -10.482  0.00  0.00     0.235 N 
ATOM     25  H   LIG d   1       4.331  -0.149 -10.139  0.00  0.00     0.083 H 
ATOM     26  H   LIG d   1       3.265  -0.567  -8.755  0.00  0.00     0.083 H 
ATOM     27  C   LIG d   1       2.302  -2.820  -9.760  0.00  0.00    -0.016 C 
ATOM     28  H   LIG d   1       3.643  -2.218 -11.241  0.00  0.00     0.203 HD
ATOM     29  H   LIG d   1       1.622  -3.344 -10.448  0.00  0.00     0.083 H 
ATOM     30  H   LIG d   1       1.722  -2.388  -8.931  0.00  0.00     0.083 H 
ATOM     31  H   LIG d   1       3.841  -4.325 -10.029  0.00  0.00     0.052 H 
ATOM     32  H   LIG d   1       2.828  -4.553  -8.564  0.00  0.00     0.052 H 
BRANCH  24  33
ATOM     33  C   LIG d   1       2.047  -0.872 -11.176  0.00  0.00    -0.043 C 
ATOM     34  H   LIG d   1       2.050   0.121 -10.704  0.00  0.00     0.078 H 
ATOM     35  H   LIG d   1       1.037  -1.306 -11.112  0.00  0.00     0.078 H 
ATOM     36  H   LIG d   1       2.339  -0.778 -12.232  0.00  0.00     0.078 H 
ENDBRANCH  24  33
ENDBRANCH  13  16
ENDBRANCH   8  13
BRANCH   1  37
ATOM     37  C   LIG d   1       7.909  -3.555  -4.258  0.00  0.00    -0.043 C 
ATOM     38  H   LIG d   1       8.381  -3.419  -5.242  0.00  0.00     0.027 H 
ATOM     39  H   LIG d   1       7.568  -4.595  -4.155  0.00  0.00     0.027 H 
ATOM     40  H   LIG d   1       8.637  -3.327  -3.466  0.00  0.00     0.027 H 
ENDBRANCH   1  37
BRANCH   5  41
ATOM     41  C   LIG d   1       3.463   0.124  -3.844  0.00  0.00    -0.043 C 
ATOM     42  H   LIG d   1       3.800   1.067  -3.388  0.00  0.00     0.030 H 
BRANCH  41  43
ATOM     43  C   LIG d   1       2.631   0.428  -5.091  0.00  0.00    -0.062 C 
ATOM     44  H   LIG d   1       1.660   0.848  -4.790  0.00  0.00     0.023 H 
ATOM     45  H   LIG d   1       2.469  -0.500  -5.658  0.00  0.00     0.023 H 
ATOM     46  H   LIG d   1       3.166   1.154  -5.721  0.00  0.00     0.023 H 
ENDBRANCH  41  43
BRANCH  41  47
ATOM     47  C   LIG d   1       2.611  -0.652  -2.838  0.00  0.00    -0.062 C 
ATOM     48  H   LIG d   1       3.259  -1.058  -2.046  0.00  0.00     0.023 H 
ATOM     49  H   LIG d   1       2.097  -1.477  -3.351  0.00  0.00     0.023 H 
ATOM     50  H   LIG d   1       1.867   0.024  -2.390  0.00  0.00     0.023 H 
ENDBRANCH  41  47
ENDBRANCH   5  41
BRANCH   3  51
ATOM     51  C   LIG d   1       6.368   0.854  -3.275  0.00  0.00     0.051 C 
ATOM     52  H   LIG d   1       5.607   1.592  -2.983  0.00  0.00     0.056 H 
ATOM     53  H   LIG d   1       7.234   0.935  -2.601  0.00  0.00     0.056 H 
BRANCH  51  54
ATOM     54  O   LIG d   1       6.786   1.108  -4.618  0.00  0.00    -0.394 OA
ATOM     55  H   LIG d   1       6.301   0.583  -5.454  0.00  0.00     0.209 HD
ENDBRANCH  51  54
ENDBRANCH   3  51
TORSDOF 9
ENDMDL
MODEL 5
REMARK VINA RESULT:      -4.9      4.605      7.535
REMARK  9 active torsions:
REMARK  status: ('A' for Active; 'I' for Inactive)
REMARK    1  A    between atoms: C_1  and  C_2 
REMARK    2  A    between atoms: C_4  and  C_24 
REMARK    3  A    between atoms: C_6  and  C_21 
REMARK    4  A    between atoms: C_9  and  C_11 
REMARK    5  A    between atoms: C_11  and  C_12 
REMARK       I    between atoms: C_12  and  N_14 
REMARK    6  A    between atoms: N_17  and  C_20 
REMARK    7  A    between atoms: C_21  and  C_22 
REMARK    8  A    between atoms: C_21  and  C_23 
REMARK    9  A    between atoms: C_24  and  O_25 
ROOT
ATOM      1  C   LIG d   1       6.643  -1.879  -4.296  0.00  0.00    -0.073 C 
ATOM      2  C   LIG d   1       5.562  -2.327  -3.744  0.00  0.00    -0.079 C 
ATOM      3  C   LIG d   1       4.191  -1.774  -4.007  0.00  0.00     0.004 C 
ATOM      4  H   LIG d   1       3.673  -2.463  -4.692  0.00  0.00     0.037 H 
ATOM      5  C   LIG d   1       4.296  -0.391  -4.652  0.00  0.00    -0.030 C 
ATOM      6  H   LIG d   1       4.651   0.344  -3.915  0.00  0.00     0.031 H 
ATOM      7  C   LIG d   1       5.278  -0.477  -5.828  0.00  0.00    -0.042 C 
ATOM      8  C   LIG d   1       6.678  -0.739  -5.271  0.00  0.00    -0.012 C 
ATOM      9  H   LIG d   1       7.357  -1.014  -6.091  0.00  0.00     0.035 H 
ATOM     10  H   LIG d   1       5.614  -3.163  -3.031  0.00  0.00     0.058 H 
ATOM     11  H   LIG d   1       4.979  -1.299  -6.495  0.00  0.00     0.027 H 
ATOM     12  H   LIG d   1       5.266   0.471  -6.386  0.00  0.00     0.027 H 
ENDROOT
BRANCH   8  13
ATOM     13  C   LIG d   1       7.185   0.519  -4.561  0.00  0.00     0.031 C 
ATOM     14  H   LIG d   1       6.335   1.059  -4.120  0.00  0.00     0.036 H 
ATOM     15  H   LIG d   1       7.889   0.232  -3.766  0.00  0.00     0.036 H 
BRANCH  13  16
ATOM     16  C   LIG d   1       7.884   1.410  -5.556  0.00  0.00     0.216 C 
ATOM     17  O   LIG d   1       7.484   1.474  -6.698  0.00  0.00    -0.276 OA
ATOM     18  N   LIG d   1       8.955   2.133  -5.176  0.00  0.00    -0.291 N 
ATOM     19  C   LIG d   1       9.458   2.069  -3.795  0.00  0.00     0.055 C 
ATOM     20  C   LIG d   1       9.653   3.009  -6.130  0.00  0.00     0.055 C 
ATOM     21  C   LIG d   1       9.600   3.499  -3.262  0.00  0.00    -0.016 C 
ATOM     22  H   LIG d   1       8.748   1.505  -3.172  0.00  0.00     0.052 H 
ATOM     23  H   LIG d   1      10.436   1.566  -3.783  0.00  0.00     0.052 H 
ATOM     24  N   LIG d   1      10.427   4.285  -4.188  0.00  0.00     0.235 N 
ATOM     25  H   LIG d   1      10.079   3.476  -2.272  0.00  0.00     0.083 H 
ATOM     26  H   LIG d   1       8.605   3.961  -3.177  0.00  0.00     0.083 H 
ATOM     27  C   LIG d   1       9.787   4.401  -5.505  0.00  0.00    -0.016 C 
ATOM     28  H   LIG d   1      11.378   3.748  -4.323  0.00  0.00     0.203 HD
ATOM     29  H   LIG d   1      10.403   5.038  -6.157  0.00  0.00     0.083 H 
ATOM     30  H   LIG d   1       8.789   4.850  -5.391  0.00  0.00     0.083 H 
ATOM     31  H   LIG d   1      10.649   2.596  -6.345  0.00  0.00     0.052 H 
ATOM     32  H   LIG d   1       9.073   3.070  -7.063  0.00  0.00     0.052 H 
BRANCH  24  33
ATOM     33  C   LIG d   1      10.730   5.609  -3.630  0.00  0.00    -0.043 C 
ATOM     34  H   LIG d   1      11.682   5.972  -4.043  0.00  0.00     0.078 H 
ATOM     35  H   LIG d   1      10.809   5.536  -2.535  0.00  0.00     0.078 H 
ATOM     36  H   LIG d   1       9.924   6.310  -3.893  0.00  0.00     0.078 H 
ENDBRANCH  24  33
ENDBRANCH  13  16
ENDBRANCH   8  13
BRANCH   1  37
ATOM     37  C   LIG d   1       7.947  -2.545  -3.940  0.00  0.00    -0.043 C 
ATOM     38  H   LIG d   1       8.023  -2.640  -2.846  0.00  0.00     0.027 H 
ATOM     39  H   LIG d   1       8.783  -1.937  -4.314  0.00  0.00     0.027 H 
ATOM     40  H   LIG d   1       7.985  -3.544  -4.399  0.00  0.00     0.027 H 
ENDBRANCH   1  37
BRANCH   5  41
ATOM     41  C   LIG d   1       2.921   0.045  -5.162  0.00  0.00    -0.043 C 
ATOM     42  H   LIG d   1       2.168  -0.703  -4.871  0.00  0.00     0.030 H 
BRANCH  41  43
ATOM     43  C   LIG d   1       2.557   1.400  -4.553  0.00  0.00    -0.062 C 
ATOM     44  H   LIG d   1       2.023   1.242  -3.604  0.00  0.00     0.023 H 
ATOM     45  H   LIG d   1       1.911   1.954  -5.250  0.00  0.00     0.023 H 
ATOM     46  H   LIG d   1       3.475   1.976  -4.366  0.00  0.00     0.023 H 
ENDBRANCH  41  43
BRANCH  41  47
ATOM     47  C   LIG d   1       2.956   0.163  -6.687  0.00  0.00    -0.062 C 
ATOM     48  H   LIG d   1       3.829   0.763  -6.987  0.00  0.00     0.023 H 
ATOM     49  H   LIG d   1       2.036   0.652  -7.039  0.00  0.00     0.023 H 
ATOM     50  H   LIG d   1       3.033  -0.841  -7.131  0.00  0.00     0.023 H 
ENDBRANCH  41  47
ENDBRANCH   5  41
BRANCH   3  51
ATOM     51  C   LIG d   1       3.428  -1.661  -2.687  0.00  0.00     0.051 C 
ATOM     52  H   LIG d   1       2.619  -0.923  -2.792  0.00  0.00     0.056 H 
ATOM     53  H   LIG d   1       2.998  -2.640  -2.427  0.00  0.00     0.056 H 
BRANCH  51  54
ATOM     54  O   LIG d   1       4.321  -1.245  -1.653  0.00  0.00    -0.394 OA
ATOM     55  H   LIG d   1       4.135  -1.544  -0.610  0.00  0.00     0.209 HD
ENDBRANCH  51  54
ENDBRANCH   3  51
TORSDOF 9
ENDMDL
MODEL 6
REMARK VINA RESULT:      -4.9      3.213      7.313
REMARK  9 active torsions:
REMARK  status: ('A' for Active; 'I' for Inactive)
REMARK    1  A    between atoms: C_1  and  C_2 
REMARK    2  A    between atoms: C_4  and  C_24 
REMARK    3  A    between atoms: C_6  and  C_21 
REMARK    4  A    between atoms: C_9  and  C_11 
REMARK    5  A    between atoms: C_11  and  C_12 
REMARK       I    between atoms: C_12  and  N_14 
REMARK    6  A    between atoms: N_17  and  C_20 
REMARK    7  A    between atoms: C_21  and  C_22 
REMARK    8  A    between atoms: C_21  and  C_23 
REMARK    9  A    between atoms: C_24  and  O_25 
ROOT
ATOM      1  C   LIG d   1       4.890  -1.424  -3.457  0.00  0.00    -0.073 C 
ATOM      2  C   LIG d   1       5.961  -2.034  -3.065  0.00  0.00    -0.079 C 
ATOM      3  C   LIG d   1       7.310  -1.857  -3.700  0.00  0.00     0.004 C 
ATOM      4  H   LIG d   1       7.906  -1.197  -3.051  0.00  0.00     0.037 H 
ATOM      5  C   LIG d   1       7.162  -1.221  -5.083  0.00  0.00    -0.030 C 
ATOM      6  H   LIG d   1       6.723  -1.944  -5.785  0.00  0.00     0.031 H 
ATOM      7  C   LIG d   1       6.257   0.011  -4.956  0.00  0.00    -0.042 C 
ATOM      8  C   LIG d   1       4.844  -0.460  -4.606  0.00  0.00    -0.012 C 
ATOM      9  H   LIG d   1       4.232   0.402  -4.303  0.00  0.00     0.035 H 
ATOM     10  H   LIG d   1       5.917  -2.733  -2.217  0.00  0.00     0.058 H 
ATOM     11  H   LIG d   1       6.641   0.668  -4.162  0.00  0.00     0.027 H 
ATOM     12  H   LIG d   1       6.245   0.558  -5.911  0.00  0.00     0.027 H 
ENDROOT
BRANCH   8  13
ATOM     13  C   LIG d   1       4.225  -1.152  -5.822  0.00  0.00     0.031 C 
ATOM     14  H   LIG d   1       5.020  -1.605  -6.431  0.00  0.00     0.036 H 
ATOM     15  H   LIG d   1       3.530  -1.934  -5.484  0.00  0.00     0.036 H 
BRANCH  13  16
ATOM     16  C   LIG d   1       3.476  -0.138  -6.649  0.00  0.00     0.216 C 
ATOM     17  O   LIG d   1       3.057   0.876  -6.133  0.00  0.00    -0.276 OA
ATOM     18  N   LIG d   1       3.271  -0.359  -7.963  0.00  0.00    -0.291 N 
ATOM     19  C   LIG d   1       3.771  -1.582  -8.610  0.00  0.00     0.055 C 
ATOM     20  C   LIG d   1       2.544   0.618  -8.788  0.00  0.00     0.055 C 
ATOM     21  C   LIG d   1       4.566  -1.183  -9.858  0.00  0.00    -0.016 C 
ATOM     22  H   LIG d   1       4.421  -2.127  -7.910  0.00  0.00     0.052 H 
ATOM     23  H   LIG d   1       2.922  -2.220  -8.894  0.00  0.00     0.052 H 
ATOM     24  N   LIG d   1       3.733  -0.324 -10.712  0.00  0.00     0.235 N 
ATOM     25  H   LIG d   1       4.853  -2.086 -10.415  0.00  0.00     0.083 H 
ATOM     26  H   LIG d   1       5.471  -0.634  -9.559  0.00  0.00     0.083 H 
ATOM     27  C   LIG d   1       3.387   0.930 -10.030  0.00  0.00    -0.016 C 
ATOM     28  H   LIG d   1       2.797  -0.865 -10.916  0.00  0.00     0.203 HD
ATOM     29  H   LIG d   1       2.810   1.572 -10.712  0.00  0.00     0.083 H 
ATOM     30  H   LIG d   1       4.307   1.450  -9.727  0.00  0.00     0.083 H 
ATOM     31  H   LIG d   1       1.576   0.192  -9.090  0.00  0.00     0.052 H 
ATOM     32  H   LIG d   1       2.376   1.537  -8.208  0.00  0.00     0.052 H 
BRANCH  24  33
ATOM     33  C   LIG d   1       4.393  -0.060 -11.997  0.00  0.00    -0.043 C 
ATOM     34  H   LIG d   1       3.643  -0.059 -12.801  0.00  0.00     0.078 H 
ATOM     35  H   LIG d   1       5.140  -0.844 -12.193  0.00  0.00     0.078 H 
ATOM     36  H   LIG d   1       4.892   0.920 -11.958  0.00  0.00     0.078 H 
ENDBRANCH  24  33
ENDBRANCH  13  16
ENDBRANCH   8  13
BRANCH   1  37
ATOM     37  C   LIG d   1       3.609  -1.696  -2.711  0.00  0.00    -0.043 C 
ATOM     38  H   LIG d   1       3.036  -0.762  -2.614  0.00  0.00     0.027 H 
ATOM     39  H   LIG d   1       3.843  -2.087  -1.711  0.00  0.00     0.027 H 
ATOM     40  H   LIG d   1       3.013  -2.437  -3.265  0.00  0.00     0.027 H 
ENDBRANCH   1  37
BRANCH   5  41
ATOM     41  C   LIG d   1       8.537  -0.797  -5.604  0.00  0.00    -0.043 C 
ATOM     42  H   LIG d   1       9.278  -1.570  -5.352  0.00  0.00     0.030 H 
BRANCH  41  43
ATOM     43  C   LIG d   1       8.475  -0.624  -7.123  0.00  0.00    -0.062 C 
ATOM     44  H   LIG d   1       9.410  -0.990  -7.571  0.00  0.00     0.023 H 
ATOM     45  H   LIG d   1       8.344   0.440  -7.366  0.00  0.00     0.023 H 
ATOM     46  H   LIG d   1       7.627  -1.199  -7.523  0.00  0.00     0.023 H 
ENDBRANCH  41  43
BRANCH  41  47
ATOM     47  C   LIG d   1       8.942   0.528  -4.955  0.00  0.00    -0.062 C 
ATOM     48  H   LIG d   1       8.952   1.321  -5.718  0.00  0.00     0.023 H 
ATOM     49  H   LIG d   1       9.944   0.430  -4.515  0.00  0.00     0.023 H 
ATOM     50  H   LIG d   1       8.218   0.786  -4.168  0.00  0.00     0.023 H 
ENDBRANCH  41  47
ENDBRANCH   5  41
BRANCH   3  51
ATOM     51  C   LIG d   1       7.988  -3.221  -3.838  0.00  0.00     0.051 C 
ATOM     52  H   LIG d   1       7.276  -4.014  -3.566  0.00  0.00     0.056 H 
ATOM     53  H   LIG d   1       8.315  -3.364  -4.879  0.00  0.00     0.056 H 
BRANCH  51  54
ATOM     54  O   LIG d   1       9.122  -3.281  -2.972  0.00  0.00    -0.394 OA
ATOM     55  H   LIG d   1       9.601  -2.352  -2.627  0.00  0.00     0.209 HD
ENDBRANCH  51  54
ENDBRANCH   3  51
TORSDOF 9
ENDMDL
MODEL 7
REMARK VINA RESULT:      -4.9      5.054      7.304
REMARK  9 active torsions:
REMARK  status: ('A' for Active; 'I' for Inactive)
REMARK    1  A    between atoms: C_1  and  C_2 
REMARK    2  A    between atoms: C_4  and  C_24 
REMARK    3  A    between atoms: C_6  and  C_21 
REMARK    4  A    between atoms: C_9  and  C_11 
REMARK    5  A    between atoms: C_11  and  C_12 
REMARK       I    between atoms: C_12  and  N_14 
REMARK    6  A    between atoms: N_17  and  C_20 
REMARK    7  A    between atoms: C_21  and  C_22 
REMARK    8  A    between atoms: C_21  and  C_23 
REMARK    9  A    between atoms: C_24  and  O_25 
ROOT
ATOM      1  C   LIG d   1       6.433  -1.018  -6.489  0.00  0.00    -0.073 C 
ATOM      2  C   LIG d   1       5.677  -2.067  -6.527  0.00  0.00    -0.079 C 
ATOM      3  C   LIG d   1       4.691  -2.432  -5.455  0.00  0.00     0.004 C 
ATOM      4  H   LIG d   1       3.686  -2.163  -5.813  0.00  0.00     0.037 H 
ATOM      5  C   LIG d   1       5.002  -1.663  -4.170  0.00  0.00    -0.030 C 
ATOM      6  H   LIG d   1       5.923  -2.052  -3.711  0.00  0.00     0.031 H 
ATOM      7  C   LIG d   1       5.171  -0.180  -4.520  0.00  0.00    -0.042 C 
ATOM      8  C   LIG d   1       6.435  -0.023  -5.366  0.00  0.00    -0.012 C 
ATOM      9  H   LIG d   1       6.464   0.985  -5.805  0.00  0.00     0.035 H 
ATOM     10  H   LIG d   1       5.736  -2.757  -7.381  0.00  0.00     0.058 H 
ATOM     11  H   LIG d   1       4.293   0.165  -5.088  0.00  0.00     0.027 H 
ATOM     12  H   LIG d   1       5.262   0.408  -3.594  0.00  0.00     0.027 H 
ENDROOT
BRANCH   8  13
ATOM     13  C   LIG d   1       7.666  -0.255  -4.486  0.00  0.00     0.031 C 
ATOM     14  H   LIG d   1       7.373  -0.814  -3.586  0.00  0.00     0.036 H 
ATOM     15  H   LIG d   1       8.414  -0.832  -5.049  0.00  0.00     0.036 H 
BRANCH  13  16
ATOM     16  C   LIG d   1       8.253   1.073  -4.083  0.00  0.00     0.216 C 
ATOM     17  O   LIG d   1       7.597   1.852  -3.426  0.00  0.00    -0.276 OA
ATOM     18  N   LIG d   1       9.507   1.396  -4.456  0.00  0.00    -0.291 N 
ATOM     19  C   LIG d   1      10.320   0.467  -5.255  0.00  0.00     0.055 C 
ATOM     20  C   LIG d   1      10.099   2.687  -4.074  0.00  0.00     0.055 C 
ATOM     21  C   LIG d   1      11.678   0.292  -4.565  0.00  0.00    -0.016 C 
ATOM     22  H   LIG d   1       9.807  -0.503  -5.323  0.00  0.00     0.052 H 
ATOM     23  H   LIG d   1      10.463   0.878  -6.264  0.00  0.00     0.052 H 
ATOM     24  N   LIG d   1      12.284   1.611  -4.340  0.00  0.00     0.235 N 
ATOM     25  H   LIG d   1      12.340  -0.311  -5.204  0.00  0.00     0.083 H 
ATOM     26  H   LIG d   1      11.538  -0.217  -3.600  0.00  0.00     0.083 H 
ATOM     27  C   LIG d   1      11.466   2.425  -3.431  0.00  0.00    -0.016 C 
ATOM     28  H   LIG d   1      12.324   2.130  -5.310  0.00  0.00     0.203 HD
ATOM     29  H   LIG d   1      11.971   3.383  -3.240  0.00  0.00     0.083 H 
ATOM     30  H   LIG d   1      11.327   1.888  -2.481  0.00  0.00     0.083 H 
ATOM     31  H   LIG d   1      10.220   3.314  -4.969  0.00  0.00     0.052 H 
ATOM     32  H   LIG d   1       9.439   3.196  -3.357  0.00  0.00     0.052 H 
BRANCH  24  33
ATOM     33  C   LIG d   1      13.658   1.481  -3.839  0.00  0.00    -0.043 C 
ATOM     34  H   LIG d   1      13.869   0.426  -3.614  0.00  0.00     0.078 H 
ATOM     35  H   LIG d   1      13.773   2.082  -2.924  0.00  0.00     0.078 H 
ATOM     36  H   LIG d   1      14.363   1.841  -4.604  0.00  0.00     0.078 H 
ENDBRANCH  24  33
ENDBRANCH  13  16
ENDBRANCH   8  13
BRANCH   1  37
ATOM     37  C   LIG d   1       7.368  -0.778  -7.648  0.00  0.00    -0.043 C 
ATOM     38  H   LIG d   1       7.069   0.140  -8.175  0.00  0.00     0.027 H 
ATOM     39  H   LIG d   1       7.319  -1.631  -8.339  0.00  0.00     0.027 H 
ATOM     40  H   LIG d   1       8.395  -0.669  -7.272  0.00  0.00     0.027 H 
ENDBRANCH   1  37
BRANCH   5  41
ATOM     41  C   LIG d   1       3.847  -1.830  -3.179  0.00  0.00    -0.043 C 
ATOM     42  H   LIG d   1       3.445  -2.851  -3.253  0.00  0.00     0.030 H 
BRANCH  41  43
ATOM     43  C   LIG d   1       4.356  -1.583  -1.757  0.00  0.00    -0.062 C 
ATOM     44  H   LIG d   1       3.668  -0.901  -1.236  0.00  0.00     0.023 H 
ATOM     45  H   LIG d   1       5.358  -1.133  -1.800  0.00  0.00     0.023 H 
ATOM     46  H   LIG d   1       4.406  -2.539  -1.215  0.00  0.00     0.023 H 
ENDBRANCH  41  43
BRANCH  41  47
ATOM     47  C   LIG d   1       2.744  -0.823  -3.509  0.00  0.00    -0.062 C 
ATOM     48  H   LIG d   1       2.593  -0.150  -2.650  0.00  0.00     0.023 H 
ATOM     49  H   LIG d   1       1.809  -1.359  -3.723  0.00  0.00     0.023 H 
ATOM     50  H   LIG d   1       3.039  -0.232  -4.389  0.00  0.00     0.023 H 
ENDBRANCH  41  47
ENDBRANCH   5  41
BRANCH   3  51
ATOM     51  C   LIG d   1       4.774  -3.935  -5.181  0.00  0.00     0.051 C 
ATOM     52  H   LIG d   1       5.733  -4.324  -5.552  0.00  0.00     0.056 H 
ATOM     53  H   LIG d   1       4.701  -4.114  -4.098  0.00  0.00     0.056 H 
BRANCH  51  54
ATOM     54  O   LIG d   1       3.700  -4.601  -5.846  0.00  0.00    -0.394 OA
ATOM     55  H   LIG d   1       3.158  -4.096  -6.660  0.00  0.00     0.209 HD
ENDBRANCH  51  54
ENDBRANCH   3  51
TORSDOF 9
ENDMDL
MODEL 8
REMARK VINA RESULT:      -4.8     11.362     13.472
REMARK  9 active torsions:
REMARK  status: ('A' for Active; 'I' for Inactive)
REMARK    1  A    between atoms: C_1  and  C_2 
REMARK    2  A    between atoms: C_4  and  C_24 
REMARK    3  A    between atoms: C_6  and  C_21 
REMARK    4  A    between atoms: C_9  and  C_11 
REMARK    5  A    between atoms: C_11  and  C_12 
REMARK       I    between atoms: C_12  and  N_14 
REMARK    6  A    between atoms: N_17  and  C_20 
REMARK    7  A    between atoms: C_21  and  C_22 
REMARK    8  A    between atoms: C_21  and  C_23 
REMARK    9  A    between atoms: C_24  and  O_25 
ROOT
ATOM      1  C   LIG d   1      10.163  10.477  -5.619  0.00  0.00    -0.073 C 
ATOM      2  C   LIG d   1       9.736  11.594  -5.123  0.00  0.00    -0.079 C 
ATOM      3  C   LIG d   1       9.822  11.955  -3.668  0.00  0.00     0.004 C 
ATOM      4  H   LIG d   1      10.659  12.658  -3.542  0.00  0.00     0.037 H 
ATOM      5  C   LIG d   1      10.073  10.701  -2.828  0.00  0.00    -0.030 C 
ATOM      6  H   LIG d   1       9.170  10.074  -2.808  0.00  0.00     0.031 H 
ATOM      7  C   LIG d   1      11.242   9.927  -3.449  0.00  0.00    -0.042 C 
ATOM      8  C   LIG d   1      10.797   9.385  -4.809  0.00  0.00    -0.012 C 
ATOM      9  H   LIG d   1      11.670   9.013  -5.363  0.00  0.00     0.035 H 
ATOM     10  H   LIG d   1       9.276  12.347  -5.778  0.00  0.00     0.058 H 
ATOM     11  H   LIG d   1      12.102  10.602  -3.578  0.00  0.00     0.027 H 
ATOM     12  H   LIG d   1      11.525   9.095  -2.787  0.00  0.00     0.027 H 
ENDROOT
BRANCH   8  13
ATOM     13  C   LIG d   1       9.782   8.259  -4.597  0.00  0.00     0.031 C 
ATOM     14  H   LIG d   1       9.141   8.499  -3.736  0.00  0.00     0.036 H 
ATOM     15  H   LIG d   1       9.160   8.152  -5.498  0.00  0.00     0.036 H 
BRANCH  13  16
ATOM     16  C   LIG d   1      10.513   6.967  -4.334  0.00  0.00     0.216 C 
ATOM     17  O   LIG d   1      11.260   6.512  -5.173  0.00  0.00    -0.276 OA
ATOM     18  N   LIG d   1      10.334   6.318  -3.167  0.00  0.00    -0.291 N 
ATOM     19  C   LIG d   1       9.432   6.852  -2.136  0.00  0.00     0.055 C 
ATOM     20  C   LIG d   1      11.038   5.056  -2.890  0.00  0.00     0.055 C 
ATOM     21  C   LIG d   1      10.189   6.899  -0.804  0.00  0.00    -0.016 C 
ATOM     22  H   LIG d   1       9.110   7.865  -2.420  0.00  0.00     0.052 H 
ATOM     23  H   LIG d   1       8.552   6.200  -2.044  0.00  0.00     0.052 H 
ATOM     24  N   LIG d   1      10.747   5.572  -0.513  0.00  0.00     0.235 N 
ATOM     25  H   LIG d   1       9.499   7.191   0.001  0.00  0.00     0.083 H 
ATOM     26  H   LIG d   1      11.006   7.634  -0.870  0.00  0.00     0.083 H 
ATOM     27  C   LIG d   1      11.731   5.174  -1.528  0.00  0.00    -0.016 C 
ATOM     28  H   LIG d   1       9.919   4.847  -0.546  0.00  0.00     0.203 HD
ATOM     29  H   LIG d   1      12.169   4.202  -1.254  0.00  0.00     0.083 H 
ATOM     30  H   LIG d   1      12.527   5.931  -1.586  0.00  0.00     0.083 H 
ATOM     31  H   LIG d   1      10.313   4.229  -2.871  0.00  0.00     0.052 H 
ATOM     32  H   LIG d   1      11.785   4.871  -3.676  0.00  0.00     0.052 H 
BRANCH  24  33
ATOM     33  C   LIG d   1      11.332   5.529   0.834  0.00  0.00    -0.043 C 
ATOM     34  H   LIG d   1      12.309   6.034   0.825  0.00  0.00     0.078 H 
ATOM     35  H   LIG d   1      11.462   4.481   1.144  0.00  0.00     0.078 H 
ATOM     36  H   LIG d   1      10.661   6.040   1.541  0.00  0.00     0.078 H 
ENDBRANCH  24  33
ENDBRANCH  13  16
ENDBRANCH   8  13
BRANCH   1  37
ATOM     37  C   LIG d   1      10.018  10.263  -7.104  0.00  0.00    -0.043 C 
ATOM     38  H   LIG d   1      10.771   9.537  -7.444  0.00  0.00     0.027 H 
ATOM     39  H   LIG d   1      10.166  11.218  -7.628  0.00  0.00     0.027 H 
ATOM     40  H   LIG d   1       9.011   9.877  -7.321  0.00  0.00     0.027 H 
ENDBRANCH   1  37
BRANCH   5  41
ATOM     41  C   LIG d   1      10.428  11.105  -1.395  0.00  0.00    -0.043 C 
ATOM     42  H   LIG d   1      10.278  12.188  -1.272  0.00  0.00     0.030 H 
BRANCH  41  43
ATOM     43  C   LIG d   1       9.527  10.350  -0.415  0.00  0.00    -0.062 C 
ATOM     44  H   LIG d   1       8.628   9.997  -0.943  0.00  0.00     0.023 H 
ATOM     45  H   LIG d   1       9.231  11.023   0.403  0.00  0.00     0.023 H 
ATOM     46  H   LIG d   1      10.073   9.489  -0.004  0.00  0.00     0.023 H 
ENDBRANCH  41  43
BRANCH  41  47
ATOM     47  C   LIG d   1      11.891  10.757  -1.115  0.00  0.00    -0.062 C 
ATOM     48  H   LIG d   1      12.111   9.754  -1.509  0.00  0.00     0.023 H 
ATOM     49  H   LIG d   1      12.071  10.773  -0.030  0.00  0.00     0.023 H 
ATOM     50  H   LIG d   1      12.543  11.495  -1.607  0.00  0.00     0.023 H 
ENDBRANCH  41  47
ENDBRANCH   5  41
BRANCH   3  51
ATOM     51  C   LIG d   1       8.509  12.605  -3.229  0.00  0.00     0.051 C 
ATOM     52  H   LIG d   1       8.659  13.125  -2.271  0.00  0.00     0.056 H 
ATOM     53  H   LIG d   1       8.186  13.329  -3.992  0.00  0.00     0.056 H 
BRANCH  51  54
ATOM     54  O   LIG d   1       7.507  11.599  -3.073  0.00  0.00    -0.394 OA
ATOM     55  H   LIG d   1       7.797  10.543  -2.977  0.00  0.00     0.209 HD
ENDBRANCH  51  54
ENDBRANCH   3  51
TORSDOF 9
ENDMDL
MODEL 9
REMARK VINA RESULT:      -4.8      2.460      3.844
REMARK  9 active torsions:
REMARK  status: ('A' for Active; 'I' for Inactive)
REMARK    1  A    between atoms: C_1  and  C_2 
REMARK    2  A    between atoms: C_4  and  C_24 
REMARK    3  A    between atoms: C_6  and  C_21 
REMARK    4  A    between atoms: C_9  and  C_11 
REMARK    5  A    between atoms: C_11  and  C_12 
REMARK       I    between atoms: C_12  and  N_14 
REMARK    6  A    between atoms: N_17  and  C_20 
REMARK    7  A    between atoms: C_21  and  C_22 
REMARK    8  A    between atoms: C_21  and  C_23 
REMARK    9  A    between atoms: C_24  and  O_25 
ROOT
ATOM      1  C   LIG d   1       4.325  -2.633  -9.548  0.00  0.00    -0.073 C 
ATOM      2  C   LIG d   1       3.350  -2.315 -10.338  0.00  0.00    -0.079 C 
ATOM      3  C   LIG d   1       2.757  -0.939 -10.431  0.00  0.00     0.004 C 
ATOM      4  H   LIG d   1       3.149  -0.462 -11.343  0.00  0.00     0.037 H 
ATOM      5  C   LIG d   1       3.154  -0.111  -9.208  0.00  0.00    -0.030 C 
ATOM      6  H   LIG d   1       2.625  -0.477  -8.316  0.00  0.00     0.031 H 
ATOM      7  C   LIG d   1       4.671  -0.231  -9.011  0.00  0.00    -0.042 C 
ATOM      8  C   LIG d   1       4.994  -1.672  -8.610  0.00  0.00    -0.012 C 
ATOM      9  H   LIG d   1       6.079  -1.837  -8.670  0.00  0.00     0.035 H 
ATOM     10  H   LIG d   1       2.904  -3.076 -10.994  0.00  0.00     0.058 H 
ATOM     11  H   LIG d   1       5.184   0.021  -9.951  0.00  0.00     0.027 H 
ATOM     12  H   LIG d   1       4.994   0.461  -8.220  0.00  0.00     0.027 H 
ENDROOT
BRANCH   8  13
ATOM     13  C   LIG d   1       4.495  -1.925  -7.185  0.00  0.00     0.031 C 
ATOM     14  H   LIG d   1       3.692  -1.214  -6.946  0.00  0.00     0.036 H 
ATOM     15  H   LIG d   1       4.109  -2.952  -7.110  0.00  0.00     0.036 H 
BRANCH  13  16
ATOM     16  C   LIG d   1       5.633  -1.742  -6.215  0.00  0.00     0.216 C 
ATOM     17  O   LIG d   1       6.779  -1.779  -6.610  0.00  0.00    -0.276 OA
ATOM     18  N   LIG d   1       5.378  -1.540  -4.907  0.00  0.00    -0.291 N 
ATOM     19  C   LIG d   1       3.996  -1.493  -4.406  0.00  0.00     0.055 C 
ATOM     20  C   LIG d   1       6.474  -1.359  -3.943  0.00  0.00     0.055 C 
ATOM     21  C   LIG d   1       3.822  -0.216  -3.576  0.00  0.00    -0.016 C 
ATOM     22  H   LIG d   1       3.298  -1.484  -5.257  0.00  0.00     0.052 H 
ATOM     23  H   LIG d   1       3.801  -2.375  -3.781  0.00  0.00     0.052 H 
ATOM     24  N   LIG d   1       4.861  -0.165  -2.538  0.00  0.00     0.235 N 
ATOM     25  H   LIG d   1       2.830  -0.218  -3.102  0.00  0.00     0.083 H 
ATOM     26  H   LIG d   1       3.914   0.665  -4.230  0.00  0.00     0.083 H 
ATOM     27  C   LIG d   1       6.203  -0.088  -3.130  0.00  0.00    -0.016 C 
ATOM     28  H   LIG d   1       4.802  -1.101  -1.961  0.00  0.00     0.203 HD
ATOM     29  H   LIG d   1       6.953   0.003  -2.330  0.00  0.00     0.083 H 
ATOM     30  H   LIG d   1       6.263   0.789  -3.791  0.00  0.00     0.083 H 
ATOM     31  H   LIG d   1       6.519  -2.230  -3.273  0.00  0.00     0.052 H 
ATOM     32  H   LIG d   1       7.427  -1.262  -4.484  0.00  0.00     0.052 H 
BRANCH  24  33
ATOM     33  C   LIG d   1       4.628   0.952  -1.613  0.00  0.00    -0.043 C 
ATOM     34  H   LIG d   1       4.004   1.712  -2.106  0.00  0.00     0.078 H 
ATOM     35  H   LIG d   1       5.592   1.397  -1.326  0.00  0.00     0.078 H 
ATOM     36  H   LIG d   1       4.113   0.581  -0.714  0.00  0.00     0.078 H 
ENDBRANCH  24  33
ENDBRANCH  13  16
ENDBRANCH   8  13
BRANCH   1  37
ATOM     37  C   LIG d   1       4.821  -4.056  -9.575  0.00  0.00    -0.043 C 
ATOM     38  H   LIG d   1       5.242  -4.278 -10.567  0.00  0.00     0.027 H 
ATOM     39  H   LIG d   1       3.985  -4.739  -9.370  0.00  0.00     0.027 H 
ATOM     40  H   LIG d   1       5.599  -4.187  -8.808  0.00  0.00     0.027 H 
ENDBRANCH   1  37
BRANCH   5  41
ATOM     41  C   LIG d   1       2.781   1.356  -9.436  0.00  0.00    -0.043 C 
ATOM     42  H   LIG d   1       1.787   1.412  -9.905  0.00  0.00     0.030 H 
BRANCH  41  43
ATOM     43  C   LIG d   1       2.754   2.090  -8.094  0.00  0.00    -0.062 C 
ATOM     44  H   LIG d   1       3.594   1.745  -7.472  0.00  0.00     0.023 H 
ATOM     45  H   LIG d   1       1.806   1.879  -7.580  0.00  0.00     0.023 H 
ATOM     46  H   LIG d   1       2.845   3.172  -8.267  0.00  0.00     0.023 H 
ENDBRANCH  41  43
BRANCH  41  47
ATOM     47  C   LIG d   1       3.815   2.008 -10.355  0.00  0.00    -0.062 C 
ATOM     48  H   LIG d   1       4.152   1.276 -11.105  0.00  0.00     0.023 H 
ATOM     49  H   LIG d   1       4.675   2.346  -9.760  0.00  0.00     0.023 H 
ATOM     50  H   LIG d   1       3.360   2.870 -10.865  0.00  0.00     0.023 H 
ENDBRANCH  41  47
ENDBRANCH   5  41
BRANCH   3  51
ATOM     51  C   LIG d   1       1.234  -1.047 -10.498  0.00  0.00     0.051 C 
ATOM     52  H   LIG d   1       0.785  -0.410  -9.721  0.00  0.00     0.056 H 
ATOM     53  H   LIG d   1       0.886  -0.717 -11.488  0.00  0.00     0.056 H 
BRANCH  51  54
ATOM     54  O   LIG d   1       0.842  -2.405 -10.286  0.00  0.00    -0.394 OA
ATOM     55  H   LIG d   1       0.254  -2.935 -11.050  0.00  0.00     0.209 HD
ENDBRANCH  51  54
ENDBRANCH   3  51
TORSDOF 9
ENDMDL
