MODEL 1
REMARK VINA RESULT:      -6.5      0.000      0.000
REMARK  12 active torsions:
REMARK  status: ('A' for Active; 'I' for Inactive)
REMARK    1  A    between atoms: C_1  and  C_2 
REMARK    2  A    between atoms: C_2  and  C_35 
REMARK    3  A    between atoms: C_3  and  C_4 
REMARK       I    between atoms: C_4  and  N_6 
REMARK    4  A    between atoms: N_6  and  C_7 
REMARK    5  A    between atoms: C_10  and  C_20 
REMARK       I    between atoms: N_12  and  C_14 
REMARK    6  A    between atoms: C_14  and  C_16 
REMARK    7  A    between atoms: C_17  and  C_18 
REMARK    8  A    between atoms: C_17  and  C_19 
REMARK       I    between atoms: C_20  and  N_22 
REMARK    9  A    between atoms: N_22  and  C_23 
REMARK   10  A    between atoms: C_23  and  C_25 
REMARK   11  A    between atoms: C_23  and  C_32 
REMARK   12  A    between atoms: C_25  and  C_26 
REMARK       I    between atoms: C_32  and  N_34 
ROOT
ATOM      1  C   LIG d   1       5.561  -5.722  -5.885  0.00  0.00     0.041 C 
ATOM      2  H   LIG d   1       6.625  -5.872  -5.697  0.00  0.00     0.051 H 
ATOM      3  C   LIG d   1       5.323  -5.258  -7.347  0.00  0.00    -0.006 C 
ATOM      4  C   LIG d   1       5.587  -3.735  -7.236  0.00  0.00     0.104 C 
ATOM      5  H   LIG d   1       6.657  -3.532  -7.278  0.00  0.00     0.060 H 
ATOM      6  N   LIG d   1       5.040  -3.352  -5.922  0.00  0.00    -0.285 N 
ATOM      7  C   LIG d   1       5.021  -4.540  -5.054  0.00  0.00     0.034 C 
ATOM      8  C   LIG d   1       4.625  -2.118  -5.573  0.00  0.00     0.240 C 
ATOM      9  O   LIG d   1       4.687  -1.206  -6.376  0.00  0.00    -0.271 OA
ATOM     10  H   LIG d   1       4.297  -5.456  -7.657  0.00  0.00     0.031 H 
ATOM     11  H   LIG d   1       6.033  -5.729  -8.027  0.00  0.00     0.031 H 
ATOM     12  H   LIG d   1       4.000  -4.748  -4.733  0.00  0.00     0.048 H 
ATOM     13  H   LIG d   1       5.658  -4.375  -4.185  0.00  0.00     0.048 H 
ENDROOT
BRANCH   4  14
ATOM     14  C   LIG d   1       4.870  -2.998  -8.338  0.00  0.00     0.234 C 
ATOM     15  O   LIG d   1       5.492  -2.282  -9.094  0.00  0.00    -0.274 OA
ATOM     16  N   LIG d   1       3.537  -3.135  -8.484  0.00  0.00    -0.302 N 
ATOM     17  H   LIG d   1       3.040  -3.708  -7.880  0.00  0.00     0.149 HD
BRANCH  16  18
ATOM     18  C   LIG d   1       2.840  -2.420  -9.556  0.00  0.00     0.103 C 
ATOM     19  H   LIG d   1       3.570  -2.016 -10.257  0.00  0.00     0.060 H 
BRANCH  18  20
ATOM     20  C   LIG d   1       2.021  -1.275  -8.956  0.00  0.00    -0.001 C 
ATOM     21  H   LIG d   1       1.015  -1.291  -9.374  0.00  0.00     0.034 H 
ATOM     22  H   LIG d   1       1.967  -1.395  -7.875  0.00  0.00     0.034 H 
BRANCH  20  23
ATOM     23  C   LIG d   1       2.680   0.040  -9.285  0.00  0.00    -0.045 A 
ATOM     24  C   LIG d   1       2.686   1.062  -8.355  0.00  0.00    -0.059 A 
ATOM     25  C   LIG d   1       3.291   2.268  -8.657  0.00  0.00    -0.061 A 
ATOM     26  H   LIG d   1       2.218   0.919  -7.393  0.00  0.00     0.062 H 
ATOM     27  C   LIG d   1       3.890   2.451  -9.889  0.00  0.00    -0.062 A 
ATOM     28  H   LIG d   1       3.295   3.068  -7.931  0.00  0.00     0.062 H 
ATOM     29  C   LIG d   1       3.886   1.428 -10.819  0.00  0.00    -0.061 A 
ATOM     30  H   LIG d   1       4.362   3.393 -10.126  0.00  0.00     0.062 H 
ATOM     31  C   LIG d   1       3.284   0.221 -10.515  0.00  0.00    -0.059 A 
ATOM     32  H   LIG d   1       4.353   1.571 -11.782  0.00  0.00     0.062 H 
ATOM     33  H   LIG d   1       3.283  -0.580 -11.241  0.00  0.00     0.062 H 
ENDBRANCH  20  23
ENDBRANCH  18  20
BRANCH  18  34
ATOM     34  C   LIG d   1       1.921  -3.369 -10.280  0.00  0.00     0.231 C 
ATOM     35  O   LIG d   1       2.383  -4.296 -10.914  0.00  0.00    -0.274 OA
ATOM     36  N   LIG d   1       0.587  -3.190 -10.224  0.00  0.00    -0.328 N 
ATOM     37  H   LIG d   1       0.217  -2.450  -9.718  0.00  0.00     0.145 HD
ATOM     38  H   LIG d   1      -0.005  -3.800 -10.694  0.00  0.00     0.145 HD
ENDBRANCH  18  34
ENDBRANCH  16  18
ENDBRANCH   4  14
BRANCH   1  39
ATOM     39  N   LIG d   1       4.805  -6.944  -5.600  0.00  0.00    -0.307 N 
ATOM     40  C   LIG d   1       5.439  -8.030  -5.113  0.00  0.00     0.237 C 
ATOM     41  O   LIG d   1       6.637  -7.994  -4.909  0.00  0.00    -0.271 OA
ATOM     42  H   LIG d   1       3.850  -6.972  -5.763  0.00  0.00     0.149 HD
BRANCH  40  43
ATOM     43  C   LIG d   1       4.680  -9.256  -4.826  0.00  0.00    -0.001 C 
ATOM     44  C   LIG d   1       4.569 -10.203  -5.754  0.00  0.00    -0.071 C 
ATOM     45  H   LIG d   1       4.211  -9.388  -3.861  0.00  0.00     0.067 H 
BRANCH  44  46
ATOM     46  C   LIG d   1       5.075  -9.951  -7.151  0.00  0.00    -0.044 C 
ATOM     47  H   LIG d   1       4.228  -9.847  -7.831  0.00  0.00     0.027 H 
ATOM     48  H   LIG d   1       5.666  -9.036  -7.164  0.00  0.00     0.027 H 
ATOM     49  H   LIG d   1       5.695 -10.788  -7.470  0.00  0.00     0.027 H 
ENDBRANCH  44  46
BRANCH  44  50
ATOM     50  C   LIG d   1       3.936 -11.526  -5.409  0.00  0.00    -0.044 C 
ATOM     51  H   LIG d   1       2.854 -11.406  -5.344  0.00  0.00     0.027 H 
ATOM     52  H   LIG d   1       4.175 -12.255  -6.184  0.00  0.00     0.027 H 
ATOM     53  H   LIG d   1       4.321 -11.874  -4.451  0.00  0.00     0.027 H 
ENDBRANCH  44  50
ENDBRANCH  40  43
ENDBRANCH   1  39
BRANCH   8  54
ATOM     54  C   LIG d   1       4.098  -1.874  -4.222  0.00  0.00    -0.001 C 
ATOM     55  C   LIG d   1       4.912  -1.458  -3.256  0.00  0.00    -0.071 C 
ATOM     56  H   LIG d   1       3.050  -2.033  -4.013  0.00  0.00     0.067 H 
BRANCH  55  57
ATOM     57  C   LIG d   1       6.398  -1.395  -3.498  0.00  0.00    -0.044 C 
ATOM     58  H   LIG d   1       6.788  -2.404  -3.628  0.00  0.00     0.027 H 
ATOM     59  H   LIG d   1       6.594  -0.810  -4.397  0.00  0.00     0.027 H 
ATOM     60  H   LIG d   1       6.886  -0.923  -2.645  0.00  0.00     0.027 H 
ENDBRANCH  55  57
BRANCH  55  61
ATOM     61  C   LIG d   1       4.349  -1.048  -1.920  0.00  0.00    -0.044 C 
ATOM     62  H   LIG d   1       4.763  -1.687  -1.140  0.00  0.00     0.027 H 
ATOM     63  H   LIG d   1       4.612  -0.010  -1.717  0.00  0.00     0.027 H 
ATOM     64  H   LIG d   1       3.264  -1.152  -1.935  0.00  0.00     0.027 H 
ENDBRANCH  55  61
ENDBRANCH   8  54
TORSDOF 12
ENDMDL
MODEL 2
REMARK VINA RESULT:      -6.4      2.367      4.950
REMARK  12 active torsions:
REMARK  status: ('A' for Active; 'I' for Inactive)
REMARK    1  A    between atoms: C_1  and  C_2 
REMARK    2  A    between atoms: C_2  and  C_35 
REMARK    3  A    between atoms: C_3  and  C_4 
REMARK       I    between atoms: C_4  and  N_6 
REMARK    4  A    between atoms: N_6  and  C_7 
REMARK    5  A    between atoms: C_10  and  C_20 
REMARK       I    between atoms: N_12  and  C_14 
REMARK    6  A    between atoms: C_14  and  C_16 
REMARK    7  A    between atoms: C_17  and  C_18 
REMARK    8  A    between atoms: C_17  and  C_19 
REMARK       I    between atoms: C_20  and  N_22 
REMARK    9  A    between atoms: N_22  and  C_23 
REMARK   10  A    between atoms: C_23  and  C_25 
REMARK   11  A    between atoms: C_23  and  C_32 
REMARK   12  A    between atoms: C_25  and  C_26 
REMARK       I    between atoms: C_32  and  N_34 
ROOT
ATOM      1  C   LIG d   1       4.690  -6.638  -6.295  0.00  0.00     0.041 C 
ATOM      2  H   LIG d   1       3.812  -7.116  -6.730  0.00  0.00     0.051 H 
ATOM      3  C   LIG d   1       4.312  -5.278  -5.650  0.00  0.00    -0.006 C 
ATOM      4  C   LIG d   1       4.326  -4.336  -6.880  0.00  0.00     0.104 C 
ATOM      5  H   LIG d   1       3.385  -4.411  -7.425  0.00  0.00     0.060 H 
ATOM      6  N   LIG d   1       5.444  -4.817  -7.711  0.00  0.00    -0.285 N 
ATOM      7  C   LIG d   1       5.692  -6.232  -7.396  0.00  0.00     0.034 C 
ATOM      8  C   LIG d   1       6.128  -4.080  -8.610  0.00  0.00     0.240 C 
ATOM      9  O   LIG d   1       5.834  -2.914  -8.789  0.00  0.00    -0.271 OA
ATOM     10  H   LIG d   1       5.057  -4.974  -4.916  0.00  0.00     0.031 H 
ATOM     11  H   LIG d   1       3.319  -5.321  -5.201  0.00  0.00     0.031 H 
ATOM     12  H   LIG d   1       6.712  -6.358  -7.034  0.00  0.00     0.048 H 
ATOM     13  H   LIG d   1       5.535  -6.843  -8.285  0.00  0.00     0.048 H 
ENDROOT
BRANCH   4  14
ATOM     14  C   LIG d   1       4.567  -2.913  -6.446  0.00  0.00     0.234 C 
ATOM     15  O   LIG d   1       5.493  -2.653  -5.706  0.00  0.00    -0.274 OA
ATOM     16  N   LIG d   1       3.756  -1.929  -6.880  0.00  0.00    -0.302 N 
ATOM     17  H   LIG d   1       3.016  -2.137  -7.472  0.00  0.00     0.149 HD
BRANCH  16  18
ATOM     18  C   LIG d   1       3.991  -0.546  -6.460  0.00  0.00     0.103 C 
ATOM     19  H   LIG d   1       4.949  -0.482  -5.943  0.00  0.00     0.060 H 
BRANCH  18  20
ATOM     20  C   LIG d   1       2.871  -0.102  -5.516  0.00  0.00    -0.001 C 
ATOM     21  H   LIG d   1       2.492   0.869  -5.834  0.00  0.00     0.034 H 
ATOM     22  H   LIG d   1       2.064  -0.833  -5.541  0.00  0.00     0.034 H 
BRANCH  20  23
ATOM     23  C   LIG d   1       3.411   0.005  -4.112  0.00  0.00    -0.045 A 
ATOM     24  C   LIG d   1       3.675  -1.139  -3.384  0.00  0.00    -0.059 A 
ATOM     25  C   LIG d   1       4.170  -1.040  -2.097  0.00  0.00    -0.061 A 
ATOM     26  H   LIG d   1       3.495  -2.110  -3.820  0.00  0.00     0.062 H 
ATOM     27  C   LIG d   1       4.400   0.203  -1.539  0.00  0.00    -0.062 A 
ATOM     28  H   LIG d   1       4.376  -1.934  -1.527  0.00  0.00     0.062 H 
ATOM     29  C   LIG d   1       4.137   1.348  -2.268  0.00  0.00    -0.061 A 
ATOM     30  H   LIG d   1       4.786   0.281  -0.534  0.00  0.00     0.062 H 
ATOM     31  C   LIG d   1       3.646   1.249  -3.557  0.00  0.00    -0.059 A 
ATOM     32  H   LIG d   1       4.316   2.320  -1.832  0.00  0.00     0.062 H 
ATOM     33  H   LIG d   1       3.444   2.143  -4.128  0.00  0.00     0.062 H 
ENDBRANCH  20  23
ENDBRANCH  18  20
BRANCH  18  34
ATOM     34  C   LIG d   1       4.012   0.352  -7.670  0.00  0.00     0.231 C 
ATOM     35  O   LIG d   1       3.417   1.409  -7.652  0.00  0.00    -0.274 OA
ATOM     36  N   LIG d   1       4.692  -0.019  -8.773  0.00  0.00    -0.328 N 
ATOM     37  H   LIG d   1       5.169  -0.864  -8.788  0.00  0.00     0.145 HD
ATOM     38  H   LIG d   1       4.702   0.557  -9.553  0.00  0.00     0.145 HD
ENDBRANCH  18  34
ENDBRANCH  16  18
ENDBRANCH   4  14
BRANCH   1  39
ATOM     39  N   LIG d   1       5.328  -7.518  -5.314  0.00  0.00    -0.307 N 
ATOM     40  C   LIG d   1       5.069  -8.841  -5.327  0.00  0.00     0.237 C 
ATOM     41  O   LIG d   1       4.308  -9.304  -6.154  0.00  0.00    -0.271 OA
ATOM     42  H   LIG d   1       5.935  -7.149  -4.654  0.00  0.00     0.149 HD
BRANCH  40  43
ATOM     43  C   LIG d   1       5.710  -9.725  -4.341  0.00  0.00    -0.001 C 
ATOM     44  C   LIG d   1       4.982 -10.291  -3.382  0.00  0.00    -0.071 C 
ATOM     45  H   LIG d   1       6.772  -9.914  -4.396  0.00  0.00     0.067 H 
BRANCH  44  46
ATOM     46  C   LIG d   1       3.538  -9.899  -3.202  0.00  0.00    -0.044 C 
ATOM     47  H   LIG d   1       2.898 -10.741  -3.469  0.00  0.00     0.027 H 
ATOM     48  H   LIG d   1       3.363  -9.624  -2.163  0.00  0.00     0.027 H 
ATOM     49  H   LIG d   1       3.309  -9.051  -3.847  0.00  0.00     0.027 H 
ENDBRANCH  44  46
BRANCH  44  50
ATOM     50  C   LIG d   1       5.602 -11.323  -2.476  0.00  0.00    -0.044 C 
ATOM     51  H   LIG d   1       6.286 -10.834  -1.782  0.00  0.00     0.027 H 
ATOM     52  H   LIG d   1       4.817 -11.830  -1.915  0.00  0.00     0.027 H 
ATOM     53  H   LIG d   1       6.149 -12.051  -3.075  0.00  0.00     0.027 H 
ENDBRANCH  44  50
ENDBRANCH  40  43
ENDBRANCH   1  39
BRANCH   8  54
ATOM     54  C   LIG d   1       7.227  -4.689  -9.375  0.00  0.00    -0.001 C 
ATOM     55  C   LIG d   1       8.475  -4.612  -8.920  0.00  0.00    -0.071 C 
ATOM     56  H   LIG d   1       7.022  -5.197 -10.305  0.00  0.00     0.067 H 
BRANCH  55  57
ATOM     57  C   LIG d   1       8.787  -3.765  -7.714  0.00  0.00    -0.044 C 
ATOM     58  H   LIG d   1       8.088  -2.930  -7.666  0.00  0.00     0.027 H 
ATOM     59  H   LIG d   1       8.693  -4.369  -6.812  0.00  0.00     0.027 H 
ATOM     60  H   LIG d   1       9.805  -3.383  -7.792  0.00  0.00     0.027 H 
ENDBRANCH  55  57
BRANCH  55  61
ATOM     61  C   LIG d   1       9.576  -5.375  -9.610  0.00  0.00    -0.044 C 
ATOM     62  H   LIG d   1       9.533  -6.423  -9.314  0.00  0.00     0.027 H 
ATOM     63  H   LIG d   1       9.451  -5.297 -10.690  0.00  0.00     0.027 H 
ATOM     64  H   LIG d   1      10.542  -4.957  -9.325  0.00  0.00     0.027 H 
ENDBRANCH  55  61
ENDBRANCH   8  54
TORSDOF 12
ENDMDL
MODEL 3
REMARK VINA RESULT:      -6.4      2.327      3.385
REMARK  12 active torsions:
REMARK  status: ('A' for Active; 'I' for Inactive)
REMARK    1  A    between atoms: C_1  and  C_2 
REMARK    2  A    between atoms: C_2  and  C_35 
REMARK    3  A    between atoms: C_3  and  C_4 
REMARK       I    between atoms: C_4  and  N_6 
REMARK    4  A    between atoms: N_6  and  C_7 
REMARK    5  A    between atoms: C_10  and  C_20 
REMARK       I    between atoms: N_12  and  C_14 
REMARK    6  A    between atoms: C_14  and  C_16 
REMARK    7  A    between atoms: C_17  and  C_18 
REMARK    8  A    between atoms: C_17  and  C_19 
REMARK       I    between atoms: C_20  and  N_22 
REMARK    9  A    between atoms: N_22  and  C_23 
REMARK   10  A    between atoms: C_23  and  C_25 
REMARK   11  A    between atoms: C_23  and  C_32 
REMARK   12  A    between atoms: C_25  and  C_26 
REMARK       I    between atoms: C_32  and  N_34 
ROOT
ATOM      1  C   LIG d   1       5.774  -3.890  -5.867  0.00  0.00     0.041 C 
ATOM      2  H   LIG d   1       6.864  -3.868  -5.875  0.00  0.00     0.051 H 
ATOM      3  C   LIG d   1       5.207  -3.464  -7.247  0.00  0.00    -0.006 C 
ATOM      4  C   LIG d   1       5.245  -1.919  -7.136  0.00  0.00     0.104 C 
ATOM      5  H   LIG d   1       6.244  -1.547  -7.360  0.00  0.00     0.060 H 
ATOM      6  N   LIG d   1       4.890  -1.633  -5.734  0.00  0.00    -0.285 N 
ATOM      7  C   LIG d   1       5.214  -2.812  -4.916  0.00  0.00     0.034 C 
ATOM      8  C   LIG d   1       4.356  -0.482  -5.277  0.00  0.00     0.240 C 
ATOM      9  O   LIG d   1       4.129   0.430  -6.048  0.00  0.00    -0.271 OA
ATOM     10  H   LIG d   1       4.187  -3.822  -7.378  0.00  0.00     0.031 H 
ATOM     11  H   LIG d   1       5.848  -3.813  -8.058  0.00  0.00     0.031 H 
ATOM     12  H   LIG d   1       4.313  -3.182  -4.425  0.00  0.00     0.048 H 
ATOM     13  H   LIG d   1       5.963  -2.551  -4.168  0.00  0.00     0.048 H 
ENDROOT
BRANCH   4  14
ATOM     14  C   LIG d   1       4.235  -1.302  -8.069  0.00  0.00     0.234 C 
ATOM     15  O   LIG d   1       3.143  -1.814  -8.206  0.00  0.00    -0.274 OA
ATOM     16  N   LIG d   1       4.543  -0.182  -8.751  0.00  0.00    -0.302 N 
ATOM     17  H   LIG d   1       5.415   0.228  -8.641  0.00  0.00     0.149 HD
BRANCH  16  18
ATOM     18  C   LIG d   1       3.561   0.418  -9.657  0.00  0.00     0.103 C 
ATOM     19  H   LIG d   1       2.618  -0.124  -9.581  0.00  0.00     0.060 H 
BRANCH  18  20
ATOM     20  C   LIG d   1       4.079   0.341 -11.095  0.00  0.00    -0.001 C 
ATOM     21  H   LIG d   1       4.085   1.338 -11.533  0.00  0.00     0.034 H 
ATOM     22  H   LIG d   1       5.092  -0.062 -11.094  0.00  0.00     0.034 H 
BRANCH  20  23
ATOM     23  C   LIG d   1       3.180  -0.558 -11.905  0.00  0.00    -0.045 A 
ATOM     24  C   LIG d   1       3.613  -1.057 -13.119  0.00  0.00    -0.059 A 
ATOM     25  C   LIG d   1       2.788  -1.881 -13.861  0.00  0.00    -0.061 A 
ATOM     26  H   LIG d   1       4.595  -0.802 -13.487  0.00  0.00     0.062 H 
ATOM     27  C   LIG d   1       1.531  -2.207 -13.389  0.00  0.00    -0.062 A 
ATOM     28  H   LIG d   1       3.127  -2.270 -14.810  0.00  0.00     0.062 H 
ATOM     29  C   LIG d   1       1.098  -1.710 -12.174  0.00  0.00    -0.061 A 
ATOM     30  H   LIG d   1       0.886  -2.850 -13.968  0.00  0.00     0.062 H 
ATOM     31  C   LIG d   1       1.925  -0.888 -11.430  0.00  0.00    -0.059 A 
ATOM     32  H   LIG d   1       0.115  -1.963 -11.805  0.00  0.00     0.062 H 
ATOM     33  H   LIG d   1       1.588  -0.502 -10.478  0.00  0.00     0.062 H 
ENDBRANCH  20  23
ENDBRANCH  18  20
BRANCH  18  34
ATOM     34  C   LIG d   1       3.343   1.861  -9.279  0.00  0.00     0.231 C 
ATOM     35  O   LIG d   1       3.545   2.738 -10.093  0.00  0.00    -0.274 OA
ATOM     36  N   LIG d   1       2.924   2.177  -8.038  0.00  0.00    -0.328 N 
ATOM     37  H   LIG d   1       2.762   1.476  -7.388  0.00  0.00     0.145 HD
ATOM     38  H   LIG d   1       2.787   3.106  -7.794  0.00  0.00     0.145 HD
ENDBRANCH  18  34
ENDBRANCH  16  18
ENDBRANCH   4  14
BRANCH   1  39
ATOM     39  N   LIG d   1       5.283  -5.217  -5.492  0.00  0.00    -0.307 N 
ATOM     40  C   LIG d   1       6.059  -6.303  -5.688  0.00  0.00     0.237 C 
ATOM     41  O   LIG d   1       7.166  -6.179  -6.175  0.00  0.00    -0.271 OA
ATOM     42  H   LIG d   1       4.400  -5.316  -5.104  0.00  0.00     0.149 HD
BRANCH  40  43
ATOM     43  C   LIG d   1       5.566  -7.636  -5.311  0.00  0.00    -0.001 C 
ATOM     44  C   LIG d   1       4.905  -8.376  -6.198  0.00  0.00    -0.071 C 
ATOM     45  H   LIG d   1       5.739  -8.014  -4.314  0.00  0.00     0.067 H 
BRANCH  44  46
ATOM     46  C   LIG d   1       4.516  -7.788  -7.529  0.00  0.00    -0.044 C 
ATOM     47  H   LIG d   1       3.896  -8.502  -8.074  0.00  0.00     0.027 H 
ATOM     48  H   LIG d   1       3.956  -6.867  -7.370  0.00  0.00     0.027 H 
ATOM     49  H   LIG d   1       5.413  -7.572  -8.108  0.00  0.00     0.027 H 
ENDBRANCH  44  46
BRANCH  44  50
ATOM     50  C   LIG d   1       4.545  -9.802  -5.869  0.00  0.00    -0.044 C 
ATOM     51  H   LIG d   1       3.831  -9.817  -5.045  0.00  0.00     0.027 H 
ATOM     52  H   LIG d   1       4.099 -10.274  -6.745  0.00  0.00     0.027 H 
ATOM     53  H   LIG d   1       5.444 -10.346  -5.582  0.00  0.00     0.027 H 
ENDBRANCH  44  50
ENDBRANCH  40  43
ENDBRANCH   1  39
BRANCH   8  54
ATOM     54  C   LIG d   1       4.049  -0.331  -3.847  0.00  0.00    -0.001 C 
ATOM     55  C   LIG d   1       4.902   0.304  -3.048  0.00  0.00    -0.071 C 
ATOM     56  H   LIG d   1       3.132  -0.736  -3.445  0.00  0.00     0.067 H 
BRANCH  55  57
ATOM     57  C   LIG d   1       6.252   0.723  -3.568  0.00  0.00    -0.044 C 
ATOM     58  H   LIG d   1       6.572   1.632  -3.059  0.00  0.00     0.027 H 
ATOM     59  H   LIG d   1       6.975  -0.072  -3.381  0.00  0.00     0.027 H 
ATOM     60  H   LIG d   1       6.187   0.910  -4.640  0.00  0.00     0.027 H 
ENDBRANCH  55  57
BRANCH  55  61
ATOM     61  C   LIG d   1       4.516   0.607  -1.623  0.00  0.00    -0.044 C 
ATOM     62  H   LIG d   1       5.280   0.218  -0.950  0.00  0.00     0.027 H 
ATOM     63  H   LIG d   1       4.431   1.685  -1.491  0.00  0.00     0.027 H 
ATOM     64  H   LIG d   1       3.559   0.136  -1.397  0.00  0.00     0.027 H 
ENDBRANCH  55  61
ENDBRANCH   8  54
TORSDOF 12
ENDMDL
MODEL 4
REMARK VINA RESULT:      -6.3      3.018      3.341
REMARK  12 active torsions:
REMARK  status: ('A' for Active; 'I' for Inactive)
REMARK    1  A    between atoms: C_1  and  C_2 
REMARK    2  A    between atoms: C_2  and  C_35 
REMARK    3  A    between atoms: C_3  and  C_4 
REMARK       I    between atoms: C_4  and  N_6 
REMARK    4  A    between atoms: N_6  and  C_7 
REMARK    5  A    between atoms: C_10  and  C_20 
REMARK       I    between atoms: N_12  and  C_14 
REMARK    6  A    between atoms: C_14  and  C_16 
REMARK    7  A    between atoms: C_17  and  C_18 
REMARK    8  A    between atoms: C_17  and  C_19 
REMARK       I    between atoms: C_20  and  N_22 
REMARK    9  A    between atoms: N_22  and  C_23 
REMARK   10  A    between atoms: C_23  and  C_25 
REMARK   11  A    between atoms: C_23  and  C_32 
REMARK   12  A    between atoms: C_25  and  C_26 
REMARK       I    between atoms: C_32  and  N_34 
ROOT
ATOM      1  C   LIG d   1       8.246  -3.363  -4.895  0.00  0.00     0.041 C 
ATOM      2  H   LIG d   1       9.235  -2.941  -4.715  0.00  0.00     0.051 H 
ATOM      3  C   LIG d   1       7.890  -3.304  -6.405  0.00  0.00    -0.006 C 
ATOM      4  C   LIG d   1       7.369  -1.851  -6.545  0.00  0.00     0.104 C 
ATOM      5  H   LIG d   1       8.204  -1.158  -6.648  0.00  0.00     0.060 H 
ATOM      6  N   LIG d   1       6.635  -1.592  -5.293  0.00  0.00    -0.285 N 
ATOM      7  C   LIG d   1       7.152  -2.488  -4.248  0.00  0.00     0.034 C 
ATOM      8  C   LIG d   1       5.651  -0.683  -5.134  0.00  0.00     0.240 C 
ATOM      9  O   LIG d   1       5.303   0.007  -6.073  0.00  0.00    -0.271 OA
ATOM     10  H   LIG d   1       7.111  -4.024  -6.651  0.00  0.00     0.031 H 
ATOM     11  H   LIG d   1       8.775  -3.462  -7.021  0.00  0.00     0.031 H 
ATOM     12  H   LIG d   1       6.348  -3.118  -3.869  0.00  0.00     0.048 H 
ATOM     13  H   LIG d   1       7.579  -1.901  -3.434  0.00  0.00     0.048 H 
ENDROOT
BRANCH   4  14
ATOM     14  C   LIG d   1       6.445  -1.739  -7.729  0.00  0.00     0.234 C 
ATOM     15  O   LIG d   1       6.718  -0.989  -8.643  0.00  0.00    -0.274 OA
ATOM     16  N   LIG d   1       5.314  -2.471  -7.774  0.00  0.00    -0.302 N 
ATOM     17  H   LIG d   1       5.096  -3.071  -7.044  0.00  0.00     0.149 HD
BRANCH  16  18
ATOM     18  C   LIG d   1       4.416  -2.363  -8.926  0.00  0.00     0.103 C 
ATOM     19  H   LIG d   1       4.926  -1.841  -9.736  0.00  0.00     0.060 H 
BRANCH  18  20
ATOM     20  C   LIG d   1       3.163  -1.582  -8.524  0.00  0.00    -0.001 C 
ATOM     21  H   LIG d   1       2.287  -2.043  -8.979  0.00  0.00     0.034 H 
ATOM     22  H   LIG d   1       3.059  -1.596  -7.440  0.00  0.00     0.034 H 
BRANCH  20  23
ATOM     23  C   LIG d   1       3.285  -0.157  -9.000  0.00  0.00    -0.045 A 
ATOM     24  C   LIG d   1       2.877   0.882  -8.185  0.00  0.00    -0.059 A 
ATOM     25  C   LIG d   1       2.989   2.188  -8.622  0.00  0.00    -0.061 A 
ATOM     26  H   LIG d   1       2.469   0.672  -7.208  0.00  0.00     0.062 H 
ATOM     27  C   LIG d   1       3.511   2.455  -9.873  0.00  0.00    -0.062 A 
ATOM     28  H   LIG d   1       2.669   3.000  -7.986  0.00  0.00     0.062 H 
ATOM     29  C   LIG d   1       3.922   1.417 -10.689  0.00  0.00    -0.061 A 
ATOM     30  H   LIG d   1       3.599   3.476 -10.216  0.00  0.00     0.062 H 
ATOM     31  C   LIG d   1       3.812   0.110 -10.249  0.00  0.00    -0.059 A 
ATOM     32  H   LIG d   1       4.328   1.626 -11.667  0.00  0.00     0.062 H 
ATOM     33  H   LIG d   1       4.136  -0.701 -10.884  0.00  0.00     0.062 H 
ENDBRANCH  20  23
ENDBRANCH  18  20
BRANCH  18  34
ATOM     34  C   LIG d   1       4.021  -3.742  -9.388  0.00  0.00     0.231 C 
ATOM     35  O   LIG d   1       4.801  -4.412 -10.033  0.00  0.00    -0.274 OA
ATOM     36  N   LIG d   1       2.803  -4.232  -9.085  0.00  0.00    -0.328 N 
ATOM     37  H   LIG d   1       2.180  -3.697  -8.569  0.00  0.00     0.145 HD
ATOM     38  H   LIG d   1       2.548  -5.118  -9.386  0.00  0.00     0.145 HD
ENDBRANCH  18  34
ENDBRANCH  16  18
ENDBRANCH   4  14
BRANCH   1  39
ATOM     39  N   LIG d   1       8.169  -4.738  -4.399  0.00  0.00    -0.307 N 
ATOM     40  C   LIG d   1       9.291  -5.479  -4.290  0.00  0.00     0.237 C 
ATOM     41  O   LIG d   1      10.366  -5.004  -4.604  0.00  0.00    -0.271 OA
ATOM     42  H   LIG d   1       7.313  -5.117  -4.149  0.00  0.00     0.149 HD
BRANCH  40  43
ATOM     43  C   LIG d   1       9.215  -6.860  -3.791  0.00  0.00    -0.001 C 
ATOM     44  C   LIG d   1       9.363  -7.107  -2.492  0.00  0.00    -0.071 C 
ATOM     45  H   LIG d   1       9.040  -7.674  -4.479  0.00  0.00     0.067 H 
BRANCH  44  46
ATOM     46  C   LIG d   1       9.774  -5.999  -1.556  0.00  0.00    -0.044 C 
ATOM     47  H   LIG d   1      10.586  -5.427  -2.006  0.00  0.00     0.027 H 
ATOM     48  H   LIG d   1       8.924  -5.342  -1.376  0.00  0.00     0.027 H 
ATOM     49  H   LIG d   1      10.111  -6.426  -0.612  0.00  0.00     0.027 H 
ENDBRANCH  44  46
BRANCH  44  50
ATOM     50  C   LIG d   1       9.122  -8.494  -1.957  0.00  0.00    -0.044 C 
ATOM     51  H   LIG d   1       9.025  -9.193  -2.788  0.00  0.00     0.027 H 
ATOM     52  H   LIG d   1       9.961  -8.791  -1.328  0.00  0.00     0.027 H 
ATOM     53  H   LIG d   1       8.206  -8.501  -1.367  0.00  0.00     0.027 H 
ENDBRANCH  44  50
ENDBRANCH  40  43
ENDBRANCH   1  39
BRANCH   8  54
ATOM     54  C   LIG d   1       5.000  -0.528  -3.824  0.00  0.00    -0.001 C 
ATOM     55  C   LIG d   1       5.381   0.448  -3.004  0.00  0.00    -0.071 C 
ATOM     56  H   LIG d   1       4.212  -1.205  -3.528  0.00  0.00     0.067 H 
BRANCH  55  57
ATOM     57  C   LIG d   1       6.586   1.287  -3.341  0.00  0.00    -0.044 C 
ATOM     58  H   LIG d   1       6.265   2.297  -3.595  0.00  0.00     0.027 H 
ATOM     59  H   LIG d   1       7.255   1.323  -2.481  0.00  0.00     0.027 H 
ATOM     60  H   LIG d   1       7.109   0.848  -4.191  0.00  0.00     0.027 H 
ENDBRANCH  55  57
BRANCH  55  61
ATOM     61  C   LIG d   1       4.607   0.714  -1.739  0.00  0.00    -0.044 C 
ATOM     62  H   LIG d   1       4.870   1.699  -1.353  0.00  0.00     0.027 H 
ATOM     63  H   LIG d   1       3.539   0.680  -1.952  0.00  0.00     0.027 H 
ATOM     64  H   LIG d   1       4.854  -0.044  -0.995  0.00  0.00     0.027 H 
ENDBRANCH  55  61
ENDBRANCH   8  54
TORSDOF 12
ENDMDL
MODEL 5
REMARK VINA RESULT:      -6.2      4.679      8.489
REMARK  12 active torsions:
REMARK  status: ('A' for Active; 'I' for Inactive)
REMARK    1  A    between atoms: C_1  and  C_2 
REMARK    2  A    between atoms: C_2  and  C_35 
REMARK    3  A    between atoms: C_3  and  C_4 
REMARK       I    between atoms: C_4  and  N_6 
REMARK    4  A    between atoms: N_6  and  C_7 
REMARK    5  A    between atoms: C_10  and  C_20 
REMARK       I    between atoms: N_12  and  C_14 
REMARK    6  A    between atoms: C_14  and  C_16 
REMARK    7  A    between atoms: C_17  and  C_18 
REMARK    8  A    between atoms: C_17  and  C_19 
REMARK       I    between atoms: C_20  and  N_22 
REMARK    9  A    between atoms: N_22  and  C_23 
REMARK   10  A    between atoms: C_23  and  C_25 
REMARK   11  A    between atoms: C_23  and  C_32 
REMARK   12  A    between atoms: C_25  and  C_26 
REMARK       I    between atoms: C_32  and  N_34 
ROOT
ATOM      1  C   LIG d   1       8.622   1.341  -4.012  0.00  0.00     0.041 C 
ATOM      2  H   LIG d   1       9.353   0.775  -3.433  0.00  0.00     0.051 H 
ATOM      3  C   LIG d   1       7.189   0.802  -3.762  0.00  0.00    -0.006 C 
ATOM      4  C   LIG d   1       7.134  -0.398  -4.740  0.00  0.00     0.104 C 
ATOM      5  H   LIG d   1       7.609  -1.272  -4.295  0.00  0.00     0.060 H 
ATOM      6  N   LIG d   1       7.884   0.048  -5.928  0.00  0.00    -0.285 N 
ATOM      7  C   LIG d   1       8.822   1.106  -5.523  0.00  0.00     0.034 C 
ATOM      8  C   LIG d   1       7.734  -0.433  -7.179  0.00  0.00     0.240 C 
ATOM      9  O   LIG d   1       6.923  -1.312  -7.398  0.00  0.00    -0.271 OA
ATOM     10  H   LIG d   1       6.440   1.550  -4.019  0.00  0.00     0.031 H 
ATOM     11  H   LIG d   1       7.070   0.471  -2.730  0.00  0.00     0.031 H 
ATOM     12  H   LIG d   1       8.608   2.022  -6.073  0.00  0.00     0.048 H 
ATOM     13  H   LIG d   1       9.847   0.788  -5.717  0.00  0.00     0.048 H 
ENDROOT
BRANCH   4  14
ATOM     14  C   LIG d   1       5.706  -0.709  -5.108  0.00  0.00     0.234 C 
ATOM     15  O   LIG d   1       5.202  -1.755  -4.755  0.00  0.00    -0.274 OA
ATOM     16  N   LIG d   1       4.987   0.175  -5.828  0.00  0.00    -0.302 N 
ATOM     17  H   LIG d   1       5.390   1.011  -6.110  0.00  0.00     0.149 HD
BRANCH  16  18
ATOM     18  C   LIG d   1       3.599  -0.126  -6.184  0.00  0.00     0.103 C 
ATOM     19  H   LIG d   1       3.479  -1.204  -6.297  0.00  0.00     0.060 H 
BRANCH  18  20
ATOM     20  C   LIG d   1       3.249   0.566  -7.503  0.00  0.00    -0.001 C 
ATOM     21  H   LIG d   1       2.446   1.284  -7.334  0.00  0.00     0.034 H 
ATOM     22  H   LIG d   1       4.127   1.086  -7.884  0.00  0.00     0.034 H 
BRANCH  20  23
ATOM     23  C   LIG d   1       2.798  -0.464  -8.507  0.00  0.00    -0.045 A 
ATOM     24  C   LIG d   1       1.862  -0.130  -9.468  0.00  0.00    -0.059 A 
ATOM     25  C   LIG d   1       1.450  -1.075 -10.389  0.00  0.00    -0.061 A 
ATOM     26  H   LIG d   1       1.453   0.869  -9.499  0.00  0.00     0.062 H 
ATOM     27  C   LIG d   1       1.973  -2.353 -10.348  0.00  0.00    -0.062 A 
ATOM     28  H   LIG d   1       0.718  -0.814 -11.139  0.00  0.00     0.062 H 
ATOM     29  C   LIG d   1       2.911  -2.688  -9.388  0.00  0.00    -0.061 A 
ATOM     30  H   LIG d   1       1.651  -3.092 -11.067  0.00  0.00     0.062 H 
ATOM     31  C   LIG d   1       3.326  -1.741  -8.470  0.00  0.00    -0.059 A 
ATOM     32  H   LIG d   1       3.319  -3.686  -9.356  0.00  0.00     0.062 H 
ATOM     33  H   LIG d   1       4.061  -2.000  -7.722  0.00  0.00     0.062 H 
ENDBRANCH  20  23
ENDBRANCH  18  20
BRANCH  18  34
ATOM     34  C   LIG d   1       2.681   0.371  -5.097  0.00  0.00     0.231 C 
ATOM     35  O   LIG d   1       2.462   1.559  -4.985  0.00  0.00    -0.274 OA
ATOM     36  N   LIG d   1       2.105  -0.504  -4.249  0.00  0.00    -0.328 N 
ATOM     37  H   LIG d   1       2.280  -1.454  -4.339  0.00  0.00     0.145 HD
ATOM     38  H   LIG d   1       1.517  -0.183  -3.547  0.00  0.00     0.145 HD
ENDBRANCH  18  34
ENDBRANCH  16  18
ENDBRANCH   4  14
BRANCH   1  39
ATOM     39  N   LIG d   1       8.701   2.768  -3.695  0.00  0.00    -0.307 N 
ATOM     40  C   LIG d   1       9.822   3.275  -3.143  0.00  0.00     0.237 C 
ATOM     41  O   LIG d   1      10.768   2.548  -2.909  0.00  0.00    -0.271 OA
ATOM     42  H   LIG d   1       7.948   3.349  -3.880  0.00  0.00     0.149 HD
BRANCH  40  43
ATOM     43  C   LIG d   1       9.902   4.709  -2.825  0.00  0.00    -0.001 C 
ATOM     44  C   LIG d   1       9.978   5.605  -3.806  0.00  0.00    -0.071 C 
ATOM     45  H   LIG d   1       9.900   5.035  -1.795  0.00  0.00     0.067 H 
BRANCH  44  46
ATOM     46  C   LIG d   1      10.151   5.147  -5.232  0.00  0.00    -0.044 C 
ATOM     47  H   LIG d   1      11.213   5.133  -5.482  0.00  0.00     0.027 H 
ATOM     48  H   LIG d   1       9.738   4.146  -5.345  0.00  0.00     0.027 H 
ATOM     49  H   LIG d   1       9.631   5.834  -5.899  0.00  0.00     0.027 H 
ENDBRANCH  44  46
BRANCH  44  50
ATOM     50  C   LIG d   1       9.893   7.076  -3.492  0.00  0.00    -0.044 C 
ATOM     51  H   LIG d   1      10.872   7.535  -3.629  0.00  0.00     0.027 H 
ATOM     52  H   LIG d   1       9.173   7.548  -4.160  0.00  0.00     0.027 H 
ATOM     53  H   LIG d   1       9.571   7.208  -2.459  0.00  0.00     0.027 H 
ENDBRANCH  44  50
ENDBRANCH  40  43
ENDBRANCH   1  39
BRANCH   8  54
ATOM     54  C   LIG d   1       8.552   0.106  -8.276  0.00  0.00    -0.001 C 
ATOM     55  C   LIG d   1       8.114   1.144  -8.983  0.00  0.00    -0.071 C 
ATOM     56  H   LIG d   1       9.507  -0.341  -8.509  0.00  0.00     0.067 H 
BRANCH  55  57
ATOM     57  C   LIG d   1       6.716   1.664  -8.772  0.00  0.00    -0.044 C 
ATOM     58  H   LIG d   1       6.739   2.492  -8.066  0.00  0.00     0.027 H 
ATOM     59  H   LIG d   1       6.309   2.008  -9.723  0.00  0.00     0.027 H 
ATOM     60  H   LIG d   1       6.087   0.865  -8.376  0.00  0.00     0.027 H 
ENDBRANCH  55  57
BRANCH  55  61
ATOM     61  C   LIG d   1       9.018   1.802  -9.994  0.00  0.00    -0.044 C 
ATOM     62  H   LIG d   1       8.635   2.796 -10.230  0.00  0.00     0.027 H 
ATOM     63  H   LIG d   1      10.023   1.889  -9.581  0.00  0.00     0.027 H 
ATOM     64  H   LIG d   1       9.048   1.200 -10.902  0.00  0.00     0.027 H 
ENDBRANCH  55  61
ENDBRANCH   8  54
TORSDOF 12
ENDMDL
MODEL 6
REMARK VINA RESULT:      -6.2      4.710      9.336
REMARK  12 active torsions:
REMARK  status: ('A' for Active; 'I' for Inactive)
REMARK    1  A    between atoms: C_1  and  C_2 
REMARK    2  A    between atoms: C_2  and  C_35 
REMARK    3  A    between atoms: C_3  and  C_4 
REMARK       I    between atoms: C_4  and  N_6 
REMARK    4  A    between atoms: N_6  and  C_7 
REMARK    5  A    between atoms: C_10  and  C_20 
REMARK       I    between atoms: N_12  and  C_14 
REMARK    6  A    between atoms: C_14  and  C_16 
REMARK    7  A    between atoms: C_17  and  C_18 
REMARK    8  A    between atoms: C_17  and  C_19 
REMARK       I    between atoms: C_20  and  N_22 
REMARK    9  A    between atoms: N_22  and  C_23 
REMARK   10  A    between atoms: C_23  and  C_25 
REMARK   11  A    between atoms: C_23  and  C_32 
REMARK   12  A    between atoms: C_25  and  C_26 
REMARK       I    between atoms: C_32  and  N_34 
ROOT
ATOM      1  C   LIG d   1       9.064   2.095  -4.699  0.00  0.00     0.041 C 
ATOM      2  H   LIG d   1       9.898   1.862  -4.036  0.00  0.00     0.051 H 
ATOM      3  C   LIG d   1       7.779   1.353  -4.245  0.00  0.00    -0.006 C 
ATOM      4  C   LIG d   1       7.985  -0.044  -4.884  0.00  0.00     0.104 C 
ATOM      5  H   LIG d   1       8.635  -0.655  -4.258  0.00  0.00     0.060 H 
ATOM      6  N   LIG d   1       8.624   0.226  -6.184  0.00  0.00    -0.285 N 
ATOM      7  C   LIG d   1       9.313   1.523  -6.111  0.00  0.00     0.034 C 
ATOM      8  C   LIG d   1       8.583  -0.582  -7.262  0.00  0.00     0.240 C 
ATOM      9  O   LIG d   1       7.981  -1.637  -7.209  0.00  0.00    -0.271 OA
ATOM     10  H   LIG d   1       6.888   1.837  -4.643  0.00  0.00     0.031 H 
ATOM     11  H   LIG d   1       7.732   1.282  -3.158  0.00  0.00     0.031 H 
ATOM     12  H   LIG d   1       8.908   2.201  -6.862  0.00  0.00     0.048 H 
ATOM     13  H   LIG d   1      10.382   1.386  -6.273  0.00  0.00     0.048 H 
ENDROOT
BRANCH   4  14
ATOM     14  C   LIG d   1       6.657  -0.728  -5.084  0.00  0.00     0.234 C 
ATOM     15  O   LIG d   1       5.784  -0.184  -5.727  0.00  0.00    -0.274 OA
ATOM     16  N   LIG d   1       6.438  -1.946  -4.549  0.00  0.00    -0.302 N 
ATOM     17  H   LIG d   1       7.136  -2.381  -4.035  0.00  0.00     0.149 HD
BRANCH  16  18
ATOM     18  C   LIG d   1       5.149  -2.612  -4.744  0.00  0.00     0.103 C 
ATOM     19  H   LIG d   1       4.586  -2.092  -5.520  0.00  0.00     0.060 H 
BRANCH  18  20
ATOM     20  C   LIG d   1       4.357  -2.584  -3.435  0.00  0.00    -0.001 C 
ATOM     21  H   LIG d   1       3.410  -3.105  -3.572  0.00  0.00     0.034 H 
ATOM     22  H   LIG d   1       4.932  -3.077  -2.652  0.00  0.00     0.034 H 
BRANCH  20  23
ATOM     23  C   LIG d   1       4.091  -1.154  -3.039  0.00  0.00    -0.045 A 
ATOM     24  C   LIG d   1       3.194  -0.391  -3.762  0.00  0.00    -0.059 A 
ATOM     25  C   LIG d   1       2.950   0.920  -3.399  0.00  0.00    -0.061 A 
ATOM     26  H   LIG d   1       2.684  -0.820  -4.612  0.00  0.00     0.062 H 
ATOM     27  C   LIG d   1       3.604   1.468  -2.312  0.00  0.00    -0.062 A 
ATOM     28  H   LIG d   1       2.250   1.516  -3.965  0.00  0.00     0.062 H 
ATOM     29  C   LIG d   1       4.501   0.705  -1.586  0.00  0.00    -0.061 A 
ATOM     30  H   LIG d   1       3.415   2.492  -2.027  0.00  0.00     0.062 H 
ATOM     31  C   LIG d   1       4.741  -0.608  -1.948  0.00  0.00    -0.059 A 
ATOM     32  H   LIG d   1       5.012   1.134  -0.737  0.00  0.00     0.062 H 
ATOM     33  H   LIG d   1       5.439  -1.205  -1.379  0.00  0.00     0.062 H 
ENDBRANCH  20  23
ENDBRANCH  18  20
BRANCH  18  34
ATOM     34  C   LIG d   1       5.378  -4.041  -5.162  0.00  0.00     0.231 C 
ATOM     35  O   LIG d   1       6.506  -4.437  -5.376  0.00  0.00    -0.274 OA
ATOM     36  N   LIG d   1       4.333  -4.880  -5.297  0.00  0.00    -0.328 N 
ATOM     37  H   LIG d   1       3.432  -4.565  -5.126  0.00  0.00     0.145 HD
ATOM     38  H   LIG d   1       4.481  -5.800  -5.570  0.00  0.00     0.145 HD
ENDBRANCH  18  34
ENDBRANCH  16  18
ENDBRANCH   4  14
BRANCH   1  39
ATOM     39  N   LIG d   1       8.835   3.539  -4.758  0.00  0.00    -0.307 N 
ATOM     40  C   LIG d   1       9.827   4.393  -4.434  0.00  0.00     0.237 C 
ATOM     41  O   LIG d   1      10.912   3.964  -4.094  0.00  0.00    -0.271 OA
ATOM     42  H   LIG d   1       7.969   3.883  -5.030  0.00  0.00     0.149 HD
BRANCH  40  43
ATOM     43  C   LIG d   1       9.596   5.845  -4.494  0.00  0.00    -0.001 C 
ATOM     44  C   LIG d   1       9.652   6.480  -5.662  0.00  0.00    -0.071 C 
ATOM     45  H   LIG d   1       9.383   6.396  -3.590  0.00  0.00     0.067 H 
BRANCH  44  46
ATOM     46  C   LIG d   1      10.114   5.747  -6.896  0.00  0.00    -0.044 C 
ATOM     47  H   LIG d   1      11.192   5.868  -7.008  0.00  0.00     0.027 H 
ATOM     48  H   LIG d   1       9.874   4.689  -6.801  0.00  0.00     0.027 H 
ATOM     49  H   LIG d   1       9.611   6.157  -7.772  0.00  0.00     0.027 H 
ENDBRANCH  44  46
BRANCH  44  50
ATOM     50  C   LIG d   1       9.255   7.930  -5.751  0.00  0.00    -0.044 C 
ATOM     51  H   LIG d   1      10.108   8.558  -5.489  0.00  0.00     0.027 H 
ATOM     52  H   LIG d   1       8.936   8.157  -6.768  0.00  0.00     0.027 H 
ATOM     53  H   LIG d   1       8.435   8.125  -5.061  0.00  0.00     0.027 H 
ENDBRANCH  44  50
ENDBRANCH  40  43
ENDBRANCH   1  39
BRANCH   8  54
ATOM     54  C   LIG d   1       9.269  -0.188  -8.503  0.00  0.00    -0.001 C 
ATOM     55  C   LIG d   1       8.617   0.508  -9.430  0.00  0.00    -0.071 C 
ATOM     56  H   LIG d   1      10.301  -0.464  -8.661  0.00  0.00     0.067 H 
BRANCH  55  57
ATOM     57  C   LIG d   1       7.137   0.750  -9.288  0.00  0.00    -0.044 C 
ATOM     58  H   LIG d   1       6.921   1.100  -8.279  0.00  0.00     0.027 H 
ATOM     59  H   LIG d   1       6.821   1.504 -10.010  0.00  0.00     0.027 H 
ATOM     60  H   LIG d   1       6.597  -0.179  -9.474  0.00  0.00     0.027 H 
ENDBRANCH  55  57
BRANCH  55  61
ATOM     61  C   LIG d   1       9.359   1.056 -10.621  0.00  0.00    -0.044 C 
ATOM     62  H   LIG d   1       9.767   0.231 -11.206  0.00  0.00     0.027 H 
ATOM     63  H   LIG d   1       8.676   1.637 -11.240  0.00  0.00     0.027 H 
ATOM     64  H   LIG d   1      10.173   1.696 -10.280  0.00  0.00     0.027 H 
ENDBRANCH  55  61
ENDBRANCH   8  54
TORSDOF 12
ENDMDL
MODEL 7
REMARK VINA RESULT:      -6.2      6.213     10.887
REMARK  12 active torsions:
REMARK  status: ('A' for Active; 'I' for Inactive)
REMARK    1  A    between atoms: C_1  and  C_2 
REMARK    2  A    between atoms: C_2  and  C_35 
REMARK    3  A    between atoms: C_3  and  C_4 
REMARK       I    between atoms: C_4  and  N_6 
REMARK    4  A    between atoms: N_6  and  C_7 
REMARK    5  A    between atoms: C_10  and  C_20 
REMARK       I    between atoms: N_12  and  C_14 
REMARK    6  A    between atoms: C_14  and  C_16 
REMARK    7  A    between atoms: C_17  and  C_18 
REMARK    8  A    between atoms: C_17  and  C_19 
REMARK       I    between atoms: C_20  and  N_22 
REMARK    9  A    between atoms: N_22  and  C_23 
REMARK   10  A    between atoms: C_23  and  C_25 
REMARK   11  A    between atoms: C_23  and  C_32 
REMARK   12  A    between atoms: C_25  and  C_26 
REMARK       I    between atoms: C_32  and  N_34 
ROOT
ATOM      1  C   LIG d   1      10.351   4.063  -3.984  0.00  0.00     0.041 C 
ATOM      2  H   LIG d   1      11.291   3.894  -3.459  0.00  0.00     0.051 H 
ATOM      3  C   LIG d   1       9.275   3.043  -3.524  0.00  0.00    -0.006 C 
ATOM      4  C   LIG d   1       9.620   1.811  -4.399  0.00  0.00     0.104 C 
ATOM      5  H   LIG d   1      10.438   1.247  -3.952  0.00  0.00     0.060 H 
ATOM      6  N   LIG d   1      10.030   2.374  -5.698  0.00  0.00    -0.285 N 
ATOM      7  C   LIG d   1      10.502   3.751  -5.488  0.00  0.00     0.034 C 
ATOM      8  C   LIG d   1       9.981   1.732  -6.882  0.00  0.00     0.240 C 
ATOM      9  O   LIG d   1       9.570   0.589  -6.938  0.00  0.00    -0.271 OA
ATOM     10  H   LIG d   1       8.272   3.409  -3.742  0.00  0.00     0.031 H 
ATOM     11  H   LIG d   1       9.383   2.813  -2.464  0.00  0.00     0.031 H 
ATOM     12  H   LIG d   1       9.897   4.444  -6.073  0.00  0.00     0.048 H 
ATOM     13  H   LIG d   1      11.549   3.834  -5.781  0.00  0.00     0.048 H 
ENDROOT
BRANCH   4  14
ATOM     14  C   LIG d   1       8.407   0.933  -4.567  0.00  0.00     0.234 C 
ATOM     15  O   LIG d   1       7.334   1.427  -4.844  0.00  0.00    -0.274 OA
ATOM     16  N   LIG d   1       8.513  -0.401  -4.409  0.00  0.00    -0.302 N 
ATOM     17  H   LIG d   1       9.371  -0.796  -4.187  0.00  0.00     0.149 HD
BRANCH  16  18
ATOM     18  C   LIG d   1       7.335  -1.255  -4.573  0.00  0.00     0.103 C 
ATOM     19  H   LIG d   1       6.555  -0.701  -5.095  0.00  0.00     0.060 H 
BRANCH  18  20
ATOM     20  C   LIG d   1       6.821  -1.686  -3.198  0.00  0.00    -0.001 C 
ATOM     21  H   LIG d   1       6.763  -2.773  -3.156  0.00  0.00     0.034 H 
ATOM     22  H   LIG d   1       7.503  -1.328  -2.427  0.00  0.00     0.034 H 
BRANCH  20  23
ATOM     23  C   LIG d   1       5.451  -1.101  -2.968  0.00  0.00    -0.045 A 
ATOM     24  C   LIG d   1       4.324  -1.834  -3.284  0.00  0.00    -0.059 A 
ATOM     25  C   LIG d   1       3.067  -1.298  -3.073  0.00  0.00    -0.061 A 
ATOM     26  H   LIG d   1       4.424  -2.827  -3.697  0.00  0.00     0.062 H 
ATOM     27  C   LIG d   1       2.939  -0.027  -2.545  0.00  0.00    -0.062 A 
ATOM     28  H   LIG d   1       2.186  -1.871  -3.322  0.00  0.00     0.062 H 
ATOM     29  C   LIG d   1       4.066   0.707  -2.226  0.00  0.00    -0.061 A 
ATOM     30  H   LIG d   1       1.958   0.393  -2.380  0.00  0.00     0.062 H 
ATOM     31  C   LIG d   1       5.323   0.168  -2.434  0.00  0.00    -0.059 A 
ATOM     32  H   LIG d   1       3.967   1.700  -1.815  0.00  0.00     0.062 H 
ATOM     33  H   LIG d   1       6.204   0.740  -2.182  0.00  0.00     0.062 H 
ENDBRANCH  20  23
ENDBRANCH  18  20
BRANCH  18  34
ATOM     34  C   LIG d   1       7.706  -2.476  -5.375  0.00  0.00     0.231 C 
ATOM     35  O   LIG d   1       7.212  -3.551  -5.106  0.00  0.00    -0.274 OA
ATOM     36  N   LIG d   1       8.585  -2.374  -6.391  0.00  0.00    -0.328 N 
ATOM     37  H   LIG d   1       8.980  -1.514  -6.606  0.00  0.00     0.145 HD
ATOM     38  H   LIG d   1       8.827  -3.161  -6.904  0.00  0.00     0.145 HD
ENDBRANCH  18  34
ENDBRANCH  16  18
ENDBRANCH   4  14
BRANCH   1  39
ATOM     39  N   LIG d   1       9.883   5.435  -3.784  0.00  0.00    -0.307 N 
ATOM     40  C   LIG d   1      10.752   6.395  -3.405  0.00  0.00     0.237 C 
ATOM     41  O   LIG d   1      11.923   6.120  -3.231  0.00  0.00    -0.271 OA
ATOM     42  H   LIG d   1       8.949   5.655  -3.923  0.00  0.00     0.149 HD
BRANCH  40  43
ATOM     43  C   LIG d   1      10.282   7.774  -3.205  0.00  0.00    -0.001 C 
ATOM     44  C   LIG d   1       9.997   8.209  -1.980  0.00  0.00    -0.071 C 
ATOM     45  H   LIG d   1      10.167   8.434  -4.052  0.00  0.00     0.067 H 
BRANCH  44  46
ATOM     46  C   LIG d   1       9.995   7.246  -0.821  0.00  0.00    -0.044 C 
ATOM     47  H   LIG d   1      10.992   7.204  -0.382  0.00  0.00     0.027 H 
ATOM     48  H   LIG d   1       9.281   7.583  -0.070  0.00  0.00     0.027 H 
ATOM     49  H   LIG d   1       9.711   6.254  -1.172  0.00  0.00     0.027 H 
ENDBRANCH  44  46
BRANCH  44  50
ATOM     50  C   LIG d   1       9.676   9.663  -1.752  0.00  0.00    -0.044 C 
ATOM     51  H   LIG d   1       9.465   9.829  -0.696  0.00  0.00     0.027 H 
ATOM     52  H   LIG d   1      10.528  10.274  -2.052  0.00  0.00     0.027 H 
ATOM     53  H   LIG d   1       8.805   9.940  -2.345  0.00  0.00     0.027 H 
ENDBRANCH  44  50
ENDBRANCH  40  43
ENDBRANCH   1  39
BRANCH   8  54
ATOM     54  C   LIG d   1      10.423   2.415  -8.107  0.00  0.00    -0.001 C 
ATOM     55  C   LIG d   1       9.525   2.918  -8.951  0.00  0.00    -0.071 C 
ATOM     56  H   LIG d   1      11.478   2.510  -8.323  0.00  0.00     0.067 H 
BRANCH  55  57
ATOM     57  C   LIG d   1       8.059   2.644  -8.739  0.00  0.00    -0.044 C 
ATOM     58  H   LIG d   1       7.718   1.910  -9.468  0.00  0.00     0.027 H 
ATOM     59  H   LIG d   1       7.904   2.257  -7.732  0.00  0.00     0.027 H 
ATOM     60  H   LIG d   1       7.495   3.569  -8.863  0.00  0.00     0.027 H 
ENDBRANCH  55  57
BRANCH  55  61
ATOM     61  C   LIG d   1       9.975   3.761 -10.116  0.00  0.00    -0.044 C 
ATOM     62  H   LIG d   1      10.557   3.148 -10.804  0.00  0.00     0.027 H 
ATOM     63  H   LIG d   1       9.103   4.160 -10.633  0.00  0.00     0.027 H 
ATOM     64  H   LIG d   1      10.591   4.584  -9.753  0.00  0.00     0.027 H 
ENDBRANCH  55  61
ENDBRANCH   8  54
TORSDOF 12
ENDMDL
MODEL 8
REMARK VINA RESULT:      -6.0      6.983     11.302
REMARK  12 active torsions:
REMARK  status: ('A' for Active; 'I' for Inactive)
REMARK    1  A    between atoms: C_1  and  C_2 
REMARK    2  A    between atoms: C_2  and  C_35 
REMARK    3  A    between atoms: C_3  and  C_4 
REMARK       I    between atoms: C_4  and  N_6 
REMARK    4  A    between atoms: N_6  and  C_7 
REMARK    5  A    between atoms: C_10  and  C_20 
REMARK       I    between atoms: N_12  and  C_14 
REMARK    6  A    between atoms: C_14  and  C_16 
REMARK    7  A    between atoms: C_17  and  C_18 
REMARK    8  A    between atoms: C_17  and  C_19 
REMARK       I    between atoms: C_20  and  N_22 
REMARK    9  A    between atoms: N_22  and  C_23 
REMARK   10  A    between atoms: C_23  and  C_25 
REMARK   11  A    between atoms: C_23  and  C_32 
REMARK   12  A    between atoms: C_25  and  C_26 
REMARK       I    between atoms: C_32  and  N_34 
ROOT
ATOM      1  C   LIG d   1      11.470   4.154  -2.972  0.00  0.00     0.041 C 
ATOM      2  H   LIG d   1      12.426   3.704  -2.699  0.00  0.00     0.051 H 
ATOM      3  C   LIG d   1      10.299   3.184  -2.662  0.00  0.00    -0.006 C 
ATOM      4  C   LIG d   1      10.307   2.275  -3.917  0.00  0.00     0.104 C 
ATOM      5  H   LIG d   1      11.063   1.497  -3.817  0.00  0.00     0.060 H 
ATOM      6  N   LIG d   1      10.641   3.178  -5.034  0.00  0.00    -0.285 N 
ATOM      7  C   LIG d   1      11.371   4.338  -4.501  0.00  0.00     0.034 C 
ATOM      8  C   LIG d   1      10.328   2.974  -6.329  0.00  0.00     0.240 C 
ATOM      9  O   LIG d   1       9.719   1.974  -6.657  0.00  0.00    -0.271 OA
ATOM     10  H   LIG d   1       9.357   3.724  -2.576  0.00  0.00     0.031 H 
ATOM     11  H   LIG d   1      10.499   2.605  -1.760  0.00  0.00     0.031 H 
ATOM     12  H   LIG d   1      10.828   5.255  -4.729  0.00  0.00     0.048 H 
ATOM     13  H   LIG d   1      12.370   4.380  -4.936  0.00  0.00     0.048 H 
ENDROOT
BRANCH   4  14
ATOM     14  C   LIG d   1       8.947   1.661  -4.127  0.00  0.00     0.234 C 
ATOM     15  O   LIG d   1       7.952   2.351  -4.054  0.00  0.00    -0.274 OA
ATOM     16  N   LIG d   1       8.836   0.345  -4.397  0.00  0.00    -0.302 N 
ATOM     17  H   LIG d   1       9.631  -0.206  -4.456  0.00  0.00     0.149 HD
BRANCH  16  18
ATOM     18  C   LIG d   1       7.514  -0.251  -4.602  0.00  0.00     0.103 C 
ATOM     19  H   LIG d   1       6.783   0.538  -4.778  0.00  0.00     0.060 H 
BRANCH  18  20
ATOM     20  C   LIG d   1       7.116  -1.048  -3.359  0.00  0.00    -0.001 C 
ATOM     21  H   LIG d   1       7.251  -2.113  -3.551  0.00  0.00     0.034 H 
ATOM     22  H   LIG d   1       7.741  -0.748  -2.519  0.00  0.00     0.034 H 
BRANCH  20  23
ATOM     23  C   LIG d   1       5.670  -0.778  -3.031  0.00  0.00    -0.045 A 
ATOM     24  C   LIG d   1       5.258   0.506  -2.726  0.00  0.00    -0.059 A 
ATOM     25  C   LIG d   1       3.931   0.753  -2.426  0.00  0.00    -0.061 A 
ATOM     26  H   LIG d   1       5.973   1.315  -2.722  0.00  0.00     0.062 H 
ATOM     27  C   LIG d   1       3.017  -0.283  -2.430  0.00  0.00    -0.062 A 
ATOM     28  H   LIG d   1       3.610   1.756  -2.187  0.00  0.00     0.062 H 
ATOM     29  C   LIG d   1       3.428  -1.567  -2.736  0.00  0.00    -0.061 A 
ATOM     30  H   LIG d   1       1.981  -0.090  -2.195  0.00  0.00     0.062 H 
ATOM     31  C   LIG d   1       4.754  -1.814  -3.041  0.00  0.00    -0.059 A 
ATOM     32  H   LIG d   1       2.714  -2.377  -2.739  0.00  0.00     0.062 H 
ATOM     33  H   LIG d   1       5.075  -2.816  -3.284  0.00  0.00     0.062 H 
ENDBRANCH  20  23
ENDBRANCH  18  20
BRANCH  18  34
ATOM     34  C   LIG d   1       7.557  -1.171  -5.796  0.00  0.00     0.231 C 
ATOM     35  O   LIG d   1       7.061  -2.276  -5.727  0.00  0.00    -0.274 OA
ATOM     36  N   LIG d   1       8.145  -0.765  -6.938  0.00  0.00    -0.328 N 
ATOM     37  H   LIG d   1       8.541   0.118  -6.993  0.00  0.00     0.145 HD
ATOM     38  H   LIG d   1       8.175  -1.359  -7.705  0.00  0.00     0.145 HD
ENDBRANCH  18  34
ENDBRANCH  16  18
ENDBRANCH   4  14
BRANCH   1  39
ATOM     39  N   LIG d   1      11.281   5.431  -2.283  0.00  0.00    -0.307 N 
ATOM     40  C   LIG d   1      12.199   5.859  -1.392  0.00  0.00     0.237 C 
ATOM     41  O   LIG d   1      13.184   5.184  -1.162  0.00  0.00    -0.271 OA
ATOM     42  H   LIG d   1      10.496   5.970  -2.466  0.00  0.00     0.149 HD
BRANCH  40  43
ATOM     43  C   LIG d   1      12.009   7.143  -0.700  0.00  0.00    -0.001 C 
ATOM     44  C   LIG d   1      11.537   7.165   0.544  0.00  0.00    -0.071 C 
ATOM     45  H   LIG d   1      12.253   8.068  -1.202  0.00  0.00     0.067 H 
BRANCH  44  46
ATOM     46  C   LIG d   1      11.039   5.894   1.183  0.00  0.00    -0.044 C 
ATOM     47  H   LIG d   1      11.815   5.489   1.835  0.00  0.00     0.027 H 
ATOM     48  H   LIG d   1      10.147   6.107   1.770  0.00  0.00     0.027 H 
ATOM     49  H   LIG d   1      10.801   5.166   0.408  0.00  0.00     0.027 H 
ENDBRANCH  44  46
BRANCH  44  50
ATOM     50  C   LIG d   1      11.498   8.460   1.312  0.00  0.00    -0.044 C 
ATOM     51  H   LIG d   1      10.461   8.766   1.458  0.00  0.00     0.027 H 
ATOM     52  H   LIG d   1      11.975   8.321   2.281  0.00  0.00     0.027 H 
ATOM     53  H   LIG d   1      12.028   9.230   0.752  0.00  0.00     0.027 H 
ENDBRANCH  44  50
ENDBRANCH  40  43
ENDBRANCH   1  39
BRANCH   8  54
ATOM     54  C   LIG d   1      10.725   3.960  -7.345  0.00  0.00    -0.001 C 
ATOM     55  C   LIG d   1      11.809   3.752  -8.087  0.00  0.00    -0.071 C 
ATOM     56  H   LIG d   1      10.136   4.855  -7.490  0.00  0.00     0.067 H 
BRANCH  55  57
ATOM     57  C   LIG d   1      12.722   2.595  -7.778  0.00  0.00    -0.044 C 
ATOM     58  H   LIG d   1      13.447   2.896  -7.022  0.00  0.00     0.027 H 
ATOM     59  H   LIG d   1      12.133   1.758  -7.403  0.00  0.00     0.027 H 
ATOM     60  H   LIG d   1      13.246   2.292  -8.685  0.00  0.00     0.027 H 
ENDBRANCH  55  57
BRANCH  55  61
ATOM     61  C   LIG d   1      12.123   4.673  -9.238  0.00  0.00    -0.044 C 
ATOM     62  H   LIG d   1      12.160   5.702  -8.879  0.00  0.00     0.027 H 
ATOM     63  H   LIG d   1      13.088   4.404  -9.666  0.00  0.00     0.027 H 
ATOM     64  H   LIG d   1      11.349   4.582  -9.999  0.00  0.00     0.027 H 
ENDBRANCH  55  61
ENDBRANCH   8  54
TORSDOF 12
ENDMDL
MODEL 9
REMARK VINA RESULT:      -6.0      2.574      6.050
REMARK  12 active torsions:
REMARK  status: ('A' for Active; 'I' for Inactive)
REMARK    1  A    between atoms: C_1  and  C_2 
REMARK    2  A    between atoms: C_2  and  C_35 
REMARK    3  A    between atoms: C_3  and  C_4 
REMARK       I    between atoms: C_4  and  N_6 
REMARK    4  A    between atoms: N_6  and  C_7 
REMARK    5  A    between atoms: C_10  and  C_20 
REMARK       I    between atoms: N_12  and  C_14 
REMARK    6  A    between atoms: C_14  and  C_16 
REMARK    7  A    between atoms: C_17  and  C_18 
REMARK    8  A    between atoms: C_17  and  C_19 
REMARK       I    between atoms: C_20  and  N_22 
REMARK    9  A    between atoms: N_22  and  C_23 
REMARK   10  A    between atoms: C_23  and  C_25 
REMARK   11  A    between atoms: C_23  and  C_32 
REMARK   12  A    between atoms: C_25  and  C_26 
REMARK       I    between atoms: C_32  and  N_34 
ROOT
ATOM      1  C   LIG d   1       2.671  -4.750  -9.834  0.00  0.00     0.041 C 
ATOM      2  H   LIG d   1       3.212  -5.198 -10.668  0.00  0.00     0.051 H 
ATOM      3  C   LIG d   1       3.040  -3.250  -9.683  0.00  0.00    -0.006 C 
ATOM      4  C   LIG d   1       4.357  -3.333  -8.872  0.00  0.00     0.104 C 
ATOM      5  H   LIG d   1       5.198  -3.539  -9.534  0.00  0.00     0.060 H 
ATOM      6  N   LIG d   1       4.153  -4.452  -7.934  0.00  0.00    -0.285 N 
ATOM      7  C   LIG d   1       3.136  -5.357  -8.493  0.00  0.00     0.034 C 
ATOM      8  C   LIG d   1       4.792  -4.618  -6.759  0.00  0.00     0.240 C 
ATOM      9  O   LIG d   1       5.617  -3.803  -6.395  0.00  0.00    -0.271 OA
ATOM     10  H   LIG d   1       2.271  -2.714  -9.128  0.00  0.00     0.031 H 
ATOM     11  H   LIG d   1       3.209  -2.790 -10.657  0.00  0.00     0.031 H 
ATOM     12  H   LIG d   1       2.292  -5.434  -7.808  0.00  0.00     0.048 H 
ATOM     13  H   LIG d   1       3.569  -6.343  -8.662  0.00  0.00     0.048 H 
ENDROOT
BRANCH   4  14
ATOM     14  C   LIG d   1       4.588  -2.050  -8.116  0.00  0.00     0.234 C 
ATOM     15  O   LIG d   1       5.684  -1.531  -8.122  0.00  0.00    -0.274 OA
ATOM     16  N   LIG d   1       3.576  -1.478  -7.433  0.00  0.00    -0.302 N 
ATOM     17  H   LIG d   1       2.699  -1.893  -7.430  0.00  0.00     0.149 HD
BRANCH  16  18
ATOM     18  C   LIG d   1       3.800  -0.231  -6.700  0.00  0.00     0.103 C 
ATOM     19  H   LIG d   1       4.769  -0.271  -6.204  0.00  0.00     0.060 H 
BRANCH  18  20
ATOM     20  C   LIG d   1       2.698  -0.050  -5.653  0.00  0.00    -0.001 C 
ATOM     21  H   LIG d   1       2.243   0.933  -5.771  0.00  0.00     0.034 H 
ATOM     22  H   LIG d   1       1.939  -0.820  -5.788  0.00  0.00     0.034 H 
BRANCH  20  23
ATOM     23  C   LIG d   1       3.293  -0.166  -4.273  0.00  0.00    -0.045 A 
ATOM     24  C   LIG d   1       3.704  -1.397  -3.798  0.00  0.00    -0.059 A 
ATOM     25  C   LIG d   1       4.250  -1.502  -2.532  0.00  0.00    -0.061 A 
ATOM     26  H   LIG d   1       3.598  -2.276  -4.415  0.00  0.00     0.062 H 
ATOM     27  C   LIG d   1       4.384  -0.376  -1.742  0.00  0.00    -0.062 A 
ATOM     28  H   LIG d   1       4.570  -2.464  -2.160  0.00  0.00     0.062 H 
ATOM     29  C   LIG d   1       3.975   0.856  -2.217  0.00  0.00    -0.061 A 
ATOM     30  H   LIG d   1       4.810  -0.458  -0.753  0.00  0.00     0.062 H 
ATOM     31  C   LIG d   1       3.433   0.961  -3.485  0.00  0.00    -0.059 A 
ATOM     32  H   LIG d   1       4.079   1.736  -1.600  0.00  0.00     0.062 H 
ATOM     33  H   LIG d   1       3.116   1.925  -3.858  0.00  0.00     0.062 H 
ENDBRANCH  20  23
ENDBRANCH  18  20
BRANCH  18  34
ATOM     34  C   LIG d   1       3.775   0.930  -7.661  0.00  0.00     0.231 C 
ATOM     35  O   LIG d   1       2.717   1.440  -7.967  0.00  0.00    -0.274 OA
ATOM     36  N   LIG d   1       4.925   1.400  -8.180  0.00  0.00    -0.328 N 
ATOM     37  H   LIG d   1       5.771   0.993  -7.935  0.00  0.00     0.145 HD
ATOM     38  H   LIG d   1       4.908   2.145  -8.802  0.00  0.00     0.145 HD
ENDBRANCH  18  34
ENDBRANCH  16  18
ENDBRANCH   4  14
BRANCH   1  39
ATOM     39  N   LIG d   1       1.227  -4.915 -10.003  0.00  0.00    -0.307 N 
ATOM     40  C   LIG d   1       0.741  -5.507 -11.113  0.00  0.00     0.237 C 
ATOM     41  O   LIG d   1       1.503  -5.906 -11.973  0.00  0.00    -0.271 OA
ATOM     42  H   LIG d   1       0.618  -4.597  -9.318  0.00  0.00     0.149 HD
BRANCH  40  43
ATOM     43  C   LIG d   1      -0.711  -5.673 -11.283  0.00  0.00    -0.001 C 
ATOM     44  C   LIG d   1      -1.320  -6.748 -10.789  0.00  0.00    -0.071 C 
ATOM     45  H   LIG d   1      -1.282  -4.923 -11.810  0.00  0.00     0.067 H 
BRANCH  44  46
ATOM     46  C   LIG d   1      -0.505  -7.873 -10.203  0.00  0.00    -0.044 C 
ATOM     47  H   LIG d   1      -0.275  -8.598 -10.984  0.00  0.00     0.027 H 
ATOM     48  H   LIG d   1       0.421  -7.475  -9.792  0.00  0.00     0.027 H 
ATOM     49  H   LIG d   1      -1.075  -8.360  -9.413  0.00  0.00     0.027 H 
ENDBRANCH  44  46
BRANCH  44  50
ATOM     50  C   LIG d   1      -2.823  -6.840 -10.815  0.00  0.00    -0.044 C 
ATOM     51  H   LIG d   1      -3.144  -7.717 -10.252  0.00  0.00     0.027 H 
ATOM     52  H   LIG d   1      -3.249  -5.944 -10.365  0.00  0.00     0.027 H 
ATOM     53  H   LIG d   1      -3.163  -6.926 -11.847  0.00  0.00     0.027 H 
ENDBRANCH  44  50
ENDBRANCH  40  43
ENDBRANCH   1  39
BRANCH   8  54
ATOM     54  C   LIG d   1       4.490  -5.786  -5.917  0.00  0.00    -0.001 C 
ATOM     55  C   LIG d   1       5.228  -6.888  -6.019  0.00  0.00    -0.071 C 
ATOM     56  H   LIG d   1       3.668  -5.750  -5.216  0.00  0.00     0.067 H 
BRANCH  55  57
ATOM     57  C   LIG d   1       6.264  -7.002  -7.107  0.00  0.00    -0.044 C 
ATOM     58  H   LIG d   1       5.808  -7.430  -7.999  0.00  0.00     0.027 H 
ATOM     59  H   LIG d   1       6.658  -6.012  -7.338  0.00  0.00     0.027 H 
ATOM     60  H   LIG d   1       7.077  -7.646  -6.769  0.00  0.00     0.027 H 
ENDBRANCH  55  57
BRANCH  55  61
ATOM     61  C   LIG d   1       5.029  -8.021  -5.046  0.00  0.00    -0.044 C 
ATOM     62  H   LIG d   1       4.750  -7.618  -4.072  0.00  0.00     0.027 H 
ATOM     63  H   LIG d   1       4.239  -8.677  -5.408  0.00  0.00     0.027 H 
ATOM     64  H   LIG d   1       5.957  -8.587  -4.951  0.00  0.00     0.027 H 
ENDBRANCH  55  61
ENDBRANCH   8  54
TORSDOF 12
ENDMDL
