MODEL 1
REMARK VINA RESULT:      -7.4      0.000      0.000
REMARK  7 active torsions:
REMARK  status: ('A' for Active; 'I' for Inactive)
REMARK    1  A    between atoms: C_1  and  C_2 
REMARK    2  A    between atoms: C_4  and  C_28 
REMARK    3  A    between atoms: C_8  and  C_13 
REMARK    4  A    between atoms: C_14  and  N_22 
REMARK       I    between atoms: N_22  and  C_23 
REMARK    5  A    between atoms: C_23  and  C_25 
REMARK    6  A    between atoms: C_25  and  C_26 
REMARK    7  A    between atoms: C_25  and  C_27 
ROOT
ATOM      1  C   LIG d   1       4.729  -1.680  -7.153  0.00  0.00     0.158 A 
ATOM      2  C   LIG d   1       3.890  -0.757  -6.591  0.00  0.00     0.088 A 
ATOM      3  C   LIG d   1       3.656   0.258  -7.625  0.00  0.00     0.042 A 
ATOM      4  C   LIG d   1       2.913   1.437  -7.679  0.00  0.00    -0.049 A 
ATOM      5  C   LIG d   1       2.900   2.180  -8.827  0.00  0.00    -0.061 A 
ATOM      6  C   LIG d   1       3.630   1.772  -9.934  0.00  0.00    -0.058 A 
ATOM      7  C   LIG d   1       4.373   0.612  -9.900  0.00  0.00    -0.019 A 
ATOM      8  C   LIG d   1       4.397  -0.160  -8.745  0.00  0.00     0.138 A 
ATOM      9  O   LIG d   1       5.018  -1.313  -8.422  0.00  0.00    -0.453 OA
ATOM     10  H   LIG d   1       2.347   1.761  -6.817  0.00  0.00     0.062 H 
ATOM     11  H   LIG d   1       2.321   3.091  -8.871  0.00  0.00     0.062 H 
ATOM     12  H   LIG d   1       3.613   2.370 -10.834  0.00  0.00     0.062 H 
ATOM     13  H   LIG d   1       4.937   0.304 -10.768  0.00  0.00     0.065 H 
ENDROOT
BRANCH   1  14
ATOM     14  C   LIG d   1       5.235  -2.880  -6.484  0.00  0.00     0.037 A 
ATOM     15  C   LIG d   1       6.588  -2.910  -5.892  0.00  0.00     0.029 A 
ATOM     16  C   LIG d   1       7.025  -4.085  -5.262  0.00  0.00     0.143 A 
ATOM     17  C   LIG d   1       7.425  -1.797  -5.954  0.00  0.00    -0.048 A 
ATOM     18  C   LIG d   1       8.295  -4.127  -4.701  0.00  0.00    -0.007 A 
ATOM     19  O   LIG d   1       6.212  -5.163  -5.204  0.00  0.00    -0.422 OA
ATOM     20  C   LIG d   1       9.114  -3.019  -4.769  0.00  0.00    -0.052 A 
ATOM     21  C   LIG d   1       8.681  -1.857  -5.392  0.00  0.00    -0.049 A 
ATOM     22  H   LIG d   1      10.101  -3.056  -4.332  0.00  0.00     0.062 H 
ATOM     23  C   LIG d   1       4.979  -5.155  -5.737  0.00  0.00     0.338 A 
ATOM     24  C   LIG d   1       4.456  -4.026  -6.379  0.00  0.00     0.034 A 
ATOM     25  O   LIG d   1       4.292  -6.159  -5.652  0.00  0.00    -0.245 OA
ATOM     26  H   LIG d   1       3.459  -4.048  -6.792  0.00  0.00     0.070 H 
ATOM     27  H   LIG d   1       7.090  -0.892  -6.439  0.00  0.00     0.063 H 
BRANCH  18  28
ATOM     28  C   LIG d   1       8.778  -5.382  -4.022  0.00  0.00    -0.036 C 
ATOM     29  H   LIG d   1       8.663  -6.228  -4.699  0.00  0.00     0.028 H 
ATOM     30  H   LIG d   1       9.829  -5.269  -3.757  0.00  0.00     0.028 H 
ATOM     31  H   LIG d   1       8.193  -5.554  -3.120  0.00  0.00     0.028 H 
ENDBRANCH  18  28
BRANCH  21  32
ATOM     32  C   LIG d   1       9.592  -0.657  -5.456  0.00  0.00    -0.040 C 
ATOM     33  H   LIG d   1       9.535  -0.108  -4.517  0.00  0.00     0.028 H 
ATOM     34  H   LIG d   1      10.617  -0.988  -5.622  0.00  0.00     0.028 H 
ATOM     35  H   LIG d   1       9.281  -0.009  -6.276  0.00  0.00     0.028 H 
ENDBRANCH  21  32
ENDBRANCH   1  14
BRANCH   2  36
ATOM     36  N   LIG d   1       3.364  -0.776  -5.302  0.00  0.00    -0.282 N 
ATOM     37  C   LIG d   1       4.046  -0.209  -4.287  0.00  0.00     0.220 C 
ATOM     38  O   LIG d   1       5.071   0.399  -4.510  0.00  0.00    -0.275 OA
ATOM     39  H   LIG d   1       2.507  -1.198  -5.135  0.00  0.00     0.155 HD
BRANCH  37  40
ATOM     40  C   LIG d   1       3.534  -0.331  -2.875  0.00  0.00     0.030 C 
ATOM     41  H   LIG d   1       2.460  -0.152  -2.860  0.00  0.00     0.039 H 
BRANCH  40  42
ATOM     42  C   LIG d   1       3.825  -1.737  -2.347  0.00  0.00    -0.054 C 
ATOM     43  H   LIG d   1       3.009  -2.406  -2.621  0.00  0.00     0.024 H 
ATOM     44  H   LIG d   1       4.755  -2.104  -2.781  0.00  0.00     0.024 H 
ATOM     45  H   LIG d   1       3.918  -1.705  -1.261  0.00  0.00     0.024 H 
ENDBRANCH  40  42
BRANCH  40  46
ATOM     46  C   LIG d   1       4.235   0.700  -1.987  0.00  0.00    -0.054 C 
ATOM     47  H   LIG d   1       3.500   1.404  -1.598  0.00  0.00     0.024 H 
ATOM     48  H   LIG d   1       4.725   0.190  -1.157  0.00  0.00     0.024 H 
ATOM     49  H   LIG d   1       4.980   1.238  -2.573  0.00  0.00     0.024 H 
ENDBRANCH  40  46
ENDBRANCH  37  40
ENDBRANCH   2  36
TORSDOF 7
ENDMDL
MODEL 2
REMARK VINA RESULT:      -7.1      1.299      3.114
REMARK  7 active torsions:
REMARK  status: ('A' for Active; 'I' for Inactive)
REMARK    1  A    between atoms: C_1  and  C_2 
REMARK    2  A    between atoms: C_4  and  C_28 
REMARK    3  A    between atoms: C_8  and  C_13 
REMARK    4  A    between atoms: C_14  and  N_22 
REMARK       I    between atoms: N_22  and  C_23 
REMARK    5  A    between atoms: C_23  and  C_25 
REMARK    6  A    between atoms: C_25  and  C_26 
REMARK    7  A    between atoms: C_25  and  C_27 
ROOT
ATOM      1  C   LIG d   1       5.035  -1.453  -7.231  0.00  0.00     0.158 A 
ATOM      2  C   LIG d   1       4.044  -0.639  -6.756  0.00  0.00     0.088 A 
ATOM      3  C   LIG d   1       3.810   0.364  -7.801  0.00  0.00     0.042 A 
ATOM      4  C   LIG d   1       2.950   1.455  -7.926  0.00  0.00    -0.049 A 
ATOM      5  C   LIG d   1       2.977   2.214  -9.062  0.00  0.00    -0.061 A 
ATOM      6  C   LIG d   1       3.862   1.911 -10.087  0.00  0.00    -0.058 A 
ATOM      7  C   LIG d   1       4.723   0.840  -9.981  0.00  0.00    -0.019 A 
ATOM      8  C   LIG d   1       4.709   0.052  -8.837  0.00  0.00     0.138 A 
ATOM      9  O   LIG d   1       5.416  -1.032  -8.457  0.00  0.00    -0.453 OA
ATOM     10  H   LIG d   1       2.263   1.697  -7.128  0.00  0.00     0.062 H 
ATOM     11  H   LIG d   1       2.309   3.057  -9.161  0.00  0.00     0.062 H 
ATOM     12  H   LIG d   1       3.876   2.522 -10.979  0.00  0.00     0.062 H 
ATOM     13  H   LIG d   1       5.407   0.613 -10.786  0.00  0.00     0.065 H 
ENDROOT
BRANCH   1  14
ATOM     14  C   LIG d   1       5.598  -2.603  -6.520  0.00  0.00     0.037 A 
ATOM     15  C   LIG d   1       5.177  -3.982  -6.846  0.00  0.00     0.029 A 
ATOM     16  C   LIG d   1       5.747  -5.049  -6.135  0.00  0.00     0.143 A 
ATOM     17  C   LIG d   1       4.231  -4.229  -7.839  0.00  0.00    -0.048 A 
ATOM     18  C   LIG d   1       5.361  -6.349  -6.431  0.00  0.00    -0.007 A 
ATOM     19  O   LIG d   1       6.663  -4.806  -5.172  0.00  0.00    -0.422 OA
ATOM     20  C   LIG d   1       4.423  -6.582  -7.417  0.00  0.00    -0.052 A 
ATOM     21  C   LIG d   1       3.860  -5.526  -8.119  0.00  0.00    -0.049 A 
ATOM     22  H   LIG d   1       4.125  -7.595  -7.644  0.00  0.00     0.062 H 
ATOM     23  C   LIG d   1       7.058  -3.561  -4.861  0.00  0.00     0.338 A 
ATOM     24  C   LIG d   1       6.549  -2.436  -5.521  0.00  0.00     0.034 A 
ATOM     25  O   LIG d   1       7.889  -3.406  -3.982  0.00  0.00    -0.245 OA
ATOM     26  H   LIG d   1       6.891  -1.447  -5.254  0.00  0.00     0.070 H 
ATOM     27  H   LIG d   1       3.791  -3.408  -8.387  0.00  0.00     0.063 H 
BRANCH  18  28
ATOM     28  C   LIG d   1       5.963  -7.505  -5.676  0.00  0.00    -0.036 C 
ATOM     29  H   LIG d   1       5.801  -8.428  -6.233  0.00  0.00     0.028 H 
ATOM     30  H   LIG d   1       7.033  -7.339  -5.551  0.00  0.00     0.028 H 
ATOM     31  H   LIG d   1       5.491  -7.584  -4.697  0.00  0.00     0.028 H 
ENDBRANCH  18  28
BRANCH  21  32
ATOM     32  C   LIG d   1       2.837  -5.800  -9.192  0.00  0.00    -0.040 C 
ATOM     33  H   LIG d   1       2.330  -6.740  -8.979  0.00  0.00     0.028 H 
ATOM     34  H   LIG d   1       2.108  -4.990  -9.212  0.00  0.00     0.028 H 
ATOM     35  H   LIG d   1       3.335  -5.866 -10.160  0.00  0.00     0.028 H 
ENDBRANCH  21  32
ENDBRANCH   1  14
BRANCH   2  36
ATOM     36  N   LIG d   1       3.388  -0.743  -5.531  0.00  0.00    -0.282 N 
ATOM     37  C   LIG d   1       3.891  -0.127  -4.443  0.00  0.00     0.220 C 
ATOM     38  O   LIG d   1       4.861   0.593  -4.548  0.00  0.00    -0.275 OA
ATOM     39  H   LIG d   1       2.569  -1.258  -5.463  0.00  0.00     0.155 HD
BRANCH  37  40
ATOM     40  C   LIG d   1       3.248  -0.333  -3.097  0.00  0.00     0.030 C 
ATOM     41  H   LIG d   1       2.170  -0.195  -3.183  0.00  0.00     0.039 H 
BRANCH  40  42
ATOM     42  C   LIG d   1       3.543  -1.750  -2.602  0.00  0.00    -0.054 C 
ATOM     43  H   LIG d   1       4.254  -1.708  -1.777  0.00  0.00     0.024 H 
ATOM     44  H   LIG d   1       2.619  -2.216  -2.261  0.00  0.00     0.024 H 
ATOM     45  H   LIG d   1       3.967  -2.338  -3.417  0.00  0.00     0.024 H 
ENDBRANCH  40  42
BRANCH  40  46
ATOM     46  C   LIG d   1       3.813   0.682  -2.100  0.00  0.00    -0.054 C 
ATOM     47  H   LIG d   1       4.679   0.252  -1.597  0.00  0.00     0.024 H 
ATOM     48  H   LIG d   1       4.114   1.585  -2.632  0.00  0.00     0.024 H 
ATOM     49  H   LIG d   1       3.050   0.932  -1.363  0.00  0.00     0.024 H 
ENDBRANCH  40  46
ENDBRANCH  37  40
ENDBRANCH   2  36
TORSDOF 7
ENDMDL
MODEL 3
REMARK VINA RESULT:      -7.0      2.193      5.296
REMARK  7 active torsions:
REMARK  status: ('A' for Active; 'I' for Inactive)
REMARK    1  A    between atoms: C_1  and  C_2 
REMARK    2  A    between atoms: C_4  and  C_28 
REMARK    3  A    between atoms: C_8  and  C_13 
REMARK    4  A    between atoms: C_14  and  N_22 
REMARK       I    between atoms: N_22  and  C_23 
REMARK    5  A    between atoms: C_23  and  C_25 
REMARK    6  A    between atoms: C_25  and  C_26 
REMARK    7  A    between atoms: C_25  and  C_27 
ROOT
ATOM      1  C   LIG d   1       6.656  -0.239  -6.274  0.00  0.00     0.158 A 
ATOM      2  C   LIG d   1       6.582   0.347  -5.040  0.00  0.00     0.088 A 
ATOM      3  C   LIG d   1       7.838   1.086  -4.869  0.00  0.00     0.042 A 
ATOM      4  C   LIG d   1       8.371   1.873  -3.848  0.00  0.00    -0.049 A 
ATOM      5  C   LIG d   1       9.605   2.441  -4.002  0.00  0.00    -0.061 A 
ATOM      6  C   LIG d   1      10.334   2.230  -5.164  0.00  0.00    -0.058 A 
ATOM      7  C   LIG d   1       9.826   1.452  -6.182  0.00  0.00    -0.019 A 
ATOM      8  C   LIG d   1       8.572   0.869  -6.049  0.00  0.00     0.138 A 
ATOM      9  O   LIG d   1       7.834   0.078  -6.854  0.00  0.00    -0.453 OA
ATOM     10  H   LIG d   1       7.808   2.036  -2.940  0.00  0.00     0.062 H 
ATOM     11  H   LIG d   1      10.016   3.054  -3.214  0.00  0.00     0.062 H 
ATOM     12  H   LIG d   1      11.310   2.681  -5.271  0.00  0.00     0.062 H 
ATOM     13  H   LIG d   1      10.403   1.295  -7.082  0.00  0.00     0.065 H 
ENDROOT
BRANCH   1  14
ATOM     14  C   LIG d   1       5.618  -1.081  -6.873  0.00  0.00     0.037 A 
ATOM     15  C   LIG d   1       4.632  -0.519  -7.819  0.00  0.00     0.029 A 
ATOM     16  C   LIG d   1       3.658  -1.369  -8.365  0.00  0.00     0.143 A 
ATOM     17  C   LIG d   1       4.658   0.830  -8.168  0.00  0.00    -0.048 A 
ATOM     18  C   LIG d   1       2.725  -0.853  -9.255  0.00  0.00    -0.007 A 
ATOM     19  O   LIG d   1       3.634  -2.676  -8.024  0.00  0.00    -0.422 OA
ATOM     20  C   LIG d   1       2.761   0.484  -9.593  0.00  0.00    -0.052 A 
ATOM     21  C   LIG d   1       3.724   1.323  -9.052  0.00  0.00    -0.049 A 
ATOM     22  H   LIG d   1       2.033   0.881 -10.285  0.00  0.00     0.062 H 
ATOM     23  C   LIG d   1       4.522  -3.206  -7.166  0.00  0.00     0.338 A 
ATOM     24  C   LIG d   1       5.532  -2.436  -6.577  0.00  0.00     0.034 A 
ATOM     25  O   LIG d   1       4.449  -4.392  -6.899  0.00  0.00    -0.245 OA
ATOM     26  H   LIG d   1       6.236  -2.891  -5.896  0.00  0.00     0.070 H 
ATOM     27  H   LIG d   1       5.407   1.486  -7.748  0.00  0.00     0.063 H 
BRANCH  18  28
ATOM     28  C   LIG d   1       1.672  -1.753  -9.849  0.00  0.00    -0.036 C 
ATOM     29  H   LIG d   1       1.195  -2.327  -9.056  0.00  0.00     0.028 H 
ATOM     30  H   LIG d   1       0.924  -1.147 -10.361  0.00  0.00     0.028 H 
ATOM     31  H   LIG d   1       2.137  -2.433 -10.561  0.00  0.00     0.028 H 
ENDBRANCH  18  28
BRANCH  21  32
ATOM     32  C   LIG d   1       3.747   2.782  -9.434  0.00  0.00    -0.040 C 
ATOM     33  H   LIG d   1       4.576   2.966 -10.116  0.00  0.00     0.028 H 
ATOM     34  H   LIG d   1       2.808   3.043  -9.923  0.00  0.00     0.028 H 
ATOM     35  H   LIG d   1       3.872   3.390  -8.537  0.00  0.00     0.028 H 
ENDBRANCH  21  32
ENDBRANCH   1  14
BRANCH   2  36
ATOM     36  N   LIG d   1       5.529   0.262  -4.133  0.00  0.00    -0.282 N 
ATOM     37  C   LIG d   1       5.579  -0.629  -3.123  0.00  0.00     0.220 C 
ATOM     38  O   LIG d   1       6.580  -1.291  -2.949  0.00  0.00    -0.275 OA
ATOM     39  H   LIG d   1       4.759   0.844  -4.228  0.00  0.00     0.155 HD
BRANCH  37  40
ATOM     40  C   LIG d   1       4.392  -0.803  -2.211  0.00  0.00     0.030 C 
ATOM     41  H   LIG d   1       4.713  -0.707  -1.174  0.00  0.00     0.039 H 
BRANCH  40  42
ATOM     42  C   LIG d   1       3.348   0.271  -2.523  0.00  0.00    -0.054 C 
ATOM     43  H   LIG d   1       3.611   0.776  -3.453  0.00  0.00     0.024 H 
ATOM     44  H   LIG d   1       2.368  -0.194  -2.627  0.00  0.00     0.024 H 
ATOM     45  H   LIG d   1       3.321   0.998  -1.711  0.00  0.00     0.024 H 
ENDBRANCH  40  42
BRANCH  40  46
ATOM     46  C   LIG d   1       3.778  -2.187  -2.430  0.00  0.00    -0.054 C 
ATOM     47  H   LIG d   1       3.317  -2.530  -1.504  0.00  0.00     0.024 H 
ATOM     48  H   LIG d   1       3.022  -2.129  -3.213  0.00  0.00     0.024 H 
ATOM     49  H   LIG d   1       4.558  -2.887  -2.730  0.00  0.00     0.024 H 
ENDBRANCH  40  46
ENDBRANCH  37  40
ENDBRANCH   2  36
TORSDOF 7
ENDMDL
MODEL 4
REMARK VINA RESULT:      -6.8      1.801      5.904
REMARK  7 active torsions:
REMARK  status: ('A' for Active; 'I' for Inactive)
REMARK    1  A    between atoms: C_1  and  C_2 
REMARK    2  A    between atoms: C_4  and  C_28 
REMARK    3  A    between atoms: C_8  and  C_13 
REMARK    4  A    between atoms: C_14  and  N_22 
REMARK       I    between atoms: N_22  and  C_23 
REMARK    5  A    between atoms: C_23  and  C_25 
REMARK    6  A    between atoms: C_25  and  C_26 
REMARK    7  A    between atoms: C_25  and  C_27 
ROOT
ATOM      1  C   LIG d   1       4.097  -0.916  -6.189  0.00  0.00     0.158 A 
ATOM      2  C   LIG d   1       4.978  -1.389  -5.256  0.00  0.00     0.088 A 
ATOM      3  C   LIG d   1       4.718  -0.625  -4.031  0.00  0.00     0.042 A 
ATOM      4  C   LIG d   1       5.270  -0.624  -2.750  0.00  0.00    -0.049 A 
ATOM      5  C   LIG d   1       4.788   0.235  -1.803  0.00  0.00    -0.061 A 
ATOM      6  C   LIG d   1       3.759   1.113  -2.112  0.00  0.00    -0.058 A 
ATOM      7  C   LIG d   1       3.203   1.131  -3.372  0.00  0.00    -0.019 A 
ATOM      8  C   LIG d   1       3.674   0.263  -4.349  0.00  0.00     0.138 A 
ATOM      9  O   LIG d   1       3.337   0.057  -5.639  0.00  0.00    -0.453 OA
ATOM     10  H   LIG d   1       6.075  -1.304  -2.507  0.00  0.00     0.062 H 
ATOM     11  H   LIG d   1       5.212   0.233  -0.809  0.00  0.00     0.062 H 
ATOM     12  H   LIG d   1       3.389   1.790  -1.355  0.00  0.00     0.062 H 
ATOM     13  H   LIG d   1       2.402   1.819  -3.601  0.00  0.00     0.065 H 
ENDROOT
BRANCH   1  14
ATOM     14  C   LIG d   1       3.993  -1.390  -7.571  0.00  0.00     0.037 A 
ATOM     15  C   LIG d   1       3.965  -0.441  -8.703  0.00  0.00     0.029 A 
ATOM     16  C   LIG d   1       3.864  -0.948 -10.007  0.00  0.00     0.143 A 
ATOM     17  C   LIG d   1       4.034   0.934  -8.490  0.00  0.00    -0.048 A 
ATOM     18  C   LIG d   1       3.836  -0.067 -11.081  0.00  0.00    -0.007 A 
ATOM     19  O   LIG d   1       3.795  -2.281 -10.211  0.00  0.00    -0.422 OA
ATOM     20  C   LIG d   1       3.906   1.293 -10.857  0.00  0.00    -0.052 A 
ATOM     21  C   LIG d   1       4.005   1.793  -9.567  0.00  0.00    -0.049 A 
ATOM     22  H   LIG d   1       3.884   1.975 -11.695  0.00  0.00     0.062 H 
ATOM     23  C   LIG d   1       3.819  -3.160  -9.195  0.00  0.00     0.338 A 
ATOM     24  C   LIG d   1       3.925  -2.747  -7.861  0.00  0.00     0.034 A 
ATOM     25  O   LIG d   1       3.755  -4.352  -9.442  0.00  0.00    -0.245 OA
ATOM     26  H   LIG d   1       3.948  -3.477  -7.066  0.00  0.00     0.070 H 
ATOM     27  H   LIG d   1       4.111   1.326  -7.486  0.00  0.00     0.063 H 
BRANCH  18  28
ATOM     28  C   LIG d   1       3.727  -0.595 -12.487  0.00  0.00    -0.036 C 
ATOM     29  H   LIG d   1       3.227  -1.563 -12.474  0.00  0.00     0.028 H 
ATOM     30  H   LIG d   1       3.151   0.104 -13.094  0.00  0.00     0.028 H 
ATOM     31  H   LIG d   1       4.724  -0.707 -12.911  0.00  0.00     0.028 H 
ENDBRANCH  18  28
BRANCH  21  32
ATOM     32  C   LIG d   1       4.080   3.282  -9.343  0.00  0.00    -0.040 C 
ATOM     33  H   LIG d   1       3.286   3.588  -8.663  0.00  0.00     0.028 H 
ATOM     34  H   LIG d   1       5.048   3.535  -8.910  0.00  0.00     0.028 H 
ATOM     35  H   LIG d   1       3.963   3.799 -10.296  0.00  0.00     0.028 H 
ENDBRANCH  21  32
ENDBRANCH   1  14
BRANCH   2  36
ATOM     36  N   LIG d   1       5.928  -2.392  -5.432  0.00  0.00    -0.282 N 
ATOM     37  C   LIG d   1       5.670  -3.647  -5.013  0.00  0.00     0.220 C 
ATOM     38  O   LIG d   1       4.577  -3.924  -4.567  0.00  0.00    -0.275 OA
ATOM     39  H   LIG d   1       6.776  -2.188  -5.858  0.00  0.00     0.155 HD
BRANCH  37  40
ATOM     40  C   LIG d   1       6.739  -4.705  -5.098  0.00  0.00     0.030 C 
ATOM     41  H   LIG d   1       6.446  -5.568  -4.500  0.00  0.00     0.039 H 
BRANCH  40  42
ATOM     42  C   LIG d   1       6.920  -5.131  -6.556  0.00  0.00    -0.054 C 
ATOM     43  H   LIG d   1       6.302  -4.505  -7.198  0.00  0.00     0.024 H 
ATOM     44  H   LIG d   1       7.967  -5.021  -6.840  0.00  0.00     0.024 H 
ATOM     45  H   LIG d   1       6.621  -6.174  -6.669  0.00  0.00     0.024 H 
ENDBRANCH  40  42
BRANCH  40  46
ATOM     46  C   LIG d   1       8.059  -4.140  -4.566  0.00  0.00    -0.054 C 
ATOM     47  H   LIG d   1       8.873  -4.817  -4.824  0.00  0.00     0.024 H 
ATOM     48  H   LIG d   1       8.243  -3.164  -5.014  0.00  0.00     0.024 H 
ATOM     49  H   LIG d   1       8.000  -4.037  -3.483  0.00  0.00     0.024 H 
ENDBRANCH  40  46
ENDBRANCH  37  40
ENDBRANCH   2  36
TORSDOF 7
ENDMDL
MODEL 5
REMARK VINA RESULT:      -6.7      2.063      5.971
REMARK  7 active torsions:
REMARK  status: ('A' for Active; 'I' for Inactive)
REMARK    1  A    between atoms: C_1  and  C_2 
REMARK    2  A    between atoms: C_4  and  C_28 
REMARK    3  A    between atoms: C_8  and  C_13 
REMARK    4  A    between atoms: C_14  and  N_22 
REMARK       I    between atoms: N_22  and  C_23 
REMARK    5  A    between atoms: C_23  and  C_25 
REMARK    6  A    between atoms: C_25  and  C_26 
REMARK    7  A    between atoms: C_25  and  C_27 
ROOT
ATOM      1  C   LIG d   1       5.479  -1.007  -6.023  0.00  0.00     0.158 A 
ATOM      2  C   LIG d   1       4.778  -1.829  -5.184  0.00  0.00     0.088 A 
ATOM      3  C   LIG d   1       4.705  -1.127  -3.898  0.00  0.00     0.042 A 
ATOM      4  C   LIG d   1       4.142  -1.427  -2.657  0.00  0.00    -0.049 A 
ATOM      5  C   LIG d   1       4.249  -0.532  -1.629  0.00  0.00    -0.061 A 
ATOM      6  C   LIG d   1       4.923   0.667  -1.810  0.00  0.00    -0.058 A 
ATOM      7  C   LIG d   1       5.490   0.980  -3.027  0.00  0.00    -0.019 A 
ATOM      8  C   LIG d   1       5.389   0.088  -4.087  0.00  0.00     0.138 A 
ATOM      9  O   LIG d   1       5.831   0.117  -5.361  0.00  0.00    -0.453 OA
ATOM     10  H   LIG d   1       3.620  -2.361  -2.511  0.00  0.00     0.062 H 
ATOM     11  H   LIG d   1       3.810  -0.762  -0.670  0.00  0.00     0.062 H 
ATOM     12  H   LIG d   1       5.004   1.364  -0.988  0.00  0.00     0.062 H 
ATOM     13  H   LIG d   1       6.012   1.917  -3.157  0.00  0.00     0.065 H 
ENDROOT
BRANCH   1  14
ATOM     14  C   LIG d   1       5.798  -1.300  -7.422  0.00  0.00     0.037 A 
ATOM     15  C   LIG d   1       5.138  -0.569  -8.524  0.00  0.00     0.029 A 
ATOM     16  C   LIG d   1       5.480  -0.888  -9.847  0.00  0.00     0.143 A 
ATOM     17  C   LIG d   1       4.190   0.419  -8.265  0.00  0.00    -0.048 A 
ATOM     18  C   LIG d   1       4.866  -0.210 -10.892  0.00  0.00    -0.007 A 
ATOM     19  O   LIG d   1       6.398  -1.848 -10.095  0.00  0.00    -0.422 OA
ATOM     20  C   LIG d   1       3.930   0.767 -10.623  0.00  0.00    -0.052 A 
ATOM     21  C   LIG d   1       3.592   1.081  -9.315  0.00  0.00    -0.049 A 
ATOM     22  H   LIG d   1       3.455   1.292 -11.439  0.00  0.00     0.062 H 
ATOM     23  C   LIG d   1       7.009  -2.523  -9.107  0.00  0.00     0.338 A 
ATOM     24  C   LIG d   1       6.736  -2.268  -7.757  0.00  0.00     0.034 A 
ATOM     25  O   LIG d   1       7.829  -3.377  -9.394  0.00  0.00    -0.245 OA
ATOM     26  H   LIG d   1       7.248  -2.823  -6.985  0.00  0.00     0.070 H 
ATOM     27  H   LIG d   1       3.925   0.665  -7.247  0.00  0.00     0.063 H 
BRANCH  18  28
ATOM     28  C   LIG d   1       5.222  -0.541 -12.318  0.00  0.00    -0.036 C 
ATOM     29  H   LIG d   1       5.795   0.279 -12.750  0.00  0.00     0.028 H 
ATOM     30  H   LIG d   1       5.819  -1.453 -12.340  0.00  0.00     0.028 H 
ATOM     31  H   LIG d   1       4.310  -0.691 -12.894  0.00  0.00     0.028 H 
ENDBRANCH  18  28
BRANCH  21  32
ATOM     32  C   LIG d   1       2.566   2.151  -9.042  0.00  0.00    -0.040 C 
ATOM     33  H   LIG d   1       1.579   1.790  -9.328  0.00  0.00     0.028 H 
ATOM     34  H   LIG d   1       2.570   2.394  -7.979  0.00  0.00     0.028 H 
ATOM     35  H   LIG d   1       2.809   3.044  -9.619  0.00  0.00     0.028 H 
ENDBRANCH  21  32
ENDBRANCH   1  14
BRANCH   2  36
ATOM     36  N   LIG d   1       4.241  -3.078  -5.489  0.00  0.00    -0.282 N 
ATOM     37  C   LIG d   1       4.977  -4.192  -5.306  0.00  0.00     0.220 C 
ATOM     38  O   LIG d   1       6.071  -4.116  -4.788  0.00  0.00    -0.275 OA
ATOM     39  H   LIG d   1       3.336  -3.145  -5.834  0.00  0.00     0.155 HD
BRANCH  37  40
ATOM     40  C   LIG d   1       4.440  -5.530  -5.743  0.00  0.00     0.030 C 
ATOM     41  H   LIG d   1       3.629  -5.831  -5.081  0.00  0.00     0.039 H 
BRANCH  40  42
ATOM     42  C   LIG d   1       3.917  -5.425  -7.177  0.00  0.00    -0.054 C 
ATOM     43  H   LIG d   1       4.684  -4.986  -7.814  0.00  0.00     0.024 H 
ATOM     44  H   LIG d   1       3.664  -6.419  -7.545  0.00  0.00     0.024 H 
ATOM     45  H   LIG d   1       3.027  -4.795  -7.193  0.00  0.00     0.024 H 
ENDBRANCH  40  42
BRANCH  40  46
ATOM     46  C   LIG d   1       5.559  -6.572  -5.685  0.00  0.00    -0.054 C 
ATOM     47  H   LIG d   1       6.198  -6.372  -4.825  0.00  0.00     0.024 H 
ATOM     48  H   LIG d   1       5.124  -7.567  -5.591  0.00  0.00     0.024 H 
ATOM     49  H   LIG d   1       6.152  -6.521  -6.598  0.00  0.00     0.024 H 
ENDBRANCH  40  46
ENDBRANCH  37  40
ENDBRANCH   2  36
TORSDOF 7
ENDMDL
MODEL 6
REMARK VINA RESULT:      -6.6      2.651      6.022
REMARK  7 active torsions:
REMARK  status: ('A' for Active; 'I' for Inactive)
REMARK    1  A    between atoms: C_1  and  C_2 
REMARK    2  A    between atoms: C_4  and  C_28 
REMARK    3  A    between atoms: C_8  and  C_13 
REMARK    4  A    between atoms: C_14  and  N_22 
REMARK       I    between atoms: N_22  and  C_23 
REMARK    5  A    between atoms: C_23  and  C_25 
REMARK    6  A    between atoms: C_25  and  C_26 
REMARK    7  A    between atoms: C_25  and  C_27 
ROOT
ATOM      1  C   LIG d   1       4.340  -0.872  -6.167  0.00  0.00     0.158 A 
ATOM      2  C   LIG d   1       5.516  -0.638  -5.511  0.00  0.00     0.088 A 
ATOM      3  C   LIG d   1       5.145  -0.112  -4.192  0.00  0.00     0.042 A 
ATOM      4  C   LIG d   1       5.867   0.318  -3.079  0.00  0.00    -0.049 A 
ATOM      5  C   LIG d   1       5.204   0.764  -1.970  0.00  0.00    -0.061 A 
ATOM      6  C   LIG d   1       3.817   0.800  -1.950  0.00  0.00    -0.058 A 
ATOM      7  C   LIG d   1       3.086   0.384  -3.041  0.00  0.00    -0.019 A 
ATOM      8  C   LIG d   1       3.739  -0.077  -4.177  0.00  0.00     0.138 A 
ATOM      9  O   LIG d   1       3.303  -0.536  -5.368  0.00  0.00    -0.453 OA
ATOM     10  H   LIG d   1       6.948   0.295  -3.092  0.00  0.00     0.062 H 
ATOM     11  H   LIG d   1       5.763   1.092  -1.105  0.00  0.00     0.062 H 
ATOM     12  H   LIG d   1       3.305   1.158  -1.068  0.00  0.00     0.062 H 
ATOM     13  H   LIG d   1       2.006   0.416  -3.014  0.00  0.00     0.065 H 
ENDROOT
BRANCH   1  14
ATOM     14  C   LIG d   1       4.221  -1.405  -7.526  0.00  0.00     0.037 A 
ATOM     15  C   LIG d   1       4.074  -0.506  -8.688  0.00  0.00     0.029 A 
ATOM     16  C   LIG d   1       3.964  -1.068  -9.969  0.00  0.00     0.143 A 
ATOM     17  C   LIG d   1       4.041   0.878  -8.527  0.00  0.00    -0.048 A 
ATOM     18  C   LIG d   1       3.824  -0.234 -11.070  0.00  0.00    -0.007 A 
ATOM     19  O   LIG d   1       3.995  -2.410 -10.123  0.00  0.00    -0.422 OA
ATOM     20  C   LIG d   1       3.794   1.135 -10.898  0.00  0.00    -0.052 A 
ATOM     21  C   LIG d   1       3.902   1.690  -9.631  0.00  0.00    -0.049 A 
ATOM     22  H   LIG d   1       3.685   1.780 -11.757  0.00  0.00     0.062 H 
ATOM     23  C   LIG d   1       4.128  -3.245  -9.078  0.00  0.00     0.338 A 
ATOM     24  C   LIG d   1       4.250  -2.774  -7.765  0.00  0.00     0.034 A 
ATOM     25  O   LIG d   1       4.149  -4.446  -9.281  0.00  0.00    -0.245 OA
ATOM     26  H   LIG d   1       4.363  -3.469  -6.946  0.00  0.00     0.070 H 
ATOM     27  H   LIG d   1       4.125   1.312  -7.541  0.00  0.00     0.063 H 
BRANCH  18  28
ATOM     28  C   LIG d   1       3.705  -0.823 -12.452  0.00  0.00    -0.036 C 
ATOM     29  H   LIG d   1       4.392  -1.662 -12.550  0.00  0.00     0.028 H 
ATOM     30  H   LIG d   1       2.683  -1.168 -12.611  0.00  0.00     0.028 H 
ATOM     31  H   LIG d   1       3.950  -0.063 -13.193  0.00  0.00     0.028 H 
ENDBRANCH  18  28
BRANCH  21  32
ATOM     32  C   LIG d   1       3.866   3.188  -9.463  0.00  0.00    -0.040 C 
ATOM     33  H   LIG d   1       4.086   3.442  -8.427  0.00  0.00     0.028 H 
ATOM     34  H   LIG d   1       4.611   3.644 -10.116  0.00  0.00     0.028 H 
ATOM     35  H   LIG d   1       2.875   3.559  -9.727  0.00  0.00     0.028 H 
ENDBRANCH  21  32
ENDBRANCH   1  14
BRANCH   2  36
ATOM     36  N   LIG d   1       6.804  -0.855  -5.994  0.00  0.00    -0.282 N 
ATOM     37  C   LIG d   1       7.471   0.141  -6.611  0.00  0.00     0.220 C 
ATOM     38  O   LIG d   1       6.987   1.252  -6.662  0.00  0.00    -0.275 OA
ATOM     39  H   LIG d   1       7.222  -1.724  -5.887  0.00  0.00     0.155 HD
BRANCH  37  40
ATOM     40  C   LIG d   1       8.815  -0.126  -7.236  0.00  0.00     0.030 C 
ATOM     41  H   LIG d   1       9.318  -0.925  -6.691  0.00  0.00     0.039 H 
BRANCH  40  42
ATOM     42  C   LIG d   1       8.626  -0.543  -8.695  0.00  0.00    -0.054 C 
ATOM     43  H   LIG d   1       9.477  -0.205  -9.285  0.00  0.00     0.024 H 
ATOM     44  H   LIG d   1       8.549  -1.629  -8.756  0.00  0.00     0.024 H 
ATOM     45  H   LIG d   1       7.713  -0.093  -9.085  0.00  0.00     0.024 H 
ENDBRANCH  40  42
BRANCH  40  46
ATOM     46  C   LIG d   1       9.667   1.144  -7.177  0.00  0.00    -0.054 C 
ATOM     47  H   LIG d   1       9.020   2.009  -7.032  0.00  0.00     0.024 H 
ATOM     48  H   LIG d   1      10.369   1.073  -6.345  0.00  0.00     0.024 H 
ATOM     49  H   LIG d   1      10.220   1.255  -8.109  0.00  0.00     0.024 H 
ENDBRANCH  40  46
ENDBRANCH  37  40
ENDBRANCH   2  36
TORSDOF 7
ENDMDL
MODEL 7
REMARK VINA RESULT:      -6.6      1.919      4.253
REMARK  7 active torsions:
REMARK  status: ('A' for Active; 'I' for Inactive)
REMARK    1  A    between atoms: C_1  and  C_2 
REMARK    2  A    between atoms: C_4  and  C_28 
REMARK    3  A    between atoms: C_8  and  C_13 
REMARK    4  A    between atoms: C_14  and  N_22 
REMARK       I    between atoms: N_22  and  C_23 
REMARK    5  A    between atoms: C_23  and  C_25 
REMARK    6  A    between atoms: C_25  and  C_26 
REMARK    7  A    between atoms: C_25  and  C_27 
ROOT
ATOM      1  C   LIG d   1       4.768  -2.199  -5.210  0.00  0.00     0.158 A 
ATOM      2  C   LIG d   1       4.024  -1.079  -5.459  0.00  0.00     0.088 A 
ATOM      3  C   LIG d   1       4.003  -0.321  -4.203  0.00  0.00     0.042 A 
ATOM      4  C   LIG d   1       3.422   0.883  -3.804  0.00  0.00    -0.049 A 
ATOM      5  C   LIG d   1       3.596   1.330  -2.524  0.00  0.00    -0.061 A 
ATOM      6  C   LIG d   1       4.339   0.587  -1.617  0.00  0.00    -0.058 A 
ATOM      7  C   LIG d   1       4.917  -0.607  -1.991  0.00  0.00    -0.019 A 
ATOM      8  C   LIG d   1       4.757  -1.077  -3.288  0.00  0.00     0.138 A 
ATOM      9  O   LIG d   1       5.192  -2.183  -3.927  0.00  0.00    -0.453 OA
ATOM     10  H   LIG d   1       2.839   1.462  -4.506  0.00  0.00     0.062 H 
ATOM     11  H   LIG d   1       3.150   2.264  -2.216  0.00  0.00     0.062 H 
ATOM     12  H   LIG d   1       4.466   0.950  -0.607  0.00  0.00     0.062 H 
ATOM     13  H   LIG d   1       5.494  -1.176  -1.276  0.00  0.00     0.065 H 
ENDROOT
BRANCH   1  14
ATOM     14  C   LIG d   1       5.061  -3.254  -6.183  0.00  0.00     0.037 A 
ATOM     15  C   LIG d   1       6.331  -3.263  -6.939  0.00  0.00     0.029 A 
ATOM     16  C   LIG d   1       6.562  -4.297  -7.859  0.00  0.00     0.143 A 
ATOM     17  C   LIG d   1       7.288  -2.268  -6.750  0.00  0.00    -0.048 A 
ATOM     18  C   LIG d   1       7.751  -4.317  -8.577  0.00  0.00    -0.007 A 
ATOM     19  O   LIG d   1       5.632  -5.259  -8.042  0.00  0.00    -0.422 OA
ATOM     20  C   LIG d   1       8.691  -3.326  -8.380  0.00  0.00    -0.052 A 
ATOM     21  C   LIG d   1       8.461  -2.305  -7.470  0.00  0.00    -0.049 A 
ATOM     22  H   LIG d   1       9.614  -3.346  -8.941  0.00  0.00     0.062 H 
ATOM     23  C   LIG d   1       4.472  -5.268  -7.365  0.00  0.00     0.338 A 
ATOM     24  C   LIG d   1       4.158  -4.282  -6.422  0.00  0.00     0.034 A 
ATOM     25  O   LIG d   1       3.673  -6.164  -7.573  0.00  0.00    -0.245 OA
ATOM     26  H   LIG d   1       3.219  -4.318  -5.888  0.00  0.00     0.070 H 
ATOM     27  H   LIG d   1       7.111  -1.471  -6.041  0.00  0.00     0.063 H 
BRANCH  18  28
ATOM     28  C   LIG d   1       8.014  -5.419  -9.570  0.00  0.00    -0.036 C 
ATOM     29  H   LIG d   1       7.565  -5.160 -10.528  0.00  0.00     0.028 H 
ATOM     30  H   LIG d   1       9.089  -5.547  -9.694  0.00  0.00     0.028 H 
ATOM     31  H   LIG d   1       7.578  -6.348  -9.204  0.00  0.00     0.028 H 
ENDBRANCH  18  28
BRANCH  21  32
ATOM     32  C   LIG d   1       9.500  -1.231  -7.270  0.00  0.00    -0.040 C 
ATOM     33  H   LIG d   1       9.578  -0.994  -6.210  0.00  0.00     0.028 H 
ATOM     34  H   LIG d   1      10.464  -1.587  -7.634  0.00  0.00     0.028 H 
ATOM     35  H   LIG d   1       9.210  -0.338  -7.823  0.00  0.00     0.028 H 
ENDBRANCH  21  32
ENDBRANCH   1  14
BRANCH   2  36
ATOM     36  N   LIG d   1       3.414  -0.728  -6.661  0.00  0.00    -0.282 N 
ATOM     37  C   LIG d   1       4.037   0.107  -7.516  0.00  0.00     0.220 C 
ATOM     38  O   LIG d   1       5.167   0.479  -7.283  0.00  0.00    -0.275 OA
ATOM     39  H   LIG d   1       2.539  -1.086  -6.882  0.00  0.00     0.155 HD
BRANCH  37  40
ATOM     40  C   LIG d   1       3.328   0.578  -8.759  0.00  0.00     0.030 C 
ATOM     41  H   LIG d   1       4.019   0.555  -9.602  0.00  0.00     0.039 H 
BRANCH  40  42
ATOM     42  C   LIG d   1       2.140  -0.341  -9.048  0.00  0.00    -0.054 C 
ATOM     43  H   LIG d   1       1.212   0.178  -8.810  0.00  0.00     0.024 H 
ATOM     44  H   LIG d   1       2.141  -0.617 -10.102  0.00  0.00     0.024 H 
ATOM     45  H   LIG d   1       2.220  -1.240  -8.437  0.00  0.00     0.024 H 
ENDBRANCH  40  42
BRANCH  40  46
ATOM     46  C   LIG d   1       2.826   2.009  -8.550  0.00  0.00    -0.054 C 
ATOM     47  H   LIG d   1       2.924   2.277  -7.498  0.00  0.00     0.024 H 
ATOM     48  H   LIG d   1       3.419   2.694  -9.156  0.00  0.00     0.024 H 
ATOM     49  H   LIG d   1       1.780   2.074  -8.847  0.00  0.00     0.024 H 
ENDBRANCH  40  46
ENDBRANCH  37  40
ENDBRANCH   2  36
TORSDOF 7
ENDMDL
MODEL 8
REMARK VINA RESULT:      -6.6      3.291      6.801
REMARK  7 active torsions:
REMARK  status: ('A' for Active; 'I' for Inactive)
REMARK    1  A    between atoms: C_1  and  C_2 
REMARK    2  A    between atoms: C_4  and  C_28 
REMARK    3  A    between atoms: C_8  and  C_13 
REMARK    4  A    between atoms: C_14  and  N_22 
REMARK       I    between atoms: N_22  and  C_23 
REMARK    5  A    between atoms: C_23  and  C_25 
REMARK    6  A    between atoms: C_25  and  C_26 
REMARK    7  A    between atoms: C_25  and  C_27 
ROOT
ATOM      1  C   LIG d   1       6.983   0.909  -3.928  0.00  0.00     0.158 A 
ATOM      2  C   LIG d   1       6.967  -0.432  -3.663  0.00  0.00     0.088 A 
ATOM      3  C   LIG d   1       5.591  -0.748  -3.263  0.00  0.00     0.042 A 
ATOM      4  C   LIG d   1       4.937  -1.916  -2.868  0.00  0.00    -0.049 A 
ATOM      5  C   LIG d   1       3.608  -1.877  -2.553  0.00  0.00    -0.061 A 
ATOM      6  C   LIG d   1       2.908  -0.680  -2.612  0.00  0.00    -0.058 A 
ATOM      7  C   LIG d   1       3.537   0.485  -2.996  0.00  0.00    -0.019 A 
ATOM      8  C   LIG d   1       4.886   0.467  -3.325  0.00  0.00     0.138 A 
ATOM      9  O   LIG d   1       5.750   1.424  -3.724  0.00  0.00    -0.453 OA
ATOM     10  H   LIG d   1       5.480  -2.849  -2.816  0.00  0.00     0.062 H 
ATOM     11  H   LIG d   1       3.100  -2.781  -2.252  0.00  0.00     0.062 H 
ATOM     12  H   LIG d   1       1.859  -0.662  -2.356  0.00  0.00     0.062 H 
ATOM     13  H   LIG d   1       2.982   1.411  -3.039  0.00  0.00     0.065 H 
ENDROOT
BRANCH   1  14
ATOM     14  C   LIG d   1       8.154   1.671  -4.366  0.00  0.00     0.037 A 
ATOM     15  C   LIG d   1       8.408   1.923  -5.800  0.00  0.00     0.029 A 
ATOM     16  C   LIG d   1       9.545   2.659  -6.166  0.00  0.00     0.143 A 
ATOM     17  C   LIG d   1       7.541   1.442  -6.779  0.00  0.00    -0.048 A 
ATOM     18  C   LIG d   1       9.796   2.903  -7.510  0.00  0.00    -0.007 A 
ATOM     19  O   LIG d   1      10.385   3.123  -5.215  0.00  0.00    -0.422 OA
ATOM     20  C   LIG d   1       8.930   2.422  -8.470  0.00  0.00    -0.052 A 
ATOM     21  C   LIG d   1       7.806   1.695  -8.107  0.00  0.00    -0.049 A 
ATOM     22  H   LIG d   1       9.129   2.614  -9.514  0.00  0.00     0.062 H 
ATOM     23  C   LIG d   1      10.172   2.904  -3.906  0.00  0.00     0.338 A 
ATOM     24  C   LIG d   1       9.061   2.186  -3.447  0.00  0.00     0.034 A 
ATOM     25  O   LIG d   1      10.966   3.349  -3.095  0.00  0.00    -0.245 OA
ATOM     26  H   LIG d   1       8.912   2.031  -2.389  0.00  0.00     0.070 H 
ATOM     27  H   LIG d   1       6.665   0.876  -6.498  0.00  0.00     0.063 H 
BRANCH  18  28
ATOM     28  C   LIG d   1      11.014   3.690  -7.919  0.00  0.00    -0.036 C 
ATOM     29  H   LIG d   1      11.213   3.528  -8.977  0.00  0.00     0.028 H 
ATOM     30  H   LIG d   1      10.836   4.751  -7.740  0.00  0.00     0.028 H 
ATOM     31  H   LIG d   1      11.871   3.362  -7.332  0.00  0.00     0.028 H 
ENDBRANCH  18  28
BRANCH  21  32
ATOM     32  C   LIG d   1       6.872   1.177  -9.171  0.00  0.00    -0.040 C 
ATOM     33  H   LIG d   1       5.862   1.536  -8.975  0.00  0.00     0.028 H 
ATOM     34  H   LIG d   1       7.201   1.535 -10.147  0.00  0.00     0.028 H 
ATOM     35  H   LIG d   1       6.879   0.087  -9.162  0.00  0.00     0.028 H 
ENDBRANCH  21  32
ENDBRANCH   1  14
BRANCH   2  36
ATOM     36  N   LIG d   1       8.038  -1.318  -3.756  0.00  0.00    -0.282 N 
ATOM     37  C   LIG d   1       8.175  -2.098  -4.847  0.00  0.00     0.220 C 
ATOM     38  O   LIG d   1       7.422  -1.962  -5.787  0.00  0.00    -0.275 OA
ATOM     39  H   LIG d   1       8.684  -1.373  -3.035  0.00  0.00     0.155 HD
BRANCH  37  40
ATOM     40  C   LIG d   1       9.265  -3.137  -4.897  0.00  0.00     0.030 C 
ATOM     41  H   LIG d   1      10.215  -2.658  -5.136  0.00  0.00     0.039 H 
BRANCH  40  42
ATOM     42  C   LIG d   1       9.371  -3.831  -3.537  0.00  0.00    -0.054 C 
ATOM     43  H   LIG d   1       8.948  -4.832  -3.605  0.00  0.00     0.024 H 
ATOM     44  H   LIG d   1      10.419  -3.898  -3.244  0.00  0.00     0.024 H 
ATOM     45  H   LIG d   1       8.823  -3.254  -2.792  0.00  0.00     0.024 H 
ENDBRANCH  40  42
BRANCH  40  46
ATOM     46  C   LIG d   1       8.932  -4.174  -5.972  0.00  0.00    -0.054 C 
ATOM     47  H   LIG d   1       8.819  -5.154  -5.509  0.00  0.00     0.024 H 
ATOM     48  H   LIG d   1       8.001  -3.897  -6.468  0.00  0.00     0.024 H 
ATOM     49  H   LIG d   1       9.737  -4.208  -6.706  0.00  0.00     0.024 H 
ENDBRANCH  40  46
ENDBRANCH  37  40
ENDBRANCH   2  36
TORSDOF 7
ENDMDL
MODEL 9
REMARK VINA RESULT:      -6.4      2.750      5.726
REMARK  7 active torsions:
REMARK  status: ('A' for Active; 'I' for Inactive)
REMARK    1  A    between atoms: C_1  and  C_2 
REMARK    2  A    between atoms: C_4  and  C_28 
REMARK    3  A    between atoms: C_8  and  C_13 
REMARK    4  A    between atoms: C_14  and  N_22 
REMARK       I    between atoms: N_22  and  C_23 
REMARK    5  A    between atoms: C_23  and  C_25 
REMARK    6  A    between atoms: C_25  and  C_26 
REMARK    7  A    between atoms: C_25  and  C_27 
ROOT
ATOM      1  C   LIG d   1       6.019  -0.580  -6.114  0.00  0.00     0.158 A 
ATOM      2  C   LIG d   1       4.723  -0.154  -6.007  0.00  0.00     0.088 A 
ATOM      3  C   LIG d   1       4.241  -0.648  -4.713  0.00  0.00     0.042 A 
ATOM      4  C   LIG d   1       3.028  -0.560  -4.029  0.00  0.00    -0.049 A 
ATOM      5  C   LIG d   1       2.897  -1.145  -2.801  0.00  0.00    -0.061 A 
ATOM      6  C   LIG d   1       3.960  -1.835  -2.235  0.00  0.00    -0.058 A 
ATOM      7  C   LIG d   1       5.165  -1.937  -2.897  0.00  0.00    -0.019 A 
ATOM      8  C   LIG d   1       5.322  -1.346  -4.144  0.00  0.00     0.138 A 
ATOM      9  O   LIG d   1       6.355  -1.281  -5.008  0.00  0.00    -0.453 OA
ATOM     10  H   LIG d   1       2.197  -0.027  -4.468  0.00  0.00     0.062 H 
ATOM     11  H   LIG d   1       1.960  -1.073  -2.269  0.00  0.00     0.062 H 
ATOM     12  H   LIG d   1       3.841  -2.297  -1.265  0.00  0.00     0.062 H 
ATOM     13  H   LIG d   1       5.985  -2.477  -2.447  0.00  0.00     0.065 H 
ENDROOT
BRANCH   1  14
ATOM     14  C   LIG d   1       6.904  -0.317  -7.250  0.00  0.00     0.037 A 
ATOM     15  C   LIG d   1       7.899   0.774  -7.206  0.00  0.00     0.029 A 
ATOM     16  C   LIG d   1       8.724   0.983  -8.321  0.00  0.00     0.143 A 
ATOM     17  C   LIG d   1       8.024   1.588  -6.081  0.00  0.00    -0.048 A 
ATOM     18  C   LIG d   1       9.663   2.006  -8.293  0.00  0.00    -0.007 A 
ATOM     19  O   LIG d   1       8.600   0.194  -9.411  0.00  0.00    -0.422 OA
ATOM     20  C   LIG d   1       9.777   2.805  -7.174  0.00  0.00    -0.052 A 
ATOM     21  C   LIG d   1       8.962   2.597  -6.071  0.00  0.00    -0.049 A 
ATOM     22  H   LIG d   1      10.509   3.599  -7.156  0.00  0.00     0.062 H 
ATOM     23  C   LIG d   1       7.702  -0.803  -9.471  0.00  0.00     0.338 A 
ATOM     24  C   LIG d   1       6.842  -1.090  -8.403  0.00  0.00     0.034 A 
ATOM     25  O   LIG d   1       7.638  -1.482 -10.481  0.00  0.00    -0.245 OA
ATOM     26  H   LIG d   1       6.134  -1.902  -8.478  0.00  0.00     0.070 H 
ATOM     27  H   LIG d   1       7.389   1.428  -5.222  0.00  0.00     0.063 H 
BRANCH  18  28
ATOM     28  C   LIG d   1      10.555   2.244  -9.483  0.00  0.00    -0.036 C 
ATOM     29  H   LIG d   1      10.247   3.158  -9.991  0.00  0.00     0.028 H 
ATOM     30  H   LIG d   1      11.587   2.344  -9.149  0.00  0.00     0.028 H 
ATOM     31  H   LIG d   1      10.475   1.402 -10.170  0.00  0.00     0.028 H 
ENDBRANCH  18  28
BRANCH  21  32
ATOM     32  C   LIG d   1       9.101   3.481  -4.858  0.00  0.00    -0.040 C 
ATOM     33  H   LIG d   1       9.816   3.038  -4.166  0.00  0.00     0.028 H 
ATOM     34  H   LIG d   1       9.456   4.465  -5.165  0.00  0.00     0.028 H 
ATOM     35  H   LIG d   1       8.133   3.580  -4.367  0.00  0.00     0.028 H 
ENDBRANCH  21  32
ENDBRANCH   1  14
BRANCH   2  36
ATOM     36  N   LIG d   1       4.008   0.597  -6.937  0.00  0.00    -0.282 N 
ATOM     37  C   LIG d   1       3.311  -0.021  -7.911  0.00  0.00     0.220 C 
ATOM     38  O   LIG d   1       3.229  -1.231  -7.923  0.00  0.00    -0.275 OA
ATOM     39  H   LIG d   1       4.012   1.566  -6.883  0.00  0.00     0.155 HD
BRANCH  37  40
ATOM     40  C   LIG d   1       2.633   0.791  -8.984  0.00  0.00     0.030 C 
ATOM     41  H   LIG d   1       1.555   0.777  -8.825  0.00  0.00     0.039 H 
BRANCH  40  42
ATOM     42  C   LIG d   1       3.138   2.234  -8.926  0.00  0.00    -0.054 C 
ATOM     43  H   LIG d   1       2.665   2.817  -9.715  0.00  0.00     0.024 H 
ATOM     44  H   LIG d   1       2.893   2.667  -7.957  0.00  0.00     0.024 H 
ATOM     45  H   LIG d   1       4.220   2.246  -9.065  0.00  0.00     0.024 H 
ENDBRANCH  40  42
BRANCH  40  46
ATOM     46  C   LIG d   1       2.955   0.194 -10.356  0.00  0.00    -0.054 C 
ATOM     47  H   LIG d   1       2.989  -0.893 -10.280  0.00  0.00     0.024 H 
ATOM     48  H   LIG d   1       2.183   0.484 -11.068  0.00  0.00     0.024 H 
ATOM     49  H   LIG d   1       3.921   0.565 -10.696  0.00  0.00     0.024 H 
ENDBRANCH  40  46
ENDBRANCH  37  40
ENDBRANCH   2  36
TORSDOF 7
ENDMDL
