MODEL 1
REMARK VINA RESULT:      -6.5      0.000      0.000
REMARK  9 active torsions:
REMARK  status: ('A' for Active; 'I' for Inactive)
REMARK    1  A    between atoms: C_1  and  C_2 
REMARK    2  A    between atoms: C_9  and  C_18 
REMARK    3  A    between atoms: C_12  and  C_14 
REMARK    4  A    between atoms: C_14  and  C_15 
REMARK    5  A    between atoms: C_15  and  C_16 
REMARK    6  A    between atoms: C_15  and  C_17 
REMARK       I    between atoms: C_18  and  N_20 
REMARK    7  A    between atoms: N_20  and  C_21 
REMARK    8  A    between atoms: C_26  and  O_27 
REMARK    9  A    between atoms: O_27  and  C_28 
ROOT
ATOM      1  C   LIG d   1       4.578  -4.279  -8.242  0.00  0.00    -0.050 A 
ATOM      2  C   LIG d   1       5.327  -5.438  -8.349  0.00  0.00    -0.057 A 
ATOM      3  C   LIG d   1       6.330  -5.704  -7.440  0.00  0.00    -0.040 A 
ATOM      4  C   LIG d   1       6.598  -4.805  -6.409  0.00  0.00     0.043 A 
ATOM      5  C   LIG d   1       5.839  -3.644  -6.314  0.00  0.00     0.034 A 
ATOM      6  C   LIG d   1       4.838  -3.382  -7.222  0.00  0.00    -0.048 A 
ATOM      7  C   LIG d   1       6.367  -2.899  -5.118  0.00  0.00     0.105 A 
ATOM      8  C   LIG d   1       6.913  -1.523  -5.529  0.00  0.00     0.099 C 
ATOM      9  H   LIG d   1       7.996  -1.558  -5.655  0.00  0.00     0.046 H 
ATOM     10  C   LIG d   1       6.529  -0.621  -4.324  0.00  0.00     0.008 C 
ATOM     11  C   LIG d   1       5.169  -1.227  -3.898  0.00  0.00    -0.020 C 
ATOM     12  H   LIG d   1       4.366  -0.836  -4.523  0.00  0.00     0.085 H 
ATOM     13  C   LIG d   1       7.474  -3.771  -4.581  0.00  0.00     0.274 A 
ATOM     14  O   LIG d   1       8.169  -3.544  -3.613  0.00  0.00    -0.269 OA
ATOM     15  N   LIG d   1       7.544  -4.850  -5.383  0.00  0.00    -0.280 N 
ATOM     16  H   LIG d   1       5.125  -6.138  -9.146  0.00  0.00     0.062 H 
ATOM     17  H   LIG d   1       6.911  -6.610  -7.528  0.00  0.00     0.064 H 
ATOM     18  H   LIG d   1       4.256  -2.476  -7.138  0.00  0.00     0.063 H 
ATOM     19  H   LIG d   1       7.263  -0.707  -3.523  0.00  0.00     0.033 H 
ATOM     20  H   LIG d   1       6.414   0.417  -4.635  0.00  0.00     0.033 H 
ATOM     21  H   LIG d   1       8.177  -5.574  -5.261  0.00  0.00     0.155 HD
ATOM     22  N   LIG d   1       5.326  -2.680  -4.111  0.00  0.00     0.244 N 
ATOM     23  H   LIG d   1       5.596  -3.131  -3.229  0.00  0.00     0.203 HD
ATOM     24  H   LIG d   1       4.438  -3.077  -4.441  0.00  0.00     0.203 HD
ENDROOT
BRANCH   8  25
ATOM     25  C   LIG d   1       6.246  -1.040  -6.791  0.00  0.00     0.227 C 
ATOM     26  O   LIG d   1       6.602  -1.472  -7.868  0.00  0.00    -0.275 OA
ATOM     27  N   LIG d   1       5.256  -0.129  -6.724  0.00  0.00    -0.282 N 
ATOM     28  H   LIG d   1       5.012   0.260  -5.870  0.00  0.00     0.155 HD
BRANCH  27  29
ATOM     29  C   LIG d   1       4.577   0.256  -7.888  0.00  0.00     0.077 A 
ATOM     30  C   LIG d   1       5.074   1.289  -8.677  0.00  0.00     0.141 A 
ATOM     31  C   LIG d   1       4.400   1.665  -9.828  0.00  0.00    -0.017 A 
ATOM     32  C   LIG d   1       3.235   1.014 -10.190  0.00  0.00    -0.040 A 
ATOM     33  H   LIG d   1       4.783   2.467 -10.441  0.00  0.00     0.066 H 
ATOM     34  C   LIG d   1       2.740  -0.013  -9.406  0.00  0.00     0.043 A 
ATOM     35  H   LIG d   1       2.710   1.309 -11.087  0.00  0.00     0.063 H 
ATOM     36  C   LIG d   1       3.412  -0.398  -8.260  0.00  0.00    -0.018 A 
ATOM     37 CL   LIG d   1       1.276  -0.826  -9.867  0.00  0.00    -0.084 Cl
ATOM     38  H   LIG d   1       3.025  -1.203  -7.653  0.00  0.00     0.065 H 
BRANCH  30  39
ATOM     39  O   LIG d   1       6.220   1.928  -8.321  0.00  0.00    -0.493 OA
BRANCH  39  40
ATOM     40  C   LIG d   1       7.376   1.687  -9.127  0.00  0.00     0.079 C 
ATOM     41  H   LIG d   1       7.420   2.424  -9.929  0.00  0.00     0.066 H 
ATOM     42  H   LIG d   1       8.272   1.768  -8.510  0.00  0.00     0.066 H 
ATOM     43  H   LIG d   1       7.319   0.686  -9.554  0.00  0.00     0.066 H 
ENDBRANCH  39  40
ENDBRANCH  30  39
ENDBRANCH  27  29
ENDBRANCH   8  25
BRANCH  11  44
ATOM     44  C   LIG d   1       4.889  -0.925  -2.425  0.00  0.00    -0.007 C 
ATOM     45  H   LIG d   1       4.824  -1.859  -1.868  0.00  0.00     0.032 H 
ATOM     46  H   LIG d   1       5.697  -0.316  -2.019  0.00  0.00     0.032 H 
BRANCH  44  47
ATOM     47  C   LIG d   1       3.567  -0.165  -2.302  0.00  0.00    -0.042 C 
ATOM     48  H   LIG d   1       3.095  -0.408  -1.350  0.00  0.00     0.030 H 
BRANCH  47  49
ATOM     49  C   LIG d   1       3.835   1.340  -2.368  0.00  0.00    -0.062 C 
ATOM     50  H   LIG d   1       3.182   1.857  -1.665  0.00  0.00     0.023 H 
ATOM     51  H   LIG d   1       4.876   1.535  -2.108  0.00  0.00     0.023 H 
ATOM     52  H   LIG d   1       3.640   1.700  -3.378  0.00  0.00     0.023 H 
ENDBRANCH  47  49
BRANCH  47  53
ATOM     53  C   LIG d   1       2.638  -0.568  -3.449  0.00  0.00    -0.062 C 
ATOM     54  H   LIG d   1       2.119  -1.491  -3.189  0.00  0.00     0.023 H 
ATOM     55  H   LIG d   1       1.909   0.223  -3.621  0.00  0.00     0.023 H 
ATOM     56  H   LIG d   1       3.225  -0.725  -4.354  0.00  0.00     0.023 H 
ENDBRANCH  47  53
ENDBRANCH  44  47
ENDBRANCH  11  44
BRANCH   1  57
ATOM     57  C   LIG d   1       3.483  -3.995  -9.238  0.00  0.00    -0.040 C 
ATOM     58  H   LIG d   1       3.745  -3.115  -9.826  0.00  0.00     0.028 H 
ATOM     59  H   LIG d   1       3.363  -4.853  -9.901  0.00  0.00     0.028 H 
ATOM     60  H   LIG d   1       2.548  -3.812  -8.708  0.00  0.00     0.028 H 
ENDBRANCH   1  57
TORSDOF 9
ENDMDL
MODEL 2
REMARK VINA RESULT:      -6.3      3.457      5.908
REMARK  9 active torsions:
REMARK  status: ('A' for Active; 'I' for Inactive)
REMARK    1  A    between atoms: C_1  and  C_2 
REMARK    2  A    between atoms: C_9  and  C_18 
REMARK    3  A    between atoms: C_12  and  C_14 
REMARK    4  A    between atoms: C_14  and  C_15 
REMARK    5  A    between atoms: C_15  and  C_16 
REMARK    6  A    between atoms: C_15  and  C_17 
REMARK       I    between atoms: C_18  and  N_20 
REMARK    7  A    between atoms: N_20  and  C_21 
REMARK    8  A    between atoms: C_26  and  O_27 
REMARK    9  A    between atoms: O_27  and  C_28 
ROOT
ATOM      1  C   LIG d   1       9.791  -4.382  -3.620  0.00  0.00    -0.050 A 
ATOM      2  C   LIG d   1      11.020  -4.192  -4.225  0.00  0.00    -0.057 A 
ATOM      3  C   LIG d   1      11.265  -3.048  -4.957  0.00  0.00    -0.040 A 
ATOM      4  C   LIG d   1      10.275  -2.076  -5.092  0.00  0.00     0.043 A 
ATOM      5  C   LIG d   1       9.044  -2.281  -4.479  0.00  0.00     0.034 A 
ATOM      6  C   LIG d   1       8.802  -3.424  -3.749  0.00  0.00    -0.048 A 
ATOM      7  C   LIG d   1       8.210  -1.073  -4.809  0.00  0.00     0.105 A 
ATOM      8  C   LIG d   1       6.954  -1.476  -5.598  0.00  0.00     0.099 C 
ATOM      9  H   LIG d   1       7.108  -1.336  -6.668  0.00  0.00     0.046 H 
ATOM     10  C   LIG d   1       5.876  -0.492  -5.064  0.00  0.00     0.008 C 
ATOM     11  C   LIG d   1       6.291  -0.346  -3.579  0.00  0.00    -0.020 C 
ATOM     12  H   LIG d   1       5.907  -1.181  -2.993  0.00  0.00     0.085 H 
ATOM     13  C   LIG d   1       9.109  -0.204  -5.650  0.00  0.00     0.274 A 
ATOM     14  O   LIG d   1       8.830   0.875  -6.131  0.00  0.00    -0.269 OA
ATOM     15  N   LIG d   1      10.281  -0.855  -5.768  0.00  0.00    -0.280 N 
ATOM     16  H   LIG d   1      11.791  -4.941  -4.125  0.00  0.00     0.062 H 
ATOM     17  H   LIG d   1      12.227  -2.905  -5.427  0.00  0.00     0.064 H 
ATOM     18  H   LIG d   1       7.842  -3.570  -3.278  0.00  0.00     0.063 H 
ATOM     19  H   LIG d   1       5.931   0.465  -5.581  0.00  0.00     0.033 H 
ATOM     20  H   LIG d   1       4.879  -0.924  -5.150  0.00  0.00     0.033 H 
ATOM     21  H   LIG d   1      11.042  -0.515  -6.264  0.00  0.00     0.155 HD
ATOM     22  N   LIG d   1       7.767  -0.371  -3.601  0.00  0.00     0.244 N 
ATOM     23  H   LIG d   1       8.129   0.590  -3.608  0.00  0.00     0.203 HD
ATOM     24  H   LIG d   1       8.116  -0.862  -2.770  0.00  0.00     0.203 HD
ENDROOT
BRANCH   8  25
ATOM     25  C   LIG d   1       6.570  -2.902  -5.298  0.00  0.00     0.227 C 
ATOM     26  O   LIG d   1       6.097  -3.188  -4.218  0.00  0.00    -0.275 OA
ATOM     27  N   LIG d   1       6.754  -3.859  -6.228  0.00  0.00    -0.282 N 
ATOM     28  H   LIG d   1       7.187  -3.642  -7.069  0.00  0.00     0.155 HD
BRANCH  27  29
ATOM     29  C   LIG d   1       6.319  -5.169  -5.983  0.00  0.00     0.077 A 
ATOM     30  C   LIG d   1       4.994  -5.521  -6.225  0.00  0.00     0.141 A 
ATOM     31  C   LIG d   1       4.569  -6.817  -5.981  0.00  0.00    -0.017 A 
ATOM     32  C   LIG d   1       5.460  -7.757  -5.499  0.00  0.00    -0.040 A 
ATOM     33  H   LIG d   1       3.541  -7.093  -6.167  0.00  0.00     0.066 H 
ATOM     34  C   LIG d   1       6.778  -7.409  -5.259  0.00  0.00     0.043 A 
ATOM     35  H   LIG d   1       5.127  -8.767  -5.309  0.00  0.00     0.063 H 
ATOM     36  C   LIG d   1       7.210  -6.118  -5.506  0.00  0.00    -0.018 A 
ATOM     37 CL   LIG d   1       7.891  -8.595  -4.653  0.00  0.00    -0.084 Cl
ATOM     38  H   LIG d   1       8.240  -5.850  -5.321  0.00  0.00     0.065 H 
BRANCH  30  39
ATOM     39  O   LIG d   1       4.119  -4.595  -6.699  0.00  0.00    -0.493 OA
BRANCH  39  40
ATOM     40  C   LIG d   1       3.698  -4.736  -8.058  0.00  0.00     0.079 C 
ATOM     41  H   LIG d   1       4.557  -4.611  -8.719  0.00  0.00     0.066 H 
ATOM     42  H   LIG d   1       3.269  -5.727  -8.204  0.00  0.00     0.066 H 
ATOM     43  H   LIG d   1       2.950  -3.978  -8.288  0.00  0.00     0.066 H 
ENDBRANCH  39  40
ENDBRANCH  30  39
ENDBRANCH  27  29
ENDBRANCH   8  25
BRANCH  11  44
ATOM     44  C   LIG d   1       5.782   0.980  -3.012  0.00  0.00    -0.007 C 
ATOM     45  H   LIG d   1       6.607   1.515  -2.542  0.00  0.00     0.032 H 
ATOM     46  H   LIG d   1       5.370   1.586  -3.819  0.00  0.00     0.032 H 
BRANCH  44  47
ATOM     47  C   LIG d   1       4.693   0.706  -1.973  0.00  0.00    -0.042 C 
ATOM     48  H   LIG d   1       5.001   1.112  -1.009  0.00  0.00     0.030 H 
BRANCH  47  49
ATOM     49  C   LIG d   1       3.388   1.372  -2.413  0.00  0.00    -0.062 C 
ATOM     50  H   LIG d   1       3.395   2.420  -2.112  0.00  0.00     0.023 H 
ATOM     51  H   LIG d   1       3.295   1.307  -3.497  0.00  0.00     0.023 H 
ATOM     52  H   LIG d   1       2.545   0.865  -1.945  0.00  0.00     0.023 H 
ENDBRANCH  47  49
BRANCH  47  53
ATOM     53  C   LIG d   1       4.478  -0.803  -1.845  0.00  0.00    -0.062 C 
ATOM     54  H   LIG d   1       4.314  -1.059  -0.798  0.00  0.00     0.023 H 
ATOM     55  H   LIG d   1       3.607  -1.097  -2.432  0.00  0.00     0.023 H 
ATOM     56  H   LIG d   1       5.359  -1.328  -2.214  0.00  0.00     0.023 H 
ENDBRANCH  47  53
ENDBRANCH  44  47
ENDBRANCH  11  44
BRANCH   1  57
ATOM     57  C   LIG d   1       9.530  -5.634  -2.821  0.00  0.00    -0.040 C 
ATOM     58  H   LIG d   1       8.457  -5.750  -2.668  0.00  0.00     0.028 H 
ATOM     59  H   LIG d   1       9.916  -6.498  -3.363  0.00  0.00     0.028 H 
ATOM     60  H   LIG d   1      10.029  -5.559  -1.854  0.00  0.00     0.028 H 
ENDBRANCH   1  57
TORSDOF 9
ENDMDL
MODEL 3
REMARK VINA RESULT:      -6.3      1.828      2.129
REMARK  9 active torsions:
REMARK  status: ('A' for Active; 'I' for Inactive)
REMARK    1  A    between atoms: C_1  and  C_2 
REMARK    2  A    between atoms: C_9  and  C_18 
REMARK    3  A    between atoms: C_12  and  C_14 
REMARK    4  A    between atoms: C_14  and  C_15 
REMARK    5  A    between atoms: C_15  and  C_16 
REMARK    6  A    between atoms: C_15  and  C_17 
REMARK       I    between atoms: C_18  and  N_20 
REMARK    7  A    between atoms: N_20  and  C_21 
REMARK    8  A    between atoms: C_26  and  O_27 
REMARK    9  A    between atoms: O_27  and  C_28 
ROOT
ATOM      1  C   LIG d   1       3.911  -5.028  -8.381  0.00  0.00    -0.050 A 
ATOM      2  C   LIG d   1       4.876  -6.003  -8.202  0.00  0.00    -0.057 A 
ATOM      3  C   LIG d   1       5.833  -5.864  -7.218  0.00  0.00    -0.040 A 
ATOM      4  C   LIG d   1       5.835  -4.738  -6.397  0.00  0.00     0.043 A 
ATOM      5  C   LIG d   1       4.861  -3.764  -6.588  0.00  0.00     0.034 A 
ATOM      6  C   LIG d   1       3.907  -3.907  -7.571  0.00  0.00    -0.048 A 
ATOM      7  C   LIG d   1       5.133  -2.697  -5.563  0.00  0.00     0.105 A 
ATOM      8  C   LIG d   1       5.435  -1.352  -6.241  0.00  0.00     0.099 C 
ATOM      9  H   LIG d   1       6.510  -1.188  -6.314  0.00  0.00     0.046 H 
ATOM     10  C   LIG d   1       4.784  -0.321  -5.278  0.00  0.00     0.008 C 
ATOM     11  C   LIG d   1       3.536  -1.095  -4.785  0.00  0.00    -0.020 C 
ATOM     12  H   LIG d   1       2.728  -1.016  -5.512  0.00  0.00     0.085 H 
ATOM     13  C   LIG d   1       6.339  -3.192  -4.805  0.00  0.00     0.274 A 
ATOM     14  O   LIG d   1       6.894  -2.632  -3.883  0.00  0.00    -0.269 OA
ATOM     15  N   LIG d   1       6.683  -4.374  -5.349  0.00  0.00    -0.280 N 
ATOM     16  H   LIG d   1       4.880  -6.878  -8.835  0.00  0.00     0.062 H 
ATOM     17  H   LIG d   1       6.583  -6.629  -7.084  0.00  0.00     0.064 H 
ATOM     18  H   LIG d   1       3.155  -3.144  -7.709  0.00  0.00     0.063 H 
ATOM     19  H   LIG d   1       5.452  -0.088  -4.449  0.00  0.00     0.033 H 
ATOM     20  H   LIG d   1       4.497   0.584  -5.812  0.00  0.00     0.033 H 
ATOM     21  H   LIG d   1       7.432  -4.911  -5.048  0.00  0.00     0.155 HD
ATOM     22  N   LIG d   1       3.988  -2.496  -4.670  0.00  0.00     0.244 N 
ATOM     23  H   LIG d   1       4.267  -2.691  -3.701  0.00  0.00     0.203 HD
ATOM     24  H   LIG d   1       3.225  -3.127  -4.941  0.00  0.00     0.203 HD
ENDROOT
BRANCH   8  25
ATOM     25  C   LIG d   1       4.794  -1.287  -7.604  0.00  0.00     0.227 C 
ATOM     26  O   LIG d   1       3.585  -1.264  -7.705  0.00  0.00    -0.275 OA
ATOM     27  N   LIG d   1       5.564  -1.254  -8.709  0.00  0.00    -0.282 N 
ATOM     28  H   LIG d   1       6.527  -1.332  -8.632  0.00  0.00     0.155 HD
BRANCH  27  29
ATOM     29  C   LIG d   1       4.972  -1.106  -9.971  0.00  0.00     0.077 A 
ATOM     30  C   LIG d   1       4.770   0.164 -10.504  0.00  0.00     0.141 A 
ATOM     31  C   LIG d   1       4.186   0.304 -11.752  0.00  0.00    -0.017 A 
ATOM     32  C   LIG d   1       3.805  -0.815 -12.467  0.00  0.00    -0.040 A 
ATOM     33  H   LIG d   1       4.027   1.289 -12.167  0.00  0.00     0.066 H 
ATOM     34  C   LIG d   1       4.005  -2.079 -11.939  0.00  0.00     0.043 A 
ATOM     35  H   LIG d   1       3.349  -0.705 -13.439  0.00  0.00     0.063 H 
ATOM     36  C   LIG d   1       4.594  -2.227 -10.696  0.00  0.00    -0.018 A 
ATOM     37 CL   LIG d   1       3.523  -3.482 -12.842  0.00  0.00    -0.084 Cl
ATOM     38  H   LIG d   1       4.753  -3.214 -10.288  0.00  0.00     0.065 H 
BRANCH  30  39
ATOM     39  O   LIG d   1       5.146   1.265  -9.800  0.00  0.00    -0.493 OA
BRANCH  39  40
ATOM     40  C   LIG d   1       4.109   2.162  -9.394  0.00  0.00     0.079 C 
ATOM     41  H   LIG d   1       4.549   3.014  -8.874  0.00  0.00     0.066 H 
ATOM     42  H   LIG d   1       3.569   2.513 -10.274  0.00  0.00     0.066 H 
ATOM     43  H   LIG d   1       3.420   1.644  -8.727  0.00  0.00     0.066 H 
ENDBRANCH  39  40
ENDBRANCH  30  39
ENDBRANCH  27  29
ENDBRANCH   8  25
BRANCH  11  44
ATOM     44  C   LIG d   1       3.082  -0.562  -3.425  0.00  0.00    -0.007 C 
ATOM     45  H   LIG d   1       2.411   0.285  -3.573  0.00  0.00     0.032 H 
ATOM     46  H   LIG d   1       2.559  -1.349  -2.882  0.00  0.00     0.032 H 
BRANCH  44  47
ATOM     47  C   LIG d   1       4.302  -0.111  -2.620  0.00  0.00    -0.042 C 
ATOM     48  H   LIG d   1       5.165  -0.032  -3.282  0.00  0.00     0.030 H 
BRANCH  47  49
ATOM     49  C   LIG d   1       4.019   1.253  -1.986  0.00  0.00    -0.062 C 
ATOM     50  H   LIG d   1       4.904   1.595  -1.450  0.00  0.00     0.023 H 
ATOM     51  H   LIG d   1       3.767   1.971  -2.766  0.00  0.00     0.023 H 
ATOM     52  H   LIG d   1       3.185   1.164  -1.290  0.00  0.00     0.023 H 
ENDBRANCH  47  49
BRANCH  47  53
ATOM     53  C   LIG d   1       4.595  -1.134  -1.521  0.00  0.00    -0.062 C 
ATOM     54  H   LIG d   1       5.554  -1.612  -1.716  0.00  0.00     0.023 H 
ATOM     55  H   LIG d   1       4.629  -0.629  -0.555  0.00  0.00     0.023 H 
ATOM     56  H   LIG d   1       3.809  -1.889  -1.508  0.00  0.00     0.023 H 
ENDBRANCH  47  53
ENDBRANCH  44  47
ENDBRANCH  11  44
BRANCH   1  57
ATOM     57  C   LIG d   1       2.869  -5.187  -9.457  0.00  0.00    -0.040 C 
ATOM     58  H   LIG d   1       3.289  -4.890 -10.418  0.00  0.00     0.028 H 
ATOM     59  H   LIG d   1       2.552  -6.230  -9.506  0.00  0.00     0.028 H 
ATOM     60  H   LIG d   1       2.009  -4.557  -9.227  0.00  0.00     0.028 H 
ENDBRANCH   1  57
TORSDOF 9
ENDMDL
MODEL 4
REMARK VINA RESULT:      -6.2      3.322      4.769
REMARK  9 active torsions:
REMARK  status: ('A' for Active; 'I' for Inactive)
REMARK    1  A    between atoms: C_1  and  C_2 
REMARK    2  A    between atoms: C_9  and  C_18 
REMARK    3  A    between atoms: C_12  and  C_14 
REMARK    4  A    between atoms: C_14  and  C_15 
REMARK    5  A    between atoms: C_15  and  C_16 
REMARK    6  A    between atoms: C_15  and  C_17 
REMARK       I    between atoms: C_18  and  N_20 
REMARK    7  A    between atoms: N_20  and  C_21 
REMARK    8  A    between atoms: C_26  and  O_27 
REMARK    9  A    between atoms: O_27  and  C_28 
ROOT
ATOM      1  C   LIG d   1       6.258   0.659  -8.745  0.00  0.00    -0.050 A 
ATOM      2  C   LIG d   1       6.542  -0.234  -9.763  0.00  0.00    -0.057 A 
ATOM      3  C   LIG d   1       6.820  -1.554  -9.473  0.00  0.00    -0.040 A 
ATOM      4  C   LIG d   1       6.820  -1.997  -8.152  0.00  0.00     0.043 A 
ATOM      5  C   LIG d   1       6.535  -1.088  -7.138  0.00  0.00     0.034 A 
ATOM      6  C   LIG d   1       6.256   0.228  -7.431  0.00  0.00    -0.048 A 
ATOM      7  C   LIG d   1       6.614  -1.864  -5.851  0.00  0.00     0.105 A 
ATOM      8  C   LIG d   1       7.702  -1.287  -4.932  0.00  0.00     0.099 C 
ATOM      9  H   LIG d   1       8.628  -1.855  -5.025  0.00  0.00     0.046 H 
ATOM     10  C   LIG d   1       7.091  -1.461  -3.515  0.00  0.00     0.008 C 
ATOM     11  C   LIG d   1       5.585  -1.220  -3.790  0.00  0.00    -0.020 C 
ATOM     12  H   LIG d   1       5.370  -0.152  -3.818  0.00  0.00     0.085 H 
ATOM     13  C   LIG d   1       6.964  -3.269  -6.270  0.00  0.00     0.274 A 
ATOM     14  O   LIG d   1       7.123  -4.224  -5.539  0.00  0.00    -0.269 OA
ATOM     15  N   LIG d   1       7.066  -3.261  -7.613  0.00  0.00    -0.280 N 
ATOM     16  H   LIG d   1       6.544   0.102 -10.789  0.00  0.00     0.062 H 
ATOM     17  H   LIG d   1       7.041  -2.247 -10.272  0.00  0.00     0.064 H 
ATOM     18  H   LIG d   1       6.036   0.923  -6.635  0.00  0.00     0.063 H 
ATOM     19  H   LIG d   1       7.262  -2.468  -3.137  0.00  0.00     0.033 H 
ATOM     20  H   LIG d   1       7.486  -0.715  -2.826  0.00  0.00     0.033 H 
ATOM     21  H   LIG d   1       7.285  -4.043  -8.143  0.00  0.00     0.155 HD
ATOM     22  N   LIG d   1       5.348  -1.827  -5.115  0.00  0.00     0.244 N 
ATOM     23  H   LIG d   1       4.987  -2.781  -4.998  0.00  0.00     0.203 HD
ATOM     24  H   LIG d   1       4.664  -1.263  -5.633  0.00  0.00     0.203 HD
ENDROOT
BRANCH   8  25
ATOM     25  C   LIG d   1       7.940   0.170  -5.236  0.00  0.00     0.227 C 
ATOM     26  O   LIG d   1       7.083   0.990  -4.979  0.00  0.00    -0.275 OA
ATOM     27  N   LIG d   1       9.102   0.562  -5.793  0.00  0.00    -0.282 N 
ATOM     28  H   LIG d   1       9.763  -0.099  -6.053  0.00  0.00     0.155 HD
BRANCH  27  29
ATOM     29  C   LIG d   1       9.358   1.925  -5.997  0.00  0.00     0.077 A 
ATOM     30  C   LIG d   1       9.826   2.711  -4.948  0.00  0.00     0.141 A 
ATOM     31  C   LIG d   1      10.078   4.058  -5.155  0.00  0.00    -0.017 A 
ATOM     32  C   LIG d   1       9.866   4.618  -6.400  0.00  0.00    -0.040 A 
ATOM     33  H   LIG d   1      10.440   4.671  -4.342  0.00  0.00     0.066 H 
ATOM     34  C   LIG d   1       9.401   3.836  -7.444  0.00  0.00     0.043 A 
ATOM     35  H   LIG d   1      10.062   5.668  -6.560  0.00  0.00     0.063 H 
ATOM     36  C   LIG d   1       9.153   2.490  -7.246  0.00  0.00    -0.018 A 
ATOM     37 CL   LIG d   1       9.136   4.547  -9.006  0.00  0.00    -0.084 Cl
ATOM     38  H   LIG d   1       8.794   1.882  -8.064  0.00  0.00     0.065 H 
BRANCH  30  39
ATOM     39  O   LIG d   1      10.035   2.160  -3.723  0.00  0.00    -0.493 OA
BRANCH  39  40
ATOM     40  C   LIG d   1      10.713   2.964  -2.755  0.00  0.00     0.079 C 
ATOM     41  H   LIG d   1      10.845   2.393  -1.836  0.00  0.00     0.066 H 
ATOM     42  H   LIG d   1      11.688   3.256  -3.145  0.00  0.00     0.066 H 
ATOM     43  H   LIG d   1      10.123   3.857  -2.547  0.00  0.00     0.066 H 
ENDBRANCH  39  40
ENDBRANCH  30  39
ENDBRANCH  27  29
ENDBRANCH   8  25
BRANCH  11  44
ATOM     44  C   LIG d   1       4.733  -1.906  -2.721  0.00  0.00    -0.007 C 
ATOM     45  H   LIG d   1       4.177  -2.728  -3.172  0.00  0.00     0.032 H 
ATOM     46  H   LIG d   1       5.379  -2.294  -1.934  0.00  0.00     0.032 H 
BRANCH  44  47
ATOM     47  C   LIG d   1       3.752  -0.895  -2.124  0.00  0.00    -0.042 C 
ATOM     48  H   LIG d   1       3.335  -1.296  -1.201  0.00  0.00     0.030 H 
BRANCH  47  49
ATOM     49  C   LIG d   1       4.486   0.414  -1.828  0.00  0.00    -0.062 C 
ATOM     50  H   LIG d   1       3.841   1.257  -2.075  0.00  0.00     0.023 H 
ATOM     51  H   LIG d   1       4.745   0.453  -0.770  0.00  0.00     0.023 H 
ATOM     52  H   LIG d   1       5.395   0.465  -2.426  0.00  0.00     0.023 H 
ENDBRANCH  47  49
BRANCH  47  53
ATOM     53  C   LIG d   1       2.621  -0.631  -3.122  0.00  0.00    -0.062 C 
ATOM     54  H   LIG d   1       2.561  -1.457  -3.830  0.00  0.00     0.023 H 
ATOM     55  H   LIG d   1       1.677  -0.542  -2.585  0.00  0.00     0.023 H 
ATOM     56  H   LIG d   1       2.821   0.295  -3.660  0.00  0.00     0.023 H 
ENDBRANCH  47  53
ENDBRANCH  44  47
ENDBRANCH  11  44
BRANCH   1  57
ATOM     57  C   LIG d   1       5.954   2.099  -9.069  0.00  0.00    -0.040 C 
ATOM     58  H   LIG d   1       6.793   2.535  -9.612  0.00  0.00     0.028 H 
ATOM     59  H   LIG d   1       5.056   2.151  -9.685  0.00  0.00     0.028 H 
ATOM     60  H   LIG d   1       5.792   2.653  -8.144  0.00  0.00     0.028 H 
ENDBRANCH   1  57
TORSDOF 9
ENDMDL
MODEL 5
REMARK VINA RESULT:      -6.1      2.638      5.569
REMARK  9 active torsions:
REMARK  status: ('A' for Active; 'I' for Inactive)
REMARK    1  A    between atoms: C_1  and  C_2 
REMARK    2  A    between atoms: C_9  and  C_18 
REMARK    3  A    between atoms: C_12  and  C_14 
REMARK    4  A    between atoms: C_14  and  C_15 
REMARK    5  A    between atoms: C_15  and  C_16 
REMARK    6  A    between atoms: C_15  and  C_17 
REMARK       I    between atoms: C_18  and  N_20 
REMARK    7  A    between atoms: N_20  and  C_21 
REMARK    8  A    between atoms: C_26  and  O_27 
REMARK    9  A    between atoms: O_27  and  C_28 
ROOT
ATOM      1  C   LIG d   1       3.944  -1.622  -9.692  0.00  0.00    -0.050 A 
ATOM      2  C   LIG d   1       2.775  -0.905  -9.875  0.00  0.00    -0.057 A 
ATOM      3  C   LIG d   1       2.187  -0.250  -8.813  0.00  0.00    -0.040 A 
ATOM      4  C   LIG d   1       2.767  -0.307  -7.546  0.00  0.00     0.043 A 
ATOM      5  C   LIG d   1       3.940  -1.032  -7.376  0.00  0.00     0.034 A 
ATOM      6  C   LIG d   1       4.525  -1.684  -8.439  0.00  0.00    -0.048 A 
ATOM      7  C   LIG d   1       4.303  -0.901  -5.921  0.00  0.00     0.105 A 
ATOM      8  C   LIG d   1       4.328  -2.277  -5.238  0.00  0.00     0.099 C 
ATOM      9  H   LIG d   1       3.390  -2.468  -4.717  0.00  0.00     0.046 H 
ATOM     10  C   LIG d   1       5.502  -2.144  -4.229  0.00  0.00     0.008 C 
ATOM     11  C   LIG d   1       6.488  -1.240  -5.010  0.00  0.00    -0.020 C 
ATOM     12  H   LIG d   1       7.077  -1.835  -5.708  0.00  0.00     0.085 H 
ATOM     13  C   LIG d   1       3.217  -0.037  -5.332  0.00  0.00     0.274 A 
ATOM     14  O   LIG d   1       3.124   0.321  -4.177  0.00  0.00    -0.269 OA
ATOM     15  N   LIG d   1       2.370   0.262  -6.335  0.00  0.00    -0.280 N 
ATOM     16  H   LIG d   1       2.321  -0.857 -10.853  0.00  0.00     0.062 H 
ATOM     17  H   LIG d   1       1.275   0.309  -8.962  0.00  0.00     0.064 H 
ATOM     18  H   LIG d   1       5.437  -2.244  -8.293  0.00  0.00     0.063 H 
ATOM     19  H   LIG d   1       5.172  -1.660  -3.310  0.00  0.00     0.033 H 
ATOM     20  H   LIG d   1       5.946  -3.116  -4.019  0.00  0.00     0.033 H 
ATOM     21  H   LIG d   1       1.576   0.810  -6.228  0.00  0.00     0.155 HD
ATOM     22  N   LIG d   1       5.624  -0.293  -5.743  0.00  0.00     0.244 N 
ATOM     23  H   LIG d   1       5.534   0.578  -5.206  0.00  0.00     0.203 HD
ATOM     24  H   LIG d   1       6.037  -0.090  -6.660  0.00  0.00     0.203 HD
ENDROOT
BRANCH   8  25
ATOM     25  C   LIG d   1       4.609  -3.365  -6.243  0.00  0.00     0.227 C 
ATOM     26  O   LIG d   1       5.709  -3.455  -6.747  0.00  0.00    -0.275 OA
ATOM     27  N   LIG d   1       3.639  -4.237  -6.581  0.00  0.00    -0.282 N 
ATOM     28  H   LIG d   1       2.744  -4.130  -6.223  0.00  0.00     0.155 HD
BRANCH  27  29
ATOM     29  C   LIG d   1       3.923  -5.301  -7.448  0.00  0.00     0.077 A 
ATOM     30  C   LIG d   1       4.351  -6.523  -6.938  0.00  0.00     0.141 A 
ATOM     31  C   LIG d   1       4.630  -7.571  -7.799  0.00  0.00    -0.017 A 
ATOM     32  C   LIG d   1       4.482  -7.403  -9.163  0.00  0.00    -0.040 A 
ATOM     33  H   LIG d   1       4.964  -8.521  -7.405  0.00  0.00     0.066 H 
ATOM     34  C   LIG d   1       4.056  -6.188  -9.672  0.00  0.00     0.043 A 
ATOM     35  H   LIG d   1       4.701  -8.221  -9.834  0.00  0.00     0.063 H 
ATOM     36  C   LIG d   1       3.771  -5.139  -8.817  0.00  0.00    -0.018 A 
ATOM     37 CL   LIG d   1       3.874  -5.983 -11.387  0.00  0.00    -0.084 Cl
ATOM     38  H   LIG d   1       3.434  -4.194  -9.217  0.00  0.00     0.065 H 
BRANCH  30  39
ATOM     39  O   LIG d   1       4.496  -6.688  -5.596  0.00  0.00    -0.493 OA
BRANCH  39  40
ATOM     40  C   LIG d   1       5.098  -7.906  -5.152  0.00  0.00     0.079 C 
ATOM     41  H   LIG d   1       4.693  -8.741  -5.724  0.00  0.00     0.066 H 
ATOM     42  H   LIG d   1       6.177  -7.852  -5.302  0.00  0.00     0.066 H 
ATOM     43  H   LIG d   1       4.886  -8.053  -4.093  0.00  0.00     0.066 H 
ENDBRANCH  39  40
ENDBRANCH  30  39
ENDBRANCH  27  29
ENDBRANCH   8  25
BRANCH  11  44
ATOM     44  C   LIG d   1       7.407  -0.494  -4.041  0.00  0.00    -0.007 C 
ATOM     45  H   LIG d   1       7.321  -0.933  -3.048  0.00  0.00     0.032 H 
ATOM     46  H   LIG d   1       8.438  -0.572  -4.386  0.00  0.00     0.032 H 
BRANCH  44  47
ATOM     47  C   LIG d   1       6.999   0.980  -3.983  0.00  0.00    -0.042 C 
ATOM     48  H   LIG d   1       6.498   1.254  -4.911  0.00  0.00     0.030 H 
BRANCH  47  49
ATOM     49  C   LIG d   1       6.047   1.200  -2.805  0.00  0.00    -0.062 C 
ATOM     50  H   LIG d   1       6.514   0.840  -1.889  0.00  0.00     0.023 H 
ATOM     51  H   LIG d   1       5.829   2.263  -2.709  0.00  0.00     0.023 H 
ATOM     52  H   LIG d   1       5.120   0.653  -2.980  0.00  0.00     0.023 H 
ENDBRANCH  47  49
BRANCH  47  53
ATOM     53  C   LIG d   1       8.246   1.848  -3.801  0.00  0.00    -0.062 C 
ATOM     54  H   LIG d   1       8.135   2.767  -4.375  0.00  0.00     0.023 H 
ATOM     55  H   LIG d   1       8.367   2.091  -2.745  0.00  0.00     0.023 H 
ATOM     56  H   LIG d   1       9.122   1.303  -4.151  0.00  0.00     0.023 H 
ENDBRANCH  47  53
ENDBRANCH  44  47
ENDBRANCH  11  44
BRANCH   1  57
ATOM     57  C   LIG d   1       4.581  -2.335 -10.857  0.00  0.00    -0.040 C 
ATOM     58  H   LIG d   1       5.631  -2.048 -10.929  0.00  0.00     0.028 H 
ATOM     59  H   LIG d   1       4.508  -3.412 -10.708  0.00  0.00     0.028 H 
ATOM     60  H   LIG d   1       4.066  -2.060 -11.778  0.00  0.00     0.028 H 
ENDBRANCH   1  57
TORSDOF 9
ENDMDL
MODEL 6
REMARK VINA RESULT:      -6.1      1.913      2.757
REMARK  9 active torsions:
REMARK  status: ('A' for Active; 'I' for Inactive)
REMARK    1  A    between atoms: C_1  and  C_2 
REMARK    2  A    between atoms: C_9  and  C_18 
REMARK    3  A    between atoms: C_12  and  C_14 
REMARK    4  A    between atoms: C_14  and  C_15 
REMARK    5  A    between atoms: C_15  and  C_16 
REMARK    6  A    between atoms: C_15  and  C_17 
REMARK       I    between atoms: C_18  and  N_20 
REMARK    7  A    between atoms: N_20  and  C_21 
REMARK    8  A    between atoms: C_26  and  O_27 
REMARK    9  A    between atoms: O_27  and  C_28 
ROOT
ATOM      1  C   LIG d   1       3.236  -2.345  -9.447  0.00  0.00    -0.050 A 
ATOM      2  C   LIG d   1       2.914  -3.545 -10.054  0.00  0.00    -0.057 A 
ATOM      3  C   LIG d   1       3.163  -4.739  -9.410  0.00  0.00    -0.040 A 
ATOM      4  C   LIG d   1       3.741  -4.745  -8.142  0.00  0.00     0.043 A 
ATOM      5  C   LIG d   1       4.061  -3.531  -7.544  0.00  0.00     0.034 A 
ATOM      6  C   LIG d   1       3.811  -2.341  -8.190  0.00  0.00    -0.048 A 
ATOM      7  C   LIG d   1       4.660  -3.872  -6.206  0.00  0.00     0.105 A 
ATOM      8  C   LIG d   1       6.105  -3.358  -6.108  0.00  0.00     0.099 C 
ATOM      9  H   LIG d   1       6.815  -4.154  -6.335  0.00  0.00     0.046 H 
ATOM     10  C   LIG d   1       6.221  -2.925  -4.621  0.00  0.00     0.008 C 
ATOM     11  C   LIG d   1       4.797  -2.385  -4.338  0.00  0.00    -0.020 C 
ATOM     12  H   LIG d   1       4.703  -1.358  -4.693  0.00  0.00     0.085 H 
ATOM     13  C   LIG d   1       4.628  -5.378  -6.144  0.00  0.00     0.274 A 
ATOM     14  O   LIG d   1       5.017  -6.073  -5.229  0.00  0.00    -0.269 OA
ATOM     15  N   LIG d   1       4.084  -5.804  -7.300  0.00  0.00    -0.280 N 
ATOM     16  H   LIG d   1       2.466  -3.549 -11.037  0.00  0.00     0.062 H 
ATOM     17  H   LIG d   1       2.909  -5.674  -9.889  0.00  0.00     0.064 H 
ATOM     18  H   LIG d   1       4.064  -1.405  -7.714  0.00  0.00     0.063 H 
ATOM     19  H   LIG d   1       6.449  -3.778  -3.982  0.00  0.00     0.033 H 
ATOM     20  H   LIG d   1       6.967  -2.140  -4.501  0.00  0.00     0.033 H 
ATOM     21  H   LIG d   1       3.947  -6.738  -7.521  0.00  0.00     0.155 HD
ATOM     22  N   LIG d   1       3.903  -3.276  -5.103  0.00  0.00     0.244 N 
ATOM     23  H   LIG d   1       3.546  -4.018  -4.488  0.00  0.00     0.203 HD
ATOM     24  H   LIG d   1       3.115  -2.735  -5.478  0.00  0.00     0.203 HD
ENDROOT
BRANCH   8  25
ATOM     25  C   LIG d   1       6.316  -2.181  -7.025  0.00  0.00     0.227 C 
ATOM     26  O   LIG d   1       6.575  -2.364  -8.196  0.00  0.00    -0.275 OA
ATOM     27  N   LIG d   1       6.216  -0.926  -6.545  0.00  0.00    -0.282 N 
ATOM     28  H   LIG d   1       6.068  -0.779  -5.598  0.00  0.00     0.155 HD
BRANCH  27  29
ATOM     29  C   LIG d   1       6.326   0.168  -7.414  0.00  0.00     0.077 A 
ATOM     30  C   LIG d   1       7.566   0.759  -7.640  0.00  0.00     0.141 A 
ATOM     31  C   LIG d   1       7.669   1.839  -8.501  0.00  0.00    -0.017 A 
ATOM     32  C   LIG d   1       6.542   2.330  -9.133  0.00  0.00    -0.040 A 
ATOM     33  H   LIG d   1       8.630   2.300  -8.677  0.00  0.00     0.066 H 
ATOM     34  C   LIG d   1       5.308   1.743  -8.909  0.00  0.00     0.043 A 
ATOM     35  H   LIG d   1       6.623   3.173  -9.803  0.00  0.00     0.063 H 
ATOM     36  C   LIG d   1       5.199   0.660  -8.056  0.00  0.00    -0.018 A 
ATOM     37 CL   LIG d   1       3.896   2.365  -9.706  0.00  0.00    -0.084 Cl
ATOM     38  H   LIG d   1       4.236   0.202  -7.886  0.00  0.00     0.065 H 
BRANCH  30  39
ATOM     39  O   LIG d   1       8.674   0.275  -7.018  0.00  0.00    -0.493 OA
BRANCH  39  40
ATOM     40  C   LIG d   1       9.217   1.061  -5.954  0.00  0.00     0.079 C 
ATOM     41  H   LIG d   1       9.910   0.454  -5.371  0.00  0.00     0.066 H 
ATOM     42  H   LIG d   1       9.748   1.918  -6.371  0.00  0.00     0.066 H 
ATOM     43  H   LIG d   1       8.410   1.411  -5.312  0.00  0.00     0.066 H 
ENDBRANCH  39  40
ENDBRANCH  30  39
ENDBRANCH  27  29
ENDBRANCH   8  25
BRANCH  11  44
ATOM     44  C   LIG d   1       4.485  -2.461  -2.843  0.00  0.00    -0.007 C 
ATOM     45  H   LIG d   1       3.697  -3.194  -2.673  0.00  0.00     0.032 H 
ATOM     46  H   LIG d   1       5.382  -2.759  -2.299  0.00  0.00     0.032 H 
BRANCH  44  47
ATOM     47  C   LIG d   1       4.022  -1.089  -2.348  0.00  0.00    -0.042 C 
ATOM     48  H   LIG d   1       3.800  -1.144  -1.282  0.00  0.00     0.030 H 
BRANCH  47  49
ATOM     49  C   LIG d   1       5.128  -0.060  -2.586  0.00  0.00    -0.062 C 
ATOM     50  H   LIG d   1       4.684   0.886  -2.897  0.00  0.00     0.023 H 
ATOM     51  H   LIG d   1       5.691   0.088  -1.664  0.00  0.00     0.023 H 
ATOM     52  H   LIG d   1       5.798  -0.421  -3.367  0.00  0.00     0.023 H 
ENDBRANCH  47  49
BRANCH  47  53
ATOM     53  C   LIG d   1       2.763  -0.671  -3.110  0.00  0.00    -0.062 C 
ATOM     54  H   LIG d   1       1.890  -1.135  -2.652  0.00  0.00     0.023 H 
ATOM     55  H   LIG d   1       2.660   0.414  -3.072  0.00  0.00     0.023 H 
ATOM     56  H   LIG d   1       2.843  -0.992  -4.148  0.00  0.00     0.023 H 
ENDBRANCH  47  53
ENDBRANCH  44  47
ENDBRANCH  11  44
BRANCH   1  57
ATOM     57  C   LIG d   1       2.961  -1.044 -10.157  0.00  0.00    -0.040 C 
ATOM     58  H   LIG d   1       2.775  -1.238 -11.213  0.00  0.00     0.028 H 
ATOM     59  H   LIG d   1       2.085  -0.567  -9.715  0.00  0.00     0.028 H 
ATOM     60  H   LIG d   1       3.824  -0.384 -10.054  0.00  0.00     0.028 H 
ENDBRANCH   1  57
TORSDOF 9
ENDMDL
MODEL 7
REMARK VINA RESULT:      -6.0      1.892      4.336
REMARK  9 active torsions:
REMARK  status: ('A' for Active; 'I' for Inactive)
REMARK    1  A    between atoms: C_1  and  C_2 
REMARK    2  A    between atoms: C_9  and  C_18 
REMARK    3  A    between atoms: C_12  and  C_14 
REMARK    4  A    between atoms: C_14  and  C_15 
REMARK    5  A    between atoms: C_15  and  C_16 
REMARK    6  A    between atoms: C_15  and  C_17 
REMARK       I    between atoms: C_18  and  N_20 
REMARK    7  A    between atoms: N_20  and  C_21 
REMARK    8  A    between atoms: C_26  and  O_27 
REMARK    9  A    between atoms: O_27  and  C_28 
ROOT
ATOM      1  C   LIG d   1       3.362  -0.321  -4.400  0.00  0.00    -0.050 A 
ATOM      2  C   LIG d   1       3.378  -0.810  -3.106  0.00  0.00    -0.057 A 
ATOM      3  C   LIG d   1       4.502  -1.440  -2.614  0.00  0.00    -0.040 A 
ATOM      4  C   LIG d   1       5.630  -1.590  -3.419  0.00  0.00     0.043 A 
ATOM      5  C   LIG d   1       5.600  -1.095  -4.718  0.00  0.00     0.034 A 
ATOM      6  C   LIG d   1       4.477  -0.466  -5.205  0.00  0.00    -0.048 A 
ATOM      7  C   LIG d   1       6.946  -1.411  -5.313  0.00  0.00     0.105 A 
ATOM      8  C   LIG d   1       6.800  -2.325  -6.540  0.00  0.00     0.099 C 
ATOM      9  H   LIG d   1       6.968  -3.367  -6.268  0.00  0.00     0.046 H 
ATOM     10  C   LIG d   1       7.918  -1.816  -7.490  0.00  0.00     0.008 C 
ATOM     11  C   LIG d   1       7.915  -0.296  -7.194  0.00  0.00    -0.020 C 
ATOM     12  H   LIG d   1       7.125   0.199  -7.760  0.00  0.00     0.085 H 
ATOM     13  C   LIG d   1       7.697  -2.115  -4.213  0.00  0.00     0.274 A 
ATOM     14  O   LIG d   1       8.831  -2.543  -4.269  0.00  0.00    -0.269 OA
ATOM     15  N   LIG d   1       6.868  -2.180  -3.154  0.00  0.00    -0.280 N 
ATOM     16  H   LIG d   1       2.507  -0.698  -2.477  0.00  0.00     0.062 H 
ATOM     17  H   LIG d   1       4.509  -1.820  -1.603  0.00  0.00     0.064 H 
ATOM     18  H   LIG d   1       4.467  -0.086  -6.216  0.00  0.00     0.063 H 
ATOM     19  H   LIG d   1       8.879  -2.262  -7.235  0.00  0.00     0.033 H 
ATOM     20  H   LIG d   1       7.663  -2.012  -8.531  0.00  0.00     0.033 H 
ATOM     21  H   LIG d   1       7.103  -2.588  -2.306  0.00  0.00     0.155 HD
ATOM     22  N   LIG d   1       7.647  -0.199  -5.746  0.00  0.00     0.244 N 
ATOM     23  H   LIG d   1       8.534  -0.111  -5.236  0.00  0.00     0.203 HD
ATOM     24  H   LIG d   1       7.061   0.623  -5.559  0.00  0.00     0.203 HD
ENDROOT
BRANCH   8  25
ATOM     25  C   LIG d   1       5.442  -2.154  -7.173  0.00  0.00     0.227 C 
ATOM     26  O   LIG d   1       4.492  -2.776  -6.746  0.00  0.00    -0.275 OA
ATOM     27  N   LIG d   1       5.285  -1.312  -8.213  0.00  0.00    -0.282 N 
ATOM     28  H   LIG d   1       6.055  -0.861  -8.592  0.00  0.00     0.155 HD
BRANCH  27  29
ATOM     29  C   LIG d   1       4.008  -1.087  -8.746  0.00  0.00     0.077 A 
ATOM     30  C   LIG d   1       3.489   0.203  -8.795  0.00  0.00     0.141 A 
ATOM     31  C   LIG d   1       2.227   0.420  -9.324  0.00  0.00    -0.017 A 
ATOM     32  C   LIG d   1       1.486  -0.644  -9.802  0.00  0.00    -0.040 A 
ATOM     33  H   LIG d   1       1.822   1.421  -9.362  0.00  0.00     0.066 H 
ATOM     34  C   LIG d   1       2.001  -1.928  -9.754  0.00  0.00     0.043 A 
ATOM     35  H   LIG d   1       0.502  -0.474 -10.213  0.00  0.00     0.063 H 
ATOM     36  C   LIG d   1       3.263  -2.151  -9.233  0.00  0.00    -0.018 A 
ATOM     37 CL   LIG d   1       1.064  -3.260 -10.356  0.00  0.00    -0.084 Cl
ATOM     38  H   LIG d   1       3.664  -3.153  -9.201  0.00  0.00     0.065 H 
BRANCH  30  39
ATOM     39  O   LIG d   1       4.220   1.249  -8.325  0.00  0.00    -0.493 OA
BRANCH  39  40
ATOM     40  C   LIG d   1       4.166   2.467  -9.072  0.00  0.00     0.079 C 
ATOM     41  H   LIG d   1       5.179   2.825  -9.256  0.00  0.00     0.066 H 
ATOM     42  H   LIG d   1       3.666   2.286 -10.024  0.00  0.00     0.066 H 
ATOM     43  H   LIG d   1       3.612   3.217  -8.508  0.00  0.00     0.066 H 
ENDBRANCH  39  40
ENDBRANCH  30  39
ENDBRANCH  27  29
ENDBRANCH   8  25
BRANCH  11  44
ATOM     44  C   LIG d   1       9.275   0.315  -7.534  0.00  0.00    -0.007 C 
ATOM     45  H   LIG d   1       9.844   0.468  -6.617  0.00  0.00     0.032 H 
ATOM     46  H   LIG d   1       9.822  -0.358  -8.193  0.00  0.00     0.032 H 
BRANCH  44  47
ATOM     47  C   LIG d   1       9.070   1.660  -8.235  0.00  0.00    -0.042 C 
ATOM     48  H   LIG d   1       9.830   1.787  -9.006  0.00  0.00     0.030 H 
BRANCH  47  49
ATOM     49  C   LIG d   1       7.682   1.693  -8.878  0.00  0.00    -0.062 C 
ATOM     50  H   LIG d   1       6.955   2.062  -8.154  0.00  0.00     0.023 H 
ATOM     51  H   LIG d   1       7.699   2.354  -9.744  0.00  0.00     0.023 H 
ATOM     52  H   LIG d   1       7.402   0.688  -9.193  0.00  0.00     0.023 H 
ENDBRANCH  47  49
BRANCH  47  53
ATOM     53  C   LIG d   1       9.186   2.792  -7.213  0.00  0.00    -0.062 C 
ATOM     54  H   LIG d   1      10.231   3.087  -7.115  0.00  0.00     0.023 H 
ATOM     55  H   LIG d   1       8.597   3.646  -7.547  0.00  0.00     0.023 H 
ATOM     56  H   LIG d   1       8.814   2.449  -6.247  0.00  0.00     0.023 H 
ENDBRANCH  47  53
ENDBRANCH  44  47
ENDBRANCH  11  44
BRANCH   1  57
ATOM     57  C   LIG d   1       2.131   0.367  -4.930  0.00  0.00    -0.040 C 
ATOM     58  H   LIG d   1       2.113   0.293  -6.018  0.00  0.00     0.028 H 
ATOM     59  H   LIG d   1       1.241  -0.111  -4.519  0.00  0.00     0.028 H 
ATOM     60  H   LIG d   1       2.146   1.418  -4.638  0.00  0.00     0.028 H 
ENDBRANCH   1  57
TORSDOF 9
ENDMDL
MODEL 8
REMARK VINA RESULT:      -6.0      1.756      2.221
REMARK  9 active torsions:
REMARK  status: ('A' for Active; 'I' for Inactive)
REMARK    1  A    between atoms: C_1  and  C_2 
REMARK    2  A    between atoms: C_9  and  C_18 
REMARK    3  A    between atoms: C_12  and  C_14 
REMARK    4  A    between atoms: C_14  and  C_15 
REMARK    5  A    between atoms: C_15  and  C_16 
REMARK    6  A    between atoms: C_15  and  C_17 
REMARK       I    between atoms: C_18  and  N_20 
REMARK    7  A    between atoms: N_20  and  C_21 
REMARK    8  A    between atoms: C_26  and  O_27 
REMARK    9  A    between atoms: O_27  and  C_28 
ROOT
ATOM      1  C   LIG d   1       3.598  -4.536  -8.895  0.00  0.00    -0.050 A 
ATOM      2  C   LIG d   1       4.315  -5.666  -9.245  0.00  0.00    -0.057 A 
ATOM      3  C   LIG d   1       5.384  -6.077  -8.477  0.00  0.00    -0.040 A 
ATOM      4  C   LIG d   1       5.751  -5.355  -7.342  0.00  0.00     0.043 A 
ATOM      5  C   LIG d   1       5.023  -4.221  -7.002  0.00  0.00     0.034 A 
ATOM      6  C   LIG d   1       3.955  -3.813  -7.770  0.00  0.00    -0.048 A 
ATOM      7  C   LIG d   1       5.659  -3.678  -5.751  0.00  0.00     0.105 A 
ATOM      8  C   LIG d   1       6.194  -2.256  -5.983  0.00  0.00     0.099 C 
ATOM      9  H   LIG d   1       7.261  -2.275  -6.204  0.00  0.00     0.046 H 
ATOM     10  C   LIG d   1       5.925  -1.556  -4.623  0.00  0.00     0.008 C 
ATOM     11  C   LIG d   1       4.594  -2.216  -4.186  0.00  0.00    -0.020 C 
ATOM     12  H   LIG d   1       3.750  -1.728  -4.673  0.00  0.00     0.085 H 
ATOM     13  C   LIG d   1       6.791  -4.628  -5.454  0.00  0.00     0.274 A 
ATOM     14  O   LIG d   1       7.567  -4.561  -4.523  0.00  0.00    -0.269 OA
ATOM     15  N   LIG d   1       6.777  -5.566  -6.419  0.00  0.00    -0.280 N 
ATOM     16  H   LIG d   1       4.036  -6.229 -10.123  0.00  0.00     0.062 H 
ATOM     17  H   LIG d   1       5.940  -6.960  -8.755  0.00  0.00     0.064 H 
ATOM     18  H   LIG d   1       3.398  -2.930  -7.495  0.00  0.00     0.063 H 
ATOM     19  H   LIG d   1       6.720  -1.771  -3.910  0.00  0.00     0.033 H 
ATOM     20  H   LIG d   1       5.803  -0.481  -4.756  0.00  0.00     0.033 H 
ATOM     21  H   LIG d   1       7.405  -6.303  -6.467  0.00  0.00     0.155 HD
ATOM     22  N   LIG d   1       4.708  -3.617  -4.639  0.00  0.00     0.244 N 
ATOM     23  H   LIG d   1       5.042  -4.204  -3.865  0.00  0.00     0.203 HD
ATOM     24  H   LIG d   1       3.790  -3.953  -4.952  0.00  0.00     0.203 HD
ENDROOT
BRANCH   8  25
ATOM     25  C   LIG d   1       5.434  -1.576  -7.093  0.00  0.00     0.227 C 
ATOM     26  O   LIG d   1       4.291  -1.211  -6.911  0.00  0.00    -0.275 OA
ATOM     27  N   LIG d   1       6.023  -1.373  -8.288  0.00  0.00    -0.282 N 
ATOM     28  H   LIG d   1       6.915  -1.717  -8.453  0.00  0.00     0.155 HD
BRANCH  27  29
ATOM     29  C   LIG d   1       5.349  -0.664  -9.291  0.00  0.00     0.077 A 
ATOM     30  C   LIG d   1       5.149  -1.243 -10.541  0.00  0.00     0.141 A 
ATOM     31  C   LIG d   1       4.481  -0.538 -11.529  0.00  0.00    -0.017 A 
ATOM     32  C   LIG d   1       4.014   0.737 -11.273  0.00  0.00    -0.040 A 
ATOM     33  H   LIG d   1       4.325  -0.986 -12.500  0.00  0.00     0.066 H 
ATOM     34  C   LIG d   1       4.212   1.314 -10.031  0.00  0.00     0.043 A 
ATOM     35  H   LIG d   1       3.494   1.286 -12.045  0.00  0.00     0.063 H 
ATOM     36  C   LIG d   1       4.873   0.614  -9.038  0.00  0.00    -0.018 A 
ATOM     37 CL   LIG d   1       3.625   2.918  -9.717  0.00  0.00    -0.084 Cl
ATOM     38  H   LIG d   1       5.023   1.065  -8.068  0.00  0.00     0.065 H 
BRANCH  30  39
ATOM     39  O   LIG d   1       5.607  -2.498 -10.792  0.00  0.00    -0.493 OA
BRANCH  39  40
ATOM     40  C   LIG d   1       5.334  -3.044 -12.085  0.00  0.00     0.079 C 
ATOM     41  H   LIG d   1       4.816  -2.300 -12.690  0.00  0.00     0.066 H 
ATOM     42  H   LIG d   1       6.273  -3.315 -12.569  0.00  0.00     0.066 H 
ATOM     43  H   LIG d   1       4.709  -3.930 -11.982  0.00  0.00     0.066 H 
ENDBRANCH  39  40
ENDBRANCH  30  39
ENDBRANCH  27  29
ENDBRANCH   8  25
BRANCH  11  44
ATOM     44  C   LIG d   1       4.441  -2.151  -2.666  0.00  0.00    -0.007 C 
ATOM     45  H   LIG d   1       4.003  -3.081  -2.304  0.00  0.00     0.032 H 
ATOM     46  H   LIG d   1       5.420  -2.008  -2.208  0.00  0.00     0.032 H 
BRANCH  44  47
ATOM     47  C   LIG d   1       3.529  -0.980  -2.294  0.00  0.00    -0.042 C 
ATOM     48  H   LIG d   1       2.890  -1.268  -1.460  0.00  0.00     0.030 H 
BRANCH  47  49
ATOM     49  C   LIG d   1       4.383   0.224  -1.892  0.00  0.00    -0.062 C 
ATOM     50  H   LIG d   1       5.438  -0.038  -1.966  0.00  0.00     0.023 H 
ATOM     51  H   LIG d   1       4.168   1.060  -2.557  0.00  0.00     0.023 H 
ATOM     52  H   LIG d   1       4.150   0.508  -0.865  0.00  0.00     0.023 H 
ENDBRANCH  47  49
BRANCH  47  53
ATOM     53  C   LIG d   1       2.660  -0.609  -3.498  0.00  0.00    -0.062 C 
ATOM     54  H   LIG d   1       2.891  -1.272  -4.331  0.00  0.00     0.023 H 
ATOM     55  H   LIG d   1       1.608  -0.712  -3.232  0.00  0.00     0.023 H 
ATOM     56  H   LIG d   1       2.861   0.422  -3.787  0.00  0.00     0.023 H 
ENDBRANCH  47  53
ENDBRANCH  44  47
ENDBRANCH  11  44
BRANCH   1  57
ATOM     57  C   LIG d   1       2.430  -4.092  -9.738  0.00  0.00    -0.040 C 
ATOM     58  H   LIG d   1       1.864  -4.966 -10.064  0.00  0.00     0.028 H 
ATOM     59  H   LIG d   1       1.783  -3.440  -9.149  0.00  0.00     0.028 H 
ATOM     60  H   LIG d   1       2.796  -3.550 -10.610  0.00  0.00     0.028 H 
ENDBRANCH   1  57
TORSDOF 9
ENDMDL
MODEL 9
REMARK VINA RESULT:      -6.0      3.297      4.673
REMARK  9 active torsions:
REMARK  status: ('A' for Active; 'I' for Inactive)
REMARK    1  A    between atoms: C_1  and  C_2 
REMARK    2  A    between atoms: C_9  and  C_18 
REMARK    3  A    between atoms: C_12  and  C_14 
REMARK    4  A    between atoms: C_14  and  C_15 
REMARK    5  A    between atoms: C_15  and  C_16 
REMARK    6  A    between atoms: C_15  and  C_17 
REMARK       I    between atoms: C_18  and  N_20 
REMARK    7  A    between atoms: N_20  and  C_21 
REMARK    8  A    between atoms: C_26  and  O_27 
REMARK    9  A    between atoms: O_27  and  C_28 
ROOT
ATOM      1  C   LIG d   1       6.151   0.701  -8.766  0.00  0.00    -0.050 A 
ATOM      2  C   LIG d   1       6.435  -0.195  -9.781  0.00  0.00    -0.057 A 
ATOM      3  C   LIG d   1       6.758  -1.503  -9.483  0.00  0.00    -0.040 A 
ATOM      4  C   LIG d   1       6.802  -1.930  -8.157  0.00  0.00     0.043 A 
ATOM      5  C   LIG d   1       6.516  -1.018  -7.147  0.00  0.00     0.034 A 
ATOM      6  C   LIG d   1       6.193   0.286  -7.448  0.00  0.00    -0.048 A 
ATOM      7  C   LIG d   1       6.648  -1.776  -5.854  0.00  0.00     0.105 A 
ATOM      8  C   LIG d   1       7.741  -1.158  -4.968  0.00  0.00     0.099 C 
ATOM      9  H   LIG d   1       8.681  -1.700  -5.078  0.00  0.00     0.046 H 
ATOM     10  C   LIG d   1       7.170  -1.333  -3.535  0.00  0.00     0.008 C 
ATOM     11  C   LIG d   1       5.652  -1.138  -3.776  0.00  0.00    -0.020 C 
ATOM     12  H   LIG d   1       5.405  -0.077  -3.810  0.00  0.00     0.085 H 
ATOM     13  C   LIG d   1       7.028  -3.175  -6.266  0.00  0.00     0.274 A 
ATOM     14  O   LIG d   1       7.232  -4.117  -5.529  0.00  0.00    -0.269 OA
ATOM     15  N   LIG d   1       7.097  -3.180  -7.611  0.00  0.00    -0.280 N 
ATOM     16  H   LIG d   1       6.403   0.129 -10.810  0.00  0.00     0.062 H 
ATOM     17  H   LIG d   1       6.979  -2.198 -10.280  0.00  0.00     0.064 H 
ATOM     18  H   LIG d   1       5.972   0.984  -6.654  0.00  0.00     0.063 H 
ATOM     19  H   LIG d   1       7.379  -2.330  -3.150  0.00  0.00     0.033 H 
ATOM     20  H   LIG d   1       7.560  -0.567  -2.864  0.00  0.00     0.033 H 
ATOM     21  H   LIG d   1       7.325  -3.962  -8.138  0.00  0.00     0.155 HD
ATOM     22  N   LIG d   1       5.400  -1.766  -5.087  0.00  0.00     0.244 N 
ATOM     23  H   LIG d   1       5.070  -2.729  -4.951  0.00  0.00     0.203 HD
ATOM     24  H   LIG d   1       4.688  -1.229  -5.595  0.00  0.00     0.203 HD
ENDROOT
BRANCH   8  25
ATOM     25  C   LIG d   1       7.929   0.302  -5.294  0.00  0.00     0.227 C 
ATOM     26  O   LIG d   1       7.059   1.101  -5.020  0.00  0.00    -0.275 OA
ATOM     27  N   LIG d   1       9.063   0.719  -5.891  0.00  0.00    -0.282 N 
ATOM     28  H   LIG d   1       9.734   0.073  -6.164  0.00  0.00     0.155 HD
BRANCH  27  29
ATOM     29  C   LIG d   1       9.276   2.085  -6.115  0.00  0.00     0.077 A 
ATOM     30  C   LIG d   1       9.415   2.566  -7.414  0.00  0.00     0.141 A 
ATOM     31  C   LIG d   1       9.624   3.919  -7.631  0.00  0.00    -0.017 A 
ATOM     32  C   LIG d   1       9.694   4.788  -6.559  0.00  0.00    -0.040 A 
ATOM     33  H   LIG d   1       9.733   4.294  -8.638  0.00  0.00     0.066 H 
ATOM     34  C   LIG d   1       9.556   4.311  -5.267  0.00  0.00     0.043 A 
ATOM     35  H   LIG d   1       9.858   5.842  -6.729  0.00  0.00     0.063 H 
ATOM     36  C   LIG d   1       9.341   2.963  -5.043  0.00  0.00    -0.018 A 
ATOM     37 CL   LIG d   1       9.646   5.409  -3.924  0.00  0.00    -0.084 Cl
ATOM     38  H   LIG d   1       9.229   2.595  -4.034  0.00  0.00     0.065 H 
BRANCH  30  39
ATOM     39  O   LIG d   1       9.345   1.711  -8.469  0.00  0.00    -0.493 OA
BRANCH  39  40
ATOM     40  C   LIG d   1       9.466   2.278  -9.775  0.00  0.00     0.079 C 
ATOM     41  H   LIG d   1       9.963   1.567 -10.435  0.00  0.00     0.066 H 
ATOM     42  H   LIG d   1       8.473   2.504 -10.166  0.00  0.00     0.066 H 
ATOM     43  H   LIG d   1      10.052   3.196  -9.720  0.00  0.00     0.066 H 
ENDBRANCH  39  40
ENDBRANCH  30  39
ENDBRANCH  27  29
ENDBRANCH   8  25
BRANCH  11  44
ATOM     44  C   LIG d   1       4.845  -1.835  -2.679  0.00  0.00    -0.007 C 
ATOM     45  H   LIG d   1       4.316  -2.688  -3.104  0.00  0.00     0.032 H 
ATOM     46  H   LIG d   1       5.519  -2.180  -1.895  0.00  0.00     0.032 H 
BRANCH  44  47
ATOM     47  C   LIG d   1       3.834  -0.852  -2.086  0.00  0.00    -0.042 C 
ATOM     48  H   LIG d   1       3.448  -1.250  -1.147  0.00  0.00     0.030 H 
BRANCH  47  49
ATOM     49  C   LIG d   1       4.519   0.491  -1.827  0.00  0.00    -0.062 C 
ATOM     50  H   LIG d   1       4.698   0.608  -0.759  0.00  0.00     0.023 H 
ATOM     51  H   LIG d   1       5.470   0.522  -2.360  0.00  0.00     0.023 H 
ATOM     52  H   LIG d   1       3.879   1.300  -2.179  0.00  0.00     0.023 H 
ENDBRANCH  47  49
BRANCH  47  53
ATOM     53  C   LIG d   1       2.678  -0.654  -3.069  0.00  0.00    -0.062 C 
ATOM     54  H   LIG d   1       2.964   0.079  -3.822  0.00  0.00     0.023 H 
ATOM     55  H   LIG d   1       2.447  -1.603  -3.553  0.00  0.00     0.023 H 
ATOM     56  H   LIG d   1       1.800  -0.299  -2.530  0.00  0.00     0.023 H 
ENDBRANCH  47  53
ENDBRANCH  44  47
ENDBRANCH  11  44
BRANCH   1  57
ATOM     57  C   LIG d   1       5.797   2.128  -9.098  0.00  0.00    -0.040 C 
ATOM     58  H   LIG d   1       6.143   2.784  -8.299  0.00  0.00     0.028 H 
ATOM     59  H   LIG d   1       6.277   2.413 -10.035  0.00  0.00     0.028 H 
ATOM     60  H   LIG d   1       4.715   2.221  -9.201  0.00  0.00     0.028 H 
ENDBRANCH   1  57
TORSDOF 9
ENDMDL
MODEL 10
REMARK VINA RESULT:      -6.0      3.090      5.814
REMARK  9 active torsions:
REMARK  status: ('A' for Active; 'I' for Inactive)
REMARK    1  A    between atoms: C_1  and  C_2 
REMARK    2  A    between atoms: C_9  and  C_18 
REMARK    3  A    between atoms: C_12  and  C_14 
REMARK    4  A    between atoms: C_14  and  C_15 
REMARK    5  A    between atoms: C_15  and  C_16 
REMARK    6  A    between atoms: C_15  and  C_17 
REMARK       I    between atoms: C_18  and  N_20 
REMARK    7  A    between atoms: N_20  and  C_21 
REMARK    8  A    between atoms: C_26  and  O_27 
REMARK    9  A    between atoms: O_27  and  C_28 
ROOT
ATOM      1  C   LIG d   1       4.772  -2.568  -9.293  0.00  0.00    -0.050 A 
ATOM      2  C   LIG d   1       3.641  -2.015  -9.868  0.00  0.00    -0.057 A 
ATOM      3  C   LIG d   1       2.855  -1.138  -9.152  0.00  0.00    -0.040 A 
ATOM      4  C   LIG d   1       3.193  -0.802  -7.842  0.00  0.00     0.043 A 
ATOM      5  C   LIG d   1       4.330  -1.366  -7.276  0.00  0.00     0.034 A 
ATOM      6  C   LIG d   1       5.114  -2.241  -7.994  0.00  0.00    -0.048 A 
ATOM      7  C   LIG d   1       4.416  -0.813  -5.878  0.00  0.00     0.105 A 
ATOM      8  C   LIG d   1       4.346  -1.943  -4.839  0.00  0.00     0.099 C 
ATOM      9  H   LIG d   1       3.332  -2.050  -4.452  0.00  0.00     0.046 H 
ATOM     10  C   LIG d   1       5.310  -1.453  -3.725  0.00  0.00     0.008 C 
ATOM     11  C   LIG d   1       6.404  -0.729  -4.550  0.00  0.00    -0.020 C 
ATOM     12  H   LIG d   1       7.123  -1.449  -4.941  0.00  0.00     0.085 H 
ATOM     13  C   LIG d   1       3.223   0.099  -5.752  0.00  0.00     0.274 A 
ATOM     14  O   LIG d   1       2.911   0.753  -4.779  0.00  0.00    -0.269 OA
ATOM     15  N   LIG d   1       2.568   0.048  -6.928  0.00  0.00    -0.280 N 
ATOM     16  H   LIG d   1       3.374  -2.271 -10.883  0.00  0.00     0.062 H 
ATOM     17  H   LIG d   1       1.973  -0.709  -9.606  0.00  0.00     0.064 H 
ATOM     18  H   LIG d   1       5.996  -2.671  -7.542  0.00  0.00     0.063 H 
ATOM     19  H   LIG d   1       4.808  -0.760  -3.051  0.00  0.00     0.033 H 
ATOM     20  H   LIG d   1       5.730  -2.295  -3.175  0.00  0.00     0.033 H 
ATOM     21  H   LIG d   1       1.757   0.545  -7.117  0.00  0.00     0.155 HD
ATOM     22  N   LIG d   1       5.669  -0.086  -5.657  0.00  0.00     0.244 N 
ATOM     23  H   LIG d   1       5.464   0.891  -5.414  0.00  0.00     0.203 HD
ATOM     24  H   LIG d   1       6.239  -0.113  -6.510  0.00  0.00     0.203 HD
ENDROOT
BRANCH   8  25
ATOM     25  C   LIG d   1       4.830  -3.242  -5.431  0.00  0.00     0.227 C 
ATOM     26  O   LIG d   1       6.011  -3.403  -5.657  0.00  0.00    -0.275 OA
ATOM     27  N   LIG d   1       3.951  -4.225  -5.708  0.00  0.00    -0.282 N 
ATOM     28  H   LIG d   1       3.000  -4.075  -5.583  0.00  0.00     0.155 HD
BRANCH  27  29
ATOM     29  C   LIG d   1       4.409  -5.464  -6.177  0.00  0.00     0.077 A 
ATOM     30  C   LIG d   1       3.984  -5.943  -7.413  0.00  0.00     0.141 A 
ATOM     31  C   LIG d   1       4.441  -7.168  -7.871  0.00  0.00    -0.017 A 
ATOM     32  C   LIG d   1       5.316  -7.912  -7.103  0.00  0.00    -0.040 A 
ATOM     33  H   LIG d   1       4.112  -7.543  -8.830  0.00  0.00     0.066 H 
ATOM     34  C   LIG d   1       5.740  -7.435  -5.874  0.00  0.00     0.043 A 
ATOM     35  H   LIG d   1       5.671  -8.867  -7.461  0.00  0.00     0.063 H 
ATOM     36  C   LIG d   1       5.293  -6.211  -5.413  0.00  0.00    -0.018 A 
ATOM     37 CL   LIG d   1       6.840  -8.375  -4.913  0.00  0.00    -0.084 Cl
ATOM     38  H   LIG d   1       5.628  -5.840  -4.455  0.00  0.00     0.065 H 
BRANCH  30  39
ATOM     39  O   LIG d   1       3.123  -5.211  -8.168  0.00  0.00    -0.493 OA
BRANCH  39  40
ATOM     40  C   LIG d   1       2.749  -5.754  -9.437  0.00  0.00     0.079 C 
ATOM     41  H   LIG d   1       2.226  -6.699  -9.288  0.00  0.00     0.066 H 
ATOM     42  H   LIG d   1       2.093  -5.052  -9.952  0.00  0.00     0.066 H 
ATOM     43  H   LIG d   1       3.643  -5.924 -10.038  0.00  0.00     0.066 H 
ENDBRANCH  39  40
ENDBRANCH  30  39
ENDBRANCH  27  29
ENDBRANCH   8  25
BRANCH  11  44
ATOM     44  C   LIG d   1       7.113   0.319  -3.691  0.00  0.00    -0.007 C 
ATOM     45  H   LIG d   1       6.373   0.975  -3.234  0.00  0.00     0.032 H 
ATOM     46  H   LIG d   1       7.689  -0.179  -2.911  0.00  0.00     0.032 H 
BRANCH  44  47
ATOM     47  C   LIG d   1       8.054   1.147  -4.570  0.00  0.00    -0.042 C 
ATOM     48  H   LIG d   1       7.496   1.559  -5.410  0.00  0.00     0.030 H 
BRANCH  47  49
ATOM     49  C   LIG d   1       8.651   2.288  -3.743  0.00  0.00    -0.062 C 
ATOM     50  H   LIG d   1       8.723   1.982  -2.700  0.00  0.00     0.023 H 
ATOM     51  H   LIG d   1       9.644   2.529  -4.122  0.00  0.00     0.023 H 
ATOM     52  H   LIG d   1       8.010   3.166  -3.820  0.00  0.00     0.023 H 
ENDBRANCH  47  49
BRANCH  47  53
ATOM     53  C   LIG d   1       9.180   0.253  -5.094  0.00  0.00    -0.062 C 
ATOM     54  H   LIG d   1       9.903   0.862  -5.636  0.00  0.00     0.023 H 
ATOM     55  H   LIG d   1       9.674  -0.238  -4.255  0.00  0.00     0.023 H 
ATOM     56  H   LIG d   1       8.765  -0.500  -5.763  0.00  0.00     0.023 H 
ENDBRANCH  47  53
ENDBRANCH  44  47
ENDBRANCH  11  44
BRANCH   1  57
ATOM     57  C   LIG d   1       5.628  -3.525 -10.082  0.00  0.00    -0.040 C 
ATOM     58  H   LIG d   1       5.069  -4.443 -10.269  0.00  0.00     0.028 H 
ATOM     59  H   LIG d   1       5.904  -3.067 -11.032  0.00  0.00     0.028 H 
ATOM     60  H   LIG d   1       6.530  -3.759  -9.515  0.00  0.00     0.028 H 
ENDBRANCH   1  57
TORSDOF 9
ENDMDL
