MODEL 1
REMARK VINA RESULT:      -6.8      0.000      0.000
REMARK  7 active torsions:
REMARK  status: ('A' for Active; 'I' for Inactive)
REMARK    1  A    between atoms: C_1  and  C_2 
REMARK    2  A    between atoms: C_3  and  O_19 
REMARK    3  A    between atoms: C_12  and  C_13 
REMARK    4  A    between atoms: O_19  and  C_20 
REMARK    5  A    between atoms: C_20  and  C_21 
REMARK    6  A    between atoms: C_26  and  O_27 
REMARK    7  A    between atoms: O_27  and  C_28 
ROOT
ATOM      1  C   LIG d   1       5.744  -0.609  -6.355  0.00  0.00     0.034 A 
ATOM      2  C   LIG d   1       5.118  -1.804  -6.040  0.00  0.00     0.127 A 
ATOM      3  C   LIG d   1       4.237  -2.399  -6.939  0.00  0.00    -0.019 A 
ATOM      4  C   LIG d   1       3.982  -1.813  -8.146  0.00  0.00    -0.047 A 
ATOM      5  C   LIG d   1       4.608  -0.611  -8.482  0.00  0.00     0.026 A 
ATOM      6  C   LIG d   1       5.500  -0.005  -7.579  0.00  0.00     0.146 A 
ATOM      7  O   LIG d   1       6.106   1.158  -7.908  0.00  0.00    -0.422 OA
ATOM      8  C   LIG d   1       5.884   1.766  -9.083  0.00  0.00     0.338 A 
ATOM      9  O   LIG d   1       6.458   2.814  -9.324  0.00  0.00    -0.245 OA
ATOM     10  C   LIG d   1       5.009   1.229 -10.042  0.00  0.00     0.031 A 
ATOM     11  C   LIG d   1       4.353   0.042  -9.777  0.00  0.00    -0.001 A 
ATOM     12  H   LIG d   1       3.752  -3.328  -6.681  0.00  0.00     0.065 H 
ATOM     13  H   LIG d   1       3.296  -2.278  -8.840  0.00  0.00     0.063 H 
ATOM     14  H   LIG d   1       4.850   1.741 -10.980  0.00  0.00     0.070 H 
ENDROOT
BRANCH   2  15
ATOM     15  O   LIG d   1       5.363  -2.397  -4.844  0.00  0.00    -0.487 OA
BRANCH  15  16
ATOM     16  C   LIG d   1       4.284  -2.434  -3.906  0.00  0.00     0.118 C 
ATOM     17  H   LIG d   1       4.466  -3.221  -3.175  0.00  0.00     0.075 H 
ATOM     18  H   LIG d   1       3.351  -2.636  -4.433  0.00  0.00     0.075 H 
BRANCH  16  19
ATOM     19  C   LIG d   1       4.185  -1.106  -3.201  0.00  0.00     0.031 A 
ATOM     20  C   LIG d   1       3.272  -0.156  -3.634  0.00  0.00     0.127 A 
ATOM     21  C   LIG d   1       3.178   1.063  -2.978  0.00  0.00    -0.020 A 
ATOM     22  C   LIG d   1       3.999   1.331  -1.901  0.00  0.00    -0.058 A 
ATOM     23  H   LIG d   1       2.465   1.801  -3.311  0.00  0.00     0.065 H 
ATOM     24  C   LIG d   1       4.913   0.385  -1.474  0.00  0.00    -0.061 A 
ATOM     25  H   LIG d   1       3.927   2.280  -1.391  0.00  0.00     0.062 H 
ATOM     26  C   LIG d   1       5.007  -0.832  -2.125  0.00  0.00    -0.052 A 
ATOM     27  H   LIG d   1       5.554   0.596  -0.631  0.00  0.00     0.062 H 
ATOM     28  H   LIG d   1       5.722  -1.569  -1.790  0.00  0.00     0.062 H 
BRANCH  20  29
ATOM     29  O   LIG d   1       2.465  -0.423  -4.694  0.00  0.00    -0.495 OA
BRANCH  29  30
ATOM     30  C   LIG d   1       2.338   0.599  -5.685  0.00  0.00     0.079 C 
ATOM     31  H   LIG d   1       3.197   0.565  -6.355  0.00  0.00     0.066 H 
ATOM     32  H   LIG d   1       2.294   1.574  -5.199  0.00  0.00     0.066 H 
ATOM     33  H   LIG d   1       1.424   0.438  -6.258  0.00  0.00     0.066 H 
ENDBRANCH  29  30
ENDBRANCH  20  29
ENDBRANCH  16  19
ENDBRANCH  15  16
ENDBRANCH   2  15
BRANCH   1  34
ATOM     34  C   LIG d   1       6.692   0.031  -5.373  0.00  0.00    -0.033 C 
ATOM     35  H   LIG d   1       7.512   0.502  -5.914  0.00  0.00     0.028 H 
ATOM     36  H   LIG d   1       6.160   0.784  -4.792  0.00  0.00     0.028 H 
ATOM     37  H   LIG d   1       7.089  -0.732  -4.703  0.00  0.00     0.028 H 
ENDBRANCH   1  34
BRANCH  11  38
ATOM     38  C   LIG d   1       3.424  -0.554 -10.762  0.00  0.00    -0.017 A 
ATOM     39  C   LIG d   1       3.921  -1.142 -11.927  0.00  0.00    -0.054 A 
ATOM     40  C   LIG d   1       3.049  -1.697 -12.841  0.00  0.00    -0.061 A 
ATOM     41  H   LIG d   1       4.985  -1.163 -12.111  0.00  0.00     0.062 H 
ATOM     42  C   LIG d   1       1.686  -1.671 -12.606  0.00  0.00    -0.062 A 
ATOM     43  H   LIG d   1       3.432  -2.152 -13.743  0.00  0.00     0.062 H 
ATOM     44  C   LIG d   1       1.187  -1.089 -11.454  0.00  0.00    -0.061 A 
ATOM     45  H   LIG d   1       1.008  -2.106 -13.325  0.00  0.00     0.062 H 
ATOM     46  C   LIG d   1       2.049  -0.536 -10.528  0.00  0.00    -0.054 A 
ATOM     47  H   LIG d   1       0.122  -1.071 -11.276  0.00  0.00     0.062 H 
ATOM     48  H   LIG d   1       1.659  -0.087  -9.626  0.00  0.00     0.062 H 
ENDBRANCH  11  38
TORSDOF 7
ENDMDL
MODEL 2
REMARK VINA RESULT:      -6.6      4.275      7.272
REMARK  7 active torsions:
REMARK  status: ('A' for Active; 'I' for Inactive)
REMARK    1  A    between atoms: C_1  and  C_2 
REMARK    2  A    between atoms: C_3  and  O_19 
REMARK    3  A    between atoms: C_12  and  C_13 
REMARK    4  A    between atoms: O_19  and  C_20 
REMARK    5  A    between atoms: C_20  and  C_21 
REMARK    6  A    between atoms: C_26  and  O_27 
REMARK    7  A    between atoms: O_27  and  C_28 
ROOT
ATOM      1  C   LIG d   1       4.729  -4.143  -7.512  0.00  0.00     0.034 A 
ATOM      2  C   LIG d   1       5.226  -4.913  -6.473  0.00  0.00     0.127 A 
ATOM      3  C   LIG d   1       5.381  -4.370  -5.201  0.00  0.00    -0.019 A 
ATOM      4  C   LIG d   1       5.039  -3.070  -4.959  0.00  0.00    -0.047 A 
ATOM      5  C   LIG d   1       4.531  -2.281  -5.994  0.00  0.00     0.026 A 
ATOM      6  C   LIG d   1       4.372  -2.824  -7.281  0.00  0.00     0.146 A 
ATOM      7  O   LIG d   1       3.879  -2.058  -8.280  0.00  0.00    -0.422 OA
ATOM      8  C   LIG d   1       3.531  -0.777  -8.086  0.00  0.00     0.338 A 
ATOM      9  O   LIG d   1       3.093  -0.135  -9.025  0.00  0.00    -0.245 OA
ATOM     10  C   LIG d   1       3.657  -0.157  -6.832  0.00  0.00     0.031 A 
ATOM     11  C   LIG d   1       4.154  -0.877  -5.762  0.00  0.00    -0.001 A 
ATOM     12  H   LIG d   1       5.773  -4.978  -4.400  0.00  0.00     0.065 H 
ATOM     13  H   LIG d   1       5.162  -2.652  -3.971  0.00  0.00     0.063 H 
ATOM     14  H   LIG d   1       3.367   0.877  -6.705  0.00  0.00     0.070 H 
ENDROOT
BRANCH   2  15
ATOM     15  O   LIG d   1       5.570  -6.207  -6.699  0.00  0.00    -0.487 OA
BRANCH  15  16
ATOM     16  C   LIG d   1       4.830  -7.207  -5.993  0.00  0.00     0.118 C 
ATOM     17  H   LIG d   1       4.323  -7.855  -6.707  0.00  0.00     0.075 H 
ATOM     18  H   LIG d   1       4.093  -6.727  -5.349  0.00  0.00     0.075 H 
BRANCH  16  19
ATOM     19  C   LIG d   1       5.773  -8.028  -5.151  0.00  0.00     0.031 A 
ATOM     20  C   LIG d   1       5.287  -9.080  -4.390  0.00  0.00     0.127 A 
ATOM     21  C   LIG d   1       6.159  -9.838  -3.621  0.00  0.00    -0.020 A 
ATOM     22  C   LIG d   1       7.507  -9.540  -3.611  0.00  0.00    -0.058 A 
ATOM     23  H   LIG d   1       5.783 -10.660  -3.031  0.00  0.00     0.065 H 
ATOM     24  C   LIG d   1       7.989  -8.487  -4.367  0.00  0.00    -0.061 A 
ATOM     25  H   LIG d   1       8.185 -10.129  -3.013  0.00  0.00     0.062 H 
ATOM     26  C   LIG d   1       7.122  -7.731  -5.135  0.00  0.00    -0.052 A 
ATOM     27  H   LIG d   1       9.044  -8.255  -4.358  0.00  0.00     0.062 H 
ATOM     28  H   LIG d   1       7.501  -6.909  -5.725  0.00  0.00     0.062 H 
BRANCH  20  29
ATOM     29  O   LIG d   1       3.960  -9.372  -4.402  0.00  0.00    -0.495 OA
BRANCH  29  30
ATOM     30  C   LIG d   1       3.432 -10.039  -3.253  0.00  0.00     0.079 C 
ATOM     31  H   LIG d   1       4.080 -10.874  -2.988  0.00  0.00     0.066 H 
ATOM     32  H   LIG d   1       2.432 -10.412  -3.477  0.00  0.00     0.066 H 
ATOM     33  H   LIG d   1       3.381  -9.340  -2.419  0.00  0.00     0.066 H 
ENDBRANCH  29  30
ENDBRANCH  20  29
ENDBRANCH  16  19
ENDBRANCH  15  16
ENDBRANCH   2  15
BRANCH   1  34
ATOM     34  C   LIG d   1       4.571  -4.739  -8.887  0.00  0.00    -0.033 C 
ATOM     35  H   LIG d   1       4.120  -5.728  -8.805  0.00  0.00     0.028 H 
ATOM     36  H   LIG d   1       3.932  -4.096  -9.491  0.00  0.00     0.028 H 
ATOM     37  H   LIG d   1       5.550  -4.826  -9.360  0.00  0.00     0.028 H 
ENDBRANCH   1  34
BRANCH  11  38
ATOM     38  C   LIG d   1       4.302  -0.257  -4.427  0.00  0.00    -0.017 A 
ATOM     39  C   LIG d   1       5.557   0.167  -3.986  0.00  0.00    -0.054 A 
ATOM     40  C   LIG d   1       5.688   0.745  -2.741  0.00  0.00    -0.061 A 
ATOM     41  H   LIG d   1       6.423   0.043  -4.620  0.00  0.00     0.062 H 
ATOM     42  C   LIG d   1       4.579   0.903  -1.928  0.00  0.00    -0.062 A 
ATOM     43  H   LIG d   1       6.658   1.073  -2.398  0.00  0.00     0.062 H 
ATOM     44  C   LIG d   1       3.332   0.484  -2.358  0.00  0.00    -0.061 A 
ATOM     45  H   LIG d   1       4.687   1.356  -0.954  0.00  0.00     0.062 H 
ATOM     46  C   LIG d   1       3.186  -0.089  -3.605  0.00  0.00    -0.054 A 
ATOM     47  H   LIG d   1       2.471   0.610  -1.720  0.00  0.00     0.062 H 
ATOM     48  H   LIG d   1       2.212  -0.411  -3.942  0.00  0.00     0.062 H 
ENDBRANCH  11  38
TORSDOF 7
ENDMDL
MODEL 3
REMARK VINA RESULT:      -6.5      1.884      2.907
REMARK  7 active torsions:
REMARK  status: ('A' for Active; 'I' for Inactive)
REMARK    1  A    between atoms: C_1  and  C_2 
REMARK    2  A    between atoms: C_3  and  O_19 
REMARK    3  A    between atoms: C_12  and  C_13 
REMARK    4  A    between atoms: O_19  and  C_20 
REMARK    5  A    between atoms: C_20  and  C_21 
REMARK    6  A    between atoms: C_26  and  O_27 
REMARK    7  A    between atoms: O_27  and  C_28 
ROOT
ATOM      1  C   LIG d   1       4.687  -0.555  -7.442  0.00  0.00     0.034 A 
ATOM      2  C   LIG d   1       3.440   0.006  -7.220  0.00  0.00     0.127 A 
ATOM      3  C   LIG d   1       2.391  -0.229  -8.104  0.00  0.00    -0.019 A 
ATOM      4  C   LIG d   1       2.576  -1.022  -9.201  0.00  0.00    -0.047 A 
ATOM      5  C   LIG d   1       3.825  -1.601  -9.437  0.00  0.00     0.026 A 
ATOM      6  C   LIG d   1       4.889  -1.367  -8.547  0.00  0.00     0.146 A 
ATOM      7  O   LIG d   1       6.096  -1.930  -8.778  0.00  0.00    -0.422 OA
ATOM      8  C   LIG d   1       6.322  -2.715  -9.842  0.00  0.00     0.338 A 
ATOM      9  O   LIG d   1       7.431  -3.194  -9.999  0.00  0.00    -0.245 OA
ATOM     10  C   LIG d   1       5.314  -3.000 -10.780  0.00  0.00     0.031 A 
ATOM     11  C   LIG d   1       4.054  -2.460 -10.610  0.00  0.00    -0.001 A 
ATOM     12  H   LIG d   1       1.424   0.218  -7.923  0.00  0.00     0.065 H 
ATOM     13  H   LIG d   1       1.759  -1.201  -9.885  0.00  0.00     0.063 H 
ATOM     14  H   LIG d   1       5.525  -3.637 -11.627  0.00  0.00     0.070 H 
ENDROOT
BRANCH   2  15
ATOM     15  O   LIG d   1       3.242   0.796  -6.134  0.00  0.00    -0.487 OA
BRANCH  15  16
ATOM     16  C   LIG d   1       2.432   0.262  -5.083  0.00  0.00     0.118 C 
ATOM     17  H   LIG d   1       2.108  -0.743  -5.350  0.00  0.00     0.075 H 
ATOM     18  H   LIG d   1       1.559   0.900  -4.937  0.00  0.00     0.075 H 
BRANCH  16  19
ATOM     19  C   LIG d   1       3.234   0.211  -3.808  0.00  0.00     0.031 A 
ATOM     20  C   LIG d   1       3.765  -0.993  -3.370  0.00  0.00     0.127 A 
ATOM     21  C   LIG d   1       4.508  -1.037  -2.200  0.00  0.00    -0.020 A 
ATOM     22  C   LIG d   1       4.713   0.118  -1.471  0.00  0.00    -0.058 A 
ATOM     23  H   LIG d   1       4.926  -1.972  -1.860  0.00  0.00     0.065 H 
ATOM     24  C   LIG d   1       4.179   1.317  -1.906  0.00  0.00    -0.061 A 
ATOM     25  H   LIG d   1       5.291   0.085  -0.559  0.00  0.00     0.062 H 
ATOM     26  C   LIG d   1       3.438   1.362  -3.073  0.00  0.00    -0.052 A 
ATOM     27  H   LIG d   1       4.340   2.219  -1.334  0.00  0.00     0.062 H 
ATOM     28  H   LIG d   1       3.022   2.300  -3.411  0.00  0.00     0.062 H 
BRANCH  20  29
ATOM     29  O   LIG d   1       3.561  -2.128  -4.091  0.00  0.00    -0.495 OA
BRANCH  29  30
ATOM     30  C   LIG d   1       4.687  -2.989  -4.274  0.00  0.00     0.079 C 
ATOM     31  H   LIG d   1       4.844  -3.160  -5.340  0.00  0.00     0.066 H 
ATOM     32  H   LIG d   1       4.501  -3.942  -3.778  0.00  0.00     0.066 H 
ATOM     33  H   LIG d   1       5.574  -2.524  -3.846  0.00  0.00     0.066 H 
ENDBRANCH  29  30
ENDBRANCH  20  29
ENDBRANCH  16  19
ENDBRANCH  15  16
ENDBRANCH   2  15
BRANCH   1  34
ATOM     34  C   LIG d   1       5.818  -0.290  -6.483  0.00  0.00    -0.033 C 
ATOM     35  H   LIG d   1       6.631  -0.989  -6.677  0.00  0.00     0.028 H 
ATOM     36  H   LIG d   1       6.176   0.731  -6.616  0.00  0.00     0.028 H 
ATOM     37  H   LIG d   1       5.464  -0.419  -5.459  0.00  0.00     0.028 H 
ENDBRANCH   1  34
BRANCH  11  38
ATOM     38  C   LIG d   1       2.968  -2.737 -11.576  0.00  0.00    -0.017 A 
ATOM     39  C   LIG d   1       2.767  -1.888 -12.667  0.00  0.00    -0.054 A 
ATOM     40  C   LIG d   1       1.754  -2.153 -13.564  0.00  0.00    -0.061 A 
ATOM     41  H   LIG d   1       3.405  -1.028 -12.807  0.00  0.00     0.062 H 
ATOM     42  C   LIG d   1       0.937  -3.255 -13.386  0.00  0.00    -0.062 A 
ATOM     43  H   LIG d   1       1.597  -1.498 -14.409  0.00  0.00     0.062 H 
ATOM     44  C   LIG d   1       1.130  -4.099 -12.306  0.00  0.00    -0.061 A 
ATOM     45  H   LIG d   1       0.145  -3.457 -14.091  0.00  0.00     0.062 H 
ATOM     46  C   LIG d   1       2.145  -3.850 -11.404  0.00  0.00    -0.054 A 
ATOM     47  H   LIG d   1       0.489  -4.958 -12.172  0.00  0.00     0.062 H 
ATOM     48  H   LIG d   1       2.298  -4.513 -10.566  0.00  0.00     0.062 H 
ENDBRANCH  11  38
TORSDOF 7
ENDMDL
MODEL 4
REMARK VINA RESULT:      -6.5      5.031      7.820
REMARK  7 active torsions:
REMARK  status: ('A' for Active; 'I' for Inactive)
REMARK    1  A    between atoms: C_1  and  C_2 
REMARK    2  A    between atoms: C_3  and  O_19 
REMARK    3  A    between atoms: C_12  and  C_13 
REMARK    4  A    between atoms: O_19  and  C_20 
REMARK    5  A    between atoms: C_20  and  C_21 
REMARK    6  A    between atoms: C_26  and  O_27 
REMARK    7  A    between atoms: O_27  and  C_28 
ROOT
ATOM      1  C   LIG d   1       4.201  -5.207  -7.674  0.00  0.00     0.034 A 
ATOM      2  C   LIG d   1       4.497  -4.412  -6.579  0.00  0.00     0.127 A 
ATOM      3  C   LIG d   1       4.883  -4.986  -5.371  0.00  0.00    -0.019 A 
ATOM      4  C   LIG d   1       4.981  -6.343  -5.252  0.00  0.00    -0.047 A 
ATOM      5  C   LIG d   1       4.692  -7.160  -6.348  0.00  0.00     0.026 A 
ATOM      6  C   LIG d   1       4.301  -6.586  -7.571  0.00  0.00     0.146 A 
ATOM      7  O   LIG d   1       4.023  -7.379  -8.629  0.00  0.00    -0.422 OA
ATOM      8  C   LIG d   1       4.107  -8.716  -8.556  0.00  0.00     0.338 A 
ATOM      9  O   LIG d   1       3.843  -9.381  -9.543  0.00  0.00    -0.245 OA
ATOM     10  C   LIG d   1       4.490  -9.371  -7.373  0.00  0.00     0.031 A 
ATOM     11  C   LIG d   1       4.789  -8.625  -6.248  0.00  0.00    -0.001 A 
ATOM     12  H   LIG d   1       5.107  -4.356  -4.523  0.00  0.00     0.065 H 
ATOM     13  H   LIG d   1       5.280  -6.785  -4.313  0.00  0.00     0.063 H 
ATOM     14  H   LIG d   1       4.549 -10.449  -7.343  0.00  0.00     0.070 H 
ENDROOT
BRANCH   2  15
ATOM     15  O   LIG d   1       4.404  -3.061  -6.684  0.00  0.00    -0.487 OA
BRANCH  15  16
ATOM     16  C   LIG d   1       5.248  -2.285  -5.828  0.00  0.00     0.118 C 
ATOM     17  H   LIG d   1       5.780  -1.543  -6.421  0.00  0.00     0.075 H 
ATOM     18  H   LIG d   1       5.966  -2.940  -5.335  0.00  0.00     0.075 H 
BRANCH  16  19
ATOM     19  C   LIG d   1       4.405  -1.591  -4.789  0.00  0.00     0.031 A 
ATOM     20  C   LIG d   1       3.805  -0.375  -5.081  0.00  0.00     0.127 A 
ATOM     21  C   LIG d   1       3.024   0.258  -4.124  0.00  0.00    -0.020 A 
ATOM     22  C   LIG d   1       2.852  -0.320  -2.883  0.00  0.00    -0.058 A 
ATOM     23  H   LIG d   1       2.553   1.202  -4.351  0.00  0.00     0.065 H 
ATOM     24  C   LIG d   1       3.456  -1.530  -2.592  0.00  0.00    -0.061 A 
ATOM     25  H   LIG d   1       2.245   0.173  -2.138  0.00  0.00     0.062 H 
ATOM     26  C   LIG d   1       4.233  -2.164  -3.544  0.00  0.00    -0.052 A 
ATOM     27  H   LIG d   1       3.319  -1.981  -1.620  0.00  0.00     0.062 H 
ATOM     28  H   LIG d   1       4.703  -3.109  -3.314  0.00  0.00     0.062 H 
BRANCH  20  29
ATOM     29  O   LIG d   1       3.976   0.191  -6.304  0.00  0.00    -0.495 OA
BRANCH  29  30
ATOM     30  C   LIG d   1       2.848   0.192  -7.182  0.00  0.00     0.079 C 
ATOM     31  H   LIG d   1       2.040   0.770  -6.734  0.00  0.00     0.066 H 
ATOM     32  H   LIG d   1       2.514  -0.833  -7.347  0.00  0.00     0.066 H 
ATOM     33  H   LIG d   1       3.130   0.640  -8.135  0.00  0.00     0.066 H 
ENDBRANCH  29  30
ENDBRANCH  20  29
ENDBRANCH  16  19
ENDBRANCH  15  16
ENDBRANCH   2  15
BRANCH   1  34
ATOM     34  C   LIG d   1       3.778  -4.576  -8.975  0.00  0.00    -0.033 C 
ATOM     35  H   LIG d   1       3.752  -5.336  -9.756  0.00  0.00     0.028 H 
ATOM     36  H   LIG d   1       2.786  -4.138  -8.862  0.00  0.00     0.028 H 
ATOM     37  H   LIG d   1       4.490  -3.797  -9.250  0.00  0.00     0.028 H 
ENDBRANCH   1  34
BRANCH  11  38
ATOM     38  C   LIG d   1       5.195  -9.279  -4.985  0.00  0.00    -0.017 A 
ATOM     39  C   LIG d   1       6.549  -9.443  -4.684  0.00  0.00    -0.054 A 
ATOM     40  C   LIG d   1       6.922 -10.053  -3.504  0.00  0.00    -0.061 A 
ATOM     41  H   LIG d   1       7.303  -9.093  -5.374  0.00  0.00     0.062 H 
ATOM     42  C   LIG d   1       5.957 -10.502  -2.620  0.00  0.00    -0.062 A 
ATOM     43  H   LIG d   1       7.968 -10.180  -3.270  0.00  0.00     0.062 H 
ATOM     44  C   LIG d   1       4.614 -10.343  -2.912  0.00  0.00    -0.061 A 
ATOM     45  H   LIG d   1       6.253 -10.979  -1.698  0.00  0.00     0.062 H 
ATOM     46  C   LIG d   1       4.228  -9.729  -4.086  0.00  0.00    -0.054 A 
ATOM     47  H   LIG d   1       3.865 -10.697  -2.218  0.00  0.00     0.062 H 
ATOM     48  H   LIG d   1       3.179  -9.601  -4.311  0.00  0.00     0.062 H 
ENDBRANCH  11  38
TORSDOF 7
ENDMDL
MODEL 5
REMARK VINA RESULT:      -6.5      4.496      7.862
REMARK  7 active torsions:
REMARK  status: ('A' for Active; 'I' for Inactive)
REMARK    1  A    between atoms: C_1  and  C_2 
REMARK    2  A    between atoms: C_3  and  O_19 
REMARK    3  A    between atoms: C_12  and  C_13 
REMARK    4  A    between atoms: O_19  and  C_20 
REMARK    5  A    between atoms: C_20  and  C_21 
REMARK    6  A    between atoms: C_26  and  O_27 
REMARK    7  A    between atoms: O_27  and  C_28 
ROOT
ATOM      1  C   LIG d   1       8.338   1.612  -6.312  0.00  0.00     0.034 A 
ATOM      2  C   LIG d   1       7.867   0.922  -5.206  0.00  0.00     0.127 A 
ATOM      3  C   LIG d   1       8.042   1.436  -3.925  0.00  0.00    -0.019 A 
ATOM      4  C   LIG d   1       8.677   2.631  -3.741  0.00  0.00    -0.047 A 
ATOM      5  C   LIG d   1       9.153   3.343  -4.845  0.00  0.00     0.026 A 
ATOM      6  C   LIG d   1       8.979   2.829  -6.142  0.00  0.00     0.146 A 
ATOM      7  O   LIG d   1       9.439   3.520  -7.208  0.00  0.00    -0.422 OA
ATOM      8  C   LIG d   1      10.068   4.698  -7.073  0.00  0.00     0.338 A 
ATOM      9  O   LIG d   1      10.462   5.276  -8.070  0.00  0.00    -0.245 OA
ATOM     10  C   LIG d   1      10.283   5.282  -5.813  0.00  0.00     0.031 A 
ATOM     11  C   LIG d   1       9.840   4.634  -4.676  0.00  0.00    -0.001 A 
ATOM     12  H   LIG d   1       7.675   0.887  -3.070  0.00  0.00     0.065 H 
ATOM     13  H   LIG d   1       8.811   3.026  -2.744  0.00  0.00     0.063 H 
ATOM     14  H   LIG d   1      10.791   6.233  -5.735  0.00  0.00     0.070 H 
ENDROOT
BRANCH   2  15
ATOM     15  O   LIG d   1       7.234  -0.267  -5.375  0.00  0.00    -0.487 OA
BRANCH  15  16
ATOM     16  C   LIG d   1       5.819  -0.226  -5.579  0.00  0.00     0.118 C 
ATOM     17  H   LIG d   1       5.571  -0.741  -6.506  0.00  0.00     0.075 H 
ATOM     18  H   LIG d   1       5.491   0.812  -5.640  0.00  0.00     0.075 H 
BRANCH  16  19
ATOM     19  C   LIG d   1       5.126  -0.903  -4.425  0.00  0.00     0.031 A 
ATOM     20  C   LIG d   1       4.593  -0.145  -3.393  0.00  0.00     0.127 A 
ATOM     21  C   LIG d   1       3.949  -0.771  -2.335  0.00  0.00    -0.020 A 
ATOM     22  C   LIG d   1       3.845  -2.148  -2.310  0.00  0.00    -0.058 A 
ATOM     23  H   LIG d   1       3.530  -0.183  -1.534  0.00  0.00     0.065 H 
ATOM     24  C   LIG d   1       4.381  -2.903  -3.338  0.00  0.00    -0.061 A 
ATOM     25  H   LIG d   1       3.344  -2.636  -1.487  0.00  0.00     0.062 H 
ATOM     26  C   LIG d   1       5.022  -2.281  -4.393  0.00  0.00    -0.052 A 
ATOM     27  H   LIG d   1       4.299  -3.979  -3.316  0.00  0.00     0.062 H 
ATOM     28  H   LIG d   1       5.441  -2.872  -5.194  0.00  0.00     0.062 H 
BRANCH  20  29
ATOM     29  O   LIG d   1       4.697   1.209  -3.422  0.00  0.00    -0.495 OA
BRANCH  29  30
ATOM     30  C   LIG d   1       3.535   1.956  -3.052  0.00  0.00     0.079 C 
ATOM     31  H   LIG d   1       3.571   2.179  -1.985  0.00  0.00     0.066 H 
ATOM     32  H   LIG d   1       2.642   1.372  -3.271  0.00  0.00     0.066 H 
ATOM     33  H   LIG d   1       3.507   2.888  -3.616  0.00  0.00     0.066 H 
ENDBRANCH  29  30
ENDBRANCH  20  29
ENDBRANCH  16  19
ENDBRANCH  15  16
ENDBRANCH   2  15
BRANCH   1  34
ATOM     34  C   LIG d   1       8.149   1.044  -7.695  0.00  0.00    -0.033 C 
ATOM     35  H   LIG d   1       7.990  -0.033  -7.627  0.00  0.00     0.028 H 
ATOM     36  H   LIG d   1       7.282   1.509  -8.164  0.00  0.00     0.028 H 
ATOM     37  H   LIG d   1       9.038   1.243  -8.294  0.00  0.00     0.028 H 
ENDBRANCH   1  34
BRANCH  11  38
ATOM     38  C   LIG d   1      10.048   5.218  -3.333  0.00  0.00    -0.017 A 
ATOM     39  C   LIG d   1       9.373   6.382  -2.963  0.00  0.00    -0.054 A 
ATOM     40  C   LIG d   1       9.571   6.922  -1.709  0.00  0.00    -0.061 A 
ATOM     41  H   LIG d   1       8.696   6.859  -3.657  0.00  0.00     0.062 H 
ATOM     42  C   LIG d   1      10.438   6.312  -0.819  0.00  0.00    -0.062 A 
ATOM     43  H   LIG d   1       9.049   7.822  -1.421  0.00  0.00     0.062 H 
ATOM     44  C   LIG d   1      11.111   5.158  -1.180  0.00  0.00    -0.061 A 
ATOM     45  H   LIG d   1      10.590   6.738   0.161  0.00  0.00     0.062 H 
ATOM     46  C   LIG d   1      10.916   4.604  -2.430  0.00  0.00    -0.054 A 
ATOM     47  H   LIG d   1      11.786   4.686  -0.482  0.00  0.00     0.062 H 
ATOM     48  H   LIG d   1      11.438   3.701  -2.708  0.00  0.00     0.062 H 
ENDBRANCH  11  38
TORSDOF 7
ENDMDL
MODEL 6
REMARK VINA RESULT:      -6.4      4.713      8.157
REMARK  7 active torsions:
REMARK  status: ('A' for Active; 'I' for Inactive)
REMARK    1  A    between atoms: C_1  and  C_2 
REMARK    2  A    between atoms: C_3  and  O_19 
REMARK    3  A    between atoms: C_12  and  C_13 
REMARK    4  A    between atoms: O_19  and  C_20 
REMARK    5  A    between atoms: C_20  and  C_21 
REMARK    6  A    between atoms: C_26  and  O_27 
REMARK    7  A    between atoms: O_27  and  C_28 
ROOT
ATOM      1  C   LIG d   1       8.363   1.904  -6.135  0.00  0.00     0.034 A 
ATOM      2  C   LIG d   1       7.906   1.196  -5.036  0.00  0.00     0.127 A 
ATOM      3  C   LIG d   1       8.158   1.653  -3.746  0.00  0.00    -0.019 A 
ATOM      4  C   LIG d   1       8.856   2.809  -3.546  0.00  0.00    -0.047 A 
ATOM      5  C   LIG d   1       9.320   3.539  -4.644  0.00  0.00     0.026 A 
ATOM      6  C   LIG d   1       9.068   3.083  -5.950  0.00  0.00     0.146 A 
ATOM      7  O   LIG d   1       9.517   3.792  -7.010  0.00  0.00    -0.422 OA
ATOM      8  C   LIG d   1      10.206   4.933  -6.859  0.00  0.00     0.338 A 
ATOM      9  O   LIG d   1      10.587   5.530  -7.852  0.00  0.00    -0.245 OA
ATOM     10  C   LIG d   1      10.501   5.459  -5.590  0.00  0.00     0.031 A 
ATOM     11  C   LIG d   1      10.075   4.789  -4.459  0.00  0.00    -0.001 A 
ATOM     12  H   LIG d   1       7.800   1.090  -2.896  0.00  0.00     0.065 H 
ATOM     13  H   LIG d   1       9.051   3.159  -2.543  0.00  0.00     0.063 H 
ATOM     14  H   LIG d   1      11.058   6.381  -5.500  0.00  0.00     0.070 H 
ENDROOT
BRANCH   2  15
ATOM     15  O   LIG d   1       7.210   0.044  -5.220  0.00  0.00    -0.487 OA
BRANCH  15  16
ATOM     16  C   LIG d   1       7.415  -0.997  -4.262  0.00  0.00     0.118 C 
ATOM     17  H   LIG d   1       8.131  -0.663  -3.512  0.00  0.00     0.075 H 
ATOM     18  H   LIG d   1       7.802  -1.883  -4.766  0.00  0.00     0.075 H 
BRANCH  16  19
ATOM     19  C   LIG d   1       6.106  -1.331  -3.595  0.00  0.00     0.031 A 
ATOM     20  C   LIG d   1       5.441  -2.505  -3.918  0.00  0.00     0.127 A 
ATOM     21  C   LIG d   1       4.239  -2.813  -3.297  0.00  0.00    -0.020 A 
ATOM     22  C   LIG d   1       3.705  -1.948  -2.363  0.00  0.00    -0.058 A 
ATOM     23  H   LIG d   1       3.722  -3.727  -3.545  0.00  0.00     0.065 H 
ATOM     24  C   LIG d   1       4.367  -0.776  -2.045  0.00  0.00    -0.061 A 
ATOM     25  H   LIG d   1       2.769  -2.187  -1.880  0.00  0.00     0.062 H 
ATOM     26  C   LIG d   1       5.565  -0.467  -2.661  0.00  0.00    -0.052 A 
ATOM     27  H   LIG d   1       3.947  -0.101  -1.314  0.00  0.00     0.062 H 
ATOM     28  H   LIG d   1       6.080   0.449  -2.412  0.00  0.00     0.062 H 
BRANCH  20  29
ATOM     29  O   LIG d   1       5.970  -3.353  -4.838  0.00  0.00    -0.495 OA
BRANCH  29  30
ATOM     30  C   LIG d   1       5.078  -4.294  -5.440  0.00  0.00     0.079 C 
ATOM     31  H   LIG d   1       5.265  -4.337  -6.513  0.00  0.00     0.066 H 
ATOM     32  H   LIG d   1       4.048  -3.984  -5.264  0.00  0.00     0.066 H 
ATOM     33  H   LIG d   1       5.240  -5.280  -5.003  0.00  0.00     0.066 H 
ENDBRANCH  29  30
ENDBRANCH  20  29
ENDBRANCH  16  19
ENDBRANCH  15  16
ENDBRANCH   2  15
BRANCH   1  34
ATOM     34  C   LIG d   1       8.090   1.398  -7.528  0.00  0.00    -0.033 C 
ATOM     35  H   LIG d   1       8.803   1.842  -8.223  0.00  0.00     0.028 H 
ATOM     36  H   LIG d   1       8.191   0.313  -7.548  0.00  0.00     0.028 H 
ATOM     37  H   LIG d   1       7.077   1.674  -7.823  0.00  0.00     0.028 H 
ENDBRANCH   1  34
BRANCH  11  38
ATOM     38  C   LIG d   1      10.367   5.312  -3.106  0.00  0.00    -0.017 A 
ATOM     39  C   LIG d   1      11.401   4.757  -2.349  0.00  0.00    -0.054 A 
ATOM     40  C   LIG d   1      11.668   5.249  -1.089  0.00  0.00    -0.061 A 
ATOM     41  H   LIG d   1      11.989   3.945  -2.750  0.00  0.00     0.062 H 
ATOM     42  C   LIG d   1      10.915   6.289  -0.574  0.00  0.00    -0.062 A 
ATOM     43  H   LIG d   1      12.467   4.822  -0.501  0.00  0.00     0.062 H 
ATOM     44  C   LIG d   1       9.888   6.843  -1.319  0.00  0.00    -0.061 A 
ATOM     45  H   LIG d   1      11.128   6.671   0.413  0.00  0.00     0.062 H 
ATOM     46  C   LIG d   1       9.614   6.364  -2.584  0.00  0.00    -0.054 A 
ATOM     47  H   LIG d   1       9.303   7.654  -0.912  0.00  0.00     0.062 H 
ATOM     48  H   LIG d   1       8.816   6.800  -3.167  0.00  0.00     0.062 H 
ENDBRANCH  11  38
TORSDOF 7
ENDMDL
MODEL 7
REMARK VINA RESULT:      -6.3      4.699      7.473
REMARK  7 active torsions:
REMARK  status: ('A' for Active; 'I' for Inactive)
REMARK    1  A    between atoms: C_1  and  C_2 
REMARK    2  A    between atoms: C_3  and  O_19 
REMARK    3  A    between atoms: C_12  and  C_13 
REMARK    4  A    between atoms: O_19  and  C_20 
REMARK    5  A    between atoms: C_20  and  C_21 
REMARK    6  A    between atoms: C_26  and  O_27 
REMARK    7  A    between atoms: O_27  and  C_28 
ROOT
ATOM      1  C   LIG d   1       9.775   0.599  -4.968  0.00  0.00     0.034 A 
ATOM      2  C   LIG d   1       9.431   1.777  -4.325  0.00  0.00     0.127 A 
ATOM      3  C   LIG d   1       8.162   1.939  -3.776  0.00  0.00    -0.019 A 
ATOM      4  C   LIG d   1       7.240   0.934  -3.859  0.00  0.00    -0.047 A 
ATOM      5  C   LIG d   1       7.572  -0.262  -4.500  0.00  0.00     0.026 A 
ATOM      6  C   LIG d   1       8.853  -0.432  -5.056  0.00  0.00     0.146 A 
ATOM      7  O   LIG d   1       9.171  -1.591  -5.674  0.00  0.00    -0.422 OA
ATOM      8  C   LIG d   1       8.297  -2.603  -5.778  0.00  0.00     0.338 A 
ATOM      9  O   LIG d   1       8.639  -3.625  -6.347  0.00  0.00    -0.245 OA
ATOM     10  C   LIG d   1       6.997  -2.517  -5.250  0.00  0.00     0.031 A 
ATOM     11  C   LIG d   1       6.599  -1.362  -4.604  0.00  0.00    -0.001 A 
ATOM     12  H   LIG d   1       7.904   2.863  -3.281  0.00  0.00     0.065 H 
ATOM     13  H   LIG d   1       6.256   1.064  -3.433  0.00  0.00     0.063 H 
ATOM     14  H   LIG d   1       6.315  -3.349  -5.348  0.00  0.00     0.070 H 
ENDROOT
BRANCH   2  15
ATOM     15  O   LIG d   1      10.337   2.784  -4.234  0.00  0.00    -0.487 OA
BRANCH  15  16
ATOM     16  C   LIG d   1       9.905   4.085  -4.640  0.00  0.00     0.118 C 
ATOM     17  H   LIG d   1       8.873   4.032  -4.986  0.00  0.00     0.075 H 
ATOM     18  H   LIG d   1      10.542   4.444  -5.449  0.00  0.00     0.075 H 
BRANCH  16  19
ATOM     19  C   LIG d   1       9.996   5.032  -3.472  0.00  0.00     0.031 A 
ATOM     20  C   LIG d   1       9.543   6.337  -3.598  0.00  0.00     0.127 A 
ATOM     21  C   LIG d   1       9.622   7.204  -2.517  0.00  0.00    -0.020 A 
ATOM     22  C   LIG d   1      10.157   6.768  -1.322  0.00  0.00    -0.058 A 
ATOM     23  H   LIG d   1       9.266   8.219  -2.613  0.00  0.00     0.065 H 
ATOM     24  C   LIG d   1      10.614   5.468  -1.199  0.00  0.00    -0.061 A 
ATOM     25  H   LIG d   1      10.220   7.443  -0.481  0.00  0.00     0.062 H 
ATOM     26  C   LIG d   1      10.534   4.602  -2.274  0.00  0.00    -0.052 A 
ATOM     27  H   LIG d   1      11.032   5.129  -0.263  0.00  0.00     0.062 H 
ATOM     28  H   LIG d   1      10.891   3.587  -2.176  0.00  0.00     0.062 H 
BRANCH  20  29
ATOM     29  O   LIG d   1       9.017   6.762  -4.776  0.00  0.00    -0.495 OA
BRANCH  29  30
ATOM     30  C   LIG d   1       9.593   7.933  -5.358  0.00  0.00     0.079 C 
ATOM     31  H   LIG d   1      10.666   7.944  -5.166  0.00  0.00     0.066 H 
ATOM     32  H   LIG d   1       9.137   8.821  -4.918  0.00  0.00     0.066 H 
ATOM     33  H   LIG d   1       9.417   7.929  -6.434  0.00  0.00     0.066 H 
ENDBRANCH  29  30
ENDBRANCH  20  29
ENDBRANCH  16  19
ENDBRANCH  15  16
ENDBRANCH   2  15
BRANCH   1  34
ATOM     34  C   LIG d   1      11.149   0.437  -5.565  0.00  0.00    -0.033 C 
ATOM     35  H   LIG d   1      11.609  -0.471  -5.175  0.00  0.00     0.028 H 
ATOM     36  H   LIG d   1      11.069   0.367  -6.649  0.00  0.00     0.028 H 
ATOM     37  H   LIG d   1      11.764   1.298  -5.301  0.00  0.00     0.028 H 
ENDBRANCH   1  34
BRANCH  11  38
ATOM     38  C   LIG d   1       5.240  -1.234  -4.036  0.00  0.00    -0.017 A 
ATOM     39  C   LIG d   1       4.272  -0.476  -4.698  0.00  0.00    -0.054 A 
ATOM     40  C   LIG d   1       3.006  -0.362  -4.163  0.00  0.00    -0.061 A 
ATOM     41  H   LIG d   1       4.515   0.019  -5.626  0.00  0.00     0.062 H 
ATOM     42  C   LIG d   1       2.693  -0.996  -2.973  0.00  0.00    -0.062 A 
ATOM     43  H   LIG d   1       2.256   0.224  -4.673  0.00  0.00     0.062 H 
ATOM     44  C   LIG d   1       3.648  -1.748  -2.312  0.00  0.00    -0.061 A 
ATOM     45  H   LIG d   1       1.701  -0.903  -2.558  0.00  0.00     0.062 H 
ATOM     46  C   LIG d   1       4.917  -1.876  -2.839  0.00  0.00    -0.054 A 
ATOM     47  H   LIG d   1       3.399  -2.240  -1.383  0.00  0.00     0.062 H 
ATOM     48  H   LIG d   1       5.660  -2.468  -2.325  0.00  0.00     0.062 H 
ENDBRANCH  11  38
TORSDOF 7
ENDMDL
MODEL 8
REMARK VINA RESULT:      -6.3      1.881      7.676
REMARK  7 active torsions:
REMARK  status: ('A' for Active; 'I' for Inactive)
REMARK    1  A    between atoms: C_1  and  C_2 
REMARK    2  A    between atoms: C_3  and  O_19 
REMARK    3  A    between atoms: C_12  and  C_13 
REMARK    4  A    between atoms: O_19  and  C_20 
REMARK    5  A    between atoms: C_20  and  C_21 
REMARK    6  A    between atoms: C_26  and  O_27 
REMARK    7  A    between atoms: O_27  and  C_28 
ROOT
ATOM      1  C   LIG d   1       5.387  -2.237  -8.715  0.00  0.00     0.034 A 
ATOM      2  C   LIG d   1       5.435  -0.898  -9.065  0.00  0.00     0.127 A 
ATOM      3  C   LIG d   1       5.261   0.092  -8.101  0.00  0.00    -0.019 A 
ATOM      4  C   LIG d   1       5.046  -0.245  -6.796  0.00  0.00    -0.047 A 
ATOM      5  C   LIG d   1       5.000  -1.591  -6.424  0.00  0.00     0.026 A 
ATOM      6  C   LIG d   1       5.175  -2.596  -7.393  0.00  0.00     0.146 A 
ATOM      7  O   LIG d   1       5.132  -3.897  -7.030  0.00  0.00    -0.422 OA
ATOM      8  C   LIG d   1       4.923  -4.273  -5.759  0.00  0.00     0.338 A 
ATOM      9  O   LIG d   1       4.893  -5.461  -5.491  0.00  0.00    -0.245 OA
ATOM     10  C   LIG d   1       4.738  -3.334  -4.729  0.00  0.00     0.031 A 
ATOM     11  C   LIG d   1       4.770  -1.984  -5.025  0.00  0.00    -0.001 A 
ATOM     12  H   LIG d   1       5.296   1.133  -8.387  0.00  0.00     0.065 H 
ATOM     13  H   LIG d   1       4.910   0.526  -6.052  0.00  0.00     0.063 H 
ATOM     14  H   LIG d   1       4.573  -3.666  -3.715  0.00  0.00     0.070 H 
ENDROOT
BRANCH   2  15
ATOM     15  O   LIG d   1       5.649  -0.548 -10.359  0.00  0.00    -0.487 OA
BRANCH  15  16
ATOM     16  C   LIG d   1       4.734   0.386 -10.938  0.00  0.00     0.118 C 
ATOM     17  H   LIG d   1       5.188   0.841 -11.818  0.00  0.00     0.075 H 
ATOM     18  H   LIG d   1       4.495   1.161 -10.210  0.00  0.00     0.075 H 
BRANCH  16  19
ATOM     19  C   LIG d   1       3.471  -0.332 -11.339  0.00  0.00     0.031 A 
ATOM     20  C   LIG d   1       3.411  -1.010 -12.547  0.00  0.00     0.127 A 
ATOM     21  C   LIG d   1       2.248  -1.676 -12.910  0.00  0.00    -0.020 A 
ATOM     22  C   LIG d   1       1.153  -1.657 -12.070  0.00  0.00    -0.058 A 
ATOM     23  H   LIG d   1       2.201  -2.208 -13.848  0.00  0.00     0.065 H 
ATOM     24  C   LIG d   1       1.213  -0.976 -10.868  0.00  0.00    -0.061 A 
ATOM     25  H   LIG d   1       0.248  -2.174 -12.352  0.00  0.00     0.062 H 
ATOM     26  C   LIG d   1       2.370  -0.313 -10.503  0.00  0.00    -0.052 A 
ATOM     27  H   LIG d   1       0.354  -0.962 -10.212  0.00  0.00     0.062 H 
ATOM     28  H   LIG d   1       2.414   0.219  -9.564  0.00  0.00     0.062 H 
BRANCH  20  29
ATOM     29  O   LIG d   1       4.491  -1.027 -13.371  0.00  0.00    -0.495 OA
BRANCH  29  30
ATOM     30  C   LIG d   1       4.296  -0.554 -14.706  0.00  0.00     0.079 C 
ATOM     31  H   LIG d   1       5.263  -0.424 -15.190  0.00  0.00     0.066 H 
ATOM     32  H   LIG d   1       3.772   0.402 -14.680  0.00  0.00     0.066 H 
ATOM     33  H   LIG d   1       3.703  -1.278 -15.265  0.00  0.00     0.066 H 
ENDBRANCH  29  30
ENDBRANCH  20  29
ENDBRANCH  16  19
ENDBRANCH  15  16
ENDBRANCH   2  15
BRANCH   1  34
ATOM     34  C   LIG d   1       5.571  -3.301  -9.766  0.00  0.00    -0.033 C 
ATOM     35  H   LIG d   1       4.892  -4.130  -9.566  0.00  0.00     0.028 H 
ATOM     36  H   LIG d   1       5.354  -2.882 -10.749  0.00  0.00     0.028 H 
ATOM     37  H   LIG d   1       6.600  -3.660  -9.743  0.00  0.00     0.028 H 
ENDBRANCH   1  34
BRANCH  11  38
ATOM     38  C   LIG d   1       4.579  -0.967  -3.968  0.00  0.00    -0.017 A 
ATOM     39  C   LIG d   1       3.294  -0.653  -3.521  0.00  0.00    -0.054 A 
ATOM     40  C   LIG d   1       3.123   0.296  -2.535  0.00  0.00    -0.061 A 
ATOM     41  H   LIG d   1       2.436  -1.153  -3.947  0.00  0.00     0.062 H 
ATOM     42  C   LIG d   1       4.221   0.937  -1.988  0.00  0.00    -0.062 A 
ATOM     43  H   LIG d   1       2.130   0.540  -2.187  0.00  0.00     0.062 H 
ATOM     44  C   LIG d   1       5.497   0.631  -2.427  0.00  0.00    -0.061 A 
ATOM     45  H   LIG d   1       4.082   1.679  -1.217  0.00  0.00     0.062 H 
ATOM     46  C   LIG d   1       5.683  -0.322  -3.409  0.00  0.00    -0.054 A 
ATOM     47  H   LIG d   1       6.350   1.135  -1.998  0.00  0.00     0.062 H 
ATOM     48  H   LIG d   1       6.679  -0.563  -3.747  0.00  0.00     0.062 H 
ENDBRANCH  11  38
TORSDOF 7
ENDMDL
MODEL 9
REMARK VINA RESULT:      -6.2      4.961      7.757
REMARK  7 active torsions:
REMARK  status: ('A' for Active; 'I' for Inactive)
REMARK    1  A    between atoms: C_1  and  C_2 
REMARK    2  A    between atoms: C_3  and  O_19 
REMARK    3  A    between atoms: C_12  and  C_13 
REMARK    4  A    between atoms: O_19  and  C_20 
REMARK    5  A    between atoms: C_20  and  C_21 
REMARK    6  A    between atoms: C_26  and  O_27 
REMARK    7  A    between atoms: O_27  and  C_28 
ROOT
ATOM      1  C   LIG d   1       9.739   0.766  -4.965  0.00  0.00     0.034 A 
ATOM      2  C   LIG d   1       9.377   1.915  -4.281  0.00  0.00     0.127 A 
ATOM      3  C   LIG d   1       8.109   2.035  -3.721  0.00  0.00    -0.019 A 
ATOM      4  C   LIG d   1       7.205   1.017  -3.833  0.00  0.00    -0.047 A 
ATOM      5  C   LIG d   1       7.555  -0.151  -4.515  0.00  0.00     0.026 A 
ATOM      6  C   LIG d   1       8.835  -0.278  -5.083  0.00  0.00     0.146 A 
ATOM      7  O   LIG d   1       9.172  -1.410  -5.740  0.00  0.00    -0.422 OA
ATOM      8  C   LIG d   1       8.315  -2.434  -5.874  0.00  0.00     0.338 A 
ATOM      9  O   LIG d   1       8.673  -3.430  -6.478  0.00  0.00    -0.245 OA
ATOM     10  C   LIG d   1       7.017  -2.390  -5.337  0.00  0.00     0.031 A 
ATOM     11  C   LIG d   1       6.602  -1.264  -4.651  0.00  0.00    -0.001 A 
ATOM     12  H   LIG d   1       7.836   2.937  -3.194  0.00  0.00     0.065 H 
ATOM     13  H   LIG d   1       6.221   1.115  -3.398  0.00  0.00     0.063 H 
ATOM     14  H   LIG d   1       6.349  -3.230  -5.460  0.00  0.00     0.070 H 
ENDROOT
BRANCH   2  15
ATOM     15  O   LIG d   1      10.266   2.935  -4.161  0.00  0.00    -0.487 OA
BRANCH  15  16
ATOM     16  C   LIG d   1      10.153   3.759  -2.998  0.00  0.00     0.118 C 
ATOM     17  H   LIG d   1      11.031   3.620  -2.369  0.00  0.00     0.075 H 
ATOM     18  H   LIG d   1       9.258   3.482  -2.441  0.00  0.00     0.075 H 
BRANCH  16  19
ATOM     19  C   LIG d   1      10.057   5.204  -3.415  0.00  0.00     0.031 A 
ATOM     20  C   LIG d   1      10.573   6.199  -2.597  0.00  0.00     0.127 A 
ATOM     21  C   LIG d   1      10.489   7.528  -2.987  0.00  0.00    -0.020 A 
ATOM     22  C   LIG d   1       9.887   7.858  -4.185  0.00  0.00    -0.058 A 
ATOM     23  H   LIG d   1      10.894   8.303  -2.354  0.00  0.00     0.065 H 
ATOM     24  C   LIG d   1       9.368   6.865  -4.997  0.00  0.00    -0.061 A 
ATOM     25  H   LIG d   1       9.821   8.892  -4.488  0.00  0.00     0.062 H 
ATOM     26  C   LIG d   1       9.452   5.540  -4.611  0.00  0.00    -0.052 A 
ATOM     27  H   LIG d   1       8.897   7.126  -5.933  0.00  0.00     0.062 H 
ATOM     28  H   LIG d   1       9.046   4.767  -5.246  0.00  0.00     0.062 H 
BRANCH  20  29
ATOM     29  O   LIG d   1      11.166   5.871  -1.420  0.00  0.00    -0.495 OA
BRANCH  29  30
ATOM     30  C   LIG d   1      10.699   6.544  -0.249  0.00  0.00     0.079 C 
ATOM     31  H   LIG d   1      11.135   7.542  -0.205  0.00  0.00     0.066 H 
ATOM     32  H   LIG d   1      10.992   5.981   0.637  0.00  0.00     0.066 H 
ATOM     33  H   LIG d   1       9.612   6.624  -0.285  0.00  0.00     0.066 H 
ENDBRANCH  29  30
ENDBRANCH  20  29
ENDBRANCH  16  19
ENDBRANCH  15  16
ENDBRANCH   2  15
BRANCH   1  34
ATOM     34  C   LIG d   1      11.113   0.649  -5.573  0.00  0.00    -0.033 C 
ATOM     35  H   LIG d   1      11.263  -0.367  -5.938  0.00  0.00     0.028 H 
ATOM     36  H   LIG d   1      11.205   1.350  -6.402  0.00  0.00     0.028 H 
ATOM     37  H   LIG d   1      11.865   0.878  -4.818  0.00  0.00     0.028 H 
ENDBRANCH   1  34
BRANCH  11  38
ATOM     38  C   LIG d   1       5.243  -1.181  -4.072  0.00  0.00    -0.017 A 
ATOM     39  C   LIG d   1       4.943  -1.858  -2.888  0.00  0.00    -0.054 A 
ATOM     40  C   LIG d   1       3.674  -1.775  -2.353  0.00  0.00    -0.061 A 
ATOM     41  H   LIG d   1       5.703  -2.444  -2.393  0.00  0.00     0.062 H 
ATOM     42  C   LIG d   1       2.700  -1.024  -2.987  0.00  0.00    -0.062 A 
ATOM     43  H   LIG d   1       3.440  -2.298  -1.438  0.00  0.00     0.062 H 
ATOM     44  C   LIG d   1       2.991  -0.351  -4.161  0.00  0.00    -0.061 A 
ATOM     45  H   LIG d   1       1.709  -0.963  -2.565  0.00  0.00     0.062 H 
ATOM     46  C   LIG d   1       4.258  -0.420  -4.704  0.00  0.00    -0.054 A 
ATOM     47  H   LIG d   1       2.226   0.232  -4.651  0.00  0.00     0.062 H 
ATOM     48  H   LIG d   1       4.485   0.109  -5.616  0.00  0.00     0.062 H 
ENDBRANCH  11  38
TORSDOF 7
ENDMDL
MODEL 10
REMARK VINA RESULT:      -6.1      5.410      7.900
REMARK  7 active torsions:
REMARK  status: ('A' for Active; 'I' for Inactive)
REMARK    1  A    between atoms: C_1  and  C_2 
REMARK    2  A    between atoms: C_3  and  O_19 
REMARK    3  A    between atoms: C_12  and  C_13 
REMARK    4  A    between atoms: O_19  and  C_20 
REMARK    5  A    between atoms: C_20  and  C_21 
REMARK    6  A    between atoms: C_26  and  O_27 
REMARK    7  A    between atoms: O_27  and  C_28 
ROOT
ATOM      1  C   LIG d   1       7.372  -5.085  -5.362  0.00  0.00     0.034 A 
ATOM      2  C   LIG d   1       6.096  -4.609  -5.619  0.00  0.00     0.127 A 
ATOM      3  C   LIG d   1       5.008  -5.478  -5.639  0.00  0.00    -0.019 A 
ATOM      4  C   LIG d   1       5.184  -6.811  -5.401  0.00  0.00    -0.047 A 
ATOM      5  C   LIG d   1       6.463  -7.307  -5.136  0.00  0.00     0.026 A 
ATOM      6  C   LIG d   1       7.566  -6.435  -5.113  0.00  0.00     0.146 A 
ATOM      7  O   LIG d   1       8.802  -6.917  -4.854  0.00  0.00    -0.422 OA
ATOM      8  C   LIG d   1       9.020  -8.219  -4.615  0.00  0.00     0.338 A 
ATOM      9  O   LIG d   1      10.156  -8.597  -4.388  0.00  0.00    -0.245 OA
ATOM     10  C   LIG d   1       7.974  -9.158  -4.618  0.00  0.00     0.031 A 
ATOM     11  C   LIG d   1       6.683  -8.739  -4.875  0.00  0.00    -0.001 A 
ATOM     12  H   LIG d   1       4.019  -5.096  -5.845  0.00  0.00     0.065 H 
ATOM     13  H   LIG d   1       4.338  -7.482  -5.420  0.00  0.00     0.063 H 
ATOM     14  H   LIG d   1       8.179 -10.200  -4.421  0.00  0.00     0.070 H 
ENDROOT
BRANCH   2  15
ATOM     15  O   LIG d   1       5.906  -3.286  -5.856  0.00  0.00    -0.487 OA
BRANCH  15  16
ATOM     16  C   LIG d   1       4.595  -2.766  -5.619  0.00  0.00     0.118 C 
ATOM     17  H   LIG d   1       3.893  -3.591  -5.508  0.00  0.00     0.075 H 
ATOM     18  H   LIG d   1       4.294  -2.143  -6.461  0.00  0.00     0.075 H 
BRANCH  16  19
ATOM     19  C   LIG d   1       4.604  -1.938  -4.360  0.00  0.00     0.031 A 
ATOM     20  C   LIG d   1       5.050  -0.625  -4.395  0.00  0.00     0.127 A 
ATOM     21  C   LIG d   1       5.050   0.137  -3.235  0.00  0.00    -0.020 A 
ATOM     22  C   LIG d   1       4.612  -0.416  -2.048  0.00  0.00    -0.058 A 
ATOM     23  H   LIG d   1       5.393   1.159  -3.262  0.00  0.00     0.065 H 
ATOM     24  C   LIG d   1       4.171  -1.727  -2.014  0.00  0.00    -0.061 A 
ATOM     25  H   LIG d   1       4.612   0.176  -1.145  0.00  0.00     0.062 H 
ATOM     26  C   LIG d   1       4.169  -2.487  -3.169  0.00  0.00    -0.052 A 
ATOM     27  H   LIG d   1       3.829  -2.156  -1.085  0.00  0.00     0.062 H 
ATOM     28  H   LIG d   1       3.825  -3.511  -3.140  0.00  0.00     0.062 H 
BRANCH  20  29
ATOM     29  O   LIG d   1       5.481  -0.085  -5.565  0.00  0.00    -0.495 OA
BRANCH  29  30
ATOM     30  C   LIG d   1       6.888   0.127  -5.702  0.00  0.00     0.079 C 
ATOM     31  H   LIG d   1       7.424  -0.759  -5.361  0.00  0.00     0.066 H 
ATOM     32  H   LIG d   1       7.186   0.986  -5.100  0.00  0.00     0.066 H 
ATOM     33  H   LIG d   1       7.127   0.316  -6.748  0.00  0.00     0.066 H 
ENDBRANCH  29  30
ENDBRANCH  20  29
ENDBRANCH  16  19
ENDBRANCH  15  16
ENDBRANCH   2  15
BRANCH   1  34
ATOM     34  C   LIG d   1       8.544  -4.137  -5.348  0.00  0.00    -0.033 C 
ATOM     35  H   LIG d   1       9.320  -4.510  -6.016  0.00  0.00     0.028 H 
ATOM     36  H   LIG d   1       8.219  -3.152  -5.682  0.00  0.00     0.028 H 
ATOM     37  H   LIG d   1       8.940  -4.065  -4.334  0.00  0.00     0.028 H 
ENDBRANCH   1  34
BRANCH  11  38
ATOM     38  C   LIG d   1       5.557  -9.698  -4.888  0.00  0.00    -0.017 A 
ATOM     39  C   LIG d   1       5.223 -10.372  -6.064  0.00  0.00    -0.054 A 
ATOM     40  C   LIG d   1       4.173 -11.265  -6.069  0.00  0.00    -0.061 A 
ATOM     41  H   LIG d   1       5.787 -10.193  -6.968  0.00  0.00     0.062 H 
ATOM     42  C   LIG d   1       3.449 -11.495  -4.912  0.00  0.00    -0.062 A 
ATOM     43  H   LIG d   1       3.913 -11.788  -6.978  0.00  0.00     0.062 H 
ATOM     44  C   LIG d   1       3.774 -10.830  -3.743  0.00  0.00    -0.061 A 
ATOM     45  H   LIG d   1       2.628 -12.195  -4.921  0.00  0.00     0.062 H 
ATOM     46  C   LIG d   1       4.827  -9.938  -3.722  0.00  0.00    -0.054 A 
ATOM     47  H   LIG d   1       3.206 -11.012  -2.843  0.00  0.00     0.062 H 
ATOM     48  H   LIG d   1       5.083  -9.423  -2.808  0.00  0.00     0.062 H 
ENDBRANCH  11  38
TORSDOF 7
ENDMDL
