MODEL 1
REMARK VINA RESULT:      -6.6      0.000      0.000
REMARK  20 active torsions:
REMARK  status: ('A' for Active; 'I' for Inactive)
REMARK    1  A    between atoms: C_1  and  O_2 
REMARK    2  A    between atoms: O_2  and  C_3 
REMARK    3  A    between atoms: C_5  and  C_10 
REMARK    4  A    between atoms: C_8  and  O_9 
REMARK    5  A    between atoms: C_10  and  C_11 
REMARK    6  A    between atoms: C_11  and  C_13 
REMARK    7  A    between atoms: C_11  and  C_31 
REMARK    8  A    between atoms: C_13  and  O_14 
REMARK    9  A    between atoms: O_14  and  C_15 
REMARK   10  A    between atoms: C_17  and  O_30 
REMARK   11  A    between atoms: C_19  and  O_29 
REMARK   12  A    between atoms: C_21  and  O_28 
REMARK   13  A    between atoms: C_23  and  C_26 
REMARK   14  A    between atoms: C_26  and  O_27 
REMARK   15  A    between atoms: C_33  and  C_40 
REMARK   16  A    between atoms: C_35  and  O_38 
REMARK   17  A    between atoms: C_36  and  O_37 
REMARK   18  A    between atoms: O_38  and  C_39 
REMARK   19  A    between atoms: C_41  and  C_42 
REMARK   20  A    between atoms: C_42  and  O_43 
ROOT
ATOM      1  C   LIG d   1       5.277  -3.202  -5.751  0.00  0.00     0.015 C 
ATOM      2  H   LIG d   1       4.307  -2.705  -5.724  0.00  0.00     0.037 H 
ENDROOT
BRANCH   1   3
ATOM      3  C   LIG d   1       5.927  -3.124  -4.367  0.00  0.00    -0.018 C 
ATOM      4  H   LIG d   1       7.007  -3.030  -4.478  0.00  0.00     0.032 H 
ATOM      5  H   LIG d   1       5.696  -4.029  -3.806  0.00  0.00     0.032 H 
BRANCH   3   6
ATOM      6  C   LIG d   1       5.394  -1.923  -3.629  0.00  0.00    -0.043 A 
ATOM      7  C   LIG d   1       6.128  -0.752  -3.596  0.00  0.00    -0.013 A 
ATOM      8  C   LIG d   1       5.640   0.353  -2.918  0.00  0.00     0.162 A 
ATOM      9  H   LIG d   1       7.082  -0.698  -4.099  0.00  0.00     0.066 H 
ATOM     10  C   LIG d   1       4.413   0.280  -2.267  0.00  0.00     0.159 A 
ATOM     11  C   LIG d   1       3.679  -0.895  -2.308  0.00  0.00    -0.016 A 
ATOM     12  C   LIG d   1       4.172  -1.994  -2.987  0.00  0.00    -0.055 A 
ATOM     13  H   LIG d   1       2.723  -0.953  -1.808  0.00  0.00     0.066 H 
ATOM     14  H   LIG d   1       3.602  -2.910  -3.015  0.00  0.00     0.062 H 
BRANCH   8  15
ATOM     15  O   LIG d   1       6.361   1.506  -2.884  0.00  0.00    -0.491 OA
BRANCH  15  16
ATOM     16  C   LIG d   1       7.470   1.604  -3.780  0.00  0.00     0.079 C 
ATOM     17  H   LIG d   1       7.109   1.586  -4.809  0.00  0.00     0.066 H 
ATOM     18  H   LIG d   1       8.003   2.537  -3.599  0.00  0.00     0.066 H 
ATOM     19  H   LIG d   1       8.145   0.763  -3.617  0.00  0.00     0.066 H 
ENDBRANCH  15  16
ENDBRANCH   8  15
BRANCH  10  20
ATOM     20  O   LIG d   1       3.931   1.360  -1.596  0.00  0.00    -0.503 OA
ATOM     21  H   LIG d   1       4.068   2.201  -2.052  0.00  0.00     0.292 HD
ENDBRANCH  10  20
ENDBRANCH   3   6
ENDBRANCH   1   3
BRANCH   1  22
ATOM     22  C   LIG d   1       6.177  -2.511  -6.776  0.00  0.00     0.058 C 
ATOM     23  H   LIG d   1       6.908  -1.890  -6.259  0.00  0.00     0.057 H 
ATOM     24  H   LIG d   1       6.695  -3.263  -7.371  0.00  0.00     0.057 H 
BRANCH  22  25
ATOM     25  O   LIG d   1       5.380  -1.692  -7.634  0.00  0.00    -0.348 OA
BRANCH  25  26
ATOM     26  C   LIG d   1       5.517  -0.290  -7.393  0.00  0.00     0.188 C 
ATOM     27  H   LIG d   1       6.530  -0.077  -7.055  0.00  0.00     0.094 H 
ATOM     28  O   LIG d   1       4.584   0.114  -6.388  0.00  0.00    -0.341 OA
ATOM     29  C   LIG d   1       3.219  -0.146  -6.722  0.00  0.00     0.113 C 
ATOM     30  C   LIG d   1       2.847   0.630  -7.988  0.00  0.00     0.112 C 
ATOM     31  H   LIG d   1       3.085  -1.215  -6.898  0.00  0.00     0.065 H 
ATOM     32  C   LIG d   1       3.792   0.223  -9.123  0.00  0.00     0.114 C 
ATOM     33  H   LIG d   1       1.819   0.398  -8.268  0.00  0.00     0.065 H 
ATOM     34  C   LIG d   1       5.237   0.480  -8.686  0.00  0.00     0.134 C 
ATOM     35  H   LIG d   1       3.661  -0.836  -9.344  0.00  0.00     0.065 H 
ATOM     36  H   LIG d   1       5.919   0.143  -9.466  0.00  0.00     0.067 H 
BRANCH  29  37
ATOM     37  C   LIG d   1       2.317   0.298  -5.568  0.00  0.00     0.073 C 
ATOM     38  H   LIG d   1       1.300   0.439  -5.936  0.00  0.00     0.058 H 
ATOM     39  H   LIG d   1       2.320  -0.465  -4.790  0.00  0.00     0.058 H 
BRANCH  37  40
ATOM     40  O   LIG d   1       2.804   1.529  -5.031  0.00  0.00    -0.392 OA
ATOM     41  H   LIG d   1       2.278   2.302  -5.282  0.00  0.00     0.209 HD
ENDBRANCH  37  40
ENDBRANCH  29  37
BRANCH  30  42
ATOM     42  O   LIG d   1       2.971   2.032  -7.743  0.00  0.00    -0.387 OA
ATOM     43  H   LIG d   1       2.806   2.287  -6.825  0.00  0.00     0.210 HD
ENDBRANCH  30  42
BRANCH  32  44
ATOM     44  O   LIG d   1       3.501   0.994 -10.290  0.00  0.00    -0.386 OA
ATOM     45  H   LIG d   1       2.654   0.779 -10.703  0.00  0.00     0.210 HD
ENDBRANCH  32  44
BRANCH  34  46
ATOM     46  O   LIG d   1       5.427   1.878  -8.459  0.00  0.00    -0.384 OA
ATOM     47  H   LIG d   1       4.698   2.303  -7.988  0.00  0.00     0.210 HD
ENDBRANCH  34  46
ENDBRANCH  25  26
ENDBRANCH  22  25
ENDBRANCH   1  22
BRANCH   1  48
ATOM     48  C   LIG d   1       5.092  -4.646  -6.137  0.00  0.00     0.004 A 
ATOM     49  C   LIG d   1       4.180  -4.986  -7.125  0.00  0.00     0.162 A 
ATOM     50  C   LIG d   1       4.009  -6.319  -7.491  0.00  0.00     0.162 A 
ATOM     51  C   LIG d   1       4.741  -7.308  -6.860  0.00  0.00    -0.009 A 
ATOM     52  C   LIG d   1       5.656  -6.967  -5.862  0.00  0.00    -0.021 A 
ATOM     53  H   LIG d   1       4.607  -8.342  -7.140  0.00  0.00     0.066 H 
ATOM     54  C   LIG d   1       5.826  -5.628  -5.505  0.00  0.00    -0.047 A 
ATOM     55  H   LIG d   1       6.533  -5.361  -4.733  0.00  0.00     0.063 H 
BRANCH  49  56
ATOM     56  O   LIG d   1       3.454  -4.015  -7.742  0.00  0.00    -0.503 OA
ATOM     57  H   LIG d   1       2.502  -4.180  -7.748  0.00  0.00     0.292 HD
ENDBRANCH  49  56
BRANCH  50  58
ATOM     58  O   LIG d   1       3.117  -6.649  -8.463  0.00  0.00    -0.491 OA
BRANCH  58  59
ATOM     59  C   LIG d   1       3.374  -7.848  -9.199  0.00  0.00     0.079 C 
ATOM     60  H   LIG d   1       4.327  -8.271  -8.882  0.00  0.00     0.066 H 
ATOM     61  H   LIG d   1       2.577  -8.566  -9.013  0.00  0.00     0.066 H 
ATOM     62  H   LIG d   1       3.416  -7.618 -10.264  0.00  0.00     0.066 H 
ENDBRANCH  58  59
ENDBRANCH  50  58
BRANCH  52  63
ATOM     63  C   LIG d   1       6.441  -8.019  -5.186  0.00  0.00    -0.056 C 
ATOM     64  C   LIG d   1       5.838  -9.111  -4.737  0.00  0.00    -0.058 C 
ATOM     65  H   LIG d   1       4.773  -9.231  -4.866  0.00  0.00     0.059 H 
ATOM     66  H   LIG d   1       7.507  -7.899  -5.057  0.00  0.00     0.062 H 
BRANCH  64  67
ATOM     67  C   LIG d   1       6.639 -10.185  -4.047  0.00  0.00     0.063 C 
ATOM     68  H   LIG d   1       6.060 -11.108  -4.018  0.00  0.00     0.060 H 
ATOM     69  H   LIG d   1       7.566 -10.355  -4.594  0.00  0.00     0.060 H 
BRANCH  67  70
ATOM     70  O   LIG d   1       6.942  -9.771  -2.713  0.00  0.00    -0.391 OA
ATOM     71  H   LIG d   1       6.191  -9.821  -2.106  0.00  0.00     0.210 HD
ENDBRANCH  67  70
ENDBRANCH  64  67
ENDBRANCH  52  63
ENDBRANCH   1  48
TORSDOF 20
ENDMDL
MODEL 2
REMARK VINA RESULT:      -6.5      1.505      1.637
REMARK  20 active torsions:
REMARK  status: ('A' for Active; 'I' for Inactive)
REMARK    1  A    between atoms: C_1  and  O_2 
REMARK    2  A    between atoms: O_2  and  C_3 
REMARK    3  A    between atoms: C_5  and  C_10 
REMARK    4  A    between atoms: C_8  and  O_9 
REMARK    5  A    between atoms: C_10  and  C_11 
REMARK    6  A    between atoms: C_11  and  C_13 
REMARK    7  A    between atoms: C_11  and  C_31 
REMARK    8  A    between atoms: C_13  and  O_14 
REMARK    9  A    between atoms: O_14  and  C_15 
REMARK   10  A    between atoms: C_17  and  O_30 
REMARK   11  A    between atoms: C_19  and  O_29 
REMARK   12  A    between atoms: C_21  and  O_28 
REMARK   13  A    between atoms: C_23  and  C_26 
REMARK   14  A    between atoms: C_26  and  O_27 
REMARK   15  A    between atoms: C_33  and  C_40 
REMARK   16  A    between atoms: C_35  and  O_38 
REMARK   17  A    between atoms: C_36  and  O_37 
REMARK   18  A    between atoms: O_38  and  C_39 
REMARK   19  A    between atoms: C_41  and  C_42 
REMARK   20  A    between atoms: C_42  and  O_43 
ROOT
ATOM      1  C   LIG d   1       5.590  -3.557  -5.341  0.00  0.00     0.015 C 
ATOM      2  H   LIG d   1       4.528  -3.374  -5.178  0.00  0.00     0.037 H 
ENDROOT
BRANCH   1   3
ATOM      3  C   LIG d   1       6.382  -3.088  -4.118  0.00  0.00    -0.018 C 
ATOM      4  H   LIG d   1       7.387  -2.800  -4.424  0.00  0.00     0.032 H 
ATOM      5  H   LIG d   1       6.441  -3.898  -3.391  0.00  0.00     0.032 H 
BRANCH   3   6
ATOM      6  C   LIG d   1       5.689  -1.903  -3.495  0.00  0.00    -0.043 A 
ATOM      7  C   LIG d   1       6.287  -0.657  -3.534  0.00  0.00    -0.013 A 
ATOM      8  C   LIG d   1       5.652   0.434  -2.963  0.00  0.00     0.162 A 
ATOM      9  H   LIG d   1       7.249  -0.534  -4.009  0.00  0.00     0.066 H 
ATOM     10  C   LIG d   1       4.415   0.271  -2.347  0.00  0.00     0.159 A 
ATOM     11  C   LIG d   1       3.818  -0.980  -2.317  0.00  0.00    -0.016 A 
ATOM     12  C   LIG d   1       4.458  -2.064  -2.889  0.00  0.00    -0.055 A 
ATOM     13  H   LIG d   1       2.856  -1.108  -1.844  0.00  0.00     0.066 H 
ATOM     14  H   LIG d   1       3.994  -3.039  -2.861  0.00  0.00     0.062 H 
BRANCH   8  15
ATOM     15  O   LIG d   1       6.239   1.660  -2.999  0.00  0.00    -0.491 OA
BRANCH  15  16
ATOM     16  C   LIG d   1       7.461   1.773  -3.731  0.00  0.00     0.079 C 
ATOM     17  H   LIG d   1       7.928   0.791  -3.812  0.00  0.00     0.066 H 
ATOM     18  H   LIG d   1       7.253   2.159  -4.729  0.00  0.00     0.066 H 
ATOM     19  H   LIG d   1       8.135   2.454  -3.212  0.00  0.00     0.066 H 
ENDBRANCH  15  16
ENDBRANCH   8  15
BRANCH  10  20
ATOM     20  O   LIG d   1       3.789   1.338  -1.780  0.00  0.00    -0.503 OA
ATOM     21  H   LIG d   1       3.188   1.803  -2.376  0.00  0.00     0.292 HD
ENDBRANCH  10  20
ENDBRANCH   3   6
ENDBRANCH   1   3
BRANCH   1  22
ATOM     22  C   LIG d   1       6.058  -2.786  -6.577  0.00  0.00     0.058 C 
ATOM     23  H   LIG d   1       6.908  -2.157  -6.313  0.00  0.00     0.057 H 
ATOM     24  H   LIG d   1       6.353  -3.490  -7.354  0.00  0.00     0.057 H 
BRANCH  22  25
ATOM     25  O   LIG d   1       4.991  -1.966  -7.058  0.00  0.00    -0.348 OA
BRANCH  25  26
ATOM     26  C   LIG d   1       5.258  -0.564  -6.988  0.00  0.00     0.188 C 
ATOM     27  H   LIG d   1       6.286  -0.406  -6.664  0.00  0.00     0.094 H 
ATOM     28  O   LIG d   1       4.364   0.046  -6.055  0.00  0.00    -0.341 OA
ATOM     29  C   LIG d   1       2.981  -0.126  -6.373  0.00  0.00     0.113 C 
ATOM     30  C   LIG d   1       2.688   0.519  -7.730  0.00  0.00     0.112 C 
ATOM     31  H   LIG d   1       2.748  -1.191  -6.419  0.00  0.00     0.065 H 
ATOM     32  C   LIG d   1       3.594  -0.111  -8.793  0.00  0.00     0.114 C 
ATOM     33  H   LIG d   1       1.644   0.351  -7.995  0.00  0.00     0.065 H 
ATOM     34  C   LIG d   1       5.056   0.063  -8.370  0.00  0.00     0.134 C 
ATOM     35  H   LIG d   1       3.365  -1.173  -8.884  0.00  0.00     0.065 H 
ATOM     36  H   LIG d   1       5.705  -0.430  -9.093  0.00  0.00     0.067 H 
BRANCH  29  37
ATOM     37  C   LIG d   1       2.122   0.539  -5.296  0.00  0.00     0.073 C 
ATOM     38  H   LIG d   1       1.172   0.851  -5.731  0.00  0.00     0.058 H 
ATOM     39  H   LIG d   1       1.938  -0.169  -4.490  0.00  0.00     0.058 H 
BRANCH  37  40
ATOM     40  O   LIG d   1       2.806   1.683  -4.781  0.00  0.00    -0.392 OA
ATOM     41  H   LIG d   1       2.575   2.511  -5.223  0.00  0.00     0.209 HD
ENDBRANCH  37  40
ENDBRANCH  29  37
BRANCH  30  42
ATOM     42  O   LIG d   1       2.942   1.923  -7.658  0.00  0.00    -0.387 OA
ATOM     43  H   LIG d   1       2.189   2.473  -7.914  0.00  0.00     0.210 HD
ENDBRANCH  30  42
BRANCH  32  44
ATOM     44  O   LIG d   1       3.380   0.534 -10.050  0.00  0.00    -0.386 OA
ATOM     45  H   LIG d   1       3.985   0.249 -10.748  0.00  0.00     0.210 HD
ENDBRANCH  32  44
BRANCH  34  46
ATOM     46  O   LIG d   1       5.375   1.455  -8.314  0.00  0.00    -0.384 OA
ATOM     47  H   LIG d   1       4.943   1.929  -7.590  0.00  0.00     0.210 HD
ENDBRANCH  34  46
ENDBRANCH  25  26
ENDBRANCH  22  25
ENDBRANCH   1  22
BRANCH   1  48
ATOM     48  C   LIG d   1       5.820  -5.031  -5.552  0.00  0.00     0.004 A 
ATOM     49  C   LIG d   1       4.783  -5.834  -6.002  0.00  0.00     0.162 A 
ATOM     50  C   LIG d   1       4.991  -7.198  -6.205  0.00  0.00     0.162 A 
ATOM     51  C   LIG d   1       6.230  -7.753  -5.946  0.00  0.00    -0.009 A 
ATOM     52  C   LIG d   1       7.272  -6.945  -5.488  0.00  0.00    -0.021 A 
ATOM     53  H   LIG d   1       6.392  -8.810  -6.099  0.00  0.00     0.066 H 
ATOM     54  C   LIG d   1       7.058  -5.580  -5.293  0.00  0.00    -0.047 A 
ATOM     55  H   LIG d   1       7.863  -4.953  -4.938  0.00  0.00     0.063 H 
BRANCH  49  56
ATOM     56  O   LIG d   1       3.562  -5.290  -6.252  0.00  0.00    -0.503 OA
ATOM     57  H   LIG d   1       3.518  -4.337  -6.102  0.00  0.00     0.292 HD
ENDBRANCH  49  56
BRANCH  50  58
ATOM     58  O   LIG d   1       3.974  -7.982  -6.652  0.00  0.00    -0.491 OA
BRANCH  58  59
ATOM     59  C   LIG d   1       4.292  -8.945  -7.659  0.00  0.00     0.079 C 
ATOM     60  H   LIG d   1       5.252  -8.696  -8.109  0.00  0.00     0.066 H 
ATOM     61  H   LIG d   1       4.347  -9.936  -7.210  0.00  0.00     0.066 H 
ATOM     62  H   LIG d   1       3.518  -8.936  -8.427  0.00  0.00     0.066 H 
ENDBRANCH  58  59
ENDBRANCH  50  58
BRANCH  52  63
ATOM     63  C   LIG d   1       8.598  -7.533  -5.210  0.00  0.00    -0.056 C 
ATOM     64  C   LIG d   1       9.151  -7.385  -4.014  0.00  0.00    -0.058 C 
ATOM     65  H   LIG d   1       8.633  -6.836  -3.244  0.00  0.00     0.059 H 
ATOM     66  H   LIG d   1       9.118  -8.084  -5.981  0.00  0.00     0.062 H 
BRANCH  64  67
ATOM     67  C   LIG d   1      10.505  -7.986  -3.730  0.00  0.00     0.063 C 
ATOM     68  H   LIG d   1      10.400  -8.789  -3.000  0.00  0.00     0.060 H 
ATOM     69  H   LIG d   1      10.925  -8.386  -4.652  0.00  0.00     0.060 H 
BRANCH  67  70
ATOM     70  O   LIG d   1      11.373  -6.978  -3.209  0.00  0.00    -0.391 OA
ATOM     71  H   LIG d   1      11.263  -6.816  -2.262  0.00  0.00     0.210 HD
ENDBRANCH  67  70
ENDBRANCH  64  67
ENDBRANCH  52  63
ENDBRANCH   1  48
TORSDOF 20
ENDMDL
MODEL 3
REMARK VINA RESULT:      -6.2      1.260      1.930
REMARK  20 active torsions:
REMARK  status: ('A' for Active; 'I' for Inactive)
REMARK    1  A    between atoms: C_1  and  O_2 
REMARK    2  A    between atoms: O_2  and  C_3 
REMARK    3  A    between atoms: C_5  and  C_10 
REMARK    4  A    between atoms: C_8  and  O_9 
REMARK    5  A    between atoms: C_10  and  C_11 
REMARK    6  A    between atoms: C_11  and  C_13 
REMARK    7  A    between atoms: C_11  and  C_31 
REMARK    8  A    between atoms: C_13  and  O_14 
REMARK    9  A    between atoms: O_14  and  C_15 
REMARK   10  A    between atoms: C_17  and  O_30 
REMARK   11  A    between atoms: C_19  and  O_29 
REMARK   12  A    between atoms: C_21  and  O_28 
REMARK   13  A    between atoms: C_23  and  C_26 
REMARK   14  A    between atoms: C_26  and  O_27 
REMARK   15  A    between atoms: C_33  and  C_40 
REMARK   16  A    between atoms: C_35  and  O_38 
REMARK   17  A    between atoms: C_36  and  O_37 
REMARK   18  A    between atoms: O_38  and  C_39 
REMARK   19  A    between atoms: C_41  and  C_42 
REMARK   20  A    between atoms: C_42  and  O_43 
ROOT
ATOM      1  C   LIG d   1       5.243  -3.386  -5.775  0.00  0.00     0.015 C 
ATOM      2  H   LIG d   1       4.216  -3.025  -5.808  0.00  0.00     0.037 H 
ENDROOT
BRANCH   1   3
ATOM      3  C   LIG d   1       5.810  -3.183  -4.368  0.00  0.00    -0.018 C 
ATOM      4  H   LIG d   1       6.890  -3.049  -4.426  0.00  0.00     0.032 H 
ATOM      5  H   LIG d   1       5.584  -4.056  -3.756  0.00  0.00     0.032 H 
BRANCH   3   6
ATOM      6  C   LIG d   1       5.186  -1.959  -3.747  0.00  0.00    -0.043 A 
ATOM      7  C   LIG d   1       5.901  -0.777  -3.686  0.00  0.00    -0.013 A 
ATOM      8  C   LIG d   1       5.330   0.349  -3.117  0.00  0.00     0.162 A 
ATOM      9  H   LIG d   1       6.905  -0.732  -4.082  0.00  0.00     0.066 H 
ATOM     10  C   LIG d   1       4.039   0.286  -2.602  0.00  0.00     0.159 A 
ATOM     11  C   LIG d   1       3.325  -0.900  -2.671  0.00  0.00    -0.016 A 
ATOM     12  C   LIG d   1       3.902  -2.020  -3.241  0.00  0.00    -0.055 A 
ATOM     13  H   LIG d   1       2.321  -0.950  -2.278  0.00  0.00     0.066 H 
ATOM     14  H   LIG d   1       3.347  -2.945  -3.291  0.00  0.00     0.062 H 
BRANCH   8  15
ATOM     15  O   LIG d   1       6.032   1.513  -3.054  0.00  0.00    -0.491 OA
BRANCH  15  16
ATOM     16  C   LIG d   1       7.289   1.548  -3.733  0.00  0.00     0.079 C 
ATOM     17  H   LIG d   1       8.098   1.501  -3.003  0.00  0.00     0.066 H 
ATOM     18  H   LIG d   1       7.361   0.696  -4.409  0.00  0.00     0.066 H 
ATOM     19  H   LIG d   1       7.368   2.472  -4.305  0.00  0.00     0.066 H 
ENDBRANCH  15  16
ENDBRANCH   8  15
BRANCH  10  20
ATOM     20  O   LIG d   1       3.475   1.388  -2.037  0.00  0.00    -0.503 OA
ATOM     21  H   LIG d   1       2.569   1.253  -1.729  0.00  0.00     0.292 HD
ENDBRANCH  10  20
ENDBRANCH   3   6
ENDBRANCH   1   3
BRANCH   1  22
ATOM     22  C   LIG d   1       6.090  -2.607  -6.782  0.00  0.00     0.058 C 
ATOM     23  H   LIG d   1       6.557  -1.757  -6.285  0.00  0.00     0.057 H 
ATOM     24  H   LIG d   1       6.863  -3.259  -7.190  0.00  0.00     0.057 H 
BRANCH  22  25
ATOM     25  O   LIG d   1       5.257  -2.137  -7.844  0.00  0.00    -0.348 OA
BRANCH  25  26
ATOM     26  C   LIG d   1       4.111  -1.405  -7.404  0.00  0.00     0.188 C 
ATOM     27  H   LIG d   1       3.796  -1.775  -6.430  0.00  0.00     0.094 H 
ATOM     28  O   LIG d   1       3.049  -1.571  -8.345  0.00  0.00    -0.341 OA
ATOM     29  C   LIG d   1       3.369  -1.139  -9.669  0.00  0.00     0.113 C 
ATOM     30  C   LIG d   1       3.694   0.358  -9.650  0.00  0.00     0.112 C 
ATOM     31  H   LIG d   1       4.234  -1.694 -10.034  0.00  0.00     0.065 H 
ATOM     32  C   LIG d   1       4.852   0.609  -8.680  0.00  0.00     0.114 C 
ATOM     33  H   LIG d   1       3.981   0.680 -10.652  0.00  0.00     0.065 H 
ATOM     34  C   LIG d   1       4.466   0.080  -7.295  0.00  0.00     0.134 C 
ATOM     35  H   LIG d   1       5.743   0.090  -9.033  0.00  0.00     0.065 H 
ATOM     36  H   LIG d   1       5.306   0.206  -6.611  0.00  0.00     0.067 H 
BRANCH  29  37
ATOM     37  C   LIG d   1       2.175  -1.390 -10.592  0.00  0.00     0.073 C 
ATOM     38  H   LIG d   1       2.238  -0.727 -11.455  0.00  0.00     0.058 H 
ATOM     39  H   LIG d   1       2.187  -2.426 -10.927  0.00  0.00     0.058 H 
BRANCH  37  40
ATOM     40  O   LIG d   1       0.962  -1.131  -9.882  0.00  0.00    -0.392 OA
ATOM     41  H   LIG d   1       0.739  -0.192  -9.814  0.00  0.00     0.209 HD
ENDBRANCH  37  40
ENDBRANCH  29  37
BRANCH  30  42
ATOM     42  O   LIG d   1       2.545   1.092  -9.223  0.00  0.00    -0.387 OA
ATOM     43  H   LIG d   1       2.515   2.001  -9.551  0.00  0.00     0.210 HD
ENDBRANCH  30  42
BRANCH  32  44
ATOM     44  O   LIG d   1       5.116   2.011  -8.600  0.00  0.00    -0.386 OA
ATOM     45  H   LIG d   1       5.340   2.418  -9.448  0.00  0.00     0.210 HD
ENDBRANCH  32  44
BRANCH  34  46
ATOM     46  O   LIG d   1       3.338   0.806  -6.803  0.00  0.00    -0.384 OA
ATOM     47  H   LIG d   1       2.612   0.245  -6.496  0.00  0.00     0.210 HD
ENDBRANCH  34  46
ENDBRANCH  25  26
ENDBRANCH  22  25
ENDBRANCH   1  22
BRANCH   1  48
ATOM     48  C   LIG d   1       5.273  -4.852  -6.121  0.00  0.00     0.004 A 
ATOM     49  C   LIG d   1       4.324  -5.377  -6.985  0.00  0.00     0.162 A 
ATOM     50  C   LIG d   1       4.350  -6.732  -7.313  0.00  0.00     0.162 A 
ATOM     51  C   LIG d   1       5.317  -7.556  -6.768  0.00  0.00    -0.009 A 
ATOM     52  C   LIG d   1       6.269  -7.028  -5.894  0.00  0.00    -0.021 A 
ATOM     53  H   LIG d   1       5.336  -8.606  -7.018  0.00  0.00     0.066 H 
ATOM     54  C   LIG d   1       6.240  -5.669  -5.575  0.00  0.00    -0.047 A 
ATOM     55  H   LIG d   1       6.976  -5.259  -4.899  0.00  0.00     0.063 H 
BRANCH  49  56
ATOM     56  O   LIG d   1       3.369  -4.569  -7.517  0.00  0.00    -0.503 OA
ATOM     57  H   LIG d   1       2.570  -4.497  -6.978  0.00  0.00     0.292 HD
ENDBRANCH  49  56
BRANCH  50  58
ATOM     58  O   LIG d   1       3.422  -7.243  -8.165  0.00  0.00    -0.491 OA
BRANCH  58  59
ATOM     59  C   LIG d   1       3.797  -8.401  -8.914  0.00  0.00     0.079 C 
ATOM     60  H   LIG d   1       3.867  -9.259  -8.245  0.00  0.00     0.066 H 
ATOM     61  H   LIG d   1       3.048  -8.597  -9.680  0.00  0.00     0.066 H 
ATOM     62  H   LIG d   1       4.764  -8.230  -9.386  0.00  0.00     0.066 H 
ENDBRANCH  58  59
ENDBRANCH  50  58
BRANCH  52  63
ATOM     63  C   LIG d   1       7.304  -7.904  -5.309  0.00  0.00    -0.056 C 
ATOM     64  C   LIG d   1       8.179  -7.409  -4.444  0.00  0.00    -0.058 C 
ATOM     65  H   LIG d   1       8.135  -6.367  -4.168  0.00  0.00     0.059 H 
ATOM     66  H   LIG d   1       7.349  -8.947  -5.585  0.00  0.00     0.062 H 
BRANCH  64  67
ATOM     67  C   LIG d   1       9.236  -8.303  -3.846  0.00  0.00     0.063 C 
ATOM     68  H   LIG d   1       9.554  -9.036  -4.588  0.00  0.00     0.060 H 
ATOM     69  H   LIG d   1      10.091  -7.700  -3.542  0.00  0.00     0.060 H 
BRANCH  67  70
ATOM     70  O   LIG d   1       8.700  -8.978  -2.707  0.00  0.00    -0.391 OA
ATOM     71  H   LIG d   1       7.822  -8.670  -2.445  0.00  0.00     0.210 HD
ENDBRANCH  67  70
ENDBRANCH  64  67
ENDBRANCH  52  63
ENDBRANCH   1  48
TORSDOF 20
ENDMDL
MODEL 4
REMARK VINA RESULT:      -6.1      1.651      2.297
REMARK  20 active torsions:
REMARK  status: ('A' for Active; 'I' for Inactive)
REMARK    1  A    between atoms: C_1  and  O_2 
REMARK    2  A    between atoms: O_2  and  C_3 
REMARK    3  A    between atoms: C_5  and  C_10 
REMARK    4  A    between atoms: C_8  and  O_9 
REMARK    5  A    between atoms: C_10  and  C_11 
REMARK    6  A    between atoms: C_11  and  C_13 
REMARK    7  A    between atoms: C_11  and  C_31 
REMARK    8  A    between atoms: C_13  and  O_14 
REMARK    9  A    between atoms: O_14  and  C_15 
REMARK   10  A    between atoms: C_17  and  O_30 
REMARK   11  A    between atoms: C_19  and  O_29 
REMARK   12  A    between atoms: C_21  and  O_28 
REMARK   13  A    between atoms: C_23  and  C_26 
REMARK   14  A    between atoms: C_26  and  O_27 
REMARK   15  A    between atoms: C_33  and  C_40 
REMARK   16  A    between atoms: C_35  and  O_38 
REMARK   17  A    between atoms: C_36  and  O_37 
REMARK   18  A    between atoms: O_38  and  C_39 
REMARK   19  A    between atoms: C_41  and  C_42 
REMARK   20  A    between atoms: C_42  and  O_43 
ROOT
ATOM      1  C   LIG d   1       4.960  -3.549  -5.542  0.00  0.00     0.015 C 
ATOM      2  H   LIG d   1       3.899  -3.391  -5.351  0.00  0.00     0.037 H 
ENDROOT
BRANCH   1   3
ATOM      3  C   LIG d   1       5.763  -3.164  -4.297  0.00  0.00    -0.018 C 
ATOM      4  H   LIG d   1       6.795  -2.957  -4.580  0.00  0.00     0.032 H 
ATOM      5  H   LIG d   1       5.740  -3.985  -3.581  0.00  0.00     0.032 H 
BRANCH   3   6
ATOM      6  C   LIG d   1       5.160  -1.933  -3.670  0.00  0.00    -0.043 A 
ATOM      7  C   LIG d   1       5.879  -0.752  -3.640  0.00  0.00    -0.013 A 
ATOM      8  C   LIG d   1       5.326   0.381  -3.065  0.00  0.00     0.162 A 
ATOM      9  H   LIG d   1       6.871  -0.713  -4.065  0.00  0.00     0.066 H 
ATOM     10  C   LIG d   1       4.050   0.326  -2.514  0.00  0.00     0.159 A 
ATOM     11  C   LIG d   1       3.332  -0.859  -2.553  0.00  0.00    -0.016 A 
ATOM     12  C   LIG d   1       3.890  -1.986  -3.129  0.00  0.00    -0.055 A 
ATOM     13  H   LIG d   1       2.339  -0.903  -2.132  0.00  0.00     0.066 H 
ATOM     14  H   LIG d   1       3.332  -2.910  -3.155  0.00  0.00     0.062 H 
BRANCH   8  15
ATOM     15  O   LIG d   1       6.033   1.543  -3.033  0.00  0.00    -0.491 OA
BRANCH  15  16
ATOM     16  C   LIG d   1       7.283   1.561  -3.725  0.00  0.00     0.079 C 
ATOM     17  H   LIG d   1       7.194   0.994  -4.651  0.00  0.00     0.066 H 
ATOM     18  H   LIG d   1       7.556   2.591  -3.954  0.00  0.00     0.066 H 
ATOM     19  H   LIG d   1       8.052   1.113  -3.096  0.00  0.00     0.066 H 
ENDBRANCH  15  16
ENDBRANCH   8  15
BRANCH  10  20
ATOM     20  O   LIG d   1       3.504   1.434  -1.944  0.00  0.00    -0.503 OA
ATOM     21  H   LIG d   1       4.147   2.122  -1.727  0.00  0.00     0.292 HD
ENDBRANCH  10  20
ENDBRANCH   3   6
ENDBRANCH   1   3
BRANCH   1  22
ATOM     22  C   LIG d   1       5.402  -2.681  -6.721  0.00  0.00     0.058 C 
ATOM     23  H   LIG d   1       5.968  -1.826  -6.352  0.00  0.00     0.057 H 
ATOM     24  H   LIG d   1       6.027  -3.269  -7.392  0.00  0.00     0.057 H 
BRANCH  22  25
ATOM     25  O   LIG d   1       4.250  -2.218  -7.429  0.00  0.00    -0.348 OA
BRANCH  25  26
ATOM     26  C   LIG d   1       4.445  -2.095  -8.840  0.00  0.00     0.188 C 
ATOM     27  H   LIG d   1       5.060  -2.920  -9.195  0.00  0.00     0.094 H 
ATOM     28  O   LIG d   1       5.098  -0.856  -9.124  0.00  0.00    -0.341 OA
ATOM     29  C   LIG d   1       4.384   0.297  -8.674  0.00  0.00     0.113 C 
ATOM     30  C   LIG d   1       3.024   0.359  -9.376  0.00  0.00     0.112 C 
ATOM     31  H   LIG d   1       4.234   0.234  -7.596  0.00  0.00     0.065 H 
ATOM     32  C   LIG d   1       2.251  -0.931  -9.087  0.00  0.00     0.114 C 
ATOM     33  H   LIG d   1       2.460   1.214  -9.000  0.00  0.00     0.065 H 
ATOM     34  C   LIG d   1       3.087  -2.128  -9.547  0.00  0.00     0.134 C 
ATOM     35  H   LIG d   1       2.058  -1.010  -8.017  0.00  0.00     0.065 H 
ATOM     36  H   LIG d   1       2.568  -3.053  -9.296  0.00  0.00     0.067 H 
BRANCH  29  37
ATOM     37  C   LIG d   1       5.187   1.557  -9.005  0.00  0.00     0.073 C 
ATOM     38  H   LIG d   1       5.986   1.680  -8.274  0.00  0.00     0.058 H 
ATOM     39  H   LIG d   1       5.616   1.463 -10.001  0.00  0.00     0.058 H 
BRANCH  37  40
ATOM     40  O   LIG d   1       4.324   2.696  -8.962  0.00  0.00    -0.392 OA
ATOM     41  H   LIG d   1       4.671   3.431  -8.438  0.00  0.00     0.209 HD
ENDBRANCH  37  40
ENDBRANCH  29  37
BRANCH  30  42
ATOM     42  O   LIG d   1       3.218   0.496 -10.784  0.00  0.00    -0.387 OA
ATOM     43  H   LIG d   1       3.656  -0.262 -11.196  0.00  0.00     0.210 HD
ENDBRANCH  30  42
BRANCH  32  44
ATOM     44  O   LIG d   1       1.009  -0.914  -9.796  0.00  0.00    -0.386 OA
ATOM     45  H   LIG d   1       0.396  -1.613  -9.532  0.00  0.00     0.210 HD
ENDBRANCH  32  44
BRANCH  34  46
ATOM     46  O   LIG d   1       3.284  -2.060 -10.961  0.00  0.00    -0.384 OA
ATOM     47  H   LIG d   1       3.867  -1.342 -11.243  0.00  0.00     0.210 HD
ENDBRANCH  34  46
ENDBRANCH  25  26
ENDBRANCH  22  25
ENDBRANCH   1  22
BRANCH   1  48
ATOM     48  C   LIG d   1       5.203  -4.999  -5.867  0.00  0.00     0.004 A 
ATOM     49  C   LIG d   1       4.280  -5.701  -6.627  0.00  0.00     0.162 A 
ATOM     50  C   LIG d   1       4.503  -7.042  -6.937  0.00  0.00     0.162 A 
ATOM     51  C   LIG d   1       5.640  -7.678  -6.474  0.00  0.00    -0.009 A 
ATOM     52  C   LIG d   1       6.567  -6.972  -5.704  0.00  0.00    -0.021 A 
ATOM     53  H   LIG d   1       5.812  -8.717  -6.710  0.00  0.00     0.066 H 
ATOM     54  C   LIG d   1       6.340  -5.628  -5.404  0.00  0.00    -0.047 A 
ATOM     55  H   LIG d   1       7.056  -5.081  -4.808  0.00  0.00     0.063 H 
BRANCH  49  56
ATOM     56  O   LIG d   1       3.158  -5.079  -7.078  0.00  0.00    -0.503 OA
ATOM     57  H   LIG d   1       2.355  -5.610  -6.997  0.00  0.00     0.292 HD
ENDBRANCH  49  56
BRANCH  50  58
ATOM     58  O   LIG d   1       3.599  -7.726  -7.687  0.00  0.00    -0.491 OA
BRANCH  58  59
ATOM     59  C   LIG d   1       4.107  -8.466  -8.800  0.00  0.00     0.079 C 
ATOM     60  H   LIG d   1       4.888  -9.144  -8.458  0.00  0.00     0.066 H 
ATOM     61  H   LIG d   1       3.300  -9.039  -9.254  0.00  0.00     0.066 H 
ATOM     62  H   LIG d   1       4.522  -7.776  -9.535  0.00  0.00     0.066 H 
ENDBRANCH  58  59
ENDBRANCH  50  58
BRANCH  52  63
ATOM     63  C   LIG d   1       7.784  -7.646  -5.209  0.00  0.00    -0.056 C 
ATOM     64  C   LIG d   1       8.689  -6.960  -4.524  0.00  0.00    -0.058 C 
ATOM     65  H   LIG d   1       8.536  -5.910  -4.329  0.00  0.00     0.059 H 
ATOM     66  H   LIG d   1       7.937  -8.698  -5.403  0.00  0.00     0.062 H 
BRANCH  64  67
ATOM     67  C   LIG d   1       9.931  -7.647  -4.017  0.00  0.00     0.063 C 
ATOM     68  H   LIG d   1       9.650  -8.536  -3.451  0.00  0.00     0.060 H 
ATOM     69  H   LIG d   1      10.555  -7.938  -4.862  0.00  0.00     0.060 H 
BRANCH  67  70
ATOM     70  O   LIG d   1      10.659  -6.754  -3.172  0.00  0.00    -0.391 OA
ATOM     71  H   LIG d   1      11.582  -6.631  -3.433  0.00  0.00     0.210 HD
ENDBRANCH  67  70
ENDBRANCH  64  67
ENDBRANCH  52  63
ENDBRANCH   1  48
TORSDOF 20
ENDMDL
MODEL 5
REMARK VINA RESULT:      -5.8      6.882     11.431
REMARK  20 active torsions:
REMARK  status: ('A' for Active; 'I' for Inactive)
REMARK    1  A    between atoms: C_1  and  O_2 
REMARK    2  A    between atoms: O_2  and  C_3 
REMARK    3  A    between atoms: C_5  and  C_10 
REMARK    4  A    between atoms: C_8  and  O_9 
REMARK    5  A    between atoms: C_10  and  C_11 
REMARK    6  A    between atoms: C_11  and  C_13 
REMARK    7  A    between atoms: C_11  and  C_31 
REMARK    8  A    between atoms: C_13  and  O_14 
REMARK    9  A    between atoms: O_14  and  C_15 
REMARK   10  A    between atoms: C_17  and  O_30 
REMARK   11  A    between atoms: C_19  and  O_29 
REMARK   12  A    between atoms: C_21  and  O_28 
REMARK   13  A    between atoms: C_23  and  C_26 
REMARK   14  A    between atoms: C_26  and  O_27 
REMARK   15  A    between atoms: C_33  and  C_40 
REMARK   16  A    between atoms: C_35  and  O_38 
REMARK   17  A    between atoms: C_36  and  O_37 
REMARK   18  A    between atoms: O_38  and  C_39 
REMARK   19  A    between atoms: C_41  and  C_42 
REMARK   20  A    between atoms: C_42  and  O_43 
ROOT
ATOM      1  C   LIG d   1      10.154   5.636  -4.994  0.00  0.00     0.015 C 
ATOM      2  H   LIG d   1      10.994   6.101  -5.509  0.00  0.00     0.037 H 
ENDROOT
BRANCH   1   3
ATOM      3  C   LIG d   1       8.946   6.576  -5.037  0.00  0.00    -0.018 C 
ATOM      4  H   LIG d   1       8.691   6.886  -4.024  0.00  0.00     0.032 H 
ATOM      5  H   LIG d   1       8.098   6.058  -5.484  0.00  0.00     0.032 H 
BRANCH   3   6
ATOM      6  C   LIG d   1       9.285   7.791  -5.862  0.00  0.00    -0.043 A 
ATOM      7  C   LIG d   1       9.655   8.967  -5.238  0.00  0.00    -0.013 A 
ATOM      8  C   LIG d   1       9.968  10.085  -5.994  0.00  0.00     0.162 A 
ATOM      9  H   LIG d   1       9.702   9.015  -4.159  0.00  0.00     0.066 H 
ATOM     10  C   LIG d   1       9.902  10.022  -7.382  0.00  0.00     0.159 A 
ATOM     11  C   LIG d   1       9.536   8.838  -8.003  0.00  0.00    -0.016 A 
ATOM     12  C   LIG d   1       9.226   7.727  -7.241  0.00  0.00    -0.055 A 
ATOM     13  H   LIG d   1       9.490   8.785  -9.080  0.00  0.00     0.066 H 
ATOM     14  H   LIG d   1       8.937   6.806  -7.726  0.00  0.00     0.062 H 
BRANCH   8  15
ATOM     15  O   LIG d   1      10.331  11.244  -5.381  0.00  0.00    -0.491 OA
BRANCH  15  16
ATOM     16  C   LIG d   1       9.333  11.906  -4.603  0.00  0.00     0.079 C 
ATOM     17  H   LIG d   1       9.686  12.021  -3.578  0.00  0.00     0.066 H 
ATOM     18  H   LIG d   1       9.133  12.889  -5.030  0.00  0.00     0.066 H 
ATOM     19  H   LIG d   1       8.416  11.316  -4.608  0.00  0.00     0.066 H 
ENDBRANCH  15  16
ENDBRANCH   8  15
BRANCH  10  20
ATOM     20  O   LIG d   1      10.203  11.118  -8.130  0.00  0.00    -0.503 OA
ATOM     21  H   LIG d   1      10.720  10.924  -8.923  0.00  0.00     0.292 HD
ENDBRANCH  10  20
ENDBRANCH   3   6
ENDBRANCH   1   3
BRANCH   1  22
ATOM     22  C   LIG d   1      10.535   5.364  -3.538  0.00  0.00     0.058 C 
ATOM     23  H   LIG d   1       9.908   4.567  -3.140  0.00  0.00     0.057 H 
ATOM     24  H   LIG d   1      11.582   5.064  -3.486  0.00  0.00     0.057 H 
BRANCH  22  25
ATOM     25  O   LIG d   1      10.342   6.551  -2.765  0.00  0.00    -0.348 OA
BRANCH  25  26
ATOM     26  C   LIG d   1       9.890   6.309  -1.431  0.00  0.00     0.188 C 
ATOM     27  H   LIG d   1       9.192   5.475  -1.430  0.00  0.00     0.094 H 
ATOM     28  O   LIG d   1       9.238   7.479  -0.931  0.00  0.00    -0.341 OA
ATOM     29  C   LIG d   1      10.063   8.646  -0.914  0.00  0.00     0.113 C 
ATOM     30  C   LIG d   1      11.268   8.404  -0.001  0.00  0.00     0.112 C 
ATOM     31  H   LIG d   1      10.410   8.860  -1.926  0.00  0.00     0.065 H 
ATOM     32  C   LIG d   1      12.037   7.176  -0.498  0.00  0.00     0.114 C 
ATOM     33  H   LIG d   1      11.921   9.277  -0.022  0.00  0.00     0.065 H 
ATOM     34  C   LIG d   1      11.088   5.975  -0.539  0.00  0.00     0.134 C 
ATOM     35  H   LIG d   1      12.425   7.369  -1.499  0.00  0.00     0.065 H 
ATOM     36  H   LIG d   1      11.614   5.110  -0.944  0.00  0.00     0.067 H 
BRANCH  29  37
ATOM     37  C   LIG d   1       9.256   9.835  -0.390  0.00  0.00     0.073 C 
ATOM     38  H   LIG d   1       8.912   9.621   0.623  0.00  0.00     0.058 H 
ATOM     39  H   LIG d   1       9.884  10.724  -0.381  0.00  0.00     0.058 H 
BRANCH  37  40
ATOM     40  O   LIG d   1       8.127  10.055  -1.238  0.00  0.00    -0.392 OA
ATOM     41  H   LIG d   1       7.276   9.878  -0.813  0.00  0.00     0.209 HD
ENDBRANCH  37  40
ENDBRANCH  29  37
BRANCH  30  42
ATOM     42  O   LIG d   1      10.817   8.176   1.336  0.00  0.00    -0.387 OA
ATOM     43  H   LIG d   1       9.916   7.829   1.394  0.00  0.00     0.210 HD
ENDBRANCH  30  42
BRANCH  32  44
ATOM     44  O   LIG d   1      13.123   6.898   0.389  0.00  0.00    -0.386 OA
ATOM     45  H   LIG d   1      12.936   7.102   1.315  0.00  0.00     0.210 HD
ENDBRANCH  32  44
BRANCH  34  46
ATOM     46  O   LIG d   1      10.632   5.680   0.782  0.00  0.00    -0.384 OA
ATOM     47  H   LIG d   1      11.070   4.920   1.190  0.00  0.00     0.210 HD
ENDBRANCH  34  46
ENDBRANCH  25  26
ENDBRANCH  22  25
ENDBRANCH   1  22
BRANCH   1  48
ATOM     48  C   LIG d   1       9.803   4.338  -5.672  0.00  0.00     0.004 A 
ATOM     49  C   LIG d   1      10.326   4.049  -6.923  0.00  0.00     0.162 A 
ATOM     50  C   LIG d   1      10.010   2.846  -7.554  0.00  0.00     0.162 A 
ATOM     51  C   LIG d   1       9.163   1.945  -6.936  0.00  0.00    -0.009 A 
ATOM     52  C   LIG d   1       8.632   2.238  -5.679  0.00  0.00    -0.021 A 
ATOM     53  H   LIG d   1       8.914   1.015  -7.424  0.00  0.00     0.066 H 
ATOM     54  C   LIG d   1       8.958   3.442  -5.051  0.00  0.00    -0.047 A 
ATOM     55  H   LIG d   1       8.548   3.671  -4.078  0.00  0.00     0.063 H 
BRANCH  49  56
ATOM     56  O   LIG d   1      11.154   4.937  -7.535  0.00  0.00    -0.503 OA
ATOM     57  H   LIG d   1      11.274   5.763  -7.047  0.00  0.00     0.292 HD
ENDBRANCH  49  56
BRANCH  50  58
ATOM     58  O   LIG d   1      10.528   2.563  -8.778  0.00  0.00    -0.491 OA
BRANCH  58  59
ATOM     59  C   LIG d   1       9.655   2.704  -9.901  0.00  0.00     0.079 C 
ATOM     60  H   LIG d   1      10.234   2.992 -10.777  0.00  0.00     0.066 H 
ATOM     61  H   LIG d   1       9.153   1.757 -10.092  0.00  0.00     0.066 H 
ATOM     62  H   LIG d   1       8.912   3.473  -9.688  0.00  0.00     0.066 H 
ENDBRANCH  58  59
ENDBRANCH  50  58
BRANCH  52  63
ATOM     63  C   LIG d   1       7.728   1.278  -5.014  0.00  0.00    -0.056 C 
ATOM     64  C   LIG d   1       7.275   1.531  -3.793  0.00  0.00    -0.058 C 
ATOM     65  H   LIG d   1       7.568   2.437  -3.285  0.00  0.00     0.059 H 
ATOM     66  H   LIG d   1       7.434   0.372  -5.522  0.00  0.00     0.062 H 
BRANCH  64  67
ATOM     67  C   LIG d   1       6.352   0.552  -3.114  0.00  0.00     0.063 C 
ATOM     68  H   LIG d   1       5.779   0.010  -3.867  0.00  0.00     0.060 H 
ATOM     69  H   LIG d   1       6.939  -0.154  -2.527  0.00  0.00     0.060 H 
BRANCH  67  70
ATOM     70  O   LIG d   1       5.458   1.259  -2.253  0.00  0.00    -0.391 OA
ATOM     71  H   LIG d   1       4.568   0.881  -2.215  0.00  0.00     0.210 HD
ENDBRANCH  67  70
ENDBRANCH  64  67
ENDBRANCH  52  63
ENDBRANCH   1  48
TORSDOF 20
ENDMDL
MODEL 6
REMARK VINA RESULT:      -5.7      3.322      5.905
REMARK  20 active torsions:
REMARK  status: ('A' for Active; 'I' for Inactive)
REMARK    1  A    between atoms: C_1  and  O_2 
REMARK    2  A    between atoms: O_2  and  C_3 
REMARK    3  A    between atoms: C_5  and  C_10 
REMARK    4  A    between atoms: C_8  and  O_9 
REMARK    5  A    between atoms: C_10  and  C_11 
REMARK    6  A    between atoms: C_11  and  C_13 
REMARK    7  A    between atoms: C_11  and  C_31 
REMARK    8  A    between atoms: C_13  and  O_14 
REMARK    9  A    between atoms: O_14  and  C_15 
REMARK   10  A    between atoms: C_17  and  O_30 
REMARK   11  A    between atoms: C_19  and  O_29 
REMARK   12  A    between atoms: C_21  and  O_28 
REMARK   13  A    between atoms: C_23  and  C_26 
REMARK   14  A    between atoms: C_26  and  O_27 
REMARK   15  A    between atoms: C_33  and  C_40 
REMARK   16  A    between atoms: C_35  and  O_38 
REMARK   17  A    between atoms: C_36  and  O_37 
REMARK   18  A    between atoms: O_38  and  C_39 
REMARK   19  A    between atoms: C_41  and  C_42 
REMARK   20  A    between atoms: C_42  and  O_43 
ROOT
ATOM      1  C   LIG d   1       7.965   1.539  -5.113  0.00  0.00     0.015 C 
ATOM      2  H   LIG d   1       7.312   2.397  -4.959  0.00  0.00     0.037 H 
ENDROOT
BRANCH   1   3
ATOM      3  C   LIG d   1       9.350   1.841  -4.534  0.00  0.00    -0.018 C 
ATOM      4  H   LIG d   1      10.114   1.583  -5.267  0.00  0.00     0.032 H 
ATOM      5  H   LIG d   1       9.501   1.254  -3.629  0.00  0.00     0.032 H 
BRANCH   3   6
ATOM      6  C   LIG d   1       9.446   3.309  -4.205  0.00  0.00    -0.043 A 
ATOM      7  C   LIG d   1       9.810   3.707  -2.932  0.00  0.00    -0.013 A 
ATOM      8  C   LIG d   1       9.900   5.055  -2.627  0.00  0.00     0.162 A 
ATOM      9  H   LIG d   1      10.025   2.967  -2.175  0.00  0.00     0.066 H 
ATOM     10  C   LIG d   1       9.618   6.006  -3.603  0.00  0.00     0.159 A 
ATOM     11  C   LIG d   1       9.259   5.601  -4.879  0.00  0.00    -0.016 A 
ATOM     12  C   LIG d   1       9.172   4.254  -5.176  0.00  0.00    -0.055 A 
ATOM     13  H   LIG d   1       9.045   6.337  -5.639  0.00  0.00     0.066 H 
ATOM     14  H   LIG d   1       8.889   3.938  -6.169  0.00  0.00     0.062 H 
BRANCH   8  15
ATOM     15  O   LIG d   1      10.257   5.449  -1.375  0.00  0.00    -0.491 OA
BRANCH  15  16
ATOM     16  C   LIG d   1      11.596   5.169  -0.964  0.00  0.00     0.079 C 
ATOM     17  H   LIG d   1      11.712   5.415   0.091  0.00  0.00     0.066 H 
ATOM     18  H   LIG d   1      11.809   4.111  -1.116  0.00  0.00     0.066 H 
ATOM     19  H   LIG d   1      12.290   5.767  -1.556  0.00  0.00     0.066 H 
ENDBRANCH  15  16
ENDBRANCH   8  15
BRANCH  10  20
ATOM     20  O   LIG d   1       9.700   7.332  -3.307  0.00  0.00    -0.503 OA
ATOM     21  H   LIG d   1       9.723   7.908  -4.083  0.00  0.00     0.292 HD
ENDBRANCH  10  20
ENDBRANCH   3   6
ENDBRANCH   1   3
BRANCH   1  22
ATOM     22  C   LIG d   1       8.091   1.254  -6.611  0.00  0.00     0.058 C 
ATOM     23  H   LIG d   1       8.790   1.960  -7.058  0.00  0.00     0.057 H 
ATOM     24  H   LIG d   1       8.455   0.238  -6.759  0.00  0.00     0.057 H 
BRANCH  22  25
ATOM     25  O   LIG d   1       6.811   1.395  -7.231  0.00  0.00    -0.348 OA
BRANCH  25  26
ATOM     26  C   LIG d   1       6.503   0.363  -8.171  0.00  0.00     0.188 C 
ATOM     27  H   LIG d   1       7.425  -0.023  -8.601  0.00  0.00     0.094 H 
ATOM     28  O   LIG d   1       5.678   0.896  -9.209  0.00  0.00    -0.341 OA
ATOM     29  C   LIG d   1       4.447   1.456  -8.748  0.00  0.00     0.113 C 
ATOM     30  C   LIG d   1       3.619   0.368  -8.060  0.00  0.00     0.112 C 
ATOM     31  H   LIG d   1       4.656   2.258  -8.038  0.00  0.00     0.065 H 
ATOM     32  C   LIG d   1       4.433  -0.231  -6.909  0.00  0.00     0.114 C 
ATOM     33  H   LIG d   1       2.699   0.804  -7.668  0.00  0.00     0.065 H 
ATOM     34  C   LIG d   1       5.757  -0.768  -7.459  0.00  0.00     0.134 C 
ATOM     35  H   LIG d   1       4.634   0.541  -6.164  0.00  0.00     0.065 H 
ATOM     36  H   LIG d   1       6.366  -1.147  -6.638  0.00  0.00     0.067 H 
BRANCH  29  37
ATOM     37  C   LIG d   1       3.664   2.019  -9.936  0.00  0.00     0.073 C 
ATOM     38  H   LIG d   1       2.595   1.906  -9.752  0.00  0.00     0.058 H 
ATOM     39  H   LIG d   1       3.903   3.073 -10.062  0.00  0.00     0.058 H 
BRANCH  37  40
ATOM     40  O   LIG d   1       4.019   1.303 -11.121  0.00  0.00    -0.392 OA
ATOM     41  H   LIG d   1       3.267   1.085 -11.689  0.00  0.00     0.209 HD
ENDBRANCH  37  40
ENDBRANCH  29  37
BRANCH  30  42
ATOM     42  O   LIG d   1       3.299  -0.658  -9.002  0.00  0.00    -0.387 OA
ATOM     43  H   LIG d   1       3.936  -0.741  -9.725  0.00  0.00     0.210 HD
ENDBRANCH  30  42
BRANCH  32  44
ATOM     44  O   LIG d   1       3.697  -1.297  -6.305  0.00  0.00    -0.386 OA
ATOM     45  H   LIG d   1       3.472  -1.144  -5.377  0.00  0.00     0.210 HD
ENDBRANCH  32  44
BRANCH  34  46
ATOM     46  O   LIG d   1       5.496  -1.824  -8.386  0.00  0.00    -0.384 OA
ATOM     47  H   LIG d   1       6.010  -2.627  -8.223  0.00  0.00     0.210 HD
ENDBRANCH  34  46
ENDBRANCH  25  26
ENDBRANCH  22  25
ENDBRANCH   1  22
BRANCH   1  48
ATOM     48  C   LIG d   1       7.385   0.334  -4.420  0.00  0.00     0.004 A 
ATOM     49  C   LIG d   1       6.268   0.474  -3.609  0.00  0.00     0.162 A 
ATOM     50  C   LIG d   1       5.723  -0.638  -2.970  0.00  0.00     0.162 A 
ATOM     51  C   LIG d   1       6.303  -1.882  -3.134  0.00  0.00    -0.009 A 
ATOM     52  C   LIG d   1       7.430  -2.023  -3.946  0.00  0.00    -0.021 A 
ATOM     53  H   LIG d   1       5.884  -2.744  -2.637  0.00  0.00     0.066 H 
ATOM     54  C   LIG d   1       7.967  -0.905  -4.588  0.00  0.00    -0.047 A 
ATOM     55  H   LIG d   1       8.839  -1.012  -5.217  0.00  0.00     0.063 H 
BRANCH  49  56
ATOM     56  O   LIG d   1       5.700   1.699  -3.442  0.00  0.00    -0.503 OA
ATOM     57  H   LIG d   1       5.142   1.769  -2.657  0.00  0.00     0.292 HD
ENDBRANCH  49  56
BRANCH  50  58
ATOM     58  O   LIG d   1       4.625  -0.498  -2.180  0.00  0.00    -0.491 OA
BRANCH  58  59
ATOM     59  C   LIG d   1       3.356  -0.773  -2.779  0.00  0.00     0.079 C 
ATOM     60  H   LIG d   1       3.112   0.015  -3.490  0.00  0.00     0.066 H 
ATOM     61  H   LIG d   1       3.399  -1.730  -3.297  0.00  0.00     0.066 H 
ATOM     62  H   LIG d   1       2.591  -0.813  -2.004  0.00  0.00     0.066 H 
ENDBRANCH  58  59
ENDBRANCH  50  58
BRANCH  52  63
ATOM     63  C   LIG d   1       8.053  -3.350  -4.125  0.00  0.00    -0.056 C 
ATOM     64  C   LIG d   1       8.925  -3.798  -3.233  0.00  0.00    -0.058 C 
ATOM     65  H   LIG d   1       9.181  -3.193  -2.376  0.00  0.00     0.059 H 
ATOM     66  H   LIG d   1       7.797  -3.956  -4.982  0.00  0.00     0.062 H 
BRANCH  64  67
ATOM     67  C   LIG d   1       9.561  -5.152  -3.416  0.00  0.00     0.063 C 
ATOM     68  H   LIG d   1      10.536  -5.036  -3.890  0.00  0.00     0.060 H 
ATOM     69  H   LIG d   1       9.686  -5.629  -2.444  0.00  0.00     0.060 H 
BRANCH  67  70
ATOM     70  O   LIG d   1       8.724  -5.965  -4.240  0.00  0.00    -0.391 OA
ATOM     71  H   LIG d   1       9.041  -6.060  -5.149  0.00  0.00     0.210 HD
ENDBRANCH  67  70
ENDBRANCH  64  67
ENDBRANCH  52  63
ENDBRANCH   1  48
TORSDOF 20
ENDMDL
MODEL 7
REMARK VINA RESULT:      -5.7      5.998     10.516
REMARK  20 active torsions:
REMARK  status: ('A' for Active; 'I' for Inactive)
REMARK    1  A    between atoms: C_1  and  O_2 
REMARK    2  A    between atoms: O_2  and  C_3 
REMARK    3  A    between atoms: C_5  and  C_10 
REMARK    4  A    between atoms: C_8  and  O_9 
REMARK    5  A    between atoms: C_10  and  C_11 
REMARK    6  A    between atoms: C_11  and  C_13 
REMARK    7  A    between atoms: C_11  and  C_31 
REMARK    8  A    between atoms: C_13  and  O_14 
REMARK    9  A    between atoms: O_14  and  C_15 
REMARK   10  A    between atoms: C_17  and  O_30 
REMARK   11  A    between atoms: C_19  and  O_29 
REMARK   12  A    between atoms: C_21  and  O_28 
REMARK   13  A    between atoms: C_23  and  C_26 
REMARK   14  A    between atoms: C_26  and  O_27 
REMARK   15  A    between atoms: C_33  and  C_40 
REMARK   16  A    between atoms: C_35  and  O_38 
REMARK   17  A    between atoms: C_36  and  O_37 
REMARK   18  A    between atoms: O_38  and  C_39 
REMARK   19  A    between atoms: C_41  and  C_42 
REMARK   20  A    between atoms: C_42  and  O_43 
ROOT
ATOM      1  C   LIG d   1      10.202   3.886  -4.078  0.00  0.00     0.015 C 
ATOM      2  H   LIG d   1      10.974   4.110  -4.814  0.00  0.00     0.037 H 
ENDROOT
BRANCH   1   3
ATOM      3  C   LIG d   1       9.138   4.986  -4.106  0.00  0.00    -0.018 C 
ATOM      4  H   LIG d   1       9.162   5.539  -3.168  0.00  0.00     0.032 H 
ATOM      5  H   LIG d   1       8.154   4.536  -4.238  0.00  0.00     0.032 H 
BRANCH   3   6
ATOM      6  C   LIG d   1       9.418   5.927  -5.250  0.00  0.00    -0.043 A 
ATOM      7  C   LIG d   1       9.230   7.286  -5.086  0.00  0.00    -0.013 A 
ATOM      8  C   LIG d   1       9.487   8.153  -6.135  0.00  0.00     0.162 A 
ATOM      9  H   LIG d   1       8.882   7.673  -4.139  0.00  0.00     0.066 H 
ATOM     10  C   LIG d   1       9.929   7.651  -7.355  0.00  0.00     0.159 A 
ATOM     11  C   LIG d   1      10.121   6.288  -7.512  0.00  0.00    -0.016 A 
ATOM     12  C   LIG d   1       9.863   5.429  -6.460  0.00  0.00    -0.055 A 
ATOM     13  H   LIG d   1      10.470   5.896  -8.456  0.00  0.00     0.066 H 
ATOM     14  H   LIG d   1      10.009   4.366  -6.584  0.00  0.00     0.062 H 
BRANCH   8  15
ATOM     15  O   LIG d   1       9.301   9.491  -5.975  0.00  0.00    -0.491 OA
BRANCH  15  16
ATOM     16  C   LIG d   1       9.688  10.054  -4.721  0.00  0.00     0.079 C 
ATOM     17  H   LIG d   1      10.063  11.066  -4.876  0.00  0.00     0.066 H 
ATOM     18  H   LIG d   1       8.825  10.086  -4.055  0.00  0.00     0.066 H 
ATOM     19  H   LIG d   1      10.470   9.441  -4.273  0.00  0.00     0.066 H 
ENDBRANCH  15  16
ENDBRANCH   8  15
BRANCH  10  20
ATOM     20  O   LIG d   1      10.178   8.498  -8.391  0.00  0.00    -0.503 OA
ATOM     21  H   LIG d   1      10.959   9.053  -8.266  0.00  0.00     0.292 HD
ENDBRANCH  10  20
ENDBRANCH   3   6
ENDBRANCH   1   3
BRANCH   1  22
ATOM     22  C   LIG d   1      10.828   3.819  -2.684  0.00  0.00     0.058 C 
ATOM     23  H   LIG d   1      10.133   3.339  -1.995  0.00  0.00     0.057 H 
ATOM     24  H   LIG d   1      11.753   3.243  -2.728  0.00  0.00     0.057 H 
BRANCH  22  25
ATOM     25  O   LIG d   1      11.114   5.142  -2.227  0.00  0.00    -0.348 OA
BRANCH  25  26
ATOM     26  C   LIG d   1      10.773   5.371  -0.858  0.00  0.00     0.188 C 
ATOM     27  H   LIG d   1      10.348   4.463  -0.433  0.00  0.00     0.094 H 
ATOM     28  O   LIG d   1       9.816   6.429  -0.776  0.00  0.00    -0.341 OA
ATOM     29  C   LIG d   1      10.265   7.667  -1.333  0.00  0.00     0.113 C 
ATOM     30  C   LIG d   1      11.502   8.148  -0.571  0.00  0.00     0.112 C 
ATOM     31  H   LIG d   1      10.519   7.522  -2.384  0.00  0.00     0.065 H 
ATOM     32  C   LIG d   1      12.589   7.071  -0.642  0.00  0.00     0.114 C 
ATOM     33  H   LIG d   1      11.873   9.070  -1.023  0.00  0.00     0.065 H 
ATOM     34  C   LIG d   1      12.031   5.761  -0.077  0.00  0.00     0.134 C 
ATOM     35  H   LIG d   1      12.887   6.922  -1.680  0.00  0.00     0.065 H 
ATOM     36  H   LIG d   1      12.779   4.975  -0.175  0.00  0.00     0.067 H 
BRANCH  29  37
ATOM     37  C   LIG d   1       9.155   8.713  -1.217  0.00  0.00     0.073 C 
ATOM     38  H   LIG d   1       9.396   9.409  -0.413  0.00  0.00     0.058 H 
ATOM     39  H   LIG d   1       9.069   9.257  -2.156  0.00  0.00     0.058 H 
BRANCH  37  40
ATOM     40  O   LIG d   1       7.916   8.062  -0.927  0.00  0.00    -0.392 OA
ATOM     41  H   LIG d   1       7.226   8.657  -0.604  0.00  0.00     0.209 HD
ENDBRANCH  37  40
ENDBRANCH  29  37
BRANCH  30  42
ATOM     42  O   LIG d   1      11.159   8.390   0.795  0.00  0.00    -0.387 OA
ATOM     43  H   LIG d   1      11.032   9.325   1.009  0.00  0.00     0.210 HD
ENDBRANCH  30  42
BRANCH  32  44
ATOM     44  O   LIG d   1      13.722   7.479   0.127  0.00  0.00    -0.386 OA
ATOM     45  H   LIG d   1      13.618   7.353   1.079  0.00  0.00     0.210 HD
ENDBRANCH  32  44
BRANCH  34  46
ATOM     46  O   LIG d   1      11.701   5.937   1.302  0.00  0.00    -0.384 OA
ATOM     47  H   LIG d   1      12.466   6.088   1.873  0.00  0.00     0.210 HD
ENDBRANCH  34  46
ENDBRANCH  25  26
ENDBRANCH  22  25
ENDBRANCH   1  22
BRANCH   1  48
ATOM     48  C   LIG d   1       9.563   2.562  -4.406  0.00  0.00     0.004 A 
ATOM     49  C   LIG d   1      10.112   1.754  -5.390  0.00  0.00     0.162 A 
ATOM     50  C   LIG d   1       9.529   0.525  -5.694  0.00  0.00     0.162 A 
ATOM     51  C   LIG d   1       8.394   0.114  -5.020  0.00  0.00    -0.009 A 
ATOM     52  C   LIG d   1       7.838   0.930  -4.033  0.00  0.00    -0.021 A 
ATOM     53  H   LIG d   1       7.938  -0.835  -5.257  0.00  0.00     0.066 H 
ATOM     54  C   LIG d   1       8.431   2.157  -3.730  0.00  0.00    -0.047 A 
ATOM     55  H   LIG d   1       8.002   2.789  -2.966  0.00  0.00     0.063 H 
BRANCH  49  56
ATOM     56  O   LIG d   1      11.226   2.160  -6.058  0.00  0.00    -0.503 OA
ATOM     57  H   LIG d   1      11.598   2.990  -5.733  0.00  0.00     0.292 HD
ENDBRANCH  49  56
BRANCH  50  58
ATOM     58  O   LIG d   1      10.073  -0.266  -6.656  0.00  0.00    -0.491 OA
BRANCH  58  59
ATOM     59  C   LIG d   1      10.769  -1.436  -6.217  0.00  0.00     0.079 C 
ATOM     60  H   LIG d   1      10.874  -2.130  -7.050  0.00  0.00     0.066 H 
ATOM     61  H   LIG d   1      11.756  -1.155  -5.851  0.00  0.00     0.066 H 
ATOM     62  H   LIG d   1      10.206  -1.913  -5.415  0.00  0.00     0.066 H 
ENDBRANCH  58  59
ENDBRANCH  50  58
BRANCH  52  63
ATOM     63  C   LIG d   1       6.625   0.496  -3.310  0.00  0.00    -0.056 C 
ATOM     64  C   LIG d   1       5.746   1.396  -2.890  0.00  0.00    -0.058 C 
ATOM     65  H   LIG d   1       5.917   2.445  -3.077  0.00  0.00     0.059 H 
ATOM     66  H   LIG d   1       6.454  -0.555  -3.124  0.00  0.00     0.062 H 
BRANCH  64  67
ATOM     67  C   LIG d   1       4.508   0.953  -2.153  0.00  0.00     0.063 C 
ATOM     68  H   LIG d   1       4.628  -0.081  -1.830  0.00  0.00     0.060 H 
ATOM     69  H   LIG d   1       4.357   1.590  -1.282  0.00  0.00     0.060 H 
BRANCH  67  70
ATOM     70  O   LIG d   1       3.376   1.054  -3.019  0.00  0.00    -0.391 OA
ATOM     71  H   LIG d   1       2.893   1.888  -2.938  0.00  0.00     0.210 HD
ENDBRANCH  67  70
ENDBRANCH  64  67
ENDBRANCH  52  63
ENDBRANCH   1  48
TORSDOF 20
ENDMDL
MODEL 8
REMARK VINA RESULT:      -5.7      2.231      3.884
REMARK  20 active torsions:
REMARK  status: ('A' for Active; 'I' for Inactive)
REMARK    1  A    between atoms: C_1  and  O_2 
REMARK    2  A    between atoms: O_2  and  C_3 
REMARK    3  A    between atoms: C_5  and  C_10 
REMARK    4  A    between atoms: C_8  and  O_9 
REMARK    5  A    between atoms: C_10  and  C_11 
REMARK    6  A    between atoms: C_11  and  C_13 
REMARK    7  A    between atoms: C_11  and  C_31 
REMARK    8  A    between atoms: C_13  and  O_14 
REMARK    9  A    between atoms: O_14  and  C_15 
REMARK   10  A    between atoms: C_17  and  O_30 
REMARK   11  A    between atoms: C_19  and  O_29 
REMARK   12  A    between atoms: C_21  and  O_28 
REMARK   13  A    between atoms: C_23  and  C_26 
REMARK   14  A    between atoms: C_26  and  O_27 
REMARK   15  A    between atoms: C_33  and  C_40 
REMARK   16  A    between atoms: C_35  and  O_38 
REMARK   17  A    between atoms: C_36  and  O_37 
REMARK   18  A    between atoms: O_38  and  C_39 
REMARK   19  A    between atoms: C_41  and  C_42 
REMARK   20  A    between atoms: C_42  and  O_43 
ROOT
ATOM      1  C   LIG d   1       5.842  -3.285  -5.221  0.00  0.00     0.015 C 
ATOM      2  H   LIG d   1       5.659  -2.374  -5.789  0.00  0.00     0.037 H 
ENDROOT
BRANCH   1   3
ATOM      3  C   LIG d   1       4.745  -3.457  -4.166  0.00  0.00    -0.018 C 
ATOM      4  H   LIG d   1       5.111  -4.092  -3.361  0.00  0.00     0.032 H 
ATOM      5  H   LIG d   1       3.870  -3.918  -4.624  0.00  0.00     0.032 H 
BRANCH   3   6
ATOM      6  C   LIG d   1       4.369  -2.108  -3.609  0.00  0.00    -0.043 A 
ATOM      7  C   LIG d   1       3.764  -1.170  -4.424  0.00  0.00    -0.013 A 
ATOM      8  C   LIG d   1       3.418   0.071  -3.914  0.00  0.00     0.162 A 
ATOM      9  H   LIG d   1       3.561  -1.403  -5.459  0.00  0.00     0.066 H 
ATOM     10  C   LIG d   1       3.685   0.372  -2.583  0.00  0.00     0.159 A 
ATOM     11  C   LIG d   1       4.287  -0.575  -1.769  0.00  0.00    -0.016 A 
ATOM     12  C   LIG d   1       4.629  -1.811  -2.285  0.00  0.00    -0.055 A 
ATOM     13  H   LIG d   1       4.490  -0.347  -0.733  0.00  0.00     0.066 H 
ATOM     14  H   LIG d   1       5.102  -2.547  -1.651  0.00  0.00     0.062 H 
BRANCH   8  15
ATOM     15  O   LIG d   1       2.823   0.996  -4.716  0.00  0.00    -0.491 OA
BRANCH  15  16
ATOM     16  C   LIG d   1       2.598   0.626  -6.077  0.00  0.00     0.079 C 
ATOM     17  H   LIG d   1       2.261   1.496  -6.640  0.00  0.00     0.066 H 
ATOM     18  H   LIG d   1       3.527   0.252  -6.509  0.00  0.00     0.066 H 
ATOM     19  H   LIG d   1       1.838  -0.154  -6.121  0.00  0.00     0.066 H 
ENDBRANCH  15  16
ENDBRANCH   8  15
BRANCH  10  20
ATOM     20  O   LIG d   1       3.351   1.590  -2.078  0.00  0.00    -0.503 OA
ATOM     21  H   LIG d   1       3.950   1.909  -1.389  0.00  0.00     0.292 HD
ENDBRANCH  10  20
ENDBRANCH   3   6
ENDBRANCH   1   3
BRANCH   1  22
ATOM     22  C   LIG d   1       7.202  -3.191  -4.529  0.00  0.00     0.058 C 
ATOM     23  H   LIG d   1       7.057  -3.028  -3.461  0.00  0.00     0.057 H 
ATOM     24  H   LIG d   1       7.755  -4.117  -4.683  0.00  0.00     0.057 H 
BRANCH  22  25
ATOM     25  O   LIG d   1       7.942  -2.099  -5.080  0.00  0.00    -0.348 OA
BRANCH  25  26
ATOM     26  C   LIG d   1       7.163  -0.922  -5.303  0.00  0.00     0.188 C 
ATOM     27  H   LIG d   1       6.110  -1.149  -5.146  0.00  0.00     0.094 H 
ATOM     28  O   LIG d   1       7.358  -0.470  -6.645  0.00  0.00    -0.341 OA
ATOM     29  C   LIG d   1       8.718  -0.168  -6.967  0.00  0.00     0.113 C 
ATOM     30  C   LIG d   1       9.218   0.958  -6.058  0.00  0.00     0.112 C 
ATOM     31  H   LIG d   1       9.333  -1.057  -6.818  0.00  0.00     0.065 H 
ATOM     32  C   LIG d   1       9.067   0.528  -4.596  0.00  0.00     0.114 C 
ATOM     33  H   LIG d   1      10.268   1.159  -6.273  0.00  0.00     0.065 H 
ATOM     34  C   LIG d   1       7.602   0.173  -4.328  0.00  0.00     0.134 C 
ATOM     35  H   LIG d   1       9.694  -0.343  -4.405  0.00  0.00     0.065 H 
ATOM     36  H   LIG d   1       7.495  -0.186  -3.305  0.00  0.00     0.067 H 
BRANCH  29  37
ATOM     37  C   LIG d   1       8.810   0.276  -8.428  0.00  0.00     0.073 C 
ATOM     38  H   LIG d   1       8.496   1.317  -8.511  0.00  0.00     0.058 H 
ATOM     39  H   LIG d   1       9.839   0.178  -8.773  0.00  0.00     0.058 H 
BRANCH  37  40
ATOM     40  O   LIG d   1       7.957  -0.543  -9.230  0.00  0.00    -0.392 OA
ATOM     41  H   LIG d   1       8.345  -1.396  -9.472  0.00  0.00     0.209 HD
ENDBRANCH  37  40
ENDBRANCH  29  37
BRANCH  30  42
ATOM     42  O   LIG d   1       8.448   2.139  -6.291  0.00  0.00    -0.387 OA
ATOM     43  H   LIG d   1       8.177   2.597  -5.484  0.00  0.00     0.210 HD
ENDBRANCH  30  42
BRANCH  32  44
ATOM     44  O   LIG d   1       9.464   1.600  -3.738  0.00  0.00    -0.386 OA
ATOM     45  H   LIG d   1      10.418   1.755  -3.717  0.00  0.00     0.210 HD
ENDBRANCH  32  44
BRANCH  34  46
ATOM     46  O   LIG d   1       6.787   1.332  -4.514  0.00  0.00    -0.384 OA
ATOM     47  H   LIG d   1       5.920   1.146  -4.900  0.00  0.00     0.210 HD
ENDBRANCH  34  46
ENDBRANCH  25  26
ENDBRANCH  22  25
ENDBRANCH   1  22
BRANCH   1  48
ATOM     48  C   LIG d   1       5.832  -4.471  -6.151  0.00  0.00     0.004 A 
ATOM     49  C   LIG d   1       6.317  -4.338  -7.443  0.00  0.00     0.162 A 
ATOM     50  C   LIG d   1       6.317  -5.433  -8.306  0.00  0.00     0.162 A 
ATOM     51  C   LIG d   1       5.822  -6.651  -7.877  0.00  0.00    -0.009 A 
ATOM     52  C   LIG d   1       5.329  -6.782  -6.578  0.00  0.00    -0.021 A 
ATOM     53  H   LIG d   1       5.817  -7.498  -8.546  0.00  0.00     0.066 H 
ATOM     54  C   LIG d   1       5.338  -5.683  -5.717  0.00  0.00    -0.047 A 
ATOM     55  H   LIG d   1       4.957  -5.783  -4.711  0.00  0.00     0.063 H 
BRANCH  49  56
ATOM     56  O   LIG d   1       6.799  -3.140  -7.868  0.00  0.00    -0.503 OA
ATOM     57  H   LIG d   1       6.597  -2.940  -8.791  0.00  0.00     0.292 HD
ENDBRANCH  49  56
BRANCH  50  58
ATOM     58  O   LIG d   1       6.798  -5.301  -9.571  0.00  0.00    -0.491 OA
BRANCH  58  59
ATOM     59  C   LIG d   1       5.842  -5.320 -10.633  0.00  0.00     0.079 C 
ATOM     60  H   LIG d   1       5.253  -4.403 -10.607  0.00  0.00     0.066 H 
ATOM     61  H   LIG d   1       6.361  -5.391 -11.588  0.00  0.00     0.066 H 
ATOM     62  H   LIG d   1       5.182  -6.179 -10.513  0.00  0.00     0.066 H 
ENDBRANCH  58  59
ENDBRANCH  50  58
BRANCH  52  63
ATOM     63  C   LIG d   1       4.799  -8.080  -6.114  0.00  0.00    -0.056 C 
ATOM     64  C   LIG d   1       4.988  -8.463  -4.859  0.00  0.00    -0.058 C 
ATOM     65  H   LIG d   1       5.529  -7.826  -4.176  0.00  0.00     0.059 H 
ATOM     66  H   LIG d   1       4.257  -8.718  -6.798  0.00  0.00     0.062 H 
BRANCH  64  67
ATOM     67  C   LIG d   1       4.447  -9.788  -4.385  0.00  0.00     0.063 C 
ATOM     68  H   LIG d   1       4.162 -10.393  -5.246  0.00  0.00     0.060 H 
ATOM     69  H   LIG d   1       5.214 -10.309  -3.813  0.00  0.00     0.060 H 
BRANCH  67  70
ATOM     70  O   LIG d   1       3.303  -9.567  -3.558  0.00  0.00    -0.391 OA
ATOM     71  H   LIG d   1       3.381  -9.943  -2.671  0.00  0.00     0.210 HD
ENDBRANCH  67  70
ENDBRANCH  64  67
ENDBRANCH  52  63
ENDBRANCH   1  48
TORSDOF 20
ENDMDL
MODEL 9
REMARK VINA RESULT:      -5.6      7.206     13.114
REMARK  20 active torsions:
REMARK  status: ('A' for Active; 'I' for Inactive)
REMARK    1  A    between atoms: C_1  and  O_2 
REMARK    2  A    between atoms: O_2  and  C_3 
REMARK    3  A    between atoms: C_5  and  C_10 
REMARK    4  A    between atoms: C_8  and  O_9 
REMARK    5  A    between atoms: C_10  and  C_11 
REMARK    6  A    between atoms: C_11  and  C_13 
REMARK    7  A    between atoms: C_11  and  C_31 
REMARK    8  A    between atoms: C_13  and  O_14 
REMARK    9  A    between atoms: O_14  and  C_15 
REMARK   10  A    between atoms: C_17  and  O_30 
REMARK   11  A    between atoms: C_19  and  O_29 
REMARK   12  A    between atoms: C_21  and  O_28 
REMARK   13  A    between atoms: C_23  and  C_26 
REMARK   14  A    between atoms: C_26  and  O_27 
REMARK   15  A    between atoms: C_33  and  C_40 
REMARK   16  A    between atoms: C_35  and  O_38 
REMARK   17  A    between atoms: C_36  and  O_37 
REMARK   18  A    between atoms: O_38  and  C_39 
REMARK   19  A    between atoms: C_41  and  C_42 
REMARK   20  A    between atoms: C_42  and  O_43 
ROOT
ATOM      1  C   LIG d   1       9.770   5.747  -5.130  0.00  0.00     0.015 C 
ATOM      2  H   LIG d   1       9.231   4.924  -5.597  0.00  0.00     0.037 H 
ENDROOT
BRANCH   1   3
ATOM      3  C   LIG d   1      11.232   5.344  -4.918  0.00  0.00    -0.018 C 
ATOM      4  H   LIG d   1      11.619   5.835  -4.026  0.00  0.00     0.032 H 
ATOM      5  H   LIG d   1      11.820   5.644  -5.785  0.00  0.00     0.032 H 
BRANCH   3   6
ATOM      6  C   LIG d   1      11.319   3.849  -4.745  0.00  0.00    -0.043 A 
ATOM      7  C   LIG d   1      10.431   3.025  -5.409  0.00  0.00    -0.013 A 
ATOM      8  C   LIG d   1      10.510   1.651  -5.252  0.00  0.00     0.162 A 
ATOM      9  H   LIG d   1       9.675   3.452  -6.052  0.00  0.00     0.066 H 
ATOM     10  C   LIG d   1      11.481   1.104  -4.419  0.00  0.00     0.159 A 
ATOM     11  C   LIG d   1      12.372   1.935  -3.760  0.00  0.00    -0.016 A 
ATOM     12  C   LIG d   1      12.288   3.305  -3.923  0.00  0.00    -0.055 A 
ATOM     13  H   LIG d   1      13.131   1.513  -3.118  0.00  0.00     0.066 H 
ATOM     14  H   LIG d   1      12.980   3.953  -3.405  0.00  0.00     0.062 H 
BRANCH   8  15
ATOM     15  O   LIG d   1       9.635   0.838  -5.905  0.00  0.00    -0.491 OA
BRANCH  15  16
ATOM     16  C   LIG d   1       8.420   1.431  -6.365  0.00  0.00     0.079 C 
ATOM     17  H   LIG d   1       8.617   2.013  -7.266  0.00  0.00     0.066 H 
ATOM     18  H   LIG d   1       7.696   0.647  -6.592  0.00  0.00     0.066 H 
ATOM     19  H   LIG d   1       8.017   2.084  -5.591  0.00  0.00     0.066 H 
ENDBRANCH  15  16
ENDBRANCH   8  15
BRANCH  10  20
ATOM     20  O   LIG d   1      11.559  -0.245  -4.257  0.00  0.00    -0.503 OA
ATOM     21  H   LIG d   1      12.307  -0.534  -3.718  0.00  0.00     0.292 HD
ENDBRANCH  10  20
ENDBRANCH   3   6
ENDBRANCH   1   3
BRANCH   1  22
ATOM     22  C   LIG d   1       9.132   6.074  -3.779  0.00  0.00     0.058 C 
ATOM     23  H   LIG d   1       8.465   6.929  -3.889  0.00  0.00     0.057 H 
ATOM     24  H   LIG d   1       8.564   5.214  -3.427  0.00  0.00     0.057 H 
BRANCH  22  25
ATOM     25  O   LIG d   1      10.155   6.388  -2.832  0.00  0.00    -0.348 OA
BRANCH  25  26
ATOM     26  C   LIG d   1       9.747   6.257  -1.469  0.00  0.00     0.188 C 
ATOM     27  H   LIG d   1       8.993   5.476  -1.390  0.00  0.00     0.094 H 
ATOM     28  O   LIG d   1       9.201   7.496  -1.013  0.00  0.00    -0.341 OA
ATOM     29  C   LIG d   1      10.106   8.600  -1.100  0.00  0.00     0.113 C 
ATOM     30  C   LIG d   1      11.330   8.323  -0.223  0.00  0.00     0.112 C 
ATOM     31  H   LIG d   1      10.422   8.730  -2.136  0.00  0.00     0.065 H 
ATOM     32  C   LIG d   1      11.989   7.017  -0.677  0.00  0.00     0.114 C 
ATOM     33  H   LIG d   1      12.041   9.144  -0.323  0.00  0.00     0.065 H 
ATOM     34  C   LIG d   1      10.958   5.887  -0.608  0.00  0.00     0.134 C 
ATOM     35  H   LIG d   1      12.344   7.124  -1.703  0.00  0.00     0.065 H 
ATOM     36  H   LIG d   1      11.403   4.965  -0.981  0.00  0.00     0.067 H 
BRANCH  29  37
ATOM     37  C   LIG d   1       9.408   9.872  -0.615  0.00  0.00     0.073 C 
ATOM     38  H   LIG d   1       9.332   9.852   0.473  0.00  0.00     0.058 H 
ATOM     39  H   LIG d   1       9.985  10.743  -0.924  0.00  0.00     0.058 H 
BRANCH  37  40
ATOM     40  O   LIG d   1       8.098   9.941  -1.182  0.00  0.00    -0.392 OA
ATOM     41  H   LIG d   1       8.050   9.639  -2.099  0.00  0.00     0.209 HD
ENDBRANCH  37  40
ENDBRANCH  29  37
BRANCH  30  42
ATOM     42  O   LIG d   1      10.925   8.205   1.142  0.00  0.00    -0.387 OA
ATOM     43  H   LIG d   1      10.895   9.046   1.617  0.00  0.00     0.210 HD
ENDBRANCH  30  42
BRANCH  32  44
ATOM     44  O   LIG d   1      13.091   6.712   0.180  0.00  0.00    -0.386 OA
ATOM     45  H   LIG d   1      13.920   7.137  -0.078  0.00  0.00     0.210 HD
ENDBRANCH  32  44
BRANCH  34  46
ATOM     46  O   LIG d   1      10.541   5.702   0.746  0.00  0.00    -0.384 OA
ATOM     47  H   LIG d   1       9.612   5.451   0.841  0.00  0.00     0.210 HD
ENDBRANCH  34  46
ENDBRANCH  25  26
ENDBRANCH  22  25
ENDBRANCH   1  22
BRANCH   1  48
ATOM     48  C   LIG d   1       9.709   6.960  -6.021  0.00  0.00     0.004 A 
ATOM     49  C   LIG d   1       9.734   6.807  -7.399  0.00  0.00     0.162 A 
ATOM     50  C   LIG d   1       9.672   7.924  -8.230  0.00  0.00     0.162 A 
ATOM     51  C   LIG d   1       9.597   9.191  -7.679  0.00  0.00    -0.009 A 
ATOM     52  C   LIG d   1       9.577   9.345  -6.291  0.00  0.00    -0.021 A 
ATOM     53  H   LIG d   1       9.553  10.058  -8.320  0.00  0.00     0.066 H 
ATOM     54  C   LIG d   1       9.634   8.221  -5.466  0.00  0.00    -0.047 A 
ATOM     55  H   LIG d   1       9.619   8.338  -4.392  0.00  0.00     0.063 H 
BRANCH  49  56
ATOM     56  O   LIG d   1       9.813   5.562  -7.943  0.00  0.00    -0.503 OA
ATOM     57  H   LIG d   1      10.573   5.049  -7.638  0.00  0.00     0.292 HD
ENDBRANCH  49  56
BRANCH  50  58
ATOM     58  O   LIG d   1       9.691   7.771  -9.580  0.00  0.00    -0.491 OA
BRANCH  58  59
ATOM     59  C   LIG d   1      10.841   8.262 -10.273  0.00  0.00     0.079 C 
ATOM     60  H   LIG d   1      11.371   7.429 -10.733  0.00  0.00     0.066 H 
ATOM     61  H   LIG d   1      10.528   8.964 -11.044  0.00  0.00     0.066 H 
ATOM     62  H   LIG d   1      11.501   8.767  -9.567  0.00  0.00     0.066 H 
ENDBRANCH  58  59
ENDBRANCH  50  58
BRANCH  52  63
ATOM     63  C   LIG d   1       9.497  10.695  -5.697  0.00  0.00    -0.056 C 
ATOM     64  C   LIG d   1       9.064  10.847  -4.453  0.00  0.00    -0.058 C 
ATOM     65  H   LIG d   1       8.770   9.984  -3.875  0.00  0.00     0.059 H 
ATOM     66  H   LIG d   1       9.792  11.559  -6.276  0.00  0.00     0.062 H 
BRANCH  64  67
ATOM     67  C   LIG d   1       8.982  12.224  -3.847  0.00  0.00     0.063 C 
ATOM     68  H   LIG d   1       9.858  12.399  -3.221  0.00  0.00     0.060 H 
ATOM     69  H   LIG d   1       8.949  12.970  -4.641  0.00  0.00     0.060 H 
BRANCH  67  70
ATOM     70  O   LIG d   1       7.800  12.324  -3.050  0.00  0.00    -0.391 OA
ATOM     71  H   LIG d   1       7.269  11.517  -3.032  0.00  0.00     0.210 HD
ENDBRANCH  67  70
ENDBRANCH  64  67
ENDBRANCH  52  63
ENDBRANCH   1  48
TORSDOF 20
ENDMDL
