MODEL 1
REMARK VINA RESULT:      -5.9      0.000      0.000
REMARK  3 active torsions:
REMARK  status: ('A' for Active; 'I' for Inactive)
REMARK    1  A    between atoms: C_1  and  C_2 
REMARK    2  A    between atoms: C_2  and  C_10 
REMARK    3  A    between atoms: C_6  and  C_8 
ROOT
ATOM      1  C   LIG d   1       6.060  -1.829  -5.039  0.00  0.00     0.194 A 
ATOM      2  C   LIG d   1       6.783  -3.079  -4.578  0.00  0.00     0.207 A 
ATOM      3  O   LIG d   1       7.769  -3.148  -3.873  0.00  0.00    -0.288 OA
ATOM      4  C   LIG d   1       6.053  -4.153  -5.153  0.00  0.00     0.029 A 
ATOM      5  C   LIG d   1       5.024  -3.658  -5.870  0.00  0.00     0.148 A 
ATOM      6  O   LIG d   1       4.976  -2.313  -5.841  0.00  0.00    -0.472 OA
ATOM      7  H   LIG d   1       6.287  -5.201  -5.036  0.00  0.00     0.069 H 
ENDROOT
BRANCH   1   8
ATOM      8  C   LIG d   1       6.993  -0.952  -5.875  0.00  0.00    -0.013 C 
ATOM      9  H   LIG d   1       6.613  -0.886  -6.895  0.00  0.00     0.028 H 
ATOM     10  H   LIG d   1       7.042   0.046  -5.440  0.00  0.00     0.028 H 
ATOM     11  H   LIG d   1       7.991  -1.392  -5.888  0.00  0.00     0.028 H 
ENDBRANCH   1   8
BRANCH   1  12
ATOM     12  C   LIG d   1       5.536  -1.058  -3.855  0.00  0.00     0.003 A 
ATOM     13  C   LIG d   1       4.755  -1.692  -2.908  0.00  0.00    -0.054 A 
ATOM     14  C   LIG d   1       4.273  -0.985  -1.822  0.00  0.00    -0.061 A 
ATOM     15  H   LIG d   1       4.521  -2.741  -3.015  0.00  0.00     0.062 H 
ATOM     16  C   LIG d   1       4.572   0.359  -1.685  0.00  0.00    -0.062 A 
ATOM     17  H   LIG d   1       3.662  -1.480  -1.083  0.00  0.00     0.062 H 
ATOM     18  C   LIG d   1       5.354   0.992  -2.633  0.00  0.00    -0.061 A 
ATOM     19  H   LIG d   1       4.195   0.911  -0.837  0.00  0.00     0.062 H 
ATOM     20  C   LIG d   1       5.839   0.284  -3.715  0.00  0.00    -0.054 A 
ATOM     21  H   LIG d   1       5.588   2.041  -2.525  0.00  0.00     0.062 H 
ATOM     22  H   LIG d   1       6.452   0.778  -4.454  0.00  0.00     0.062 H 
ENDBRANCH   1  12
BRANCH   5  23
ATOM     23  C   LIG d   1       4.053  -4.501  -6.607  0.00  0.00     0.106 C 
ATOM     24  O   LIG d   1       3.488  -5.414  -6.039  0.00  0.00    -0.542 OA
ATOM     25  O   LIG d   1       3.796  -4.254  -7.906  0.00  0.00    -0.542 OA
ENDBRANCH   5  23
TORSDOF 3
ENDMDL
MODEL 2
REMARK VINA RESULT:      -5.6      3.139      4.118
REMARK  3 active torsions:
REMARK  status: ('A' for Active; 'I' for Inactive)
REMARK    1  A    between atoms: C_1  and  C_2 
REMARK    2  A    between atoms: C_2  and  C_10 
REMARK    3  A    between atoms: C_6  and  C_8 
ROOT
ATOM      1  C   LIG d   1       4.888  -0.913  -6.245  0.00  0.00     0.194 A 
ATOM      2  C   LIG d   1       4.247  -1.869  -7.231  0.00  0.00     0.207 A 
ATOM      3  O   LIG d   1       4.289  -3.082  -7.222  0.00  0.00    -0.288 OA
ATOM      4  C   LIG d   1       3.584  -1.032  -8.168  0.00  0.00     0.029 A 
ATOM      5  C   LIG d   1       3.777   0.258  -7.827  0.00  0.00     0.148 A 
ATOM      6  O   LIG d   1       4.527   0.390  -6.718  0.00  0.00    -0.472 OA
ATOM      7  H   LIG d   1       3.016  -1.376  -9.020  0.00  0.00     0.069 H 
ENDROOT
BRANCH   1   8
ATOM      8  C   LIG d   1       6.409  -1.082  -6.252  0.00  0.00    -0.013 C 
ATOM      9  H   LIG d   1       6.783  -0.965  -7.269  0.00  0.00     0.028 H 
ATOM     10  H   LIG d   1       6.862  -0.328  -5.609  0.00  0.00     0.028 H 
ATOM     11  H   LIG d   1       6.666  -2.076  -5.883  0.00  0.00     0.028 H 
ENDBRANCH   1   8
BRANCH   1  12
ATOM     12  C   LIG d   1       4.341  -1.140  -4.859  0.00  0.00     0.003 A 
ATOM     13  C   LIG d   1       4.884  -2.125  -4.055  0.00  0.00    -0.054 A 
ATOM     14  C   LIG d   1       4.382  -2.333  -2.783  0.00  0.00    -0.061 A 
ATOM     15  H   LIG d   1       5.699  -2.732  -4.420  0.00  0.00     0.062 H 
ATOM     16  C   LIG d   1       3.338  -1.556  -2.316  0.00  0.00    -0.062 A 
ATOM     17  H   LIG d   1       4.805  -3.102  -2.156  0.00  0.00     0.062 H 
ATOM     18  C   LIG d   1       2.797  -0.571  -3.121  0.00  0.00    -0.061 A 
ATOM     19  H   LIG d   1       2.946  -1.719  -1.324  0.00  0.00     0.062 H 
ATOM     20  C   LIG d   1       3.301  -0.360  -4.390  0.00  0.00    -0.054 A 
ATOM     21  H   LIG d   1       1.982   0.036  -2.756  0.00  0.00     0.062 H 
ATOM     22  H   LIG d   1       2.881   0.412  -5.018  0.00  0.00     0.062 H 
ENDBRANCH   1  12
BRANCH   5  23
ATOM     23  C   LIG d   1       3.224   1.402  -8.589  0.00  0.00     0.106 C 
ATOM     24  O   LIG d   1       3.159   1.350  -9.801  0.00  0.00    -0.542 OA
ATOM     25  O   LIG d   1       2.793   2.500  -7.938  0.00  0.00    -0.542 OA
ENDBRANCH   5  23
TORSDOF 3
ENDMDL
MODEL 3
REMARK VINA RESULT:      -5.4      1.935      2.577
REMARK  3 active torsions:
REMARK  status: ('A' for Active; 'I' for Inactive)
REMARK    1  A    between atoms: C_1  and  C_2 
REMARK    2  A    between atoms: C_2  and  C_10 
REMARK    3  A    between atoms: C_6  and  C_8 
ROOT
ATOM      1  C   LIG d   1       5.706  -1.692  -4.389  0.00  0.00     0.194 A 
ATOM      2  C   LIG d   1       4.816  -2.887  -4.664  0.00  0.00     0.207 A 
ATOM      3  O   LIG d   1       4.235  -3.580  -3.854  0.00  0.00    -0.288 OA
ATOM      4  C   LIG d   1       4.809  -3.016  -6.078  0.00  0.00     0.029 A 
ATOM      5  C   LIG d   1       5.579  -2.050  -6.617  0.00  0.00     0.148 A 
ATOM      6  O   LIG d   1       6.128  -1.249  -5.685  0.00  0.00    -0.472 OA
ATOM      7  H   LIG d   1       4.272  -3.771  -6.634  0.00  0.00     0.069 H 
ENDROOT
BRANCH   1   8
ATOM      8  C   LIG d   1       6.914  -2.111  -3.548  0.00  0.00    -0.013 C 
ATOM      9  H   LIG d   1       7.625  -1.286  -3.498  0.00  0.00     0.028 H 
ATOM     10  H   LIG d   1       6.586  -2.369  -2.542  0.00  0.00     0.028 H 
ATOM     11  H   LIG d   1       7.395  -2.976  -4.008  0.00  0.00     0.028 H 
ENDBRANCH   1   8
BRANCH   1  12
ATOM     12  C   LIG d   1       4.931  -0.606  -3.688  0.00  0.00     0.003 A 
ATOM     13  C   LIG d   1       3.833  -0.034  -4.304  0.00  0.00    -0.054 A 
ATOM     14  C   LIG d   1       3.122   0.962  -3.662  0.00  0.00    -0.061 A 
ATOM     15  H   LIG d   1       3.532  -0.366  -5.286  0.00  0.00     0.062 H 
ATOM     16  C   LIG d   1       3.509   1.387  -2.404  0.00  0.00    -0.062 A 
ATOM     17  H   LIG d   1       2.265   1.409  -4.142  0.00  0.00     0.062 H 
ATOM     18  C   LIG d   1       4.606   0.814  -1.789  0.00  0.00    -0.061 A 
ATOM     19  H   LIG d   1       2.953   2.166  -1.903  0.00  0.00     0.062 H 
ATOM     20  C   LIG d   1       5.315  -0.185  -2.429  0.00  0.00    -0.054 A 
ATOM     21  H   LIG d   1       4.908   1.145  -0.806  0.00  0.00     0.062 H 
ATOM     22  H   LIG d   1       6.170  -0.635  -1.947  0.00  0.00     0.062 H 
ENDBRANCH   1  12
BRANCH   5  23
ATOM     23  C   LIG d   1       5.797  -1.888  -8.074  0.00  0.00     0.106 C 
ATOM     24  O   LIG d   1       4.890  -1.505  -8.784  0.00  0.00    -0.542 OA
ATOM     25  O   LIG d   1       7.002  -2.165  -8.609  0.00  0.00    -0.542 OA
ENDBRANCH   5  23
TORSDOF 3
ENDMDL
MODEL 4
REMARK VINA RESULT:      -5.3      2.844      5.010
REMARK  3 active torsions:
REMARK  status: ('A' for Active; 'I' for Inactive)
REMARK    1  A    between atoms: C_1  and  C_2 
REMARK    2  A    between atoms: C_2  and  C_10 
REMARK    3  A    between atoms: C_6  and  C_8 
ROOT
ATOM      1  C   LIG d   1       6.815  -0.796  -3.993  0.00  0.00     0.194 A 
ATOM      2  C   LIG d   1       6.879  -0.524  -5.482  0.00  0.00     0.207 A 
ATOM      3  O   LIG d   1       6.391  -1.182  -6.377  0.00  0.00    -0.288 OA
ATOM      4  C   LIG d   1       7.635   0.673  -5.599  0.00  0.00     0.029 A 
ATOM      5  C   LIG d   1       7.995   1.094  -4.370  0.00  0.00     0.148 A 
ATOM      6  O   LIG d   1       7.548   0.281  -3.396  0.00  0.00    -0.472 OA
ATOM      7  H   LIG d   1       7.883   1.167  -6.527  0.00  0.00     0.069 H 
ENDROOT
BRANCH   1   8
ATOM      8  C   LIG d   1       7.476  -2.137  -3.667  0.00  0.00    -0.013 C 
ATOM      9  H   LIG d   1       7.119  -2.896  -4.363  0.00  0.00     0.028 H 
ATOM     10  H   LIG d   1       8.557  -2.041  -3.757  0.00  0.00     0.028 H 
ATOM     11  H   LIG d   1       7.220  -2.431  -2.648  0.00  0.00     0.028 H 
ENDBRANCH   1   8
BRANCH   1  12
ATOM     12  C   LIG d   1       5.385  -0.787  -3.516  0.00  0.00     0.003 A 
ATOM     13  C   LIG d   1       4.811  -1.947  -3.031  0.00  0.00    -0.054 A 
ATOM     14  C   LIG d   1       3.499  -1.939  -2.594  0.00  0.00    -0.061 A 
ATOM     15  H   LIG d   1       5.386  -2.860  -2.995  0.00  0.00     0.062 H 
ATOM     16  C   LIG d   1       2.762  -0.770  -2.641  0.00  0.00    -0.062 A 
ATOM     17  H   LIG d   1       3.050  -2.845  -2.217  0.00  0.00     0.062 H 
ATOM     18  C   LIG d   1       3.337   0.390  -3.125  0.00  0.00    -0.061 A 
ATOM     19  H   LIG d   1       1.738  -0.765  -2.300  0.00  0.00     0.062 H 
ATOM     20  C   LIG d   1       4.649   0.383  -3.558  0.00  0.00    -0.054 A 
ATOM     21  H   LIG d   1       2.762   1.303  -3.161  0.00  0.00     0.062 H 
ATOM     22  H   LIG d   1       5.100   1.290  -3.932  0.00  0.00     0.062 H 
ENDBRANCH   1  12
BRANCH   5  23
ATOM     23  C   LIG d   1       8.795   2.316  -4.120  0.00  0.00     0.106 C 
ATOM     24  O   LIG d   1       8.589   3.320  -4.771  0.00  0.00    -0.542 OA
ATOM     25  O   LIG d   1       9.750   2.313  -3.170  0.00  0.00    -0.542 OA
ENDBRANCH   5  23
TORSDOF 3
ENDMDL
MODEL 5
REMARK VINA RESULT:      -5.3      2.456      5.163
REMARK  3 active torsions:
REMARK  status: ('A' for Active; 'I' for Inactive)
REMARK    1  A    between atoms: C_1  and  C_2 
REMARK    2  A    between atoms: C_2  and  C_10 
REMARK    3  A    between atoms: C_6  and  C_8 
ROOT
ATOM      1  C   LIG d   1       5.523  -2.132  -4.521  0.00  0.00     0.194 A 
ATOM      2  C   LIG d   1       4.570  -2.412  -3.377  0.00  0.00     0.207 A 
ATOM      3  O   LIG d   1       3.962  -3.439  -3.153  0.00  0.00    -0.288 OA
ATOM      4  C   LIG d   1       4.544  -1.208  -2.624  0.00  0.00     0.029 A 
ATOM      5  C   LIG d   1       5.357  -0.303  -3.204  0.00  0.00     0.148 A 
ATOM      6  O   LIG d   1       5.954  -0.782  -4.311  0.00  0.00    -0.472 OA
ATOM      7  H   LIG d   1       3.963  -1.044  -1.728  0.00  0.00     0.069 H 
ENDROOT
BRANCH   1   8
ATOM      8  C   LIG d   1       4.797  -2.258  -5.862  0.00  0.00    -0.013 C 
ATOM      9  H   LIG d   1       5.448  -1.904  -6.662  0.00  0.00     0.028 H 
ATOM     10  H   LIG d   1       4.537  -3.301  -6.040  0.00  0.00     0.028 H 
ATOM     11  H   LIG d   1       3.888  -1.655  -5.841  0.00  0.00     0.028 H 
ENDBRANCH   1   8
BRANCH   1  12
ATOM     12  C   LIG d   1       6.698  -3.074  -4.471  0.00  0.00     0.003 A 
ATOM     13  C   LIG d   1       7.789  -2.775  -3.677  0.00  0.00    -0.054 A 
ATOM     14  C   LIG d   1       8.868  -3.638  -3.631  0.00  0.00    -0.061 A 
ATOM     15  H   LIG d   1       7.800  -1.866  -3.094  0.00  0.00     0.062 H 
ATOM     16  C   LIG d   1       8.855  -4.801  -4.379  0.00  0.00    -0.062 A 
ATOM     17  H   LIG d   1       9.721  -3.404  -3.012  0.00  0.00     0.062 H 
ATOM     18  C   LIG d   1       7.763  -5.100  -5.172  0.00  0.00    -0.061 A 
ATOM     19  H   LIG d   1       9.698  -5.475  -4.343  0.00  0.00     0.062 H 
ATOM     20  C   LIG d   1       6.683  -4.239  -5.215  0.00  0.00    -0.054 A 
ATOM     21  H   LIG d   1       7.753  -6.009  -5.755  0.00  0.00     0.062 H 
ATOM     22  H   LIG d   1       5.828  -4.474  -5.831  0.00  0.00     0.062 H 
ENDBRANCH   1  12
BRANCH   5  23
ATOM     23  C   LIG d   1       5.571   1.067  -2.680  0.00  0.00     0.106 C 
ATOM     24  O   LIG d   1       4.965   1.442  -1.697  0.00  0.00    -0.542 OA
ATOM     25  O   LIG d   1       6.437   1.895  -3.295  0.00  0.00    -0.542 OA
ENDBRANCH   5  23
TORSDOF 3
ENDMDL
MODEL 6
REMARK VINA RESULT:      -5.0      1.851      3.816
REMARK  3 active torsions:
REMARK  status: ('A' for Active; 'I' for Inactive)
REMARK    1  A    between atoms: C_1  and  C_2 
REMARK    2  A    between atoms: C_2  and  C_10 
REMARK    3  A    between atoms: C_6  and  C_8 
ROOT
ATOM      1  C   LIG d   1       6.169  -2.311  -4.396  0.00  0.00     0.194 A 
ATOM      2  C   LIG d   1       6.535  -1.759  -5.758  0.00  0.00     0.207 A 
ATOM      3  O   LIG d   1       5.802  -1.216  -6.559  0.00  0.00    -0.288 OA
ATOM      4  C   LIG d   1       7.926  -2.015  -5.892  0.00  0.00     0.029 A 
ATOM      5  C   LIG d   1       8.373  -2.636  -4.782  0.00  0.00     0.148 A 
ATOM      6  O   LIG d   1       7.397  -2.836  -3.876  0.00  0.00    -0.472 OA
ATOM      7  H   LIG d   1       8.530  -1.754  -6.748  0.00  0.00     0.069 H 
ENDROOT
BRANCH   1   8
ATOM      8  C   LIG d   1       5.129  -3.424  -4.534  0.00  0.00    -0.013 C 
ATOM      9  H   LIG d   1       5.559  -4.367  -4.197  0.00  0.00     0.028 H 
ATOM     10  H   LIG d   1       4.256  -3.185  -3.927  0.00  0.00     0.028 H 
ATOM     11  H   LIG d   1       4.831  -3.515  -5.579  0.00  0.00     0.028 H 
ENDBRANCH   1   8
BRANCH   1  12
ATOM     12  C   LIG d   1       5.647  -1.214  -3.504  0.00  0.00     0.003 A 
ATOM     13  C   LIG d   1       6.132   0.074  -3.638  0.00  0.00    -0.054 A 
ATOM     14  C   LIG d   1       5.654   1.081  -2.820  0.00  0.00    -0.061 A 
ATOM     15  H   LIG d   1       6.885   0.293  -4.380  0.00  0.00     0.062 H 
ATOM     16  C   LIG d   1       4.690   0.800  -1.869  0.00  0.00    -0.062 A 
ATOM     17  H   LIG d   1       6.033   2.086  -2.924  0.00  0.00     0.062 H 
ATOM     18  C   LIG d   1       4.205  -0.488  -1.737  0.00  0.00    -0.061 A 
ATOM     19  H   LIG d   1       4.317   1.587  -1.230  0.00  0.00     0.062 H 
ATOM     20  C   LIG d   1       4.680  -1.493  -2.557  0.00  0.00    -0.054 A 
ATOM     21  H   LIG d   1       3.452  -0.707  -0.994  0.00  0.00     0.062 H 
ATOM     22  H   LIG d   1       4.299  -2.499  -2.456  0.00  0.00     0.062 H 
ENDBRANCH   1  12
BRANCH   5  23
ATOM     23  C   LIG d   1       9.781  -3.052  -4.581  0.00  0.00     0.106 C 
ATOM     24  O   LIG d   1      10.104  -3.630  -3.563  0.00  0.00    -0.542 OA
ATOM     25  O   LIG d   1      10.702  -2.791  -5.529  0.00  0.00    -0.542 OA
ENDBRANCH   5  23
TORSDOF 3
ENDMDL
MODEL 7
REMARK VINA RESULT:      -5.0      2.326      4.077
REMARK  3 active torsions:
REMARK  status: ('A' for Active; 'I' for Inactive)
REMARK    1  A    between atoms: C_1  and  C_2 
REMARK    2  A    between atoms: C_2  and  C_10 
REMARK    3  A    between atoms: C_6  and  C_8 
ROOT
ATOM      1  C   LIG d   1       5.176  -1.793  -3.881  0.00  0.00     0.194 A 
ATOM      2  C   LIG d   1       5.213  -3.226  -4.371  0.00  0.00     0.207 A 
ATOM      3  O   LIG d   1       4.288  -4.010  -4.438  0.00  0.00    -0.288 OA
ATOM      4  C   LIG d   1       6.566  -3.451  -4.735  0.00  0.00     0.029 A 
ATOM      5  C   LIG d   1       7.280  -2.330  -4.510  0.00  0.00     0.148 A 
ATOM      6  O   LIG d   1       6.527  -1.331  -4.014  0.00  0.00    -0.472 OA
ATOM      7  H   LIG d   1       6.963  -4.376  -5.130  0.00  0.00     0.069 H 
ENDROOT
BRANCH   1   8
ATOM      8  C   LIG d   1       4.735  -1.741  -2.417  0.00  0.00    -0.013 C 
ATOM      9  H   LIG d   1       3.872  -2.390  -2.275  0.00  0.00     0.028 H 
ATOM     10  H   LIG d   1       5.552  -2.076  -1.779  0.00  0.00     0.028 H 
ATOM     11  H   LIG d   1       4.466  -0.717  -2.155  0.00  0.00     0.028 H 
ENDBRANCH   1   8
BRANCH   1  12
ATOM     12  C   LIG d   1       4.252  -0.966  -4.737  0.00  0.00     0.003 A 
ATOM     13  C   LIG d   1       4.452  -0.897  -6.103  0.00  0.00    -0.054 A 
ATOM     14  C   LIG d   1       3.605  -0.138  -6.889  0.00  0.00    -0.061 A 
ATOM     15  H   LIG d   1       5.272  -1.434  -6.556  0.00  0.00     0.062 H 
ATOM     16  C   LIG d   1       2.555   0.551  -6.308  0.00  0.00    -0.062 A 
ATOM     17  H   LIG d   1       3.762  -0.083  -7.955  0.00  0.00     0.062 H 
ATOM     18  C   LIG d   1       2.355   0.479  -4.942  0.00  0.00    -0.061 A 
ATOM     19  H   LIG d   1       1.894   1.143  -6.922  0.00  0.00     0.062 H 
ATOM     20  C   LIG d   1       3.200  -0.282  -4.157  0.00  0.00    -0.054 A 
ATOM     21  H   LIG d   1       1.535   1.017  -4.489  0.00  0.00     0.062 H 
ATOM     22  H   LIG d   1       3.041  -0.341  -3.091  0.00  0.00     0.062 H 
ENDBRANCH   1  12
BRANCH   5  23
ATOM     23  C   LIG d   1       8.733  -2.209  -4.780  0.00  0.00     0.106 C 
ATOM     24  O   LIG d   1       9.212  -1.128  -5.053  0.00  0.00    -0.542 OA
ATOM     25  O   LIG d   1       9.521  -3.300  -4.721  0.00  0.00    -0.542 OA
ENDBRANCH   5  23
TORSDOF 3
ENDMDL
MODEL 8
REMARK VINA RESULT:      -4.9      2.093      4.236
REMARK  3 active torsions:
REMARK  status: ('A' for Active; 'I' for Inactive)
REMARK    1  A    between atoms: C_1  and  C_2 
REMARK    2  A    between atoms: C_2  and  C_10 
REMARK    3  A    between atoms: C_6  and  C_8 
ROOT
ATOM      1  C   LIG d   1       6.822  -1.555  -4.594  0.00  0.00     0.194 A 
ATOM      2  C   LIG d   1       6.418  -1.173  -6.004  0.00  0.00     0.207 A 
ATOM      3  O   LIG d   1       5.338  -1.333  -6.534  0.00  0.00    -0.288 OA
ATOM      4  C   LIG d   1       7.581  -0.586  -6.568  0.00  0.00     0.029 A 
ATOM      5  C   LIG d   1       8.572  -0.594  -5.654  0.00  0.00     0.148 A 
ATOM      6  O   LIG d   1       8.191  -1.146  -4.487  0.00  0.00    -0.472 OA
ATOM      7  H   LIG d   1       7.660  -0.194  -7.572  0.00  0.00     0.069 H 
ENDROOT
BRANCH   1   8
ATOM      8  C   LIG d   1       6.699  -3.067  -4.396  0.00  0.00    -0.013 C 
ATOM      9  H   LIG d   1       5.884  -3.278  -3.704  0.00  0.00     0.028 H 
ATOM     10  H   LIG d   1       6.496  -3.544  -5.354  0.00  0.00     0.028 H 
ATOM     11  H   LIG d   1       7.632  -3.456  -3.986  0.00  0.00     0.028 H 
ENDBRANCH   1   8
BRANCH   1  12
ATOM     12  C   LIG d   1       5.974  -0.823  -3.586  0.00  0.00     0.003 A 
ATOM     13  C   LIG d   1       5.100  -1.526  -2.778  0.00  0.00    -0.054 A 
ATOM     14  C   LIG d   1       4.322  -0.856  -1.853  0.00  0.00    -0.061 A 
ATOM     15  H   LIG d   1       5.026  -2.600  -2.869  0.00  0.00     0.062 H 
ATOM     16  C   LIG d   1       4.417   0.519  -1.737  0.00  0.00    -0.062 A 
ATOM     17  H   LIG d   1       3.639  -1.404  -1.223  0.00  0.00     0.062 H 
ATOM     18  C   LIG d   1       5.292   1.222  -2.545  0.00  0.00    -0.061 A 
ATOM     19  H   LIG d   1       3.809   1.043  -1.015  0.00  0.00     0.062 H 
ATOM     20  C   LIG d   1       6.073   0.551  -3.466  0.00  0.00    -0.054 A 
ATOM     21  H   LIG d   1       5.366   2.295  -2.453  0.00  0.00     0.062 H 
ATOM     22  H   LIG d   1       6.758   1.099  -4.095  0.00  0.00     0.062 H 
ENDBRANCH   1  12
BRANCH   5  23
ATOM     23  C   LIG d   1       9.931  -0.057  -5.906  0.00  0.00     0.106 C 
ATOM     24  O   LIG d   1      10.364   0.845  -5.219  0.00  0.00    -0.542 OA
ATOM     25  O   LIG d   1      10.684  -0.571  -6.897  0.00  0.00    -0.542 OA
ENDBRANCH   5  23
TORSDOF 3
ENDMDL
MODEL 9
REMARK VINA RESULT:      -4.9      1.943      2.691
REMARK  3 active torsions:
REMARK  status: ('A' for Active; 'I' for Inactive)
REMARK    1  A    between atoms: C_1  and  C_2 
REMARK    2  A    between atoms: C_2  and  C_10 
REMARK    3  A    between atoms: C_6  and  C_8 
ROOT
ATOM      1  C   LIG d   1       4.405  -0.672  -5.851  0.00  0.00     0.194 A 
ATOM      2  C   LIG d   1       5.701  -0.362  -6.572  0.00  0.00     0.207 A 
ATOM      3  O   LIG d   1       6.159   0.731  -6.837  0.00  0.00    -0.288 OA
ATOM      4  C   LIG d   1       6.263  -1.631  -6.870  0.00  0.00     0.029 A 
ATOM      5  C   LIG d   1       5.447  -2.599  -6.407  0.00  0.00     0.148 A 
ATOM      6  O   LIG d   1       4.350  -2.103  -5.805  0.00  0.00    -0.472 OA
ATOM      7  H   LIG d   1       7.198  -1.796  -7.387  0.00  0.00     0.069 H 
ENDROOT
BRANCH   1   8
ATOM      8  C   LIG d   1       3.214  -0.117  -6.633  0.00  0.00    -0.013 C 
ATOM      9  H   LIG d   1       3.115  -0.655  -7.576  0.00  0.00     0.028 H 
ATOM     10  H   LIG d   1       2.304  -0.240  -6.047  0.00  0.00     0.028 H 
ATOM     11  H   LIG d   1       3.374   0.943  -6.836  0.00  0.00     0.028 H 
ENDBRANCH   1   8
BRANCH   1  12
ATOM     12  C   LIG d   1       4.429  -0.102  -4.456  0.00  0.00     0.003 A 
ATOM     13  C   LIG d   1       5.623  -0.010  -3.767  0.00  0.00    -0.054 A 
ATOM     14  C   LIG d   1       5.646   0.513  -2.488  0.00  0.00    -0.061 A 
ATOM     15  H   LIG d   1       6.540  -0.347  -4.228  0.00  0.00     0.062 H 
ATOM     16  C   LIG d   1       4.472   0.944  -1.897  0.00  0.00    -0.062 A 
ATOM     17  H   LIG d   1       6.578   0.584  -1.949  0.00  0.00     0.062 H 
ATOM     18  C   LIG d   1       3.277   0.853  -2.587  0.00  0.00    -0.061 A 
ATOM     19  H   LIG d   1       4.489   1.352  -0.897  0.00  0.00     0.062 H 
ATOM     20  C   LIG d   1       3.256   0.334  -3.867  0.00  0.00    -0.054 A 
ATOM     21  H   LIG d   1       2.361   1.190  -2.126  0.00  0.00     0.062 H 
ATOM     22  H   LIG d   1       2.324   0.266  -4.408  0.00  0.00     0.062 H 
ENDBRANCH   1  12
BRANCH   5  23
ATOM     23  C   LIG d   1       5.726  -4.048  -6.545  0.00  0.00     0.106 C 
ATOM     24  O   LIG d   1       6.164  -4.485  -7.591  0.00  0.00    -0.542 OA
ATOM     25  O   LIG d   1       5.495  -4.880  -5.511  0.00  0.00    -0.542 OA
ENDBRANCH   5  23
TORSDOF 3
ENDMDL
MODEL 10
REMARK VINA RESULT:      -4.8      3.626      5.184
REMARK  3 active torsions:
REMARK  status: ('A' for Active; 'I' for Inactive)
REMARK    1  A    between atoms: C_1  and  C_2 
REMARK    2  A    between atoms: C_2  and  C_10 
REMARK    3  A    between atoms: C_6  and  C_8 
ROOT
ATOM      1  C   LIG d   1       4.581  -0.678  -6.687  0.00  0.00     0.194 A 
ATOM      2  C   LIG d   1       5.904  -0.454  -5.984  0.00  0.00     0.207 A 
ATOM      3  O   LIG d   1       7.007  -0.382  -6.486  0.00  0.00    -0.288 OA
ATOM      4  C   LIG d   1       5.571  -0.346  -4.608  0.00  0.00     0.029 A 
ATOM      5  C   LIG d   1       4.237  -0.482  -4.461  0.00  0.00     0.148 A 
ATOM      6  O   LIG d   1       3.608  -0.677  -5.635  0.00  0.00    -0.472 OA
ATOM      7  H   LIG d   1       6.274  -0.182  -3.805  0.00  0.00     0.069 H 
ENDROOT
BRANCH   1   8
ATOM      8  C   LIG d   1       4.583  -2.026  -7.411  0.00  0.00    -0.013 C 
ATOM      9  H   LIG d   1       5.429  -2.068  -8.097  0.00  0.00     0.028 H 
ATOM     10  H   LIG d   1       4.666  -2.831  -6.681  0.00  0.00     0.028 H 
ATOM     11  H   LIG d   1       3.655  -2.138  -7.973  0.00  0.00     0.028 H 
ENDBRANCH   1   8
BRANCH   1  12
ATOM     12  C   LIG d   1       4.304   0.439  -7.659  0.00  0.00     0.003 A 
ATOM     13  C   LIG d   1       3.047   1.011  -7.716  0.00  0.00    -0.054 A 
ATOM     14  C   LIG d   1       2.793   2.036  -8.608  0.00  0.00    -0.061 A 
ATOM     15  H   LIG d   1       2.263   0.657  -7.063  0.00  0.00     0.062 H 
ATOM     16  C   LIG d   1       3.797   2.489  -9.444  0.00  0.00    -0.062 A 
ATOM     17  H   LIG d   1       1.811   2.482  -8.653  0.00  0.00     0.062 H 
ATOM     18  C   LIG d   1       5.054   1.918  -9.387  0.00  0.00    -0.061 A 
ATOM     19  H   LIG d   1       3.598   3.289 -10.141  0.00  0.00     0.062 H 
ATOM     20  C   LIG d   1       5.309   0.896  -8.492  0.00  0.00    -0.054 A 
ATOM     21  H   LIG d   1       5.838   2.272 -10.039  0.00  0.00     0.062 H 
ATOM     22  H   LIG d   1       6.292   0.452  -8.444  0.00  0.00     0.062 H 
ENDBRANCH   1  12
BRANCH   5  23
ATOM     23  C   LIG d   1       3.542  -0.422  -3.154  0.00  0.00     0.106 C 
ATOM     24  O   LIG d   1       2.376  -0.749  -3.071  0.00  0.00    -0.542 OA
ATOM     25  O   LIG d   1       4.205  -0.006  -2.057  0.00  0.00    -0.542 OA
ENDBRANCH   5  23
TORSDOF 3
ENDMDL
