MODEL 1
REMARK VINA RESULT:      -6.1      0.000      0.000
REMARK  6 active torsions:
REMARK  status: ('A' for Active; 'I' for Inactive)
REMARK    1  A    between atoms: C_1  and  C_2 
REMARK    2  A    between atoms: C_2  and  C_3 
REMARK    3  A    between atoms: C_3  and  N_4 
REMARK    4  A    between atoms: C_5  and  C_7 
REMARK    5  A    between atoms: C_7  and  C_8 
REMARK    6  A    between atoms: C_7  and  C_12 
ROOT
ATOM      1  N   LIG d   1       3.937  -0.110  -5.896  0.00  0.00    -0.302 NA
ATOM      2  C   LIG d   1       3.417   0.045  -4.725  0.00  0.00    -0.007 C 
ATOM      3  O   LIG d   1       2.105   0.333  -4.603  0.00  0.00    -0.862 OA
ENDROOT
BRANCH   2   4
ATOM      4  C   LIG d   1       4.275  -0.097  -3.495  0.00  0.00     0.242 C 
ATOM      5 BR   LIG d   1       6.167  -0.187  -4.022  0.00  0.00    -0.060 Br
BRANCH   4   6
ATOM      6  C   LIG d   1       4.058   1.108  -2.578  0.00  0.00     0.417 C 
ATOM      7  F   LIG d   1       5.106   1.188  -1.656  0.00  0.00    -0.168 F 
ATOM      8  F   LIG d   1       4.021   2.277  -3.346  0.00  0.00    -0.168 F 
ATOM      9  F   LIG d   1       2.846   0.961  -1.895  0.00  0.00    -0.168 F 
ENDBRANCH   4   6
BRANCH   4  10
ATOM     10  C   LIG d   1       3.891  -1.379  -2.751  0.00  0.00     0.417 C 
ATOM     11  F   LIG d   1       2.500  -1.437  -2.612  0.00  0.00    -0.168 F 
ATOM     12  F   LIG d   1       4.334  -2.490  -3.478  0.00  0.00    -0.168 F 
ATOM     13  F   LIG d   1       4.487  -1.381  -1.486  0.00  0.00    -0.168 F 
ENDBRANCH   4  10
ENDBRANCH   2   4
BRANCH   1  14
ATOM     14  C   LIG d   1       3.103   0.028  -7.093  0.00  0.00     0.038 C 
ATOM     15  H   LIG d   1       2.156   0.496  -6.823  0.00  0.00     0.051 H 
ATOM     16  H   LIG d   1       2.914  -0.957  -7.519  0.00  0.00     0.051 H 
BRANCH  14  17
ATOM     17  C   LIG d   1       3.827   0.899  -8.121  0.00  0.00    -0.036 C 
ATOM     18  H   LIG d   1       4.071   0.299  -8.998  0.00  0.00     0.028 H 
ATOM     19  H   LIG d   1       4.745   1.291  -7.684  0.00  0.00     0.028 H 
BRANCH  17  20
ATOM     20  C   LIG d   1       2.922   2.061  -8.533  0.00  0.00    -0.064 C 
ATOM     21  H   LIG d   1       3.520   2.966  -8.645  0.00  0.00     0.023 H 
ATOM     22  H   LIG d   1       2.437   1.827  -9.481  0.00  0.00     0.023 H 
ATOM     23  H   LIG d   1       2.164   2.220  -7.766  0.00  0.00     0.023 H 
ENDBRANCH  17  20
ENDBRANCH  14  17
ENDBRANCH   1  14
TORSDOF 6
ENDMDL
MODEL 2
REMARK VINA RESULT:      -6.0      1.718      2.996
REMARK  6 active torsions:
REMARK  status: ('A' for Active; 'I' for Inactive)
REMARK    1  A    between atoms: C_1  and  C_2 
REMARK    2  A    between atoms: C_2  and  C_3 
REMARK    3  A    between atoms: C_3  and  N_4 
REMARK    4  A    between atoms: C_5  and  C_7 
REMARK    5  A    between atoms: C_7  and  C_8 
REMARK    6  A    between atoms: C_7  and  C_12 
ROOT
ATOM      1  N   LIG d   1       3.784  -0.143  -5.734  0.00  0.00    -0.302 NA
ATOM      2  C   LIG d   1       4.714  -0.042  -4.845  0.00  0.00    -0.007 C 
ATOM      3  O   LIG d   1       5.989   0.179  -5.225  0.00  0.00    -0.862 OA
ENDROOT
BRANCH   2   4
ATOM      4  C   LIG d   1       4.374  -0.170  -3.382  0.00  0.00     0.242 C 
ATOM      5 BR   LIG d   1       2.473  -0.634  -3.189  0.00  0.00    -0.060 Br
BRANCH   4   6
ATOM      6  C   LIG d   1       5.234  -1.268  -2.753  0.00  0.00     0.417 C 
ATOM      7  F   LIG d   1       4.692  -1.635  -1.517  0.00  0.00    -0.168 F 
ATOM      8  F   LIG d   1       5.260  -2.382  -3.599  0.00  0.00    -0.168 F 
ATOM      9  F   LIG d   1       6.536  -0.792  -2.569  0.00  0.00    -0.168 F 
ENDBRANCH   4   6
BRANCH   4  10
ATOM     10  C   LIG d   1       4.650   1.159  -2.677  0.00  0.00     0.417 C 
ATOM     11  F   LIG d   1       4.551   0.982  -1.292  0.00  0.00    -0.168 F 
ATOM     12  F   LIG d   1       5.938   1.600  -3.000  0.00  0.00    -0.168 F 
ATOM     13  F   LIG d   1       3.713   2.111  -3.093  0.00  0.00    -0.168 F 
ENDBRANCH   4  10
ENDBRANCH   2   4
BRANCH   1  14
ATOM     14  C   LIG d   1       4.113  -0.018  -7.156  0.00  0.00     0.038 C 
ATOM     15  H   LIG d   1       4.513  -0.964  -7.521  0.00  0.00     0.051 H 
ATOM     16  H   LIG d   1       4.858   0.767  -7.289  0.00  0.00     0.051 H 
BRANCH  14  17
ATOM     17  C   LIG d   1       2.851   0.340  -7.943  0.00  0.00    -0.036 C 
ATOM     18  H   LIG d   1       1.973   0.169  -7.319  0.00  0.00     0.028 H 
ATOM     19  H   LIG d   1       2.789  -0.282  -8.835  0.00  0.00     0.028 H 
BRANCH  17  20
ATOM     20  C   LIG d   1       2.906   1.813  -8.352  0.00  0.00    -0.064 C 
ATOM     21  H   LIG d   1       2.224   2.390  -7.726  0.00  0.00     0.023 H 
ATOM     22  H   LIG d   1       3.922   2.188  -8.224  0.00  0.00     0.023 H 
ATOM     23  H   LIG d   1       2.611   1.911  -9.397  0.00  0.00     0.023 H 
ENDBRANCH  17  20
ENDBRANCH  14  17
ENDBRANCH   1  14
TORSDOF 6
ENDMDL
MODEL 3
REMARK VINA RESULT:      -5.8      2.637      3.668
REMARK  6 active torsions:
REMARK  status: ('A' for Active; 'I' for Inactive)
REMARK    1  A    between atoms: C_1  and  C_2 
REMARK    2  A    between atoms: C_2  and  C_3 
REMARK    3  A    between atoms: C_3  and  N_4 
REMARK    4  A    between atoms: C_5  and  C_7 
REMARK    5  A    between atoms: C_7  and  C_8 
REMARK    6  A    between atoms: C_7  and  C_12 
ROOT
ATOM      1  N   LIG d   1       6.531   0.756  -4.228  0.00  0.00    -0.302 NA
ATOM      2  C   LIG d   1       5.603   0.629  -3.341  0.00  0.00    -0.007 C 
ATOM      3  O   LIG d   1       5.608   1.412  -2.243  0.00  0.00    -0.862 OA
ENDROOT
BRANCH   2   4
ATOM      4  C   LIG d   1       4.513  -0.394  -3.532  0.00  0.00     0.242 C 
ATOM      5 BR   LIG d   1       4.561  -1.066  -5.379  0.00  0.00    -0.060 Br
BRANCH   4   6
ATOM      6  C   LIG d   1       4.727  -1.556  -2.561  0.00  0.00     0.417 C 
ATOM      7  F   LIG d   1       3.938  -2.643  -2.952  0.00  0.00    -0.168 F 
ATOM      8  F   LIG d   1       6.076  -1.931  -2.572  0.00  0.00    -0.168 F 
ATOM      9  F   LIG d   1       4.365  -1.157  -1.270  0.00  0.00    -0.168 F 
ENDBRANCH   4   6
BRANCH   4  10
ATOM     10  C   LIG d   1       3.153   0.253  -3.260  0.00  0.00     0.417 C 
ATOM     11  F   LIG d   1       2.833   1.123  -4.308  0.00  0.00    -0.168 F 
ATOM     12  F   LIG d   1       2.174  -0.742  -3.164  0.00  0.00    -0.168 F 
ATOM     13  F   LIG d   1       3.209   0.969  -2.060  0.00  0.00    -0.168 F 
ENDBRANCH   4  10
ENDBRANCH   2   4
BRANCH   1  14
ATOM     14  C   LIG d   1       7.591   1.751  -4.043  0.00  0.00     0.038 C 
ATOM     15  H   LIG d   1       8.317   1.378  -3.320  0.00  0.00     0.051 H 
ATOM     16  H   LIG d   1       7.156   2.680  -3.675  0.00  0.00     0.051 H 
BRANCH  14  17
ATOM     17  C   LIG d   1       8.288   2.009  -5.380  0.00  0.00    -0.036 C 
ATOM     18  H   LIG d   1       9.365   1.896  -5.257  0.00  0.00     0.028 H 
ATOM     19  H   LIG d   1       8.065   3.021  -5.717  0.00  0.00     0.028 H 
BRANCH  17  20
ATOM     20  C   LIG d   1       7.785   1.004  -6.419  0.00  0.00    -0.064 C 
ATOM     21  H   LIG d   1       8.507   0.931  -7.232  0.00  0.00     0.023 H 
ATOM     22  H   LIG d   1       7.664   0.027  -5.951  0.00  0.00     0.023 H 
ATOM     23  H   LIG d   1       6.826   1.340  -6.813  0.00  0.00     0.023 H 
ENDBRANCH  17  20
ENDBRANCH  14  17
ENDBRANCH   1  14
TORSDOF 6
ENDMDL
MODEL 4
REMARK VINA RESULT:      -5.8      1.463      2.167
REMARK  6 active torsions:
REMARK  status: ('A' for Active; 'I' for Inactive)
REMARK    1  A    between atoms: C_1  and  C_2 
REMARK    2  A    between atoms: C_2  and  C_3 
REMARK    3  A    between atoms: C_3  and  N_4 
REMARK    4  A    between atoms: C_5  and  C_7 
REMARK    5  A    between atoms: C_7  and  C_8 
REMARK    6  A    between atoms: C_7  and  C_12 
ROOT
ATOM      1  N   LIG d   1       3.650  -0.505  -5.830  0.00  0.00    -0.302 NA
ATOM      2  C   LIG d   1       3.811   0.011  -4.658  0.00  0.00    -0.007 C 
ATOM      3  O   LIG d   1       3.240   1.195  -4.357  0.00  0.00    -0.862 OA
ENDROOT
BRANCH   2   4
ATOM      4  C   LIG d   1       4.637  -0.711  -3.624  0.00  0.00     0.242 C 
ATOM      5 BR   LIG d   1       5.028  -2.532  -4.253  0.00  0.00    -0.060 Br
BRANCH   4   6
ATOM      6  C   LIG d   1       5.949   0.045  -3.400  0.00  0.00     0.417 C 
ATOM      7  F   LIG d   1       6.415   0.541  -4.622  0.00  0.00    -0.168 F 
ATOM      8  F   LIG d   1       5.730   1.108  -2.518  0.00  0.00    -0.168 F 
ATOM      9  F   LIG d   1       6.900  -0.825  -2.857  0.00  0.00    -0.168 F 
ENDBRANCH   4   6
BRANCH   4  10
ATOM     10  C   LIG d   1       3.859  -0.781  -2.308  0.00  0.00     0.417 C 
ATOM     11  F   LIG d   1       4.525  -1.630  -1.418  0.00  0.00    -0.168 F 
ATOM     12  F   LIG d   1       3.768   0.500  -1.752  0.00  0.00    -0.168 F 
ATOM     13  F   LIG d   1       2.574  -1.275  -2.552  0.00  0.00    -0.168 F 
ENDBRANCH   4  10
ENDBRANCH   2   4
BRANCH   1  14
ATOM     14  C   LIG d   1       2.847   0.197  -6.834  0.00  0.00     0.038 C 
ATOM     15  H   LIG d   1       2.351   1.050  -6.372  0.00  0.00     0.051 H 
ATOM     16  H   LIG d   1       2.098  -0.484  -7.240  0.00  0.00     0.051 H 
BRANCH  14  17
ATOM     17  C   LIG d   1       3.756   0.684  -7.964  0.00  0.00    -0.036 C 
ATOM     18  H   LIG d   1       3.855  -0.100  -8.715  0.00  0.00     0.028 H 
ATOM     19  H   LIG d   1       4.739   0.926  -7.561  0.00  0.00     0.028 H 
BRANCH  17  20
ATOM     20  C   LIG d   1       3.147   1.932  -8.606  0.00  0.00    -0.064 C 
ATOM     21  H   LIG d   1       3.488   2.013  -9.638  0.00  0.00     0.023 H 
ATOM     22  H   LIG d   1       2.060   1.857  -8.587  0.00  0.00     0.023 H 
ATOM     23  H   LIG d   1       3.460   2.816  -8.050  0.00  0.00     0.023 H 
ENDBRANCH  17  20
ENDBRANCH  14  17
ENDBRANCH   1  14
TORSDOF 6
ENDMDL
MODEL 5
REMARK VINA RESULT:      -5.6      1.474      1.745
REMARK  6 active torsions:
REMARK  status: ('A' for Active; 'I' for Inactive)
REMARK    1  A    between atoms: C_1  and  C_2 
REMARK    2  A    between atoms: C_2  and  C_3 
REMARK    3  A    between atoms: C_3  and  N_4 
REMARK    4  A    between atoms: C_5  and  C_7 
REMARK    5  A    between atoms: C_7  and  C_8 
REMARK    6  A    between atoms: C_7  and  C_12 
ROOT
ATOM      1  N   LIG d   1       5.236  -0.274  -5.750  0.00  0.00    -0.302 NA
ATOM      2  C   LIG d   1       4.389   0.000  -4.816  0.00  0.00    -0.007 C 
ATOM      3  O   LIG d   1       3.160   0.456  -5.132  0.00  0.00    -0.862 OA
ENDROOT
BRANCH   2   4
ATOM      4  C   LIG d   1       4.774  -0.190  -3.371  0.00  0.00     0.242 C 
ATOM      5 BR   LIG d   1       6.507  -1.113  -3.270  0.00  0.00    -0.060 Br
BRANCH   4   6
ATOM      6  C   LIG d   1       4.882   1.175  -2.688  0.00  0.00     0.417 C 
ATOM      7  F   LIG d   1       6.085   1.787  -3.056  0.00  0.00    -0.168 F 
ATOM      8  F   LIG d   1       3.809   1.981  -3.083  0.00  0.00    -0.168 F 
ATOM      9  F   LIG d   1       4.851   1.005  -1.300  0.00  0.00    -0.168 F 
ENDBRANCH   4   6
BRANCH   4  10
ATOM     10  C   LIG d   1       3.706  -1.029  -2.666  0.00  0.00     0.417 C 
ATOM     11  F   LIG d   1       2.596  -0.226  -2.381  0.00  0.00    -0.168 F 
ATOM     12  F   LIG d   1       3.317  -2.084  -3.499  0.00  0.00    -0.168 F 
ATOM     13  F   LIG d   1       4.228  -1.543  -1.475  0.00  0.00    -0.168 F 
ENDBRANCH   4  10
ENDBRANCH   2   4
BRANCH   1  14
ATOM     14  C   LIG d   1       4.863  -0.089  -7.155  0.00  0.00     0.038 C 
ATOM     15  H   LIG d   1       4.237   0.798  -7.251  0.00  0.00     0.051 H 
ATOM     16  H   LIG d   1       4.311  -0.964  -7.501  0.00  0.00     0.051 H 
BRANCH  14  17
ATOM     17  C   LIG d   1       6.126   0.084  -8.000  0.00  0.00    -0.036 C 
ATOM     18  H   LIG d   1       5.907   0.721  -8.856  0.00  0.00     0.028 H 
ATOM     19  H   LIG d   1       6.466  -0.890  -8.350  0.00  0.00     0.028 H 
BRANCH  17  20
ATOM     20  C   LIG d   1       7.222   0.731  -7.150  0.00  0.00    -0.064 C 
ATOM     21  H   LIG d   1       6.773   1.205  -6.278  0.00  0.00     0.023 H 
ATOM     22  H   LIG d   1       7.929  -0.033  -6.826  0.00  0.00     0.023 H 
ATOM     23  H   LIG d   1       7.745   1.481  -7.743  0.00  0.00     0.023 H 
ENDBRANCH  17  20
ENDBRANCH  14  17
ENDBRANCH   1  14
TORSDOF 6
ENDMDL
MODEL 6
REMARK VINA RESULT:      -5.6      2.576      4.117
REMARK  6 active torsions:
REMARK  status: ('A' for Active; 'I' for Inactive)
REMARK    1  A    between atoms: C_1  and  C_2 
REMARK    2  A    between atoms: C_2  and  C_3 
REMARK    3  A    between atoms: C_3  and  N_4 
REMARK    4  A    between atoms: C_5  and  C_7 
REMARK    5  A    between atoms: C_7  and  C_8 
REMARK    6  A    between atoms: C_7  and  C_12 
ROOT
ATOM      1  N   LIG d   1       6.525  -0.731  -3.787  0.00  0.00    -0.302 NA
ATOM      2  C   LIG d   1       5.468  -0.193  -4.295  0.00  0.00    -0.007 C 
ATOM      3  O   LIG d   1       5.503   0.320  -5.542  0.00  0.00    -0.862 OA
ENDROOT
BRANCH   2   4
ATOM      4  C   LIG d   1       4.192  -0.139  -3.494  0.00  0.00     0.242 C 
ATOM      5 BR   LIG d   1       2.713   0.436  -4.655  0.00  0.00    -0.060 Br
BRANCH   4   6
ATOM      6  C   LIG d   1       3.886  -1.526  -2.927  0.00  0.00     0.417 C 
ATOM      7  F   LIG d   1       2.603  -1.530  -2.370  0.00  0.00    -0.168 F 
ATOM      8  F   LIG d   1       3.953  -2.474  -3.953  0.00  0.00    -0.168 F 
ATOM      9  F   LIG d   1       4.824  -1.842  -1.938  0.00  0.00    -0.168 F 
ENDBRANCH   4   6
BRANCH   4  10
ATOM     10  C   LIG d   1       4.355   0.858  -2.344  0.00  0.00     0.417 C 
ATOM     11  F   LIG d   1       3.160   1.563  -2.166  0.00  0.00    -0.168 F 
ATOM     12  F   LIG d   1       4.667   0.165  -1.168  0.00  0.00    -0.168 F 
ATOM     13  F   LIG d   1       5.385   1.754  -2.645  0.00  0.00    -0.168 F 
ENDBRANCH   4  10
ENDBRANCH   2   4
BRANCH   1  14
ATOM     14  C   LIG d   1       7.765  -0.784  -4.566  0.00  0.00     0.038 C 
ATOM     15  H   LIG d   1       8.505  -0.122  -4.116  0.00  0.00     0.051 H 
ATOM     16  H   LIG d   1       7.566  -0.465  -5.589  0.00  0.00     0.051 H 
BRANCH  14  17
ATOM     17  C   LIG d   1       8.301  -2.217  -4.574  0.00  0.00    -0.036 C 
ATOM     18  H   LIG d   1       9.070  -2.323  -3.809  0.00  0.00     0.028 H 
ATOM     19  H   LIG d   1       8.728  -2.440  -5.551  0.00  0.00     0.028 H 
BRANCH  17  20
ATOM     20  C   LIG d   1       7.156  -3.190  -4.284  0.00  0.00    -0.064 C 
ATOM     21  H   LIG d   1       7.292  -4.097  -4.874  0.00  0.00     0.023 H 
ATOM     22  H   LIG d   1       7.153  -3.443  -3.224  0.00  0.00     0.023 H 
ATOM     23  H   LIG d   1       6.207  -2.724  -4.549  0.00  0.00     0.023 H 
ENDBRANCH  17  20
ENDBRANCH  14  17
ENDBRANCH   1  14
TORSDOF 6
ENDMDL
MODEL 7
REMARK VINA RESULT:      -5.5      1.871      2.522
REMARK  6 active torsions:
REMARK  status: ('A' for Active; 'I' for Inactive)
REMARK    1  A    between atoms: C_1  and  C_2 
REMARK    2  A    between atoms: C_2  and  C_3 
REMARK    3  A    between atoms: C_3  and  N_4 
REMARK    4  A    between atoms: C_5  and  C_7 
REMARK    5  A    between atoms: C_7  and  C_8 
REMARK    6  A    between atoms: C_7  and  C_12 
ROOT
ATOM      1  N   LIG d   1       5.341  -0.011  -5.656  0.00  0.00    -0.302 NA
ATOM      2  C   LIG d   1       4.680  -0.764  -4.843  0.00  0.00    -0.007 C 
ATOM      3  O   LIG d   1       4.161  -1.931  -5.275  0.00  0.00    -0.862 OA
ENDROOT
BRANCH   2   4
ATOM      4  C   LIG d   1       4.490  -0.339  -3.409  0.00  0.00     0.242 C 
ATOM      5 BR   LIG d   1       5.773   1.085  -2.972  0.00  0.00    -0.060 Br
BRANCH   4   6
ATOM      6  C   LIG d   1       3.064   0.182  -3.217  0.00  0.00     0.417 C 
ATOM      7  F   LIG d   1       2.625   0.788  -4.399  0.00  0.00    -0.168 F 
ATOM      8  F   LIG d   1       2.217  -0.885  -2.897  0.00  0.00    -0.168 F 
ATOM      9  F   LIG d   1       3.047   1.119  -2.179  0.00  0.00    -0.168 F 
ENDBRANCH   4   6
BRANCH   4  10
ATOM     10  C   LIG d   1       4.723  -1.537  -2.487  0.00  0.00     0.417 C 
ATOM     11  F   LIG d   1       6.026  -2.015  -2.665  0.00  0.00    -0.168 F 
ATOM     12  F   LIG d   1       4.549  -1.142  -1.156  0.00  0.00    -0.168 F 
ATOM     13  F   LIG d   1       3.809  -2.549  -2.796  0.00  0.00    -0.168 F 
ENDBRANCH   4  10
ENDBRANCH   2   4
BRANCH   1  14
ATOM     14  C   LIG d   1       5.527  -0.424  -7.050  0.00  0.00     0.038 C 
ATOM     15  H   LIG d   1       4.721  -0.018  -7.660  0.00  0.00     0.051 H 
ATOM     16  H   LIG d   1       5.517  -1.513  -7.110  0.00  0.00     0.051 H 
BRANCH  14  17
ATOM     17  C   LIG d   1       6.869   0.102  -7.562  0.00  0.00    -0.036 C 
ATOM     18  H   LIG d   1       7.337  -0.652  -8.195  0.00  0.00     0.028 H 
ATOM     19  H   LIG d   1       7.521   0.321  -6.717  0.00  0.00     0.028 H 
BRANCH  17  20
ATOM     20  C   LIG d   1       6.640   1.379  -8.374  0.00  0.00    -0.064 C 
ATOM     21  H   LIG d   1       7.565   1.660  -8.876  0.00  0.00     0.023 H 
ATOM     22  H   LIG d   1       5.861   1.203  -9.116  0.00  0.00     0.023 H 
ATOM     23  H   LIG d   1       6.331   2.182  -7.705  0.00  0.00     0.023 H 
ENDBRANCH  17  20
ENDBRANCH  14  17
ENDBRANCH   1  14
TORSDOF 6
ENDMDL
MODEL 8
REMARK VINA RESULT:      -5.4      2.886      3.681
REMARK  6 active torsions:
REMARK  status: ('A' for Active; 'I' for Inactive)
REMARK    1  A    between atoms: C_1  and  C_2 
REMARK    2  A    between atoms: C_2  and  C_3 
REMARK    3  A    between atoms: C_3  and  N_4 
REMARK    4  A    between atoms: C_5  and  C_7 
REMARK    5  A    between atoms: C_7  and  C_8 
REMARK    6  A    between atoms: C_7  and  C_12 
ROOT
ATOM      1  N   LIG d   1       6.552   1.072  -3.740  0.00  0.00    -0.302 NA
ATOM      2  C   LIG d   1       5.665   0.266  -4.218  0.00  0.00    -0.007 C 
ATOM      3  O   LIG d   1       5.751  -0.149  -5.499  0.00  0.00    -0.862 OA
ENDROOT
BRANCH   2   4
ATOM      4  C   LIG d   1       4.533  -0.212  -3.346  0.00  0.00     0.242 C 
ATOM      5 BR   LIG d   1       4.506   0.830  -1.678  0.00  0.00    -0.060 Br
BRANCH   4   6
ATOM      6  C   LIG d   1       3.206  -0.028  -4.084  0.00  0.00     0.417 C 
ATOM      7  F   LIG d   1       2.895   1.334  -4.152  0.00  0.00    -0.168 F 
ATOM      8  F   LIG d   1       3.317  -0.546  -5.379  0.00  0.00    -0.168 F 
ATOM      9  F   LIG d   1       2.193  -0.704  -3.397  0.00  0.00    -0.168 F 
ENDBRANCH   4   6
BRANCH   4  10
ATOM     10  C   LIG d   1       4.733  -1.694  -3.019  0.00  0.00     0.417 C 
ATOM     11  F   LIG d   1       4.113  -1.989  -1.799  0.00  0.00    -0.168 F 
ATOM     12  F   LIG d   1       4.165  -2.475  -4.031  0.00  0.00    -0.168 F 
ATOM     13  F   LIG d   1       6.100  -1.971  -2.927  0.00  0.00    -0.168 F 
ENDBRANCH   4  10
ENDBRANCH   2   4
BRANCH   1  14
ATOM     14  C   LIG d   1       7.653   1.536  -4.588  0.00  0.00     0.038 C 
ATOM     15  H   LIG d   1       7.261   2.189  -5.368  0.00  0.00     0.051 H 
ATOM     16  H   LIG d   1       8.146   0.678  -5.046  0.00  0.00     0.051 H 
BRANCH  14  17
ATOM     17  C   LIG d   1       8.662   2.309  -3.736  0.00  0.00    -0.036 C 
ATOM     18  H   LIG d   1       9.464   1.639  -3.426  0.00  0.00     0.028 H 
ATOM     19  H   LIG d   1       8.162   2.708  -2.854  0.00  0.00     0.028 H 
BRANCH  17  20
ATOM     20  C   LIG d   1       9.246   3.461  -4.557  0.00  0.00    -0.064 C 
ATOM     21  H   LIG d   1       9.161   4.389  -3.991  0.00  0.00     0.023 H 
ATOM     22  H   LIG d   1      10.296   3.259  -4.770  0.00  0.00     0.023 H 
ATOM     23  H   LIG d   1       8.696   3.554  -5.493  0.00  0.00     0.023 H 
ENDBRANCH  17  20
ENDBRANCH  14  17
ENDBRANCH   1  14
TORSDOF 6
ENDMDL
MODEL 9
REMARK VINA RESULT:      -5.1      2.529      3.618
REMARK  6 active torsions:
REMARK  status: ('A' for Active; 'I' for Inactive)
REMARK    1  A    between atoms: C_1  and  C_2 
REMARK    2  A    between atoms: C_2  and  C_3 
REMARK    3  A    between atoms: C_3  and  N_4 
REMARK    4  A    between atoms: C_5  and  C_7 
REMARK    5  A    between atoms: C_7  and  C_8 
REMARK    6  A    between atoms: C_7  and  C_12 
ROOT
ATOM      1  N   LIG d   1       6.133   0.230  -4.894  0.00  0.00    -0.302 NA
ATOM      2  C   LIG d   1       5.045  -0.427  -4.674  0.00  0.00    -0.007 C 
ATOM      3  O   LIG d   1       4.468  -1.130  -5.670  0.00  0.00    -0.862 OA
ENDROOT
BRANCH   2   4
ATOM      4  C   LIG d   1       4.418  -0.409  -3.304  0.00  0.00     0.242 C 
ATOM      5 BR   LIG d   1       2.459  -0.407  -3.478  0.00  0.00    -0.060 Br
BRANCH   4   6
ATOM      6  C   LIG d   1       4.860  -1.649  -2.524  0.00  0.00     0.417 C 
ATOM      7  F   LIG d   1       6.227  -1.862  -2.722  0.00  0.00    -0.168 F 
ATOM      8  F   LIG d   1       4.611  -1.455  -1.161  0.00  0.00    -0.168 F 
ATOM      9  F   LIG d   1       4.144  -2.762  -2.975  0.00  0.00    -0.168 F 
ENDBRANCH   4   6
BRANCH   4  10
ATOM     10  C   LIG d   1       4.865   0.849  -2.556  0.00  0.00     0.417 C 
ATOM     11  F   LIG d   1       4.317   1.978  -3.175  0.00  0.00    -0.168 F 
ATOM     12  F   LIG d   1       4.423   0.785  -1.230  0.00  0.00    -0.168 F 
ATOM     13  F   LIG d   1       6.260   0.935  -2.579  0.00  0.00    -0.168 F 
ENDBRANCH   4  10
ENDBRANCH   2   4
BRANCH   1  14
ATOM     14  C   LIG d   1       6.743   0.213  -6.226  0.00  0.00     0.038 C 
ATOM     15  H   LIG d   1       6.229   0.925  -6.871  0.00  0.00     0.051 H 
ATOM     16  H   LIG d   1       6.660  -0.788  -6.650  0.00  0.00     0.051 H 
BRANCH  14  17
ATOM     17  C   LIG d   1       8.220   0.598  -6.116  0.00  0.00    -0.036 C 
ATOM     18  H   LIG d   1       8.695   0.499  -7.091  0.00  0.00     0.028 H 
ATOM     19  H   LIG d   1       8.714  -0.060  -5.402  0.00  0.00     0.028 H 
BRANCH  17  20
ATOM     20  C   LIG d   1       8.334   2.047  -5.637  0.00  0.00    -0.064 C 
ATOM     21  H   LIG d   1       7.985   2.117  -4.607  0.00  0.00     0.023 H 
ATOM     22  H   LIG d   1       9.374   2.367  -5.692  0.00  0.00     0.023 H 
ATOM     23  H   LIG d   1       7.723   2.688  -6.272  0.00  0.00     0.023 H 
ENDBRANCH  17  20
ENDBRANCH  14  17
ENDBRANCH   1  14
TORSDOF 6
ENDMDL
