MODEL 1
REMARK VINA RESULT:      -6.5      0.000      0.000
REMARK  6 active torsions:
REMARK  status: ('A' for Active; 'I' for Inactive)
REMARK    1  A    between atoms: C_1  and  O_2 
REMARK    2  A    between atoms: O_2  and  C_3 
REMARK    3  A    between atoms: C_7  and  N_9 
REMARK       I    between atoms: N_9  and  C_10 
REMARK       I    between atoms: C_10  and  N_12 
REMARK    4  A    between atoms: CA_22  and  CB_26 
REMARK    5  A    between atoms: CB_26  and  CG_27 
REMARK    6  A    between atoms: CZ_30  and  OH_33 
ROOT
ATOM      1  N   UNK d   1       7.300  -0.136  -3.897  0.00  0.00    -0.269 N 
ATOM      2  C   UNK d   1       7.257   0.535  -5.065  0.00  0.00     0.307 C 
ATOM      3  O   UNK d   1       6.207   0.634  -5.672  0.00  0.00    -0.252 OA
ATOM      4  N   UNK d   1       8.377   1.098  -5.560  0.00  0.00    -0.282 N 
ATOM      5  C   UNK d   1       9.667   0.885  -4.894  0.00  0.00     0.032 C 
ATOM      6  C   UNK d   1      10.688   0.366  -5.920  0.00  0.00     0.031 C 
ATOM      7  N   UNK d   1      10.627   1.265  -7.086  0.00  0.00    -0.285 N 
ATOM      8  C   UNK d   1       9.336   1.378  -7.771  0.00  0.00     0.118 C 
ATOM      9  H   UNK d   1       9.013   0.376  -8.050  0.00  0.00     0.061 H 
ATOM     10  C   UNK d   1       8.315   1.925  -6.778  0.00  0.00     0.043 C 
ATOM     11  C   UNK d   1       9.421   2.198  -9.011  0.00  0.00     0.236 C 
ATOM     12  O   UNK d   1       8.514   2.130  -9.812  0.00  0.00    -0.274 OA
ATOM     13  H   UNK d   1       8.115  -0.144  -3.373  0.00  0.00     0.156 HD
ATOM     14  H   UNK d   1      10.021   1.826  -4.474  0.00  0.00     0.048 H 
ATOM     15  H   UNK d   1       9.548   0.152  -4.095  0.00  0.00     0.048 H 
ATOM     16  H   UNK d   1      11.689   0.383  -5.491  0.00  0.00     0.048 H 
ATOM     17  H   UNK d   1      10.430  -0.650  -6.219  0.00  0.00     0.048 H 
ATOM     18  H   UNK d   1       7.316   1.872  -7.210  0.00  0.00     0.049 H 
ATOM     19  H   UNK d   1       8.558   2.960  -6.534  0.00  0.00     0.049 H 
ATOM     20  N   TYR d   2      10.453   3.010  -9.284  0.00  0.00    -0.302 N 
ATOM     21  CA  TYR d   2      11.574   3.167  -8.361  0.00  0.00     0.104 C 
ATOM     22  HA  TYR d   2      12.494   3.298  -8.931  0.00  0.00     0.060 H 
ATOM     23  C   TYR d   2      11.701   1.954  -7.482  0.00  0.00     0.237 C 
ATOM     24  O   TYR d   2      12.802   1.594  -7.124  0.00  0.00    -0.274 OA
ATOM     25  H   TYR d   2      10.455   3.506 -10.118  0.00  0.00     0.149 HD
ENDROOT
BRANCH   1  26
ATOM     26  C   UNK d   1       6.165  -0.816  -3.439  0.00  0.00     0.038 A 
ATOM     27  C   UNK d   1       5.403  -0.280  -2.409  0.00  0.00    -0.040 A 
ATOM     28  C   UNK d   1       4.280  -0.948  -1.961  0.00  0.00    -0.057 A 
ATOM     29  H   UNK d   1       5.686   0.660  -1.961  0.00  0.00     0.064 H 
ATOM     30  C   UNK d   1       3.918  -2.155  -2.528  0.00  0.00    -0.020 A 
ATOM     31  H   UNK d   1       3.686  -0.529  -1.162  0.00  0.00     0.062 H 
ATOM     32  C   UNK d   1       4.679  -2.697  -3.554  0.00  0.00     0.122 A 
ATOM     33  H   UNK d   1       3.042  -2.677  -2.171  0.00  0.00     0.065 H 
ATOM     34  C   UNK d   1       5.803  -2.028  -4.010  0.00  0.00     0.001 A 
ATOM     35  H   UNK d   1       6.396  -2.448  -4.808  0.00  0.00     0.067 H 
BRANCH  32  36
ATOM     36  O   UNK d   1       4.323  -3.885  -4.110  0.00  0.00    -0.495 OA
BRANCH  36  37
ATOM     37  C   UNK d   1       4.897  -4.206  -5.379  0.00  0.00     0.079 C 
ATOM     38  H   UNK d   1       5.388  -5.178  -5.319  0.00  0.00     0.066 H 
ATOM     39  H   UNK d   1       4.112  -4.242  -6.134  0.00  0.00     0.066 H 
ATOM     40  H   UNK d   1       5.629  -3.445  -5.649  0.00  0.00     0.066 H 
ENDBRANCH  36  37
ENDBRANCH  32  36
ENDBRANCH   1  26
BRANCH  21  41
ATOM     41  CB  TYR d   2      11.342   4.403  -7.489  0.00  0.00    -0.001 C 
ATOM     42  HB1 TYR d   2      10.576   4.184  -6.745  0.00  0.00     0.034 H 
ATOM     43  HB2 TYR d   2      12.270   4.671  -6.986  0.00  0.00     0.034 H 
BRANCH  41  44
ATOM     44  CG  TYR d   2      10.888   5.550  -8.354  0.00  0.00    -0.045 A 
ATOM     45  CD1 TYR d   2       9.617   6.070  -8.201  0.00  0.00    -0.055 A 
ATOM     46  CE1 TYR d   2       9.199   7.121  -8.992  0.00  0.00    -0.020 A 
ATOM     47  HD1 TYR d   2       8.948   5.653  -7.461  0.00  0.00     0.062 H 
ATOM     48  CZ  TYR d   2      10.057   7.656  -9.942  0.00  0.00     0.117 A 
ATOM     49  HE1 TYR d   2       8.205   7.528  -8.872  0.00  0.00     0.065 H 
ATOM     50  CE2 TYR d   2      11.333   7.134 -10.094  0.00  0.00    -0.020 A 
ATOM     51  CD2 TYR d   2      11.748   6.085  -9.296  0.00  0.00    -0.055 A 
ATOM     52  HE2 TYR d   2      12.002   7.549 -10.833  0.00  0.00     0.065 H 
ATOM     53  HD2 TYR d   2      12.743   5.681  -9.411  0.00  0.00     0.062 H 
BRANCH  48  54
ATOM     54  OH  TYR d   2       9.648   8.692 -10.723  0.00  0.00    -0.507 OA
ATOM     55  HH  TYR d   2       8.945   9.227 -10.329  0.00  0.00     0.292 HD
ENDBRANCH  48  54
ENDBRANCH  41  44
ENDBRANCH  21  41
TORSDOF 6
ENDMDL
MODEL 2
REMARK VINA RESULT:      -6.5      6.405      9.302
REMARK  6 active torsions:
REMARK  status: ('A' for Active; 'I' for Inactive)
REMARK    1  A    between atoms: C_1  and  O_2 
REMARK    2  A    between atoms: O_2  and  C_3 
REMARK    3  A    between atoms: C_7  and  N_9 
REMARK       I    between atoms: N_9  and  C_10 
REMARK       I    between atoms: C_10  and  N_12 
REMARK    4  A    between atoms: CA_22  and  CB_26 
REMARK    5  A    between atoms: CB_26  and  CG_27 
REMARK    6  A    between atoms: CZ_30  and  OH_33 
ROOT
ATOM      1  N   UNK d   1       5.685  -9.062  -5.812  0.00  0.00    -0.269 N 
ATOM      2  C   UNK d   1       5.109  -7.846  -5.885  0.00  0.00     0.307 C 
ATOM      3  O   UNK d   1       3.940  -7.744  -6.206  0.00  0.00    -0.252 OA
ATOM      4  N   UNK d   1       5.829  -6.741  -5.602  0.00  0.00    -0.282 N 
ATOM      5  C   UNK d   1       7.267  -6.847  -5.328  0.00  0.00     0.032 C 
ATOM      6  C   UNK d   1       8.030  -5.878  -6.246  0.00  0.00     0.031 C 
ATOM      7  N   UNK d   1       7.376  -4.563  -6.129  0.00  0.00    -0.285 N 
ATOM      8  C   UNK d   1       5.959  -4.490  -6.497  0.00  0.00     0.118 C 
ATOM      9  H   UNK d   1       5.854  -4.876  -7.511  0.00  0.00     0.061 H 
ATOM     10  C   UNK d   1       5.178  -5.420  -5.574  0.00  0.00     0.043 C 
ATOM     11  C   UNK d   1       5.438  -3.096  -6.476  0.00  0.00     0.236 C 
ATOM     12  O   UNK d   1       4.385  -2.864  -7.031  0.00  0.00    -0.274 OA
ATOM     13  H   UNK d   1       6.590  -9.150  -5.476  0.00  0.00     0.156 HD
ATOM     14  H   UNK d   1       7.459  -6.589  -4.287  0.00  0.00     0.048 H 
ATOM     15  H   UNK d   1       7.600  -7.868  -5.518  0.00  0.00     0.048 H 
ATOM     16  H   UNK d   1       9.070  -5.805  -5.928  0.00  0.00     0.048 H 
ATOM     17  H   UNK d   1       7.982  -6.228  -7.278  0.00  0.00     0.048 H 
ATOM     18  H   UNK d   1       4.150  -5.507  -5.924  0.00  0.00     0.049 H 
ATOM     19  H   UNK d   1       5.191  -5.024  -4.558  0.00  0.00     0.049 H 
ATOM     20  N   TYR d   2       6.076  -2.083  -5.871  0.00  0.00    -0.302 N 
ATOM     21  CA  TYR d   2       7.335  -2.283  -5.159  0.00  0.00     0.104 C 
ATOM     22  HA  TYR d   2       7.968  -1.405  -5.293  0.00  0.00     0.060 H 
ATOM     23  C   TYR d   2       8.049  -3.495  -5.690  0.00  0.00     0.237 C 
ATOM     24  O   TYR d   2       9.261  -3.504  -5.719  0.00  0.00    -0.274 OA
ATOM     25  H   TYR d   2       5.690  -1.194  -5.907  0.00  0.00     0.149 HD
ENDROOT
BRANCH   1  26
ATOM     26  C   UNK d   1       4.973 -10.198  -6.214  0.00  0.00     0.038 A 
ATOM     27  C   UNK d   1       4.286 -10.956  -5.274  0.00  0.00    -0.040 A 
ATOM     28  C   UNK d   1       3.579 -12.075  -5.672  0.00  0.00    -0.057 A 
ATOM     29  H   UNK d   1       4.302 -10.670  -4.233  0.00  0.00     0.064 H 
ATOM     30  C   UNK d   1       3.562 -12.448  -7.002  0.00  0.00    -0.020 A 
ATOM     31  H   UNK d   1       3.043 -12.661  -4.941  0.00  0.00     0.062 H 
ATOM     32  C   UNK d   1       4.251 -11.697  -7.944  0.00  0.00     0.122 A 
ATOM     33  H   UNK d   1       3.012 -13.325  -7.308  0.00  0.00     0.065 H 
ATOM     34  C   UNK d   1       4.957 -10.572  -7.551  0.00  0.00     0.001 A 
ATOM     35  H   UNK d   1       5.493  -9.986  -8.282  0.00  0.00     0.067 H 
BRANCH  32  36
ATOM     36  O   UNK d   1       4.234 -12.066  -9.252  0.00  0.00    -0.495 OA
BRANCH  36  37
ATOM     37  C   UNK d   1       5.234 -11.497 -10.100  0.00  0.00     0.079 C 
ATOM     38  H   UNK d   1       5.822 -10.774  -9.534  0.00  0.00     0.066 H 
ATOM     39  H   UNK d   1       5.888 -12.287 -10.468  0.00  0.00     0.066 H 
ATOM     40  H   UNK d   1       4.756 -10.998 -10.942  0.00  0.00     0.066 H 
ENDBRANCH  36  37
ENDBRANCH  32  36
ENDBRANCH   1  26
BRANCH  21  41
ATOM     41  CB  TYR d   2       7.050  -2.476  -3.668  0.00  0.00    -0.001 C 
ATOM     42  HB1 TYR d   2       6.614  -3.461  -3.507  0.00  0.00     0.034 H 
ATOM     43  HB2 TYR d   2       7.980  -2.393  -3.107  0.00  0.00     0.034 H 
BRANCH  41  44
ATOM     44  CG  TYR d   2       6.085  -1.417  -3.201  0.00  0.00    -0.045 A 
ATOM     45  CD1 TYR d   2       4.841  -1.780  -2.719  0.00  0.00    -0.055 A 
ATOM     46  CE1 TYR d   2       3.955  -0.812  -2.291  0.00  0.00    -0.020 A 
ATOM     47  HD1 TYR d   2       4.561  -2.823  -2.679  0.00  0.00     0.062 H 
ATOM     48  CZ  TYR d   2       4.314   0.528  -2.344  0.00  0.00     0.117 A 
ATOM     49  HE1 TYR d   2       2.983  -1.096  -1.914  0.00  0.00     0.065 H 
ATOM     50  CE2 TYR d   2       5.563   0.891  -2.826  0.00  0.00    -0.020 A 
ATOM     51  CD2 TYR d   2       6.447  -0.083  -3.249  0.00  0.00    -0.055 A 
ATOM     52  HE2 TYR d   2       5.844   1.932  -2.868  0.00  0.00     0.065 H 
ATOM     53  HD2 TYR d   2       7.422   0.198  -3.621  0.00  0.00     0.062 H 
BRANCH  48  54
ATOM     54  OH  TYR d   2       3.443   1.483  -1.922  0.00  0.00    -0.507 OA
ATOM     55  HH  TYR d   2       3.242   2.153  -2.590  0.00  0.00     0.292 HD
ENDBRANCH  48  54
ENDBRANCH  41  44
ENDBRANCH  21  41
TORSDOF 6
ENDMDL
MODEL 3
REMARK VINA RESULT:      -6.5      7.418     10.348
REMARK  6 active torsions:
REMARK  status: ('A' for Active; 'I' for Inactive)
REMARK    1  A    between atoms: C_1  and  O_2 
REMARK    2  A    between atoms: O_2  and  C_3 
REMARK    3  A    between atoms: C_7  and  N_9 
REMARK       I    between atoms: N_9  and  C_10 
REMARK       I    between atoms: C_10  and  N_12 
REMARK    4  A    between atoms: CA_22  and  CB_26 
REMARK    5  A    between atoms: CB_26  and  CG_27 
REMARK    6  A    between atoms: CZ_30  and  OH_33 
ROOT
ATOM      1  N   UNK d   1       8.035  -9.425  -5.132  0.00  0.00    -0.269 N 
ATOM      2  C   UNK d   1       6.832  -8.894  -5.429  0.00  0.00     0.307 C 
ATOM      3  O   UNK d   1       5.919  -9.616  -5.782  0.00  0.00    -0.252 OA
ATOM      4  N   UNK d   1       6.641  -7.563  -5.333  0.00  0.00    -0.282 N 
ATOM      5  C   UNK d   1       7.768  -6.676  -5.020  0.00  0.00     0.032 C 
ATOM      6  C   UNK d   1       7.849  -5.567  -6.082  0.00  0.00     0.031 C 
ATOM      7  N   UNK d   1       6.499  -4.989  -6.209  0.00  0.00    -0.285 N 
ATOM      8  C   UNK d   1       5.422  -5.899  -6.608  0.00  0.00     0.118 C 
ATOM      9  H   UNK d   1       5.715  -6.382  -7.539  0.00  0.00     0.061 H 
ATOM     10  C   UNK d   1       5.301  -6.990  -5.548  0.00  0.00     0.043 C 
ATOM     11  C   UNK d   1       4.135  -5.187  -6.841  0.00  0.00     0.236 C 
ATOM     12  O   UNK d   1       3.257  -5.764  -7.446  0.00  0.00    -0.274 OA
ATOM     13  H   UNK d   1       8.737  -8.863  -4.772  0.00  0.00     0.156 HD
ATOM     14  H   UNK d   1       7.619  -6.229  -4.038  0.00  0.00     0.048 H 
ATOM     15  H   UNK d   1       8.695  -7.250  -5.021  0.00  0.00     0.048 H 
ATOM     16  H   UNK d   1       8.553  -4.798  -5.764  0.00  0.00     0.048 H 
ATOM     17  H   UNK d   1       8.165  -5.988  -7.036  0.00  0.00     0.048 H 
ATOM     18  H   UNK d   1       4.619  -7.765  -5.895  0.00  0.00     0.049 H 
ATOM     19  H   UNK d   1       4.931  -6.558  -4.618  0.00  0.00     0.049 H 
ATOM     20  N   TYR d   2       3.899  -3.938  -6.414  0.00  0.00    -0.302 N 
ATOM     21  CA  TYR d   2       4.895  -3.183  -5.657  0.00  0.00     0.104 C 
ATOM     22  HA  TYR d   2       4.834  -2.130  -5.932  0.00  0.00     0.060 H 
ATOM     23  C   TYR d   2       6.276  -3.696  -5.954  0.00  0.00     0.237 C 
ATOM     24  O   TYR d   2       7.208  -2.920  -5.961  0.00  0.00    -0.274 OA
ATOM     25  H   TYR d   2       3.044  -3.524  -6.612  0.00  0.00     0.149 HD
ENDROOT
BRANCH   1  26
ATOM     26  C   UNK d   1       8.267 -10.790  -5.340  0.00  0.00     0.038 A 
ATOM     27  C   UNK d   1       8.743 -11.236  -6.566  0.00  0.00    -0.040 A 
ATOM     28  C   UNK d   1       8.977 -12.582  -6.769  0.00  0.00    -0.057 A 
ATOM     29  H   UNK d   1       8.934 -10.529  -7.360  0.00  0.00     0.064 H 
ATOM     30  C   UNK d   1       8.728 -13.490  -5.758  0.00  0.00    -0.020 A 
ATOM     31  H   UNK d   1       9.351 -12.926  -7.722  0.00  0.00     0.062 H 
ATOM     32  C   UNK d   1       8.247 -13.050  -4.532  0.00  0.00     0.122 A 
ATOM     33  H   UNK d   1       8.908 -14.542  -5.921  0.00  0.00     0.065 H 
ATOM     34  C   UNK d   1       8.016 -11.700  -4.322  0.00  0.00     0.001 A 
ATOM     35  H   UNK d   1       7.642 -11.357  -3.370  0.00  0.00     0.067 H 
BRANCH  32  36
ATOM     36  O   UNK d   1       8.002 -13.944  -3.538  0.00  0.00    -0.495 OA
BRANCH  36  37
ATOM     37  C   UNK d   1       8.733 -13.779  -2.322  0.00  0.00     0.079 C 
ATOM     38  H   UNK d   1       8.058 -13.897  -1.474  0.00  0.00     0.066 H 
ATOM     39  H   UNK d   1       9.520 -14.531  -2.267  0.00  0.00     0.066 H 
ATOM     40  H   UNK d   1       9.178 -12.785  -2.297  0.00  0.00     0.066 H 
ENDBRANCH  36  37
ENDBRANCH  32  36
ENDBRANCH   1  26
BRANCH  21  41
ATOM     41  CB  TYR d   2       4.611  -3.329  -4.160  0.00  0.00    -0.001 C 
ATOM     42  HB1 TYR d   2       3.770  -4.006  -4.015  0.00  0.00     0.034 H 
ATOM     43  HB2 TYR d   2       5.492  -3.730  -3.661  0.00  0.00     0.034 H 
BRANCH  41  44
ATOM     44  CG  TYR d   2       4.275  -1.979  -3.580  0.00  0.00    -0.045 A 
ATOM     45  CD1 TYR d   2       4.653  -1.670  -2.287  0.00  0.00    -0.055 A 
ATOM     46  CE1 TYR d   2       4.346  -0.434  -1.753  0.00  0.00    -0.020 A 
ATOM     47  HD1 TYR d   2       5.189  -2.396  -1.693  0.00  0.00     0.062 H 
ATOM     48  CZ  TYR d   2       3.657   0.498  -2.516  0.00  0.00     0.117 A 
ATOM     49  HE1 TYR d   2       4.642  -0.192  -0.743  0.00  0.00     0.065 H 
ATOM     50  CE2 TYR d   2       3.279   0.187  -3.814  0.00  0.00    -0.020 A 
ATOM     51  CD2 TYR d   2       3.593  -1.050  -4.344  0.00  0.00    -0.055 A 
ATOM     52  HE2 TYR d   2       2.743   0.910  -4.409  0.00  0.00     0.065 H 
ATOM     53  HD2 TYR d   2       3.303  -1.292  -5.356  0.00  0.00     0.062 H 
BRANCH  48  54
ATOM     54  OH  TYR d   2       3.354   1.716  -1.992  0.00  0.00    -0.507 OA
ATOM     55  HH  TYR d   2       2.908   1.675  -1.135  0.00  0.00     0.292 HD
ENDBRANCH  48  54
ENDBRANCH  41  44
ENDBRANCH  21  41
TORSDOF 6
ENDMDL
MODEL 4
REMARK VINA RESULT:      -6.4      4.073      9.666
REMARK  6 active torsions:
REMARK  status: ('A' for Active; 'I' for Inactive)
REMARK    1  A    between atoms: C_1  and  O_2 
REMARK    2  A    between atoms: O_2  and  C_3 
REMARK    3  A    between atoms: C_7  and  N_9 
REMARK       I    between atoms: N_9  and  C_10 
REMARK       I    between atoms: C_10  and  N_12 
REMARK    4  A    between atoms: CA_22  and  CB_26 
REMARK    5  A    between atoms: CB_26  and  CG_27 
REMARK    6  A    between atoms: CZ_30  and  OH_33 
ROOT
ATOM      1  N   UNK d   1       8.908   1.887  -4.615  0.00  0.00    -0.269 N 
ATOM      2  C   UNK d   1       7.702   1.409  -4.248  0.00  0.00     0.307 C 
ATOM      3  O   UNK d   1       6.951   2.096  -3.583  0.00  0.00    -0.252 OA
ATOM      4  N   UNK d   1       7.328   0.168  -4.621  0.00  0.00    -0.282 N 
ATOM      5  C   UNK d   1       8.273  -0.708  -5.323  0.00  0.00     0.032 C 
ATOM      6  C   UNK d   1       8.363  -2.053  -4.584  0.00  0.00     0.031 C 
ATOM      7  N   UNK d   1       6.982  -2.521  -4.365  0.00  0.00    -0.285 N 
ATOM      8  C   UNK d   1       6.102  -1.649  -3.583  0.00  0.00     0.118 C 
ATOM      9  H   UNK d   1       6.588  -1.446  -2.629  0.00  0.00     0.061 H 
ATOM     10  C   UNK d   1       5.971  -0.318  -4.318  0.00  0.00     0.043 C 
ATOM     11  C   UNK d   1       4.781  -2.278  -3.305  0.00  0.00     0.236 C 
ATOM     12  O   UNK d   1       4.083  -1.797  -2.439  0.00  0.00    -0.274 OA
ATOM     13  H   UNK d   1       9.471   1.374  -5.213  0.00  0.00     0.156 HD
ATOM     14  H   UNK d   1       7.926  -0.876  -6.343  0.00  0.00     0.048 H 
ATOM     15  H   UNK d   1       9.257  -0.238  -5.348  0.00  0.00     0.048 H 
ATOM     16  H   UNK d   1       8.908  -2.776  -5.191  0.00  0.00     0.048 H 
ATOM     17  H   UNK d   1       8.867  -1.917  -3.627  0.00  0.00     0.048 H 
ATOM     18  H   UNK d   1       5.453   0.402  -3.686  0.00  0.00     0.049 H 
ATOM     19  H   UNK d   1       5.416  -0.465  -5.245  0.00  0.00     0.049 H 
ATOM     20  N   TYR d   2       4.326  -3.352  -3.968  0.00  0.00    -0.302 N 
ATOM     21  CA  TYR d   2       5.094  -3.976  -5.041  0.00  0.00     0.104 C 
ATOM     22  HA  TYR d   2       4.939  -5.055  -5.016  0.00  0.00     0.060 H 
ATOM     23  C   TYR d   2       6.559  -3.681  -4.875  0.00  0.00     0.237 C 
ATOM     24  O   TYR d   2       7.374  -4.514  -5.213  0.00  0.00    -0.274 OA
ATOM     25  H   TYR d   2       3.463  -3.723  -3.727  0.00  0.00     0.149 HD
ENDROOT
BRANCH   1  26
ATOM     26  C   UNK d   1       9.343   3.129  -4.135  0.00  0.00     0.038 A 
ATOM     27  C   UNK d   1       9.068   4.286  -4.852  0.00  0.00    -0.040 A 
ATOM     28  C   UNK d   1       9.493   5.511  -4.376  0.00  0.00    -0.057 A 
ATOM     29  H   UNK d   1       8.519   4.228  -5.780  0.00  0.00     0.064 H 
ATOM     30  C   UNK d   1      10.200   5.588  -3.191  0.00  0.00    -0.020 A 
ATOM     31  H   UNK d   1       9.275   6.411  -4.932  0.00  0.00     0.062 H 
ATOM     32  C   UNK d   1      10.482   4.434  -2.474  0.00  0.00     0.122 A 
ATOM     33  H   UNK d   1      10.534   6.547  -2.825  0.00  0.00     0.065 H 
ATOM     34  C   UNK d   1      10.053   3.204  -2.945  0.00  0.00     0.001 A 
ATOM     35  H   UNK d   1      10.272   2.305  -2.388  0.00  0.00     0.067 H 
BRANCH  32  36
ATOM     36  O   UNK d   1      11.179   4.511  -1.309  0.00  0.00    -0.495 OA
BRANCH  36  37
ATOM     37  C   UNK d   1      10.975   5.676  -0.507  0.00  0.00     0.079 C 
ATOM     38  H   UNK d   1       9.912   5.785  -0.289  0.00  0.00     0.066 H 
ATOM     39  H   UNK d   1      11.528   5.574   0.427  0.00  0.00     0.066 H 
ATOM     40  H   UNK d   1      11.328   6.555  -1.045  0.00  0.00     0.066 H 
ENDBRANCH  36  37
ENDBRANCH  32  36
ENDBRANCH   1  26
BRANCH  21  41
ATOM     41  CB  TYR d   2       4.617  -3.430  -6.389  0.00  0.00    -0.001 C 
ATOM     42  HB1 TYR d   2       3.741  -2.801  -6.236  0.00  0.00     0.034 H 
ATOM     43  HB2 TYR d   2       5.413  -2.842  -6.845  0.00  0.00     0.034 H 
BRANCH  41  44
ATOM     44  CG  TYR d   2       4.258  -4.579  -7.296  0.00  0.00    -0.045 A 
ATOM     45  CD1 TYR d   2       3.651  -4.334  -8.513  0.00  0.00    -0.055 A 
ATOM     46  CE1 TYR d   2       3.321  -5.385  -9.346  0.00  0.00    -0.020 A 
ATOM     47  HD1 TYR d   2       3.433  -3.319  -8.814  0.00  0.00     0.062 H 
ATOM     48  CZ  TYR d   2       3.600  -6.688  -8.960  0.00  0.00     0.117 A 
ATOM     49  HE1 TYR d   2       2.847  -5.193 -10.298  0.00  0.00     0.065 H 
ATOM     50  CE2 TYR d   2       4.210  -6.932  -7.739  0.00  0.00    -0.020 A 
ATOM     51  CD2 TYR d   2       4.542  -5.877  -6.912  0.00  0.00    -0.055 A 
ATOM     52  HE2 TYR d   2       4.428  -7.945  -7.437  0.00  0.00     0.065 H 
ATOM     53  HD2 TYR d   2       5.022  -6.065  -5.962  0.00  0.00     0.062 H 
BRANCH  48  54
ATOM     54  OH  TYR d   2       3.276  -7.724  -9.779  0.00  0.00    -0.507 OA
ATOM     55  HH  TYR d   2       3.213  -8.577  -9.327  0.00  0.00     0.292 HD
ENDBRANCH  48  54
ENDBRANCH  41  44
ENDBRANCH  21  41
TORSDOF 6
ENDMDL
MODEL 5
REMARK VINA RESULT:      -6.3      4.353      5.184
REMARK  6 active torsions:
REMARK  status: ('A' for Active; 'I' for Inactive)
REMARK    1  A    between atoms: C_1  and  O_2 
REMARK    2  A    between atoms: O_2  and  C_3 
REMARK    3  A    between atoms: C_7  and  N_9 
REMARK       I    between atoms: N_9  and  C_10 
REMARK       I    between atoms: C_10  and  N_12 
REMARK    4  A    between atoms: CA_22  and  CB_26 
REMARK    5  A    between atoms: CB_26  and  CG_27 
REMARK    6  A    between atoms: CZ_30  and  OH_33 
ROOT
ATOM      1  N   UNK d   1       7.932   0.121  -3.718  0.00  0.00    -0.269 N 
ATOM      2  C   UNK d   1       7.903   1.175  -4.558  0.00  0.00     0.307 C 
ATOM      3  O   UNK d   1       7.182   1.154  -5.537  0.00  0.00    -0.252 OA
ATOM      4  N   UNK d   1       8.674   2.253  -4.312  0.00  0.00    -0.282 N 
ATOM      5  C   UNK d   1       9.631   2.239  -3.199  0.00  0.00     0.032 C 
ATOM      6  C   UNK d   1      11.024   2.623  -3.724  0.00  0.00     0.031 C 
ATOM      7  N   UNK d   1      10.865   3.858  -4.513  0.00  0.00    -0.285 N 
ATOM      8  C   UNK d   1       9.964   3.798  -5.667  0.00  0.00     0.118 C 
ATOM      9  H   UNK d   1      10.290   2.979  -6.308  0.00  0.00     0.061 H 
ATOM     10  C   UNK d   1       8.566   3.451  -5.163  0.00  0.00     0.043 C 
ATOM     11  C   UNK d   1       9.986   5.051  -6.470  0.00  0.00     0.236 C 
ATOM     12  O   UNK d   1       9.521   5.028  -7.590  0.00  0.00    -0.274 OA
ATOM     13  H   UNK d   1       8.441   0.171  -2.896  0.00  0.00     0.156 HD
ATOM     14  H   UNK d   1       9.318   2.955  -2.440  0.00  0.00     0.048 H 
ATOM     15  H   UNK d   1       9.668   1.240  -2.764  0.00  0.00     0.048 H 
ATOM     16  H   UNK d   1      11.700   2.802  -2.888  0.00  0.00     0.048 H 
ATOM     17  H   UNK d   1      11.416   1.826  -4.355  0.00  0.00     0.048 H 
ATOM     18  H   UNK d   1       7.911   3.245  -6.010  0.00  0.00     0.049 H 
ATOM     19  H   UNK d   1       8.169   4.283  -4.581  0.00  0.00     0.049 H 
ATOM     20  N   TYR d   2      10.494   6.206  -6.015  0.00  0.00    -0.302 N 
ATOM     21  CA  TYR d   2      11.049   6.324  -4.670  0.00  0.00     0.104 C 
ATOM     22  HA  TYR d   2      11.898   7.008  -4.689  0.00  0.00     0.060 H 
ATOM     23  C   TYR d   2      11.505   4.980  -4.172  0.00  0.00     0.237 C 
ATOM     24  O   TYR d   2      12.474   4.914  -3.446  0.00  0.00    -0.274 OA
ATOM     25  H   TYR d   2      10.491   6.984  -6.594  0.00  0.00     0.149 HD
ENDROOT
BRANCH   1  26
ATOM     26  C   UNK d   1       7.219  -1.043  -4.032  0.00  0.00     0.038 A 
ATOM     27  C   UNK d   1       7.784  -1.999  -4.865  0.00  0.00    -0.040 A 
ATOM     28  C   UNK d   1       7.083  -3.150  -5.171  0.00  0.00    -0.057 A 
ATOM     29  H   UNK d   1       8.772  -1.846  -5.272  0.00  0.00     0.064 H 
ATOM     30  C   UNK d   1       5.815  -3.347  -4.658  0.00  0.00    -0.020 A 
ATOM     31  H   UNK d   1       7.525  -3.895  -5.816  0.00  0.00     0.062 H 
ATOM     32  C   UNK d   1       5.244  -2.391  -3.830  0.00  0.00     0.122 A 
ATOM     33  H   UNK d   1       5.269  -4.245  -4.903  0.00  0.00     0.065 H 
ATOM     34  C   UNK d   1       5.946  -1.238  -3.516  0.00  0.00     0.001 A 
ATOM     35  H   UNK d   1       5.503  -0.494  -2.872  0.00  0.00     0.067 H 
BRANCH  32  36
ATOM     36  O   UNK d   1       3.997  -2.586  -3.327  0.00  0.00    -0.495 OA
BRANCH  36  37
ATOM     37  C   UNK d   1       3.275  -1.424  -2.914  0.00  0.00     0.079 C 
ATOM     38  H   UNK d   1       2.771  -0.984  -3.775  0.00  0.00     0.066 H 
ATOM     39  H   UNK d   1       2.534  -1.704  -2.165  0.00  0.00     0.066 H 
ATOM     40  H   UNK d   1       3.967  -0.698  -2.488  0.00  0.00     0.066 H 
ENDBRANCH  36  37
ENDBRANCH  32  36
ENDBRANCH   1  26
BRANCH  21  41
ATOM     41  CB  TYR d   2       9.980   6.877  -3.725  0.00  0.00    -0.001 C 
ATOM     42  HB1 TYR d   2       9.524   7.761  -4.171  0.00  0.00     0.034 H 
ATOM     43  HB2 TYR d   2       9.216   6.119  -3.558  0.00  0.00     0.034 H 
BRANCH  41  44
ATOM     44  CG  TYR d   2      10.615   7.250  -2.410  0.00  0.00    -0.045 A 
ATOM     45  CD1 TYR d   2      11.627   8.190  -2.374  0.00  0.00    -0.055 A 
ATOM     46  CE1 TYR d   2      12.211   8.533  -1.171  0.00  0.00    -0.020 A 
ATOM     47  HD1 TYR d   2      11.963   8.657  -3.289  0.00  0.00     0.062 H 
ATOM     48  CZ  TYR d   2      11.780   7.933   0.003  0.00  0.00     0.117 A 
ATOM     49  HE1 TYR d   2      13.002   9.268  -1.143  0.00  0.00     0.065 H 
ATOM     50  CE2 TYR d   2      10.763   6.990  -0.034  0.00  0.00    -0.020 A 
ATOM     51  CD2 TYR d   2      10.179   6.654  -1.240  0.00  0.00    -0.055 A 
ATOM     52  HE2 TYR d   2      10.426   6.522   0.878  0.00  0.00     0.065 H 
ATOM     53  HD2 TYR d   2       9.384   5.923  -1.271  0.00  0.00     0.062 H 
BRANCH  48  54
ATOM     54  OH  TYR d   2      12.353   8.269   1.190  0.00  0.00    -0.507 OA
ATOM     55  HH  TYR d   2      12.987   7.617   1.519  0.00  0.00     0.292 HD
ENDBRANCH  48  54
ENDBRANCH  41  44
ENDBRANCH  21  41
TORSDOF 6
ENDMDL
MODEL 6
REMARK VINA RESULT:      -6.3      4.738      7.779
REMARK  6 active torsions:
REMARK  status: ('A' for Active; 'I' for Inactive)
REMARK    1  A    between atoms: C_1  and  O_2 
REMARK    2  A    between atoms: O_2  and  C_3 
REMARK    3  A    between atoms: C_7  and  N_9 
REMARK       I    between atoms: N_9  and  C_10 
REMARK       I    between atoms: C_10  and  N_12 
REMARK    4  A    between atoms: CA_22  and  CB_26 
REMARK    5  A    between atoms: CB_26  and  CG_27 
REMARK    6  A    between atoms: CZ_30  and  OH_33 
ROOT
ATOM      1  N   UNK d   1      10.504   4.729  -4.274  0.00  0.00    -0.269 N 
ATOM      2  C   UNK d   1       9.763   3.612  -4.410  0.00  0.00     0.307 C 
ATOM      3  O   UNK d   1       9.583   2.881  -3.454  0.00  0.00    -0.252 OA
ATOM      4  N   UNK d   1       9.220   3.304  -5.605  0.00  0.00    -0.282 N 
ATOM      5  C   UNK d   1       9.529   4.118  -6.787  0.00  0.00     0.032 C 
ATOM      6  C   UNK d   1      10.029   3.201  -7.916  0.00  0.00     0.031 C 
ATOM      7  N   UNK d   1       9.059   2.099  -8.041  0.00  0.00    -0.285 N 
ATOM      8  C   UNK d   1       8.850   1.261  -6.858  0.00  0.00     0.118 C 
ATOM      9  H   UNK d   1       9.819   0.877  -6.540  0.00  0.00     0.061 H 
ATOM     10  C   UNK d   1       8.320   2.146  -5.734  0.00  0.00     0.043 C 
ATOM     11  C   UNK d   1       7.961   0.098  -7.135  0.00  0.00     0.236 C 
ATOM     12  O   UNK d   1       7.942  -0.817  -6.340  0.00  0.00    -0.274 OA
ATOM     13  H   UNK d   1      10.579   5.353  -5.011  0.00  0.00     0.156 HD
ATOM     14  H   UNK d   1       8.630   4.641  -7.114  0.00  0.00     0.048 H 
ATOM     15  H   UNK d   1      10.302   4.845  -6.538  0.00  0.00     0.048 H 
ATOM     16  H   UNK d   1      10.081   3.758  -8.851  0.00  0.00     0.048 H 
ATOM     17  H   UNK d   1      11.013   2.806  -7.665  0.00  0.00     0.048 H 
ATOM     18  H   UNK d   1       8.304   1.584  -4.800  0.00  0.00     0.049 H 
ATOM     19  H   UNK d   1       7.313   2.486  -5.979  0.00  0.00     0.049 H 
ATOM     20  N   TYR d   2       7.180   0.015  -8.222  0.00  0.00    -0.302 N 
ATOM     21  CA  TYR d   2       7.127   1.084  -9.215  0.00  0.00     0.104 C 
ATOM     22  HA  TYR d   2       7.002   0.650 -10.207  0.00  0.00     0.060 H 
ATOM     23  C   TYR d   2       8.395   1.892  -9.182  0.00  0.00     0.237 C 
ATOM     24  O   TYR d   2       8.823   2.366 -10.213  0.00  0.00    -0.274 OA
ATOM     25  H   TYR d   2       6.635  -0.777  -8.352  0.00  0.00     0.149 HD
ENDROOT
BRANCH   1  26
ATOM     26  C   UNK d   1      11.161   4.990  -3.065  0.00  0.00     0.038 A 
ATOM     27  C   UNK d   1      12.536   4.820  -2.971  0.00  0.00    -0.040 A 
ATOM     28  C   UNK d   1      13.185   5.082  -1.780  0.00  0.00    -0.057 A 
ATOM     29  H   UNK d   1      13.099   4.486  -3.829  0.00  0.00     0.064 H 
ATOM     30  C   UNK d   1      12.467   5.504  -0.677  0.00  0.00    -0.020 A 
ATOM     31  H   UNK d   1      14.254   4.954  -1.709  0.00  0.00     0.062 H 
ATOM     32  C   UNK d   1      11.092   5.670  -0.765  0.00  0.00     0.122 A 
ATOM     33  H   UNK d   1      12.976   5.703   0.254  0.00  0.00     0.065 H 
ATOM     34  C   UNK d   1      10.438   5.413  -1.959  0.00  0.00     0.001 A 
ATOM     35  H   UNK d   1       9.368   5.542  -2.029  0.00  0.00     0.067 H 
BRANCH  32  36
ATOM     36  O   UNK d   1      10.387   6.083   0.321  0.00  0.00    -0.495 OA
BRANCH  36  37
ATOM     37  C   UNK d   1      10.974   5.852   1.603  0.00  0.00     0.079 C 
ATOM     38  H   UNK d   1      10.208   5.504   2.296  0.00  0.00     0.066 H 
ATOM     39  H   UNK d   1      11.753   5.095   1.514  0.00  0.00     0.066 H 
ATOM     40  H   UNK d   1      11.408   6.779   1.977  0.00  0.00     0.066 H 
ENDBRANCH  36  37
ENDBRANCH  32  36
ENDBRANCH   1  26
BRANCH  21  41
ATOM     41  CB  TYR d   2       5.937   1.998  -8.913  0.00  0.00    -0.001 C 
ATOM     42  HB1 TYR d   2       5.933   2.250  -7.852  0.00  0.00     0.034 H 
ATOM     43  HB2 TYR d   2       6.020   2.910  -9.503  0.00  0.00     0.034 H 
BRANCH  41  44
ATOM     44  CG  TYR d   2       4.656   1.286  -9.264  0.00  0.00    -0.045 A 
ATOM     45  CD1 TYR d   2       3.701   1.062  -8.290  0.00  0.00    -0.055 A 
ATOM     46  CE1 TYR d   2       2.527   0.410  -8.609  0.00  0.00    -0.020 A 
ATOM     47  HD1 TYR d   2       3.874   1.396  -7.277  0.00  0.00     0.062 H 
ATOM     48  CZ  TYR d   2       2.305  -0.020  -9.909  0.00  0.00     0.117 A 
ATOM     49  HE1 TYR d   2       1.781   0.235  -7.847  0.00  0.00     0.065 H 
ATOM     50  CE2 TYR d   2       3.264   0.206 -10.886  0.00  0.00    -0.020 A 
ATOM     51  CD2 TYR d   2       4.435   0.864 -10.562  0.00  0.00    -0.055 A 
ATOM     52  HE2 TYR d   2       3.093  -0.127 -11.898  0.00  0.00     0.065 H 
ATOM     53  HD2 TYR d   2       5.180   1.045 -11.323  0.00  0.00     0.062 H 
BRANCH  48  54
ATOM     54  OH  TYR d   2       1.149  -0.663 -10.226  0.00  0.00    -0.507 OA
ATOM     55  HH  TYR d   2       0.964  -1.434  -9.673  0.00  0.00     0.292 HD
ENDBRANCH  48  54
ENDBRANCH  41  44
ENDBRANCH  21  41
TORSDOF 6
ENDMDL
MODEL 7
REMARK VINA RESULT:      -6.3      3.207     10.195
REMARK  6 active torsions:
REMARK  status: ('A' for Active; 'I' for Inactive)
REMARK    1  A    between atoms: C_1  and  O_2 
REMARK    2  A    between atoms: O_2  and  C_3 
REMARK    3  A    between atoms: C_7  and  N_9 
REMARK       I    between atoms: N_9  and  C_10 
REMARK       I    between atoms: C_10  and  N_12 
REMARK    4  A    between atoms: CA_22  and  CB_26 
REMARK    5  A    between atoms: CB_26  and  CG_27 
REMARK    6  A    between atoms: CZ_30  and  OH_33 
ROOT
ATOM      1  N   UNK d   1      10.424   7.446  -7.538  0.00  0.00    -0.269 N 
ATOM      2  C   UNK d   1      10.387   6.934  -6.292  0.00  0.00     0.307 C 
ATOM      3  O   UNK d   1      10.744   7.609  -5.345  0.00  0.00    -0.252 OA
ATOM      4  N   UNK d   1       9.952   5.673  -6.094  0.00  0.00    -0.282 N 
ATOM      5  C   UNK d   1       9.630   4.815  -7.240  0.00  0.00     0.032 C 
ATOM      6  C   UNK d   1      10.401   3.491  -7.115  0.00  0.00     0.031 C 
ATOM      7  N   UNK d   1      10.166   2.980  -5.752  0.00  0.00    -0.285 N 
ATOM      8  C   UNK d   1      10.584   3.838  -4.640  0.00  0.00     0.118 C 
ATOM      9  H   UNK d   1      11.638   4.078  -4.777  0.00  0.00     0.061 H 
ATOM     10  C   UNK d   1       9.805   5.146  -4.726  0.00  0.00     0.043 C 
ATOM     11  C   UNK d   1      10.431   3.169  -3.319  0.00  0.00     0.236 C 
ATOM     12  O   UNK d   1      11.002   3.644  -2.360  0.00  0.00    -0.274 OA
ATOM     13  H   UNK d   1      10.062   6.940  -8.280  0.00  0.00     0.156 HD
ATOM     14  H   UNK d   1       8.559   4.613  -7.255  0.00  0.00     0.048 H 
ATOM     15  H   UNK d   1       9.917   5.318  -8.164  0.00  0.00     0.048 H 
ATOM     16  H   UNK d   1      10.032   2.774  -7.848  0.00  0.00     0.048 H 
ATOM     17  H   UNK d   1      11.466   3.665  -7.269  0.00  0.00     0.048 H 
ATOM     18  H   UNK d   1      10.206   5.861  -4.009  0.00  0.00     0.049 H 
ATOM     19  H   UNK d   1       8.752   4.960  -4.514  0.00  0.00     0.049 H 
ATOM     20  N   TYR d   2       9.690   2.066  -3.136  0.00  0.00    -0.302 N 
ATOM     21  CA  TYR d   2       8.952   1.445  -4.233  0.00  0.00     0.104 C 
ATOM     22  HA  TYR d   2       8.959   0.362  -4.105  0.00  0.00     0.060 H 
ATOM     23  C   TYR d   2       9.583   1.795  -5.552  0.00  0.00     0.237 C 
ATOM     24  O   TYR d   2       9.561   0.984  -6.453  0.00  0.00    -0.274 OA
ATOM     25  H   TYR d   2       9.643   1.669  -2.252  0.00  0.00     0.149 HD
ENDROOT
BRANCH   1  26
ATOM     26  C   UNK d   1      10.980   8.712  -7.757  0.00  0.00     0.038 A 
ATOM     27  C   UNK d   1      12.340   8.840  -8.006  0.00  0.00    -0.040 A 
ATOM     28  C   UNK d   1      12.888  10.088  -8.228  0.00  0.00    -0.057 A 
ATOM     29  H   UNK d   1      12.969   7.962  -8.031  0.00  0.00     0.064 H 
ATOM     30  C   UNK d   1      12.088  11.214  -8.191  0.00  0.00    -0.020 A 
ATOM     31  H   UNK d   1      13.945  10.186  -8.426  0.00  0.00     0.062 H 
ATOM     32  C   UNK d   1      10.729  11.092  -7.936  0.00  0.00     0.122 A 
ATOM     33  H   UNK d   1      12.520  12.189  -8.360  0.00  0.00     0.065 H 
ATOM     34  C   UNK d   1      10.174   9.842  -7.719  0.00  0.00     0.001 A 
ATOM     35  H   UNK d   1       9.117   9.745  -7.521  0.00  0.00     0.067 H 
BRANCH  32  36
ATOM     36  O   UNK d   1       9.943  12.200  -7.900  0.00  0.00    -0.495 OA
BRANCH  36  37
ATOM     37  C   UNK d   1       9.597  12.708  -6.609  0.00  0.00     0.079 C 
ATOM     38  H   UNK d   1      10.056  13.687  -6.469  0.00  0.00     0.066 H 
ATOM     39  H   UNK d   1       8.514  12.801  -6.535  0.00  0.00     0.066 H 
ATOM     40  H   UNK d   1       9.958  12.025  -5.841  0.00  0.00     0.066 H 
ENDBRANCH  36  37
ENDBRANCH  32  36
ENDBRANCH   1  26
BRANCH  21  41
ATOM     41  CB  TYR d   2       7.505   1.943  -4.216  0.00  0.00    -0.001 C 
ATOM     42  HB1 TYR d   2       7.446   2.868  -3.642  0.00  0.00     0.034 H 
ATOM     43  HB2 TYR d   2       7.172   2.127  -5.236  0.00  0.00     0.034 H 
BRANCH  41  44
ATOM     44  CG  TYR d   2       6.623   0.901  -3.578  0.00  0.00    -0.045 A 
ATOM     45  CD1 TYR d   2       5.523   1.287  -2.836  0.00  0.00    -0.055 A 
ATOM     46  CE1 TYR d   2       4.713   0.334  -2.252  0.00  0.00    -0.020 A 
ATOM     47  HD1 TYR d   2       5.296   2.336  -2.713  0.00  0.00     0.062 H 
ATOM     48  CZ  TYR d   2       5.004  -1.014  -2.410  0.00  0.00     0.117 A 
ATOM     49  HE1 TYR d   2       3.852   0.636  -1.672  0.00  0.00     0.065 H 
ATOM     50  CE2 TYR d   2       6.108  -1.400  -3.156  0.00  0.00    -0.020 A 
ATOM     51  CD2 TYR d   2       6.912  -0.442  -3.743  0.00  0.00    -0.055 A 
ATOM     52  HE2 TYR d   2       6.337  -2.447  -3.280  0.00  0.00     0.065 H 
ATOM     53  HD2 TYR d   2       7.770  -0.741  -4.327  0.00  0.00     0.062 H 
BRANCH  48  54
ATOM     54  OH  TYR d   2       4.208  -1.955  -1.835  0.00  0.00    -0.507 OA
ATOM     55  HH  TYR d   2       4.557  -2.854  -1.895  0.00  0.00     0.292 HD
ENDBRANCH  48  54
ENDBRANCH  41  44
ENDBRANCH  21  41
TORSDOF 6
ENDMDL
MODEL 8
REMARK VINA RESULT:      -6.2      7.442     10.675
REMARK  6 active torsions:
REMARK  status: ('A' for Active; 'I' for Inactive)
REMARK    1  A    between atoms: C_1  and  O_2 
REMARK    2  A    between atoms: O_2  and  C_3 
REMARK    3  A    between atoms: C_7  and  N_9 
REMARK       I    between atoms: N_9  and  C_10 
REMARK       I    between atoms: C_10  and  N_12 
REMARK    4  A    between atoms: CA_22  and  CB_26 
REMARK    5  A    between atoms: CB_26  and  CG_27 
REMARK    6  A    between atoms: CZ_30  and  OH_33 
ROOT
ATOM      1  N   UNK d   1      10.647   7.643  -9.482  0.00  0.00    -0.269 N 
ATOM      2  C   UNK d   1       9.922   8.314  -8.566  0.00  0.00     0.307 C 
ATOM      3  O   UNK d   1       8.899   8.882  -8.897  0.00  0.00    -0.252 OA
ATOM      4  N   UNK d   1      10.330   8.354  -7.282  0.00  0.00    -0.282 N 
ATOM      5  C   UNK d   1      11.621   7.770  -6.898  0.00  0.00     0.032 C 
ATOM      6  C   UNK d   1      12.445   8.819  -6.135  0.00  0.00     0.031 C 
ATOM      7  N   UNK d   1      11.573   9.375  -5.085  0.00  0.00    -0.285 N 
ATOM      8  C   UNK d   1      10.336  10.026  -5.524  0.00  0.00     0.118 C 
ATOM      9  H   UNK d   1      10.598  10.799  -6.246  0.00  0.00     0.061 H 
ATOM     10  C   UNK d   1       9.486   8.991  -6.256  0.00  0.00     0.043 C 
ATOM     11  C   UNK d   1       9.604  10.672  -4.400  0.00  0.00     0.236 C 
ATOM     12  O   UNK d   1       8.737  11.478  -4.662  0.00  0.00    -0.274 OA
ATOM     13  H   UNK d   1      11.415   7.121  -9.205  0.00  0.00     0.156 HD
ATOM     14  H   UNK d   1      11.453   6.903  -6.259  0.00  0.00     0.048 H 
ATOM     15  H   UNK d   1      12.162   7.462  -7.794  0.00  0.00     0.048 H 
ATOM     16  H   UNK d   1      13.318   8.349  -5.682  0.00  0.00     0.048 H 
ATOM     17  H   UNK d   1      12.761   9.610  -6.815  0.00  0.00     0.048 H 
ATOM     18  H   UNK d   1       8.636   9.481  -6.729  0.00  0.00     0.049 H 
ATOM     19  H   UNK d   1       9.134   8.239  -5.549  0.00  0.00     0.049 H 
ATOM     20  N   TYR d   2       9.856  10.405  -3.110  0.00  0.00    -0.302 N 
ATOM     21  CA  TYR d   2      10.866   9.429  -2.710  0.00  0.00     0.104 C 
ATOM     22  HA  TYR d   2      11.353   9.769  -1.795  0.00  0.00     0.060 H 
ATOM     23  C   TYR d   2      11.898   9.271  -3.793  0.00  0.00     0.237 C 
ATOM     24  O   TYR d   2      13.049   9.043  -3.486  0.00  0.00    -0.274 OA
ATOM     25  H   TYR d   2       9.353  10.872  -2.425  0.00  0.00     0.149 HD
ENDROOT
BRANCH   1  26
ATOM     26  C   UNK d   1      10.286   7.695 -10.834  0.00  0.00     0.038 A 
ATOM     27  C   UNK d   1      10.665   8.781 -11.613  0.00  0.00    -0.040 A 
ATOM     28  C   UNK d   1      10.313   8.830 -12.948  0.00  0.00    -0.057 A 
ATOM     29  H   UNK d   1      11.237   9.585 -11.176  0.00  0.00     0.064 H 
ATOM     30  C   UNK d   1       9.576   7.805 -13.509  0.00  0.00    -0.020 A 
ATOM     31  H   UNK d   1      10.612   9.673 -13.553  0.00  0.00     0.062 H 
ATOM     32  C   UNK d   1       9.190   6.720 -12.734  0.00  0.00     0.122 A 
ATOM     33  H   UNK d   1       9.299   7.849 -14.552  0.00  0.00     0.065 H 
ATOM     34  C   UNK d   1       9.545   6.664 -11.396  0.00  0.00     0.001 A 
ATOM     35  H   UNK d   1       9.247   5.821 -10.792  0.00  0.00     0.067 H 
BRANCH  32  36
ATOM     36  O   UNK d   1       8.464   5.713 -13.287  0.00  0.00    -0.495 OA
BRANCH  36  37
ATOM     37  C   UNK d   1       8.567   5.541 -14.702  0.00  0.00     0.079 C 
ATOM     38  H   UNK d   1       7.677   5.948 -15.183  0.00  0.00     0.066 H 
ATOM     39  H   UNK d   1       9.449   6.066 -15.069  0.00  0.00     0.066 H 
ATOM     40  H   UNK d   1       8.652   4.480 -14.934  0.00  0.00     0.066 H 
ENDBRANCH  36  37
ENDBRANCH  32  36
ENDBRANCH   1  26
BRANCH  21  41
ATOM     41  CB  TYR d   2      10.193   8.079  -2.451  0.00  0.00    -0.001 C 
ATOM     42  HB1 TYR d   2       9.114   8.185  -2.561  0.00  0.00     0.034 H 
ATOM     43  HB2 TYR d   2      10.561   7.347  -3.168  0.00  0.00     0.034 H 
BRANCH  41  44
ATOM     44  CG  TYR d   2      10.513   7.620  -1.052  0.00  0.00    -0.045 A 
ATOM     45  CD1 TYR d   2      10.560   6.269  -0.763  0.00  0.00    -0.055 A 
ATOM     46  CE1 TYR d   2      10.853   5.846   0.518  0.00  0.00    -0.020 A 
ATOM     47  HD1 TYR d   2      10.367   5.543  -1.540  0.00  0.00     0.062 H 
ATOM     48  CZ  TYR d   2      11.100   6.778   1.516  0.00  0.00     0.117 A 
ATOM     49  HE1 TYR d   2      10.891   4.790   0.744  0.00  0.00     0.065 H 
ATOM     50  CE2 TYR d   2      11.053   8.133   1.224  0.00  0.00    -0.020 A 
ATOM     51  CD2 TYR d   2      10.764   8.551  -0.060  0.00  0.00    -0.055 A 
ATOM     52  HE2 TYR d   2      11.245   8.860   1.999  0.00  0.00     0.065 H 
ATOM     53  HD2 TYR d   2      10.732   9.606  -0.290  0.00  0.00     0.062 H 
BRANCH  48  54
ATOM     54  OH  TYR d   2      11.389   6.363   2.779  0.00  0.00    -0.507 OA
ATOM     55  HH  TYR d   2      11.418   5.402   2.880  0.00  0.00     0.292 HD
ENDBRANCH  48  54
ENDBRANCH  41  44
ENDBRANCH  21  41
TORSDOF 6
ENDMDL
MODEL 9
REMARK VINA RESULT:      -6.1      2.458      2.930
REMARK  6 active torsions:
REMARK  status: ('A' for Active; 'I' for Inactive)
REMARK    1  A    between atoms: C_1  and  O_2 
REMARK    2  A    between atoms: O_2  and  C_3 
REMARK    3  A    between atoms: C_7  and  N_9 
REMARK       I    between atoms: N_9  and  C_10 
REMARK       I    between atoms: C_10  and  N_12 
REMARK    4  A    between atoms: CA_22  and  CB_26 
REMARK    5  A    between atoms: CB_26  and  CG_27 
REMARK    6  A    between atoms: CZ_30  and  OH_33 
ROOT
ATOM      1  N   UNK d   1       7.533   0.247  -3.703  0.00  0.00    -0.269 N 
ATOM      2  C   UNK d   1       7.802   1.022  -4.772  0.00  0.00     0.307 C 
ATOM      3  O   UNK d   1       7.243   0.814  -5.832  0.00  0.00    -0.252 OA
ATOM      4  N   UNK d   1       8.691   2.030  -4.666  0.00  0.00    -0.282 N 
ATOM      5  C   UNK d   1       9.455   2.214  -3.426  0.00  0.00     0.032 C 
ATOM      6  C   UNK d   1      10.955   2.274  -3.757  0.00  0.00     0.031 C 
ATOM      7  N   UNK d   1      11.118   3.252  -4.848  0.00  0.00    -0.285 N 
ATOM      8  C   UNK d   1      10.404   2.979  -6.098  0.00  0.00     0.118 C 
ATOM      9  H   UNK d   1      10.686   1.983  -6.438  0.00  0.00     0.061 H 
ATOM     10  C   UNK d   1       8.908   2.949  -5.797  0.00  0.00     0.043 C 
ATOM     11  C   UNK d   1      10.749   3.950  -7.173  0.00  0.00     0.236 C 
ATOM     12  O   UNK d   1      10.461   3.671  -8.317  0.00  0.00    -0.274 OA
ATOM     13  H   UNK d   1       7.914   0.463  -2.839  0.00  0.00     0.156 HD
ATOM     14  H   UNK d   1       9.150   3.144  -2.945  0.00  0.00     0.048 H 
ATOM     15  H   UNK d   1       9.263   1.378  -2.752  0.00  0.00     0.048 H 
ATOM     16  H   UNK d   1      11.517   2.598  -2.882  0.00  0.00     0.048 H 
ATOM     17  H   UNK d   1      11.303   1.293  -4.081  0.00  0.00     0.048 H 
ATOM     18  H   UNK d   1       8.364   2.594  -6.671  0.00  0.00     0.049 H 
ATOM     19  H   UNK d   1       8.568   3.950  -5.529  0.00  0.00     0.049 H 
ATOM     20  N   TYR d   2      11.363   5.118  -6.937  0.00  0.00    -0.302 N 
ATOM     21  CA  TYR d   2      11.721   5.540  -5.585  0.00  0.00     0.104 C 
ATOM     22  HA  TYR d   2      12.663   6.089  -5.617  0.00  0.00     0.060 H 
ATOM     23  C   TYR d   2      11.873   4.343  -4.688  0.00  0.00     0.237 C 
ATOM     24  O   TYR d   2      12.698   4.369  -3.799  0.00  0.00    -0.274 OA
ATOM     25  H   TYR d   2      11.574   5.700  -7.684  0.00  0.00     0.149 HD
ENDROOT
BRANCH   1  26
ATOM     26  C   UNK d   1       6.697  -0.868  -3.841  0.00  0.00     0.038 A 
ATOM     27  C   UNK d   1       7.200  -2.054  -4.359  0.00  0.00    -0.040 A 
ATOM     28  C   UNK d   1       6.377  -3.155  -4.491  0.00  0.00    -0.057 A 
ATOM     29  H   UNK d   1       8.237  -2.117  -4.656  0.00  0.00     0.064 H 
ATOM     30  C   UNK d   1       5.049  -3.077  -4.118  0.00  0.00    -0.020 A 
ATOM     31  H   UNK d   1       6.771  -4.078  -4.890  0.00  0.00     0.062 H 
ATOM     32  C   UNK d   1       4.539  -1.893  -3.606  0.00  0.00     0.122 A 
ATOM     33  H   UNK d   1       4.407  -3.939  -4.227  0.00  0.00     0.065 H 
ATOM     34  C   UNK d   1       5.363  -0.787  -3.467  0.00  0.00     0.001 A 
ATOM     35  H   UNK d   1       4.968   0.135  -3.068  0.00  0.00     0.067 H 
BRANCH  32  36
ATOM     36  O   UNK d   1       3.232  -1.817  -3.240  0.00  0.00    -0.495 OA
BRANCH  36  37
ATOM     37  C   UNK d   1       2.658  -0.511  -3.151  0.00  0.00     0.079 C 
ATOM     38  H   UNK d   1       1.598  -0.562  -3.402  0.00  0.00     0.066 H 
ATOM     39  H   UNK d   1       2.772  -0.133  -2.135  0.00  0.00     0.066 H 
ATOM     40  H   UNK d   1       3.164   0.157  -3.847  0.00  0.00     0.066 H 
ENDBRANCH  36  37
ENDBRANCH  32  36
ENDBRANCH   1  26
BRANCH  21  41
ATOM     41  CB  TYR d   2      10.625   6.452  -5.031  0.00  0.00    -0.001 C 
ATOM     42  HB1 TYR d   2       9.669   5.930  -5.060  0.00  0.00     0.034 H 
ATOM     43  HB2 TYR d   2      10.862   6.721  -4.002  0.00  0.00     0.034 H 
BRANCH  41  44
ATOM     44  CG  TYR d   2      10.540   7.701  -5.871  0.00  0.00    -0.045 A 
ATOM     45  CD1 TYR d   2       9.388   7.977  -6.582  0.00  0.00    -0.055 A 
ATOM     46  CE1 TYR d   2       9.307   9.121  -7.352  0.00  0.00    -0.020 A 
ATOM     47  HD1 TYR d   2       8.549   7.298  -6.537  0.00  0.00     0.062 H 
ATOM     48  CZ  TYR d   2      10.384   9.993  -7.411  0.00  0.00     0.117 A 
ATOM     49  HE1 TYR d   2       8.406   9.337  -7.908  0.00  0.00     0.065 H 
ATOM     50  CE2 TYR d   2      11.540   9.715  -6.695  0.00  0.00    -0.020 A 
ATOM     51  CD2 TYR d   2      11.613   8.572  -5.923  0.00  0.00    -0.055 A 
ATOM     52  HE2 TYR d   2      12.379  10.392  -6.740  0.00  0.00     0.065 H 
ATOM     53  HD2 TYR d   2      12.510   8.356  -5.362  0.00  0.00     0.062 H 
BRANCH  48  54
ATOM     54  OH  TYR d   2      10.307  11.120  -8.168  0.00  0.00    -0.507 OA
ATOM     55  HH  TYR d   2      10.990  11.775  -7.968  0.00  0.00     0.292 HD
ENDBRANCH  48  54
ENDBRANCH  41  44
ENDBRANCH  21  41
TORSDOF 6
ENDMDL
