MODEL 1
REMARK VINA RESULT:      -7.5      0.000      0.000
REMARK  6 active torsions:
REMARK  status: ('A' for Active; 'I' for Inactive)
REMARK    1  A    between atoms: C_1  and  C_2 
REMARK    2  A    between atoms: C_5  and  C_8 
REMARK       I    between atoms: C_8  and  N_10 
REMARK    3  A    between atoms: N_10  and  C_11 
REMARK    4  A    between atoms: C_14  and  C_18 
REMARK    5  A    between atoms: C_17  and  N_48 
REMARK    6  A    between atoms: C_20  and  C_23 
ROOT
ATOM      1  C   LIG d   1       9.950   2.552  -3.861  0.00  0.00     0.069 C 
ATOM      2  H   LIG d   1       9.935   2.632  -4.948  0.00  0.00     0.055 H 
ATOM      3  C   LIG d   1       9.722   3.940  -3.206  0.00  0.00     0.023 C 
ATOM      4  C   LIG d   1      11.155   4.540  -3.250  0.00  0.00     0.061 C 
ATOM      5  H   LIG d   1      11.359   4.962  -4.234  0.00  0.00     0.095 H 
ATOM      6  C   LIG d   1      11.354   2.153  -3.362  0.00  0.00    -0.012 C 
ATOM      7  H   LIG d   1       9.026   4.539  -3.793  0.00  0.00     0.035 H 
ATOM      8  H   LIG d   1       9.374   3.835  -2.179  0.00  0.00     0.035 H 
ATOM      9  H   LIG d   1      11.268   1.499  -2.494  0.00  0.00     0.083 H 
ATOM     10  H   LIG d   1      11.900   1.647  -4.157  0.00  0.00     0.083 H 
ATOM     11  N   LIG d   1      12.042   3.396  -2.969  0.00  0.00     0.243 N 
ATOM     12  H   LIG d   1      12.249   3.367  -1.964  0.00  0.00     0.204 HD
ENDROOT
BRANCH   1  13
ATOM     13  N   LIG d   1       8.944   1.591  -3.400  0.00  0.00    -0.303 N 
ATOM     14  C   LIG d   1       7.758   1.501  -4.035  0.00  0.00     0.244 C 
ATOM     15  O   LIG d   1       7.524   2.215  -4.990  0.00  0.00    -0.270 OA
ATOM     16  H   LIG d   1       9.131   1.022  -2.638  0.00  0.00     0.149 HD
BRANCH  14  17
ATOM     17  C   LIG d   1       6.743   0.531  -3.570  0.00  0.00     0.037 A 
ATOM     18  C   LIG d   1       5.631   0.972  -2.852  0.00  0.00    -0.049 A 
ATOM     19  C   LIG d   1       4.687   0.063  -2.421  0.00  0.00    -0.058 A 
ATOM     20  H   LIG d   1       5.508   2.023  -2.634  0.00  0.00     0.062 H 
ATOM     21  C   LIG d   1       4.841  -1.284  -2.699  0.00  0.00    -0.050 A 
ATOM     22  H   LIG d   1       3.825   0.402  -1.866  0.00  0.00     0.062 H 
ATOM     23  C   LIG d   1       5.942  -1.728  -3.411  0.00  0.00    -0.058 A 
ATOM     24  C   LIG d   1       6.891  -0.828  -3.853  0.00  0.00    -0.049 A 
ATOM     25  H   LIG d   1       6.057  -2.780  -3.625  0.00  0.00     0.062 H 
ATOM     26  H   LIG d   1       7.747  -1.174  -4.412  0.00  0.00     0.062 H 
BRANCH  21  27
ATOM     27  C   LIG d   1       3.807  -2.272  -2.225  0.00  0.00    -0.040 C 
ATOM     28  H   LIG d   1       4.239  -2.908  -1.454  0.00  0.00     0.028 H 
ATOM     29  H   LIG d   1       2.951  -1.734  -1.816  0.00  0.00     0.028 H 
ATOM     30  H   LIG d   1       3.481  -2.887  -3.064  0.00  0.00     0.028 H 
ENDBRANCH  21  27
ENDBRANCH  14  17
ENDBRANCH   1  13
BRANCH  11  31
ATOM     31  C   LIG d   1      13.315   3.534  -3.724  0.00  0.00    -0.042 C 
ATOM     32  H   LIG d   1      14.160   3.454  -3.041  0.00  0.00     0.078 H 
ATOM     33  H   LIG d   1      13.376   2.744  -4.472  0.00  0.00     0.078 H 
ATOM     34  H   LIG d   1      13.337   4.505  -4.220  0.00  0.00     0.078 H 
ENDBRANCH  11  31
BRANCH   4  35
ATOM     35  C   LIG d   1      11.318   5.593  -2.185  0.00  0.00     0.276 A 
ATOM     36  O   LIG d   1      11.616   6.881  -2.382  0.00  0.00    -0.332 OA
ATOM     37  N   LIG d   1      11.674   7.461  -1.317  0.00  0.00    -0.056 NA
ATOM     38  C   LIG d   1      11.426   6.630  -0.339  0.00  0.00     0.204 A 
ATOM     39  N   LIG d   1      11.189   5.420  -0.893  0.00  0.00    -0.186 NA
BRANCH  38  40
ATOM     40  C   LIG d   1      11.402   6.956   1.109  0.00  0.00     0.041 A 
ATOM     41  C   LIG d   1      11.772   8.223   1.555  0.00  0.00     0.038 A 
ATOM     42  N   LIG d   1      11.746   8.514   2.840  0.00  0.00    -0.263 NA
ATOM     43  H   LIG d   1      12.079   8.973   0.843  0.00  0.00     0.084 H 
ATOM     44  C   LIG d   1      11.384   7.629   3.747  0.00  0.00     0.028 A 
ATOM     45  C   LIG d   1      11.007   6.349   3.385  0.00  0.00    -0.043 A 
ATOM     46  H   LIG d   1      11.382   7.908   4.791  0.00  0.00     0.083 H 
ATOM     47  C   LIG d   1      11.012   5.995   2.046  0.00  0.00    -0.048 A 
ATOM     48  H   LIG d   1      10.711   5.632   4.137  0.00  0.00     0.063 H 
ATOM     49  H   LIG d   1      10.722   5.003   1.734  0.00  0.00     0.063 H 
ENDBRANCH  38  40
ENDBRANCH   4  35
TORSDOF 6
ENDMDL
MODEL 2
REMARK VINA RESULT:      -7.4      1.524      2.068
REMARK  6 active torsions:
REMARK  status: ('A' for Active; 'I' for Inactive)
REMARK    1  A    between atoms: C_1  and  C_2 
REMARK    2  A    between atoms: C_5  and  C_8 
REMARK       I    between atoms: C_8  and  N_10 
REMARK    3  A    between atoms: N_10  and  C_11 
REMARK    4  A    between atoms: C_14  and  C_18 
REMARK    5  A    between atoms: C_17  and  N_48 
REMARK    6  A    between atoms: C_20  and  C_23 
ROOT
ATOM      1  C   LIG d   1       9.973   2.634  -3.775  0.00  0.00     0.069 C 
ATOM      2  H   LIG d   1       9.909   2.784  -4.853  0.00  0.00     0.055 H 
ATOM      3  C   LIG d   1       9.823   3.983  -3.024  0.00  0.00     0.023 C 
ATOM      4  C   LIG d   1      11.270   4.542  -3.102  0.00  0.00     0.061 C 
ATOM      5  H   LIG d   1      11.441   5.020  -4.066  0.00  0.00     0.095 H 
ATOM      6  C   LIG d   1      11.387   2.162  -3.374  0.00  0.00    -0.012 C 
ATOM      7  H   LIG d   1       9.118   4.639  -3.537  0.00  0.00     0.035 H 
ATOM      8  H   LIG d   1       9.521   3.822  -1.990  0.00  0.00     0.035 H 
ATOM      9  H   LIG d   1      11.321   1.456  -2.546  0.00  0.00     0.083 H 
ATOM     10  H   LIG d   1      11.877   1.693  -4.225  0.00  0.00     0.083 H 
ATOM     11  N   LIG d   1      12.133   3.357  -2.938  0.00  0.00     0.243 N 
ATOM     12  H   LIG d   1      12.386   3.257  -1.949  0.00  0.00     0.204 HD
ENDROOT
BRANCH   1  13
ATOM     13  N   LIG d   1       8.960   1.675  -3.326  0.00  0.00    -0.303 N 
ATOM     14  C   LIG d   1       7.791   1.571  -3.989  0.00  0.00     0.244 C 
ATOM     15  O   LIG d   1       7.577   2.272  -4.959  0.00  0.00    -0.270 OA
ATOM     16  H   LIG d   1       9.130   1.116  -2.553  0.00  0.00     0.149 HD
BRANCH  14  17
ATOM     17  C   LIG d   1       6.768   0.604  -3.536  0.00  0.00     0.037 A 
ATOM     18  C   LIG d   1       6.954  -0.762  -3.749  0.00  0.00    -0.049 A 
ATOM     19  C   LIG d   1       5.996  -1.660  -3.323  0.00  0.00    -0.058 A 
ATOM     20  H   LIG d   1       7.844  -1.117  -4.246  0.00  0.00     0.062 H 
ATOM     21  C   LIG d   1       4.854  -1.208  -2.686  0.00  0.00    -0.050 A 
ATOM     22  H   LIG d   1       6.139  -2.718  -3.486  0.00  0.00     0.062 H 
ATOM     23  C   LIG d   1       4.664   0.146  -2.473  0.00  0.00    -0.058 A 
ATOM     24  C   LIG d   1       5.616   1.054  -2.888  0.00  0.00    -0.049 A 
ATOM     25  H   LIG d   1       3.770   0.492  -1.975  0.00  0.00     0.062 H 
ATOM     26  H   LIG d   1       5.469   2.110  -2.717  0.00  0.00     0.062 H 
BRANCH  21  27
ATOM     27  C   LIG d   1       3.812  -2.194  -2.225  0.00  0.00    -0.040 C 
ATOM     28  H   LIG d   1       2.966  -2.176  -2.910  0.00  0.00     0.028 H 
ATOM     29  H   LIG d   1       4.243  -3.196  -2.204  0.00  0.00     0.028 H 
ATOM     30  H   LIG d   1       3.476  -1.925  -1.224  0.00  0.00     0.028 H 
ENDBRANCH  21  27
ENDBRANCH  14  17
ENDBRANCH   1  13
BRANCH  11  31
ATOM     31  C   LIG d   1      13.371   3.506  -3.745  0.00  0.00    -0.042 C 
ATOM     32  H   LIG d   1      14.214   3.064  -3.215  0.00  0.00     0.078 H 
ATOM     33  H   LIG d   1      13.239   3.001  -4.702  0.00  0.00     0.078 H 
ATOM     34  H   LIG d   1      13.564   4.565  -3.918  0.00  0.00     0.078 H 
ENDBRANCH  11  31
BRANCH   4  35
ATOM     35  C   LIG d   1      11.518   5.519  -1.982  0.00  0.00     0.276 A 
ATOM     36  O   LIG d   1      12.307   5.326  -0.921  0.00  0.00    -0.332 OA
ATOM     37  N   LIG d   1      12.289   6.306  -0.206  0.00  0.00    -0.056 NA
ATOM     38  C   LIG d   1      11.505   7.220  -0.715  0.00  0.00     0.204 A 
ATOM     39  N   LIG d   1      11.006   6.719  -1.869  0.00  0.00    -0.186 NA
BRANCH  38  40
ATOM     40  C   LIG d   1      11.220   8.557  -0.140  0.00  0.00     0.041 A 
ATOM     41  C   LIG d   1      10.187   9.342  -0.650  0.00  0.00     0.038 A 
ATOM     42  N   LIG d   1       9.931  10.527  -0.136  0.00  0.00    -0.263 NA
ATOM     43  H   LIG d   1       9.591   8.974  -1.471  0.00  0.00     0.084 H 
ATOM     44  C   LIG d   1      10.636  11.021   0.863  0.00  0.00     0.028 A 
ATOM     45  C   LIG d   1      11.679  10.306   1.421  0.00  0.00    -0.043 A 
ATOM     46  H   LIG d   1      10.395  12.000   1.251  0.00  0.00     0.083 H 
ATOM     47  C   LIG d   1      11.986   9.052   0.919  0.00  0.00    -0.048 A 
ATOM     48  H   LIG d   1      12.250  10.720   2.239  0.00  0.00     0.063 H 
ATOM     49  H   LIG d   1      12.795   8.471   1.336  0.00  0.00     0.063 H 
ENDBRANCH  38  40
ENDBRANCH   4  35
TORSDOF 6
ENDMDL
MODEL 3
REMARK VINA RESULT:      -7.0      2.212      2.789
REMARK  6 active torsions:
REMARK  status: ('A' for Active; 'I' for Inactive)
REMARK    1  A    between atoms: C_1  and  C_2 
REMARK    2  A    between atoms: C_5  and  C_8 
REMARK       I    between atoms: C_8  and  N_10 
REMARK    3  A    between atoms: N_10  and  C_11 
REMARK    4  A    between atoms: C_14  and  C_18 
REMARK    5  A    between atoms: C_17  and  N_48 
REMARK    6  A    between atoms: C_20  and  C_23 
ROOT
ATOM      1  C   LIG d   1       9.760   2.848  -3.612  0.00  0.00     0.069 C 
ATOM      2  H   LIG d   1       9.958   2.784  -4.682  0.00  0.00     0.055 H 
ATOM      3  C   LIG d   1       9.269   4.268  -3.229  0.00  0.00     0.023 C 
ATOM      4  C   LIG d   1      10.615   5.034  -3.097  0.00  0.00     0.061 C 
ATOM      5  H   LIG d   1      10.971   5.347  -4.078  0.00  0.00     0.095 H 
ATOM      6  C   LIG d   1      11.068   2.697  -2.807  0.00  0.00    -0.012 C 
ATOM      7  H   LIG d   1       8.650   4.694  -4.019  0.00  0.00     0.035 H 
ATOM      8  H   LIG d   1       8.733   4.254  -2.281  0.00  0.00     0.035 H 
ATOM      9  H   LIG d   1      10.873   2.155  -1.881  0.00  0.00     0.083 H 
ATOM     10  H   LIG d   1      11.811   2.167  -3.401  0.00  0.00     0.083 H 
ATOM     11  N   LIG d   1      11.536   4.058  -2.486  0.00  0.00     0.243 N 
ATOM     12  H   LIG d   1      11.537   4.185  -1.467  0.00  0.00     0.204 HD
ENDROOT
BRANCH   1  13
ATOM     13  N   LIG d   1       8.782   1.835  -3.206  0.00  0.00    -0.303 N 
ATOM     14  C   LIG d   1       7.684   1.620  -3.958  0.00  0.00     0.244 C 
ATOM     15  O   LIG d   1       7.505   2.265  -4.972  0.00  0.00    -0.270 OA
ATOM     16  H   LIG d   1       8.924   1.320  -2.397  0.00  0.00     0.149 HD
BRANCH  14  17
ATOM     17  C   LIG d   1       6.697   0.598  -3.548  0.00  0.00     0.037 A 
ATOM     18  C   LIG d   1       5.580   0.965  -2.797  0.00  0.00    -0.049 A 
ATOM     19  C   LIG d   1       4.662   0.007  -2.418  0.00  0.00    -0.058 A 
ATOM     20  H   LIG d   1       5.433   1.996  -2.512  0.00  0.00     0.062 H 
ATOM     21  C   LIG d   1       4.847  -1.315  -2.781  0.00  0.00    -0.050 A 
ATOM     22  H   LIG d   1       3.796   0.289  -1.837  0.00  0.00     0.062 H 
ATOM     23  C   LIG d   1       5.953  -1.686  -3.526  0.00  0.00    -0.058 A 
ATOM     24  C   LIG d   1       6.876  -0.737  -3.917  0.00  0.00    -0.049 A 
ATOM     25  H   LIG d   1       6.092  -2.719  -3.807  0.00  0.00     0.062 H 
ATOM     26  H   LIG d   1       7.736  -1.026  -4.502  0.00  0.00     0.062 H 
BRANCH  21  27
ATOM     27  C   LIG d   1       3.841  -2.357  -2.364  0.00  0.00    -0.040 C 
ATOM     28  H   LIG d   1       3.609  -2.998  -3.213  0.00  0.00     0.028 H 
ATOM     29  H   LIG d   1       4.257  -2.959  -1.555  0.00  0.00     0.028 H 
ATOM     30  H   LIG d   1       2.932  -1.865  -2.019  0.00  0.00     0.028 H 
ENDBRANCH  21  27
ENDBRANCH  14  17
ENDBRANCH   1  13
BRANCH  11  31
ATOM     31  C   LIG d   1      12.914   4.257  -3.003  0.00  0.00    -0.042 C 
ATOM     32  H   LIG d   1      13.090   5.316  -3.187  0.00  0.00     0.078 H 
ATOM     33  H   LIG d   1      13.630   3.893  -2.266  0.00  0.00     0.078 H 
ATOM     34  H   LIG d   1      13.036   3.700  -3.932  0.00  0.00     0.078 H 
ENDBRANCH  11  31
BRANCH   4  35
ATOM     35  C   LIG d   1      10.455   6.229  -2.192  0.00  0.00     0.276 A 
ATOM     36  O   LIG d   1      10.103   6.205  -0.903  0.00  0.00    -0.332 OA
ATOM     37  N   LIG d   1      10.065   7.335  -0.462  0.00  0.00    -0.056 NA
ATOM     38  C   LIG d   1      10.380   8.193  -1.397  0.00  0.00     0.204 A 
ATOM     39  N   LIG d   1      10.639   7.483  -2.519  0.00  0.00    -0.186 NA
BRANCH  38  40
ATOM     40  C   LIG d   1      10.447   9.668  -1.254  0.00  0.00     0.041 A 
ATOM     41  C   LIG d   1      11.094  10.244  -0.162  0.00  0.00     0.038 A 
ATOM     42  N   LIG d   1      11.158  11.554  -0.037  0.00  0.00    -0.263 NA
ATOM     43  H   LIG d   1      11.549   9.612   0.585  0.00  0.00     0.084 H 
ATOM     44  C   LIG d   1      10.613  12.366  -0.921  0.00  0.00     0.028 A 
ATOM     45  C   LIG d   1       9.949  11.872  -2.029  0.00  0.00    -0.043 A 
ATOM     46  H   LIG d   1      10.684  13.434  -0.777  0.00  0.00     0.083 H 
ATOM     47  C   LIG d   1       9.859  10.502  -2.209  0.00  0.00    -0.048 A 
ATOM     48  H   LIG d   1       9.506  12.546  -2.747  0.00  0.00     0.063 H 
ATOM     49  H   LIG d   1       9.347  10.088  -3.066  0.00  0.00     0.063 H 
ENDBRANCH  38  40
ENDBRANCH   4  35
TORSDOF 6
ENDMDL
MODEL 4
REMARK VINA RESULT:      -6.7      3.740      5.110
REMARK  6 active torsions:
REMARK  status: ('A' for Active; 'I' for Inactive)
REMARK    1  A    between atoms: C_1  and  C_2 
REMARK    2  A    between atoms: C_5  and  C_8 
REMARK       I    between atoms: C_8  and  N_10 
REMARK    3  A    between atoms: N_10  and  C_11 
REMARK    4  A    between atoms: C_14  and  C_18 
REMARK    5  A    between atoms: C_17  and  N_48 
REMARK    6  A    between atoms: C_20  and  C_23 
ROOT
ATOM      1  C   LIG d   1       9.743   2.959  -4.100  0.00  0.00     0.069 C 
ATOM      2  H   LIG d   1      10.282   2.363  -4.838  0.00  0.00     0.055 H 
ATOM      3  C   LIG d   1       9.372   4.348  -4.682  0.00  0.00     0.023 C 
ATOM      4  C   LIG d   1      10.691   5.138  -4.459  0.00  0.00     0.061 C 
ATOM      5  H   LIG d   1      11.403   4.920  -5.254  0.00  0.00     0.095 H 
ATOM      6  C   LIG d   1      10.659   3.309  -2.909  0.00  0.00    -0.012 C 
ATOM      7  H   LIG d   1       9.131   4.276  -5.743  0.00  0.00     0.035 H 
ATOM      8  H   LIG d   1       8.549   4.797  -4.127  0.00  0.00     0.035 H 
ATOM      9  H   LIG d   1      10.081   3.311  -1.985  0.00  0.00     0.083 H 
ATOM     10  H   LIG d   1      11.471   2.586  -2.840  0.00  0.00     0.083 H 
ATOM     11  N   LIG d   1      11.190   4.662  -3.155  0.00  0.00     0.243 N 
ATOM     12  H   LIG d   1      10.863   5.295  -2.416  0.00  0.00     0.204 HD
ENDROOT
BRANCH   1  13
ATOM     13  N   LIG d   1       8.545   2.252  -3.642  0.00  0.00    -0.303 N 
ATOM     14  C   LIG d   1       8.302   0.994  -4.064  0.00  0.00     0.244 C 
ATOM     15  O   LIG d   1       9.076   0.448  -4.824  0.00  0.00    -0.270 OA
ATOM     16  H   LIG d   1       7.926   2.688  -3.036  0.00  0.00     0.149 HD
BRANCH  14  17
ATOM     17  C   LIG d   1       7.091   0.281  -3.601  0.00  0.00     0.037 A 
ATOM     18  C   LIG d   1       7.030  -1.111  -3.672  0.00  0.00    -0.049 A 
ATOM     19  C   LIG d   1       5.898  -1.771  -3.238  0.00  0.00    -0.058 A 
ATOM     20  H   LIG d   1       7.865  -1.671  -4.064  0.00  0.00     0.062 H 
ATOM     21  C   LIG d   1       4.826  -1.055  -2.735  0.00  0.00    -0.050 A 
ATOM     22  H   LIG d   1       5.849  -2.849  -3.291  0.00  0.00     0.062 H 
ATOM     23  C   LIG d   1       4.881   0.326  -2.663  0.00  0.00    -0.058 A 
ATOM     24  C   LIG d   1       6.009   0.998  -3.088  0.00  0.00    -0.049 A 
ATOM     25  H   LIG d   1       4.041   0.878  -2.270  0.00  0.00     0.062 H 
ATOM     26  H   LIG d   1       6.053   2.075  -3.028  0.00  0.00     0.062 H 
BRANCH  21  27
ATOM     27  C   LIG d   1       3.593  -1.782  -2.264  0.00  0.00    -0.040 C 
ATOM     28  H   LIG d   1       3.391  -1.519  -1.226  0.00  0.00     0.028 H 
ATOM     29  H   LIG d   1       2.744  -1.496  -2.884  0.00  0.00     0.028 H 
ATOM     30  H   LIG d   1       3.753  -2.857  -2.343  0.00  0.00     0.028 H 
ENDBRANCH  21  27
ENDBRANCH  14  17
ENDBRANCH   1  13
BRANCH  11  31
ATOM     31  C   LIG d   1      12.675   4.635  -3.151  0.00  0.00    -0.042 C 
ATOM     32  H   LIG d   1      13.027   3.616  -3.308  0.00  0.00     0.078 H 
ATOM     33  H   LIG d   1      13.048   5.275  -3.951  0.00  0.00     0.078 H 
ATOM     34  H   LIG d   1      13.041   5.003  -2.192  0.00  0.00     0.078 H 
ENDBRANCH  11  31
BRANCH   4  35
ATOM     35  C   LIG d   1      10.414   6.619  -4.395  0.00  0.00     0.276 A 
ATOM     36  O   LIG d   1      10.160   7.331  -3.294  0.00  0.00    -0.332 OA
ATOM     37  N   LIG d   1       9.981   8.496  -3.586  0.00  0.00    -0.056 NA
ATOM     38  C   LIG d   1      10.096   8.658  -4.878  0.00  0.00     0.204 A 
ATOM     39  N   LIG d   1      10.382   7.448  -5.408  0.00  0.00    -0.186 NA
BRANCH  38  40
ATOM     40  C   LIG d   1       9.948   9.933  -5.622  0.00  0.00     0.041 A 
ATOM     41  C   LIG d   1      10.136   9.973  -7.002  0.00  0.00     0.038 A 
ATOM     42  N   LIG d   1       9.999  11.104  -7.664  0.00  0.00    -0.263 NA
ATOM     43  H   LIG d   1      10.392   9.070  -7.533  0.00  0.00     0.084 H 
ATOM     44  C   LIG d   1       9.693  12.234  -7.057  0.00  0.00     0.028 A 
ATOM     45  C   LIG d   1       9.495  12.278  -5.689  0.00  0.00    -0.043 A 
ATOM     46  H   LIG d   1       9.596  13.140  -7.637  0.00  0.00     0.083 H 
ATOM     47  C   LIG d   1       9.622  11.115  -4.949  0.00  0.00    -0.048 A 
ATOM     48  H   LIG d   1       9.244  13.209  -5.202  0.00  0.00     0.063 H 
ATOM     49  H   LIG d   1       9.473  11.119  -3.879  0.00  0.00     0.063 H 
ENDBRANCH  38  40
ENDBRANCH   4  35
TORSDOF 6
ENDMDL
MODEL 5
REMARK VINA RESULT:      -6.7      2.436      9.116
REMARK  6 active torsions:
REMARK  status: ('A' for Active; 'I' for Inactive)
REMARK    1  A    between atoms: C_1  and  C_2 
REMARK    2  A    between atoms: C_5  and  C_8 
REMARK       I    between atoms: C_8  and  N_10 
REMARK    3  A    between atoms: N_10  and  C_11 
REMARK    4  A    between atoms: C_14  and  C_18 
REMARK    5  A    between atoms: C_17  and  N_48 
REMARK    6  A    between atoms: C_20  and  C_23 
ROOT
ATOM      1  C   LIG d   1      10.624   4.183  -3.936  0.00  0.00     0.069 C 
ATOM      2  H   LIG d   1      11.632   3.834  -3.710  0.00  0.00     0.055 H 
ATOM      3  C   LIG d   1       9.569   3.133  -3.502  0.00  0.00     0.023 C 
ATOM      4  C   LIG d   1       9.580   2.164  -4.717  0.00  0.00     0.061 C 
ATOM      5  H   LIG d   1      10.411   1.463  -4.636  0.00  0.00     0.095 H 
ATOM      6  C   LIG d   1      10.412   4.286  -5.462  0.00  0.00    -0.012 C 
ATOM      7  H   LIG d   1       9.878   2.623  -2.589  0.00  0.00     0.035 H 
ATOM      8  H   LIG d   1       8.589   3.592  -3.378  0.00  0.00     0.035 H 
ATOM      9  H   LIG d   1       9.773   5.138  -5.691  0.00  0.00     0.083 H 
ATOM     10  H   LIG d   1      11.373   4.395  -5.963  0.00  0.00     0.083 H 
ATOM     11  N   LIG d   1       9.742   3.044  -5.889  0.00  0.00     0.243 N 
ATOM     12  H   LIG d   1       8.817   3.272  -6.271  0.00  0.00     0.204 HD
ENDROOT
BRANCH   1  13
ATOM     13  N   LIG d   1      10.368   5.473  -3.290  0.00  0.00    -0.303 N 
ATOM     14  C   LIG d   1      10.902   5.738  -2.081  0.00  0.00     0.244 C 
ATOM     15  O   LIG d   1      11.596   4.908  -1.527  0.00  0.00    -0.270 OA
ATOM     16  H   LIG d   1       9.814   6.135  -3.731  0.00  0.00     0.149 HD
BRANCH  14  17
ATOM     17  C   LIG d   1      10.643   7.039  -1.428  0.00  0.00     0.037 A 
ATOM     18  C   LIG d   1      11.677   7.714  -0.778  0.00  0.00    -0.049 A 
ATOM     19  C   LIG d   1      11.429   8.929  -0.171  0.00  0.00    -0.058 A 
ATOM     20  H   LIG d   1      12.669   7.289  -0.749  0.00  0.00     0.062 H 
ATOM     21  C   LIG d   1      10.159   9.477  -0.206  0.00  0.00    -0.050 A 
ATOM     22  H   LIG d   1      12.228   9.453   0.332  0.00  0.00     0.062 H 
ATOM     23  C   LIG d   1       9.129   8.812  -0.849  0.00  0.00    -0.058 A 
ATOM     24  C   LIG d   1       9.365   7.600  -1.465  0.00  0.00    -0.049 A 
ATOM     25  H   LIG d   1       8.141   9.245  -0.872  0.00  0.00     0.062 H 
ATOM     26  H   LIG d   1       8.562   7.083  -1.970  0.00  0.00     0.062 H 
BRANCH  21  27
ATOM     27  C   LIG d   1       9.895  10.803   0.459  0.00  0.00    -0.040 C 
ATOM     28  H   LIG d   1      10.764  11.449   0.339  0.00  0.00     0.028 H 
ATOM     29  H   LIG d   1       9.025  11.273  -0.001  0.00  0.00     0.028 H 
ATOM     30  H   LIG d   1       9.702  10.645   1.520  0.00  0.00     0.028 H 
ENDBRANCH  21  27
ENDBRANCH  14  17
ENDBRANCH   1  13
BRANCH  11  31
ATOM     31  C   LIG d   1      10.548   2.365  -6.935  0.00  0.00    -0.042 C 
ATOM     32  H   LIG d   1       9.914   2.110  -7.784  0.00  0.00     0.078 H 
ATOM     33  H   LIG d   1      11.345   3.032  -7.265  0.00  0.00     0.078 H 
ATOM     34  H   LIG d   1      10.985   1.455  -6.522  0.00  0.00     0.078 H 
ENDBRANCH  11  31
BRANCH   4  35
ATOM     35  C   LIG d   1       8.273   1.418  -4.809  0.00  0.00     0.276 A 
ATOM     36  O   LIG d   1       7.460   1.371  -5.867  0.00  0.00    -0.332 OA
ATOM     37  N   LIG d   1       6.491   0.685  -5.616  0.00  0.00    -0.056 NA
ATOM     38  C   LIG d   1       6.570   0.226  -4.395  0.00  0.00     0.204 A 
ATOM     39  N   LIG d   1       7.725   0.692  -3.867  0.00  0.00    -0.186 NA
BRANCH  38  40
ATOM     40  C   LIG d   1       5.582  -0.649  -3.717  0.00  0.00     0.041 A 
ATOM     41  C   LIG d   1       5.079  -1.779  -4.359  0.00  0.00     0.038 A 
ATOM     42  N   LIG d   1       4.205  -2.558  -3.755  0.00  0.00    -0.263 NA
ATOM     43  H   LIG d   1       5.410  -2.019  -5.357  0.00  0.00     0.084 H 
ATOM     44  C   LIG d   1       3.768  -2.303  -2.538  0.00  0.00     0.028 A 
ATOM     45  C   LIG d   1       4.216  -1.199  -1.836  0.00  0.00    -0.043 A 
ATOM     46  H   LIG d   1       3.047  -2.966  -2.081  0.00  0.00     0.083 H 
ATOM     47  C   LIG d   1       5.138  -0.351  -2.425  0.00  0.00    -0.048 A 
ATOM     48  H   LIG d   1       3.851  -0.999  -0.839  0.00  0.00     0.063 H 
ATOM     49  H   LIG d   1       5.506   0.519  -1.900  0.00  0.00     0.063 H 
ENDBRANCH  38  40
ENDBRANCH   4  35
TORSDOF 6
ENDMDL
MODEL 6
REMARK VINA RESULT:      -6.6      3.479      9.221
REMARK  6 active torsions:
REMARK  status: ('A' for Active; 'I' for Inactive)
REMARK    1  A    between atoms: C_1  and  C_2 
REMARK    2  A    between atoms: C_5  and  C_8 
REMARK       I    between atoms: C_8  and  N_10 
REMARK    3  A    between atoms: N_10  and  C_11 
REMARK    4  A    between atoms: C_14  and  C_18 
REMARK    5  A    between atoms: C_17  and  N_48 
REMARK    6  A    between atoms: C_20  and  C_23 
ROOT
ATOM      1  C   LIG d   1      10.704   5.849  -4.263  0.00  0.00     0.069 C 
ATOM      2  H   LIG d   1      11.638   5.778  -3.705  0.00  0.00     0.055 H 
ATOM      3  C   LIG d   1       9.650   4.862  -3.696  0.00  0.00     0.023 C 
ATOM      4  C   LIG d   1      10.054   3.539  -4.405  0.00  0.00     0.061 C 
ATOM      5  H   LIG d   1      10.881   3.064  -3.879  0.00  0.00     0.095 H 
ATOM      6  C   LIG d   1      10.897   5.362  -5.715  0.00  0.00    -0.012 C 
ATOM      7  H   LIG d   1       9.742   4.772  -2.613  0.00  0.00     0.035 H 
ATOM      8  H   LIG d   1       8.642   5.163  -3.977  0.00  0.00     0.035 H 
ATOM      9  H   LIG d   1      10.282   5.956  -6.390  0.00  0.00     0.083 H 
ATOM     10  H   LIG d   1      11.946   5.444  -5.997  0.00  0.00     0.083 H 
ATOM     11  N   LIG d   1      10.456   3.956  -5.761  0.00  0.00     0.243 N 
ATOM     12  H   LIG d   1       9.652   3.873  -6.394  0.00  0.00     0.204 HD
ENDROOT
BRANCH   1  13
ATOM     13  N   LIG d   1      10.192   7.221  -4.240  0.00  0.00    -0.303 N 
ATOM     14  C   LIG d   1      10.684   8.109  -3.352  0.00  0.00     0.244 C 
ATOM     15  O   LIG d   1      11.550   7.770  -2.570  0.00  0.00    -0.270 OA
ATOM     16  H   LIG d   1       9.501   7.491  -4.864  0.00  0.00     0.149 HD
BRANCH  14  17
ATOM     17  C   LIG d   1      10.167   9.494  -3.329  0.00  0.00     0.037 A 
ATOM     18  C   LIG d   1       9.671  10.076  -4.496  0.00  0.00    -0.049 A 
ATOM     19  C   LIG d   1       9.190  11.369  -4.469  0.00  0.00    -0.058 A 
ATOM     20  H   LIG d   1       9.662   9.516  -5.420  0.00  0.00     0.062 H 
ATOM     21  C   LIG d   1       9.199  12.089  -3.287  0.00  0.00    -0.050 A 
ATOM     22  H   LIG d   1       8.804  11.820  -5.371  0.00  0.00     0.062 H 
ATOM     23  C   LIG d   1       9.691  11.517  -2.126  0.00  0.00    -0.058 A 
ATOM     24  C   LIG d   1      10.169  10.223  -2.139  0.00  0.00    -0.049 A 
ATOM     25  H   LIG d   1       9.696  12.085  -1.207  0.00  0.00     0.062 H 
ATOM     26  H   LIG d   1      10.549   9.777  -1.231  0.00  0.00     0.062 H 
BRANCH  21  27
ATOM     27  C   LIG d   1       8.673  13.501  -3.264  0.00  0.00    -0.040 C 
ATOM     28  H   LIG d   1       9.338  14.145  -3.838  0.00  0.00     0.028 H 
ATOM     29  H   LIG d   1       7.675  13.523  -3.702  0.00  0.00     0.028 H 
ATOM     30  H   LIG d   1       8.624  13.853  -2.234  0.00  0.00     0.028 H 
ENDBRANCH  21  27
ENDBRANCH  14  17
ENDBRANCH   1  13
BRANCH  11  31
ATOM     31  C   LIG d   1      11.558   3.093  -6.259  0.00  0.00    -0.042 C 
ATOM     32  H   LIG d   1      11.274   2.045  -6.175  0.00  0.00     0.078 H 
ATOM     33  H   LIG d   1      11.758   3.332  -7.303  0.00  0.00     0.078 H 
ATOM     34  H   LIG d   1      12.456   3.276  -5.668  0.00  0.00     0.078 H 
ENDBRANCH  11  31
BRANCH   4  35
ATOM     35  C   LIG d   1       8.875   2.602  -4.483  0.00  0.00     0.276 A 
ATOM     36  O   LIG d   1       8.310   2.129  -5.597  0.00  0.00    -0.332 OA
ATOM     37  N   LIG d   1       7.383   1.399  -5.315  0.00  0.00    -0.056 NA
ATOM     38  C   LIG d   1       7.250   1.323  -4.016  0.00  0.00     0.204 A 
ATOM     39  N   LIG d   1       8.217   2.096  -3.471  0.00  0.00    -0.186 NA
BRANCH  38  40
ATOM     40  C   LIG d   1       6.234   0.532  -3.279  0.00  0.00     0.041 A 
ATOM     41  C   LIG d   1       6.241  -0.860  -3.338  0.00  0.00     0.038 A 
ATOM     42  N   LIG d   1       5.342  -1.563  -2.680  0.00  0.00    -0.263 NA
ATOM     43  H   LIG d   1       6.991  -1.367  -3.926  0.00  0.00     0.084 H 
ATOM     44  C   LIG d   1       4.403  -0.988  -1.954  0.00  0.00     0.028 A 
ATOM     45  C   LIG d   1       4.327   0.389  -1.849  0.00  0.00    -0.043 A 
ATOM     46  H   LIG d   1       3.682  -1.602  -1.434  0.00  0.00     0.083 H 
ATOM     47  C   LIG d   1       5.252   1.172  -2.518  0.00  0.00    -0.048 A 
ATOM     48  H   LIG d   1       3.553   0.849  -1.251  0.00  0.00     0.063 H 
ATOM     49  H   LIG d   1       5.216   2.250  -2.453  0.00  0.00     0.063 H 
ENDBRANCH  38  40
ENDBRANCH   4  35
TORSDOF 6
ENDMDL
MODEL 7
REMARK VINA RESULT:      -6.5      2.157      2.513
REMARK  6 active torsions:
REMARK  status: ('A' for Active; 'I' for Inactive)
REMARK    1  A    between atoms: C_1  and  C_2 
REMARK    2  A    between atoms: C_5  and  C_8 
REMARK       I    between atoms: C_8  and  N_10 
REMARK    3  A    between atoms: N_10  and  C_11 
REMARK    4  A    between atoms: C_14  and  C_18 
REMARK    5  A    between atoms: C_17  and  N_48 
REMARK    6  A    between atoms: C_20  and  C_23 
ROOT
ATOM      1  C   LIG d   1      10.079   2.430  -3.949  0.00  0.00     0.069 C 
ATOM      2  H   LIG d   1       9.867   2.720  -4.979  0.00  0.00     0.055 H 
ATOM      3  C   LIG d   1      10.213   3.682  -3.044  0.00  0.00     0.023 C 
ATOM      4  C   LIG d   1      11.688   4.095  -3.304  0.00  0.00     0.061 C 
ATOM      5  H   LIG d   1      11.763   4.671  -4.227  0.00  0.00     0.095 H 
ATOM      6  C   LIG d   1      11.470   1.769  -3.845  0.00  0.00    -0.012 C 
ATOM      7  H   LIG d   1       9.523   4.466  -3.357  0.00  0.00     0.035 H 
ATOM      8  H   LIG d   1      10.059   3.425  -1.996  0.00  0.00     0.035 H 
ATOM      9  H   LIG d   1      11.448   0.976  -3.098  0.00  0.00     0.083 H 
ATOM     10  H   LIG d   1      11.761   1.363  -4.812  0.00  0.00     0.083 H 
ATOM     11  N   LIG d   1      12.415   2.817  -3.416  0.00  0.00     0.243 N 
ATOM     12  H   LIG d   1      12.804   2.568  -2.500  0.00  0.00     0.204 HD
ENDROOT
BRANCH   1  13
ATOM     13  N   LIG d   1       9.039   1.532  -3.441  0.00  0.00    -0.303 N 
ATOM     14  C   LIG d   1       7.848   1.457  -4.069  0.00  0.00     0.244 C 
ATOM     15  O   LIG d   1       7.638   2.134  -5.056  0.00  0.00    -0.270 OA
ATOM     16  H   LIG d   1       9.207   0.992  -2.653  0.00  0.00     0.149 HD
BRANCH  14  17
ATOM     17  C   LIG d   1       6.798   0.550  -3.556  0.00  0.00     0.037 A 
ATOM     18  C   LIG d   1       5.680   1.072  -2.906  0.00  0.00    -0.049 A 
ATOM     19  C   LIG d   1       4.703   0.221  -2.429  0.00  0.00    -0.058 A 
ATOM     20  H   LIG d   1       5.577   2.139  -2.775  0.00  0.00     0.062 H 
ATOM     21  C   LIG d   1       4.832  -1.147  -2.596  0.00  0.00    -0.050 A 
ATOM     22  H   LIG d   1       3.836   0.623  -1.927  0.00  0.00     0.062 H 
ATOM     23  C   LIG d   1       5.940  -1.670  -3.239  0.00  0.00    -0.058 A 
ATOM     24  C   LIG d   1       6.921  -0.830  -3.726  0.00  0.00    -0.049 A 
ATOM     25  H   LIG d   1       6.034  -2.738  -3.366  0.00  0.00     0.062 H 
ATOM     26  H   LIG d   1       7.782  -1.239  -4.232  0.00  0.00     0.062 H 
BRANCH  21  27
ATOM     27  C   LIG d   1       3.762  -2.070  -2.072  0.00  0.00    -0.040 C 
ATOM     28  H   LIG d   1       4.025  -3.101  -2.309  0.00  0.00     0.028 H 
ATOM     29  H   LIG d   1       3.679  -1.954  -0.991  0.00  0.00     0.028 H 
ATOM     30  H   LIG d   1       2.809  -1.822  -2.538  0.00  0.00     0.028 H 
ENDBRANCH  21  27
ENDBRANCH  14  17
ENDBRANCH   1  13
BRANCH  11  31
ATOM     31  C   LIG d   1      13.521   2.938  -4.400  0.00  0.00    -0.042 C 
ATOM     32  H   LIG d   1      14.344   2.285  -4.113  0.00  0.00     0.078 H 
ATOM     33  H   LIG d   1      13.158   2.652  -5.386  0.00  0.00     0.078 H 
ATOM     34  H   LIG d   1      13.868   3.971  -4.428  0.00  0.00     0.078 H 
ENDBRANCH  11  31
BRANCH   4  35
ATOM     35  C   LIG d   1      12.224   4.894  -2.144  0.00  0.00     0.276 A 
ATOM     36  O   LIG d   1      11.676   4.994  -0.930  0.00  0.00    -0.332 OA
ATOM     37  N   LIG d   1      12.355   5.712  -0.225  0.00  0.00    -0.056 NA
ATOM     38  C   LIG d   1      13.393   6.145  -0.893  0.00  0.00     0.204 A 
ATOM     39  N   LIG d   1      13.317   5.615  -2.135  0.00  0.00    -0.186 NA
BRANCH  38  40
ATOM     40  C   LIG d   1      14.456   7.044  -0.382  0.00  0.00     0.041 A 
ATOM     41  C   LIG d   1      14.180   8.382  -0.106  0.00  0.00     0.038 A 
ATOM     42  N   LIG d   1      15.123   9.179   0.352  0.00  0.00    -0.263 NA
ATOM     43  H   LIG d   1      13.185   8.767  -0.266  0.00  0.00     0.084 H 
ATOM     44  C   LIG d   1      16.355   8.756   0.558  0.00  0.00     0.028 A 
ATOM     45  C   LIG d   1      16.709   7.444   0.304  0.00  0.00    -0.043 A 
ATOM     46  H   LIG d   1      17.099   9.445   0.930  0.00  0.00     0.083 H 
ATOM     47  C   LIG d   1      15.753   6.564  -0.175  0.00  0.00    -0.048 A 
ATOM     48  H   LIG d   1      17.721   7.107   0.476  0.00  0.00     0.063 H 
ATOM     49  H   LIG d   1      16.001   5.534  -0.381  0.00  0.00     0.063 H 
ENDBRANCH  38  40
ENDBRANCH   4  35
TORSDOF 6
ENDMDL
MODEL 8
REMARK VINA RESULT:      -6.5      5.737      8.205
REMARK  6 active torsions:
REMARK  status: ('A' for Active; 'I' for Inactive)
REMARK    1  A    between atoms: C_1  and  C_2 
REMARK    2  A    between atoms: C_5  and  C_8 
REMARK       I    between atoms: C_8  and  N_10 
REMARK    3  A    between atoms: N_10  and  C_11 
REMARK    4  A    between atoms: C_14  and  C_18 
REMARK    5  A    between atoms: C_17  and  N_48 
REMARK    6  A    between atoms: C_20  and  C_23 
ROOT
ATOM      1  C   LIG d   1       9.267   2.921  -5.363  0.00  0.00     0.069 C 
ATOM      2  H   LIG d   1      10.206   2.449  -5.075  0.00  0.00     0.055 H 
ATOM      3  C   LIG d   1       9.140   2.995  -6.907  0.00  0.00     0.023 C 
ATOM      4  C   LIG d   1       9.961   4.276  -7.222  0.00  0.00     0.061 C 
ATOM      5  H   LIG d   1      11.025   4.046  -7.253  0.00  0.00     0.095 H 
ATOM      6  C   LIG d   1       9.249   4.404  -4.936  0.00  0.00    -0.012 C 
ATOM      7  H   LIG d   1       9.583   2.117  -7.377  0.00  0.00     0.035 H 
ATOM      8  H   LIG d   1       8.100   3.113  -7.208  0.00  0.00     0.035 H 
ATOM      9  H   LIG d   1       8.242   4.691  -4.632  0.00  0.00     0.083 H 
ATOM     10  H   LIG d   1       9.946   4.562  -4.114  0.00  0.00     0.083 H 
ATOM     11  N   LIG d   1       9.648   5.196  -6.114  0.00  0.00     0.243 N 
ATOM     12  H   LIG d   1       8.872   5.808  -6.390  0.00  0.00     0.204 HD
ENDROOT
BRANCH   1  13
ATOM     13  N   LIG d   1       8.129   2.202  -4.783  0.00  0.00    -0.303 N 
ATOM     14  C   LIG d   1       8.253   0.901  -4.453  0.00  0.00     0.244 C 
ATOM     15  O   LIG d   1       9.307   0.324  -4.635  0.00  0.00    -0.270 OA
ATOM     16  H   LIG d   1       7.288   2.661  -4.639  0.00  0.00     0.149 HD
BRANCH  14  17
ATOM     17  C   LIG d   1       7.104   0.175  -3.868  0.00  0.00     0.037 A 
ATOM     18  C   LIG d   1       6.104   0.875  -3.194  0.00  0.00    -0.049 A 
ATOM     19  C   LIG d   1       5.034   0.192  -2.650  0.00  0.00    -0.058 A 
ATOM     20  H   LIG d   1       6.165   1.949  -3.096  0.00  0.00     0.062 H 
ATOM     21  C   LIG d   1       4.953  -1.184  -2.774  0.00  0.00    -0.050 A 
ATOM     22  H   LIG d   1       4.258   0.733  -2.129  0.00  0.00     0.062 H 
ATOM     23  C   LIG d   1       5.943  -1.884  -3.442  0.00  0.00    -0.058 A 
ATOM     24  C   LIG d   1       7.014  -1.213  -3.995  0.00  0.00    -0.049 A 
ATOM     25  H   LIG d   1       5.874  -2.957  -3.535  0.00  0.00     0.062 H 
ATOM     26  H   LIG d   1       7.784  -1.759  -4.519  0.00  0.00     0.062 H 
BRANCH  21  27
ATOM     27  C   LIG d   1       3.783  -1.923  -2.179  0.00  0.00    -0.040 C 
ATOM     28  H   LIG d   1       2.855  -1.530  -2.594  0.00  0.00     0.028 H 
ATOM     29  H   LIG d   1       3.866  -2.985  -2.414  0.00  0.00     0.028 H 
ATOM     30  H   LIG d   1       3.782  -1.791  -1.097  0.00  0.00     0.028 H 
ENDBRANCH  21  27
ENDBRANCH  14  17
ENDBRANCH   1  13
BRANCH  11  31
ATOM     31  C   LIG d   1      10.833   6.031  -5.788  0.00  0.00    -0.042 C 
ATOM     32  H   LIG d   1      10.705   6.489  -4.808  0.00  0.00     0.078 H 
ATOM     33  H   LIG d   1      11.724   5.403  -5.782  0.00  0.00     0.078 H 
ATOM     34  H   LIG d   1      10.945   6.810  -6.542  0.00  0.00     0.078 H 
ENDBRANCH  11  31
BRANCH   4  35
ATOM     35  C   LIG d   1       9.517   4.876  -8.532  0.00  0.00     0.276 A 
ATOM     36  O   LIG d   1       8.456   4.507  -9.254  0.00  0.00    -0.332 OA
ATOM     37  N   LIG d   1       8.376   5.189 -10.255  0.00  0.00    -0.056 NA
ATOM     38  C   LIG d   1       9.356   6.054 -10.287  0.00  0.00     0.204 A 
ATOM     39  N   LIG d   1      10.096   5.861  -9.172  0.00  0.00    -0.186 NA
BRANCH  38  40
ATOM     40  C   LIG d   1       9.606   7.063 -11.346  0.00  0.00     0.041 A 
ATOM     41  C   LIG d   1      10.225   8.273 -11.039  0.00  0.00     0.038 A 
ATOM     42  N   LIG d   1      10.452   9.167 -11.980  0.00  0.00    -0.263 NA
ATOM     43  H   LIG d   1      10.525   8.477 -10.023  0.00  0.00     0.084 H 
ATOM     44  C   LIG d   1      10.099   8.963 -13.234  0.00  0.00     0.028 A 
ATOM     45  C   LIG d   1       9.475   7.791 -13.617  0.00  0.00    -0.043 A 
ATOM     46  H   LIG d   1      10.298   9.725 -13.973  0.00  0.00     0.083 H 
ATOM     47  C   LIG d   1       9.219   6.817 -12.667  0.00  0.00    -0.048 A 
ATOM     48  H   LIG d   1       9.189   7.634 -14.648  0.00  0.00     0.063 H 
ATOM     49  H   LIG d   1       8.734   5.891 -12.938  0.00  0.00     0.063 H 
ENDBRANCH  38  40
ENDBRANCH   4  35
TORSDOF 6
ENDMDL
MODEL 9
REMARK VINA RESULT:      -6.5      8.975     15.312
REMARK  6 active torsions:
REMARK  status: ('A' for Active; 'I' for Inactive)
REMARK    1  A    between atoms: C_1  and  C_2 
REMARK    2  A    between atoms: C_5  and  C_8 
REMARK       I    between atoms: C_8  and  N_10 
REMARK    3  A    between atoms: N_10  and  C_11 
REMARK    4  A    between atoms: C_14  and  C_18 
REMARK    5  A    between atoms: C_17  and  N_48 
REMARK    6  A    between atoms: C_20  and  C_23 
ROOT
ATOM      1  C   LIG d   1       2.884  -1.261  -9.083  0.00  0.00     0.069 C 
ATOM      2  H   LIG d   1       3.740  -0.894  -9.650  0.00  0.00     0.055 H 
ATOM      3  C   LIG d   1       2.784  -2.806  -9.180  0.00  0.00     0.023 C 
ATOM      4  C   LIG d   1       2.048  -2.982 -10.537  0.00  0.00     0.061 C 
ATOM      5  H   LIG d   1       2.754  -2.909 -11.363  0.00  0.00     0.095 H 
ATOM      6  C   LIG d   1       1.563  -0.781  -9.720  0.00  0.00    -0.012 C 
ATOM      7  H   LIG d   1       3.774  -3.261  -9.206  0.00  0.00     0.035 H 
ATOM      8  H   LIG d   1       2.192  -3.211  -8.359  0.00  0.00     0.035 H 
ATOM      9  H   LIG d   1       0.829  -0.575  -8.940  0.00  0.00     0.083 H 
ATOM     10  H   LIG d   1       1.740   0.116 -10.312  0.00  0.00     0.083 H 
ATOM     11  N   LIG d   1       1.072  -1.878 -10.574  0.00  0.00     0.243 N 
ATOM     12  H   LIG d   1       0.170  -2.211 -10.214  0.00  0.00     0.204 HD
ENDROOT
BRANCH   1  13
ATOM     13  N   LIG d   1       2.970  -0.834  -7.684  0.00  0.00    -0.303 N 
ATOM     14  C   LIG d   1       4.171  -0.763  -7.075  0.00  0.00     0.244 C 
ATOM     15  O   LIG d   1       5.181  -1.052  -7.685  0.00  0.00    -0.270 OA
ATOM     16  H   LIG d   1       2.164  -0.603  -7.197  0.00  0.00     0.149 HD
BRANCH  14  17
ATOM     17  C   LIG d   1       4.258  -0.332  -5.662  0.00  0.00     0.037 A 
ATOM     18  C   LIG d   1       3.126   0.157  -5.009  0.00  0.00    -0.049 A 
ATOM     19  C   LIG d   1       3.214   0.557  -3.691  0.00  0.00    -0.058 A 
ATOM     20  H   LIG d   1       2.184   0.222  -5.532  0.00  0.00     0.062 H 
ATOM     21  C   LIG d   1       4.420   0.474  -3.018  0.00  0.00    -0.050 A 
ATOM     22  H   LIG d   1       2.338   0.934  -3.183  0.00  0.00     0.062 H 
ATOM     23  C   LIG d   1       5.546  -0.009  -3.662  0.00  0.00    -0.058 A 
ATOM     24  C   LIG d   1       5.471  -0.418  -4.977  0.00  0.00    -0.049 A 
ATOM     25  H   LIG d   1       6.484  -0.070  -3.131  0.00  0.00     0.062 H 
ATOM     26  H   LIG d   1       6.349  -0.799  -5.477  0.00  0.00     0.062 H 
BRANCH  21  27
ATOM     27  C   LIG d   1       4.508   0.913  -1.579  0.00  0.00    -0.040 C 
ATOM     28  H   LIG d   1       5.506   1.301  -1.379  0.00  0.00     0.028 H 
ATOM     29  H   LIG d   1       3.770   1.693  -1.392  0.00  0.00     0.028 H 
ATOM     30  H   LIG d   1       4.310   0.063  -0.927  0.00  0.00     0.028 H 
ENDBRANCH  21  27
ENDBRANCH  14  17
ENDBRANCH   1  13
BRANCH  11  31
ATOM     31  C   LIG d   1       0.892  -1.397 -11.968  0.00  0.00    -0.042 C 
ATOM     32  H   LIG d   1      -0.057  -1.756 -12.364  0.00  0.00     0.078 H 
ATOM     33  H   LIG d   1       0.899  -0.307 -11.975  0.00  0.00     0.078 H 
ATOM     34  H   LIG d   1       1.709  -1.768 -12.587  0.00  0.00     0.078 H 
ENDBRANCH  11  31
BRANCH   4  35
ATOM     35  C   LIG d   1       1.330  -4.307 -10.578  0.00  0.00     0.276 A 
ATOM     36  O   LIG d   1       1.897  -5.514 -10.665  0.00  0.00    -0.332 OA
ATOM     37  N   LIG d   1       1.041  -6.375 -10.676  0.00  0.00    -0.056 NA
ATOM     38  C   LIG d   1      -0.145  -5.830 -10.599  0.00  0.00     0.204 A 
ATOM     39  N   LIG d   1       0.034  -4.491 -10.530  0.00  0.00    -0.186 NA
BRANCH  38  40
ATOM     40  C   LIG d   1      -1.444  -6.546 -10.584  0.00  0.00     0.041 A 
ATOM     41  C   LIG d   1      -2.621  -5.886 -10.931  0.00  0.00     0.038 A 
ATOM     42  N   LIG d   1      -3.774  -6.523 -10.923  0.00  0.00    -0.263 NA
ATOM     43  H   LIG d   1      -2.587  -4.845 -11.212  0.00  0.00     0.084 H 
ATOM     44  C   LIG d   1      -3.866  -7.793 -10.581  0.00  0.00     0.028 A 
ATOM     45  C   LIG d   1      -2.744  -8.517 -10.220  0.00  0.00    -0.043 A 
ATOM     46  H   LIG d   1      -4.832  -8.276 -10.583  0.00  0.00     0.083 H 
ATOM     47  C   LIG d   1      -1.507  -7.894 -10.217  0.00  0.00    -0.048 A 
ATOM     48  H   LIG d   1      -2.830  -9.557  -9.942  0.00  0.00     0.063 H 
ATOM     49  H   LIG d   1      -0.615  -8.435  -9.940  0.00  0.00     0.063 H 
ENDBRANCH  38  40
ENDBRANCH   4  35
TORSDOF 6
ENDMDL
