MODEL 1
REMARK VINA RESULT:      -6.8      0.000      0.000
REMARK  8 active torsions:
REMARK  status: ('A' for Active; 'I' for Inactive)
REMARK    1  A    between atoms: C_1  and  C_2 
REMARK    2  A    between atoms: C_2  and  O_3 
REMARK    3  A    between atoms: O_3  and  C_4 
REMARK    4  A    between atoms: C_4  and  C_6 
REMARK    5  A    between atoms: C_10  and  N_12 
REMARK       I    between atoms: N_12  and  C_13 
REMARK    6  A    between atoms: C_13  and  C_15 
REMARK    7  A    between atoms: C_29  and  C_41 
REMARK    8  A    between atoms: C_34  and  C_36 
ROOT
ATOM      1  C   LIG d   1       2.800   0.219  -9.521  0.00  0.00     0.080 C 
ATOM      2  H   LIG d   1       2.343   1.138  -9.155  0.00  0.00     0.043 H 
ATOM      3  C   LIG d   1       3.846   0.522 -10.664  0.00  0.00     0.090 C 
ATOM      4  H   LIG d   1       3.454   0.542 -11.680  0.00  0.00     0.065 H 
ATOM      5  C   LIG d   1       4.498   1.818 -10.165  0.00  0.00    -0.056 C 
ATOM      6  C   LIG d   1       5.248   1.450  -9.139  0.00  0.00    -0.051 C 
ATOM      7  C   LIG d   1       5.113  -0.063  -9.041  0.00  0.00     0.119 C 
ATOM      8  C   LIG d   1       3.678  -0.402  -8.471  0.00  0.00     0.084 C 
ATOM      9  H   LIG d   1       3.550  -1.484  -8.500  0.00  0.00     0.043 H 
ATOM     10  C   LIG d   1       3.852   0.006  -7.066  0.00  0.00     0.224 C 
ATOM     11  O   LIG d   1       3.064   0.610  -6.370  0.00  0.00    -0.275 OA
ATOM     12  N   LIG d   1       5.089  -0.443  -6.717  0.00  0.00    -0.284 N 
ATOM     13  C   LIG d   1       5.936  -0.634  -7.942  0.00  0.00     0.069 C 
ATOM     14  H   LIG d   1       6.870  -0.080  -7.846  0.00  0.00     0.054 H 
ATOM     15  C   LIG d   1       6.208  -2.135  -8.027  0.00  0.00     0.036 C 
ATOM     16  H   LIG d   1       6.944  -2.337  -8.806  0.00  0.00     0.039 H 
ATOM     17  C   LIG d   1       6.750  -2.569  -6.679  0.00  0.00     0.140 C 
ATOM     18  O   LIG d   1       7.805  -3.154  -6.612  0.00  0.00    -0.297 OA
ATOM     19  C   LIG d   1       5.973  -2.269  -5.419  0.00  0.00     0.032 C 
ATOM     20  C   LIG d   1       5.597  -0.774  -5.385  0.00  0.00     0.091 C 
ATOM     21  H   LIG d   1       6.479  -0.174  -5.162  0.00  0.00     0.059 H 
ATOM     22  O   LIG d   1       4.910  -0.483 -10.391  0.00  0.00    -0.359 OA
ATOM     23  H   LIG d   1       4.373   2.813 -10.565  0.00  0.00     0.060 H 
ATOM     24  H   LIG d   1       5.837   2.092  -8.501  0.00  0.00     0.060 H 
ATOM     25  H   LIG d   1       5.065  -2.871  -5.400  0.00  0.00     0.036 H 
ATOM     26  H   LIG d   1       6.586  -2.509  -4.549  0.00  0.00     0.036 H 
ENDROOT
BRANCH   1  27
ATOM     27  C   LIG d   1       1.751  -0.753  -9.992  0.00  0.00     0.224 C 
ATOM     28  N   LIG d   1       2.119  -1.936 -10.526  0.00  0.00    -0.285 N 
ATOM     29  H   LIG d   1       3.054  -2.192 -10.538  0.00  0.00     0.155 HD
ATOM     30  O   LIG d   1       0.575  -0.473  -9.893  0.00  0.00    -0.275 OA
BRANCH  28  31
ATOM     31  C   LIG d   1       1.151  -2.794 -11.061  0.00  0.00     0.034 A 
ATOM     32  C   LIG d   1       0.669  -2.581 -12.347  0.00  0.00    -0.040 A 
ATOM     33  C   LIG d   1      -0.287  -3.425 -12.880  0.00  0.00    -0.059 A 
ATOM     34  H   LIG d   1       1.043  -1.755 -12.932  0.00  0.00     0.064 H 
ATOM     35  C   LIG d   1      -0.771  -4.484 -12.139  0.00  0.00    -0.048 A 
ATOM     36  H   LIG d   1      -0.657  -3.256 -13.881  0.00  0.00     0.062 H 
ATOM     37  C   LIG d   1      -0.294  -4.705 -10.845  0.00  0.00     0.061 A 
ATOM     38  H   LIG d   1      -1.517  -5.142 -12.559  0.00  0.00     0.063 H 
ATOM     39  C   LIG d   1       0.667  -3.850 -10.304  0.00  0.00    -0.026 A 
ATOM     40  H   LIG d   1       1.036  -4.013  -9.303  0.00  0.00     0.064 H 
BRANCH  37  41
ATOM     41  C   LIG d   1      -0.810  -5.837 -10.049  0.00  0.00     0.339 C 
ATOM     42  O   LIG d   1      -0.369  -6.956 -10.226  0.00  0.00    -0.245 OA
BRANCH  41  43
ATOM     43  O   LIG d   1      -1.770  -5.630  -9.127  0.00  0.00    -0.461 OA
BRANCH  43  44
ATOM     44  C   LIG d   1      -3.098  -6.028  -9.472  0.00  0.00     0.090 C 
ATOM     45  H   LIG d   1      -3.563  -6.525  -8.620  0.00  0.00     0.070 H 
ATOM     46  H   LIG d   1      -3.063  -6.716 -10.318  0.00  0.00     0.070 H 
BRANCH  44  47
ATOM     47  C   LIG d   1      -3.918  -4.794  -9.853  0.00  0.00    -0.031 C 
ATOM     48  H   LIG d   1      -4.406  -4.394  -8.964  0.00  0.00     0.026 H 
ATOM     49  H   LIG d   1      -3.259  -4.037 -10.278  0.00  0.00     0.026 H 
ATOM     50  H   LIG d   1      -4.673  -5.071 -10.589  0.00  0.00     0.026 H 
ENDBRANCH  44  47
ENDBRANCH  43  44
ENDBRANCH  41  43
ENDBRANCH  37  41
ENDBRANCH  28  31
ENDBRANCH   1  27
BRANCH  15  51
ATOM     51  C   LIG d   1       4.909  -2.883  -8.333  0.00  0.00    -0.054 C 
ATOM     52  H   LIG d   1       5.140  -3.833  -8.815  0.00  0.00     0.024 H 
ATOM     53  H   LIG d   1       4.368  -3.069  -7.405  0.00  0.00     0.024 H 
ATOM     54  H   LIG d   1       4.291  -2.280  -9.000  0.00  0.00     0.024 H 
ENDBRANCH  15  51
BRANCH  20  55
ATOM     55  C   LIG d   1       4.530  -0.531  -4.349  0.00  0.00     0.126 A 
ATOM     56  O   LIG d   1       4.281   0.639  -3.739  0.00  0.00    -0.466 OA
ATOM     57  C   LIG d   1       3.260   0.488  -2.879  0.00  0.00     0.092 A 
ATOM     58  C   LIG d   1       2.851  -0.793  -2.928  0.00  0.00    -0.024 A 
ATOM     59  H   LIG d   1       2.840   1.261  -2.254  0.00  0.00     0.103 H 
ATOM     60  C   LIG d   1       3.670  -1.450  -3.874  0.00  0.00    -0.019 A 
ATOM     61  H   LIG d   1       2.051  -1.235  -2.352  0.00  0.00     0.065 H 
ATOM     62  H   LIG d   1       3.616  -2.489  -4.162  0.00  0.00     0.065 H 
ENDBRANCH  20  55
TORSDOF 8
ENDMDL
MODEL 2
REMARK VINA RESULT:      -6.8      1.234      1.446
REMARK  8 active torsions:
REMARK  status: ('A' for Active; 'I' for Inactive)
REMARK    1  A    between atoms: C_1  and  C_2 
REMARK    2  A    between atoms: C_2  and  O_3 
REMARK    3  A    between atoms: O_3  and  C_4 
REMARK    4  A    between atoms: C_4  and  C_6 
REMARK    5  A    between atoms: C_10  and  N_12 
REMARK       I    between atoms: N_12  and  C_13 
REMARK    6  A    between atoms: C_13  and  C_15 
REMARK    7  A    between atoms: C_29  and  C_41 
REMARK    8  A    between atoms: C_34  and  C_36 
ROOT
ATOM      1  C   LIG d   1       3.984   0.230  -8.601  0.00  0.00     0.080 C 
ATOM      2  H   LIG d   1       3.615   1.124  -8.100  0.00  0.00     0.043 H 
ATOM      3  C   LIG d   1       5.095   0.592  -9.663  0.00  0.00     0.090 C 
ATOM      4  H   LIG d   1       4.742   0.816 -10.669  0.00  0.00     0.065 H 
ATOM      5  C   LIG d   1       5.864   1.712  -8.950  0.00  0.00    -0.056 C 
ATOM      6  C   LIG d   1       6.535   1.105  -7.985  0.00  0.00    -0.051 C 
ATOM      7  C   LIG d   1       6.236  -0.380  -8.135  0.00  0.00     0.119 C 
ATOM      8  C   LIG d   1       4.754  -0.644  -7.652  0.00  0.00     0.084 C 
ATOM      9  H   LIG d   1       4.513  -1.686  -7.857  0.00  0.00     0.043 H 
ATOM     10  C   LIG d   1       4.923  -0.485  -6.196  0.00  0.00     0.224 C 
ATOM     11  O   LIG d   1       4.180   0.084  -5.425  0.00  0.00    -0.275 OA
ATOM     12  N   LIG d   1       6.092  -1.118  -5.903  0.00  0.00    -0.284 N 
ATOM     13  C   LIG d   1       6.955  -1.205  -7.129  0.00  0.00     0.069 C 
ATOM     14  H   LIG d   1       7.939  -0.780  -6.929  0.00  0.00     0.054 H 
ATOM     15  C   LIG d   1       7.068  -2.695  -7.450  0.00  0.00     0.036 C 
ATOM     16  H   LIG d   1       7.804  -2.851  -8.240  0.00  0.00     0.039 H 
ATOM     17  C   LIG d   1       7.514  -3.394  -6.181  0.00  0.00     0.140 C 
ATOM     18  O   LIG d   1       8.498  -4.096  -6.193  0.00  0.00    -0.297 OA
ATOM     19  C   LIG d   1       6.731  -3.214  -4.902  0.00  0.00     0.032 C 
ATOM     20  C   LIG d   1       6.516  -1.711  -4.634  0.00  0.00     0.091 C 
ATOM     21  H   LIG d   1       7.449  -1.255  -4.303  0.00  0.00     0.059 H 
ATOM     22  O   LIG d   1       6.035  -0.554  -9.538  0.00  0.00    -0.359 OA
ATOM     23  H   LIG d   1       5.859   2.766  -9.186  0.00  0.00     0.060 H 
ATOM     24  H   LIG d   1       7.166   1.569  -7.242  0.00  0.00     0.060 H 
ATOM     25  H   LIG d   1       5.764  -3.707  -4.997  0.00  0.00     0.036 H 
ATOM     26  H   LIG d   1       7.284  -3.654  -4.073  0.00  0.00     0.036 H 
ENDROOT
BRANCH   1  27
ATOM     27  C   LIG d   1       2.853  -0.534  -9.242  0.00  0.00     0.224 C 
ATOM     28  N   LIG d   1       3.120  -1.569 -10.063  0.00  0.00    -0.285 N 
ATOM     29  H   LIG d   1       4.034  -1.870 -10.183  0.00  0.00     0.155 HD
ATOM     30  O   LIG d   1       1.704  -0.217  -9.018  0.00  0.00    -0.275 OA
BRANCH  28  31
ATOM     31  C   LIG d   1       2.076  -2.211 -10.740  0.00  0.00     0.034 A 
ATOM     32  C   LIG d   1       1.527  -1.631 -11.877  0.00  0.00    -0.040 A 
ATOM     33  C   LIG d   1       0.496  -2.260 -12.550  0.00  0.00    -0.059 A 
ATOM     34  H   LIG d   1       1.906  -0.686 -12.237  0.00  0.00     0.064 H 
ATOM     35  C   LIG d   1       0.005  -3.468 -12.098  0.00  0.00    -0.048 A 
ATOM     36  H   LIG d   1       0.073  -1.805 -13.435  0.00  0.00     0.062 H 
ATOM     37  C   LIG d   1       0.550  -4.058 -10.955  0.00  0.00     0.061 A 
ATOM     38  H   LIG d   1      -0.800  -3.956 -12.626  0.00  0.00     0.063 H 
ATOM     39  C   LIG d   1       1.586  -3.420 -10.272  0.00  0.00    -0.026 A 
ATOM     40  H   LIG d   1       2.009  -3.870  -9.386  0.00  0.00     0.064 H 
BRANCH  37  41
ATOM     41  C   LIG d   1       0.026  -5.350 -10.468  0.00  0.00     0.339 C 
ATOM     42  O   LIG d   1       0.738  -6.085  -9.812  0.00  0.00    -0.245 OA
BRANCH  41  43
ATOM     43  O   LIG d   1      -1.239  -5.714 -10.750  0.00  0.00    -0.461 OA
BRANCH  43  44
ATOM     44  C   LIG d   1      -2.248  -5.335  -9.812  0.00  0.00     0.090 C 
ATOM     45  H   LIG d   1      -3.083  -4.876 -10.341  0.00  0.00     0.070 H 
ATOM     46  H   LIG d   1      -1.833  -4.621  -9.100  0.00  0.00     0.070 H 
BRANCH  44  47
ATOM     47  C   LIG d   1      -2.739  -6.575  -9.062  0.00  0.00    -0.031 C 
ATOM     48  H   LIG d   1      -3.522  -6.289  -8.360  0.00  0.00     0.026 H 
ATOM     49  H   LIG d   1      -3.136  -7.298  -9.774  0.00  0.00     0.026 H 
ATOM     50  H   LIG d   1      -1.908  -7.023  -8.517  0.00  0.00     0.026 H 
ENDBRANCH  44  47
ENDBRANCH  43  44
ENDBRANCH  41  43
ENDBRANCH  37  41
ENDBRANCH  28  31
ENDBRANCH   1  27
BRANCH  15  51
ATOM     51  C   LIG d   1       5.708  -3.236  -7.895  0.00  0.00    -0.054 C 
ATOM     52  H   LIG d   1       4.944  -2.473  -7.742  0.00  0.00     0.024 H 
ATOM     53  H   LIG d   1       5.749  -3.502  -8.952  0.00  0.00     0.024 H 
ATOM     54  H   LIG d   1       5.459  -4.121  -7.307  0.00  0.00     0.024 H 
ENDBRANCH  15  51
BRANCH  20  55
ATOM     55  C   LIG d   1       5.446  -1.518  -3.591  0.00  0.00     0.126 A 
ATOM     56  O   LIG d   1       5.380  -0.505  -2.712  0.00  0.00    -0.466 OA
ATOM     57  C   LIG d   1       4.293  -0.654  -1.937  0.00  0.00     0.092 A 
ATOM     58  C   LIG d   1       3.656  -1.778  -2.312  0.00  0.00    -0.024 A 
ATOM     59  H   LIG d   1       3.985   0.013  -1.146  0.00  0.00     0.103 H 
ATOM     60  C   LIG d   1       4.399  -2.335  -3.377  0.00  0.00    -0.019 A 
ATOM     61  H   LIG d   1       2.750  -2.178  -1.880  0.00  0.00     0.065 H 
ATOM     62  H   LIG d   1       4.170  -3.242  -3.917  0.00  0.00     0.065 H 
ENDBRANCH  20  55
TORSDOF 8
ENDMDL
MODEL 3
REMARK VINA RESULT:      -6.7      6.346      9.680
REMARK  8 active torsions:
REMARK  status: ('A' for Active; 'I' for Inactive)
REMARK    1  A    between atoms: C_1  and  C_2 
REMARK    2  A    between atoms: C_2  and  O_3 
REMARK    3  A    between atoms: O_3  and  C_4 
REMARK    4  A    between atoms: C_4  and  C_6 
REMARK    5  A    between atoms: C_10  and  N_12 
REMARK       I    between atoms: N_12  and  C_13 
REMARK    6  A    between atoms: C_13  and  C_15 
REMARK    7  A    between atoms: C_29  and  C_41 
REMARK    8  A    between atoms: C_34  and  C_36 
ROOT
ATOM      1  C   LIG d   1       9.574   1.702  -5.700  0.00  0.00     0.080 C 
ATOM      2  H   LIG d   1       9.618   1.634  -6.786  0.00  0.00     0.043 H 
ATOM      3  C   LIG d   1      10.642   0.754  -5.028  0.00  0.00     0.090 C 
ATOM      4  H   LIG d   1      10.315  -0.264  -4.818  0.00  0.00     0.065 H 
ATOM      5  C   LIG d   1      11.838   0.898  -5.977  0.00  0.00    -0.056 C 
ATOM      6  C   LIG d   1      12.309   2.114  -5.752  0.00  0.00    -0.051 C 
ATOM      7  C   LIG d   1      11.456   2.694  -4.633  0.00  0.00     0.119 C 
ATOM      8  C   LIG d   1      10.033   3.052  -5.223  0.00  0.00     0.084 C 
ATOM      9  H   LIG d   1       9.396   3.370  -4.398  0.00  0.00     0.043 H 
ATOM     10  C   LIG d   1      10.375   4.238  -6.028  0.00  0.00     0.224 C 
ATOM     11  O   LIG d   1       9.975   4.517  -7.138  0.00  0.00    -0.275 OA
ATOM     12  N   LIG d   1      11.235   4.955  -5.254  0.00  0.00    -0.284 N 
ATOM     13  C   LIG d   1      11.891   4.061  -4.241  0.00  0.00     0.069 C 
ATOM     14  H   LIG d   1      12.975   4.143  -4.310  0.00  0.00     0.054 H 
ATOM     15  C   LIG d   1      11.399   4.549  -2.879  0.00  0.00     0.036 C 
ATOM     16  H   LIG d   1      11.949   4.046  -2.083  0.00  0.00     0.039 H 
ATOM     17  C   LIG d   1      11.654   6.042  -2.821  0.00  0.00     0.140 C 
ATOM     18  O   LIG d   1      12.291   6.511  -1.907  0.00  0.00    -0.297 OA
ATOM     19  C   LIG d   1      11.113   6.946  -3.903  0.00  0.00     0.032 C 
ATOM     20  C   LIG d   1      11.510   6.392  -5.286  0.00  0.00     0.091 C 
ATOM     21  H   LIG d   1      12.571   6.565  -5.465  0.00  0.00     0.059 H 
ATOM     22  O   LIG d   1      11.082   1.556  -3.854  0.00  0.00    -0.359 OA
ATOM     23  H   LIG d   1      12.215   0.166  -6.676  0.00  0.00     0.060 H 
ATOM     24  H   LIG d   1      13.131   2.597  -6.258  0.00  0.00     0.060 H 
ATOM     25  H   LIG d   1      10.026   6.990  -3.829  0.00  0.00     0.036 H 
ATOM     26  H   LIG d   1      11.526   7.947  -3.781  0.00  0.00     0.036 H 
ENDROOT
BRANCH   1  27
ATOM     27  C   LIG d   1       8.187   1.395  -5.197  0.00  0.00     0.224 C 
ATOM     28  N   LIG d   1       8.014   0.910  -3.951  0.00  0.00    -0.285 N 
ATOM     29  H   LIG d   1       8.772   0.829  -3.352  0.00  0.00     0.155 HD
ATOM     30  O   LIG d   1       7.227   1.583  -5.914  0.00  0.00    -0.275 OA
BRANCH  28  31
ATOM     31  C   LIG d   1       6.738   0.525  -3.522  0.00  0.00     0.034 A 
ATOM     32  C   LIG d   1       5.964   1.401  -2.770  0.00  0.00    -0.040 A 
ATOM     33  C   LIG d   1       4.704   1.025  -2.344  0.00  0.00    -0.059 A 
ATOM     34  H   LIG d   1       6.348   2.378  -2.519  0.00  0.00     0.064 H 
ATOM     35  C   LIG d   1       4.206  -0.222  -2.661  0.00  0.00    -0.048 A 
ATOM     36  H   LIG d   1       4.106   1.711  -1.761  0.00  0.00     0.062 H 
ATOM     37  C   LIG d   1       4.976  -1.110  -3.415  0.00  0.00     0.061 A 
ATOM     38  H   LIG d   1       3.221  -0.512  -2.327  0.00  0.00     0.063 H 
ATOM     39  C   LIG d   1       6.251  -0.734  -3.840  0.00  0.00    -0.026 A 
ATOM     40  H   LIG d   1       6.853  -1.418  -4.420  0.00  0.00     0.064 H 
BRANCH  37  41
ATOM     41  C   LIG d   1       4.446  -2.446  -3.755  0.00  0.00     0.339 C 
ATOM     42  O   LIG d   1       3.905  -3.121  -2.902  0.00  0.00    -0.245 OA
BRANCH  41  43
ATOM     43  O   LIG d   1       4.564  -2.918  -5.012  0.00  0.00    -0.461 OA
BRANCH  43  44
ATOM     44  C   LIG d   1       5.051  -4.253  -5.161  0.00  0.00     0.090 C 
ATOM     45  H   LIG d   1       4.642  -4.689  -6.072  0.00  0.00     0.070 H 
ATOM     46  H   LIG d   1       4.743  -4.850  -4.302  0.00  0.00     0.070 H 
BRANCH  44  47
ATOM     47  C   LIG d   1       6.578  -4.232  -5.245  0.00  0.00    -0.031 C 
ATOM     48  H   LIG d   1       6.924  -5.112  -5.788  0.00  0.00     0.026 H 
ATOM     49  H   LIG d   1       6.901  -3.332  -5.768  0.00  0.00     0.026 H 
ATOM     50  H   LIG d   1       6.998  -4.237  -4.239  0.00  0.00     0.026 H 
ENDBRANCH  44  47
ENDBRANCH  43  44
ENDBRANCH  41  43
ENDBRANCH  37  41
ENDBRANCH  28  31
ENDBRANCH   1  27
BRANCH  15  51
ATOM     51  C   LIG d   1       9.902   4.268  -2.734  0.00  0.00    -0.054 C 
ATOM     52  H   LIG d   1       9.660   3.323  -3.221  0.00  0.00     0.024 H 
ATOM     53  H   LIG d   1       9.643   4.208  -1.677  0.00  0.00     0.024 H 
ATOM     54  H   LIG d   1       9.334   5.073  -3.202  0.00  0.00     0.024 H 
ENDBRANCH  15  51
BRANCH  20  55
ATOM     55  C   LIG d   1      10.689   7.052  -6.364  0.00  0.00     0.126 A 
ATOM     56  O   LIG d   1      11.044   7.179  -7.654  0.00  0.00    -0.466 OA
ATOM     57  C   LIG d   1      10.070   7.815  -8.325  0.00  0.00     0.092 A 
ATOM     58  C   LIG d   1       9.081   8.109  -7.461  0.00  0.00    -0.024 A 
ATOM     59  H   LIG d   1      10.080   8.053  -9.378  0.00  0.00     0.103 H 
ATOM     60  C   LIG d   1       9.480   7.618  -6.198  0.00  0.00    -0.019 A 
ATOM     61  H   LIG d   1       8.159   8.624  -7.690  0.00  0.00     0.065 H 
ATOM     62  H   LIG d   1       8.923   7.683  -5.275  0.00  0.00     0.065 H 
ENDBRANCH  20  55
TORSDOF 8
ENDMDL
MODEL 4
REMARK VINA RESULT:      -6.6      5.427     10.833
REMARK  8 active torsions:
REMARK  status: ('A' for Active; 'I' for Inactive)
REMARK    1  A    between atoms: C_1  and  C_2 
REMARK    2  A    between atoms: C_2  and  O_3 
REMARK    3  A    between atoms: O_3  and  C_4 
REMARK    4  A    between atoms: C_4  and  C_6 
REMARK    5  A    between atoms: C_10  and  N_12 
REMARK       I    between atoms: N_12  and  C_13 
REMARK    6  A    between atoms: C_13  and  C_15 
REMARK    7  A    between atoms: C_29  and  C_41 
REMARK    8  A    between atoms: C_34  and  C_36 
ROOT
ATOM      1  C   LIG d   1       9.198   0.845  -4.720  0.00  0.00     0.080 C 
ATOM      2  H   LIG d   1       9.395   0.458  -3.721  0.00  0.00     0.043 H 
ATOM      3  C   LIG d   1      10.316   0.388  -5.736  0.00  0.00     0.090 C 
ATOM      4  H   LIG d   1      11.180   1.045  -5.826  0.00  0.00     0.065 H 
ATOM      5  C   LIG d   1      10.601  -1.046  -5.272  0.00  0.00    -0.056 C 
ATOM      6  C   LIG d   1       9.537  -1.742  -5.638  0.00  0.00    -0.051 C 
ATOM      7  C   LIG d   1       8.630  -0.767  -6.376  0.00  0.00     0.119 C 
ATOM      8  C   LIG d   1       7.975   0.206  -5.316  0.00  0.00     0.084 C 
ATOM      9  H   LIG d   1       7.409   0.964  -5.858  0.00  0.00     0.043 H 
ATOM     10  C   LIG d   1       7.019  -0.714  -4.673  0.00  0.00     0.224 C 
ATOM     11  O   LIG d   1       6.769  -0.810  -3.491  0.00  0.00    -0.275 OA
ATOM     12  N   LIG d   1       6.475  -1.430  -5.695  0.00  0.00    -0.284 N 
ATOM     13  C   LIG d   1       7.394  -1.418  -6.883  0.00  0.00     0.069 C 
ATOM     14  H   LIG d   1       7.611  -2.437  -7.204  0.00  0.00     0.054 H 
ATOM     15  C   LIG d   1       6.645  -0.659  -7.977  0.00  0.00     0.036 C 
ATOM     16  H   LIG d   1       7.184  -0.738  -8.922  0.00  0.00     0.039 H 
ATOM     17  C   LIG d   1       5.276  -1.298  -8.108  0.00  0.00     0.140 C 
ATOM     18  O   LIG d   1       4.896  -1.695  -9.184  0.00  0.00    -0.297 OA
ATOM     19  C   LIG d   1       4.387  -1.438  -6.895  0.00  0.00     0.032 C 
ATOM     20  C   LIG d   1       5.176  -2.101  -5.749  0.00  0.00     0.091 C 
ATOM     21  H   LIG d   1       5.313  -3.162  -5.957  0.00  0.00     0.059 H 
ATOM     22  O   LIG d   1       9.534   0.158  -6.982  0.00  0.00    -0.359 OA
ATOM     23  H   LIG d   1      11.480  -1.409  -4.760  0.00  0.00     0.060 H 
ATOM     24  H   LIG d   1       9.349  -2.789  -5.453  0.00  0.00     0.060 H 
ATOM     25  H   LIG d   1       4.047  -0.452  -6.578  0.00  0.00     0.036 H 
ATOM     26  H   LIG d   1       3.525  -2.056  -7.147  0.00  0.00     0.036 H 
ENDROOT
BRANCH   1  27
ATOM     27  C   LIG d   1       9.067   2.346  -4.700  0.00  0.00     0.224 C 
ATOM     28  N   LIG d   1      10.140   3.112  -4.416  0.00  0.00    -0.285 N 
ATOM     29  H   LIG d   1      11.011   2.702  -4.297  0.00  0.00     0.155 HD
ATOM     30  O   LIG d   1       7.998   2.866  -4.939  0.00  0.00    -0.275 OA
BRANCH  28  31
ATOM     31  C   LIG d   1       9.997   4.499  -4.292  0.00  0.00     0.034 A 
ATOM     32  C   LIG d   1       9.941   5.295  -5.429  0.00  0.00    -0.040 A 
ATOM     33  C   LIG d   1       9.799   6.666  -5.313  0.00  0.00    -0.059 A 
ATOM     34  H   LIG d   1      10.009   4.843  -6.407  0.00  0.00     0.064 H 
ATOM     35  C   LIG d   1       9.713   7.252  -4.067  0.00  0.00    -0.048 A 
ATOM     36  H   LIG d   1       9.755   7.280  -6.201  0.00  0.00     0.062 H 
ATOM     37  C   LIG d   1       9.768   6.460  -2.918  0.00  0.00     0.061 A 
ATOM     38  H   LIG d   1       9.601   8.323  -3.980  0.00  0.00     0.063 H 
ATOM     39  C   LIG d   1       9.917   5.078  -3.035  0.00  0.00    -0.026 A 
ATOM     40  H   LIG d   1       9.966   4.461  -2.150  0.00  0.00     0.064 H 
BRANCH  37  41
ATOM     41  C   LIG d   1       9.676   7.085  -1.582  0.00  0.00     0.339 C 
ATOM     42  O   LIG d   1       9.420   8.268  -1.482  0.00  0.00    -0.245 OA
BRANCH  41  43
ATOM     43  O   LIG d   1       9.876   6.343  -0.476  0.00  0.00    -0.461 OA
BRANCH  43  44
ATOM     44  C   LIG d   1      11.173   6.406   0.121  0.00  0.00     0.090 C 
ATOM     45  H   LIG d   1      11.558   7.423   0.049  0.00  0.00     0.070 H 
ATOM     46  H   LIG d   1      11.847   5.724  -0.400  0.00  0.00     0.070 H 
BRANCH  44  47
ATOM     47  C   LIG d   1      11.077   6.000   1.593  0.00  0.00    -0.031 C 
ATOM     48  H   LIG d   1      11.039   4.913   1.668  0.00  0.00     0.026 H 
ATOM     49  H   LIG d   1      11.949   6.371   2.130  0.00  0.00     0.026 H 
ATOM     50  H   LIG d   1      10.174   6.426   2.029  0.00  0.00     0.026 H 
ENDBRANCH  44  47
ENDBRANCH  43  44
ENDBRANCH  41  43
ENDBRANCH  37  41
ENDBRANCH  28  31
ENDBRANCH   1  27
BRANCH  15  51
ATOM     51  C   LIG d   1       6.500   0.813  -7.584  0.00  0.00    -0.054 C 
ATOM     52  H   LIG d   1       5.656   0.926  -6.903  0.00  0.00     0.024 H 
ATOM     53  H   LIG d   1       7.412   1.150  -7.091  0.00  0.00     0.024 H 
ATOM     54  H   LIG d   1       6.326   1.413  -8.479  0.00  0.00     0.024 H 
ENDBRANCH  15  51
BRANCH  20  55
ATOM     55  C   LIG d   1       4.446  -1.920  -4.444  0.00  0.00     0.126 A 
ATOM     56  O   LIG d   1       3.698  -0.857  -4.103  0.00  0.00    -0.466 OA
ATOM     57  C   LIG d   1       3.198  -1.037  -2.870  0.00  0.00     0.092 A 
ATOM     58  C   LIG d   1       3.633  -2.223  -2.405  0.00  0.00    -0.024 A 
ATOM     59  H   LIG d   1       2.558  -0.347  -2.341  0.00  0.00     0.103 H 
ATOM     60  C   LIG d   1       4.437  -2.791  -3.419  0.00  0.00    -0.019 A 
ATOM     61  H   LIG d   1       3.411  -2.656  -1.441  0.00  0.00     0.065 H 
ATOM     62  H   LIG d   1       4.947  -3.742  -3.379  0.00  0.00     0.065 H 
ENDBRANCH  20  55
TORSDOF 8
ENDMDL
MODEL 5
REMARK VINA RESULT:      -6.6      4.378     10.155
REMARK  8 active torsions:
REMARK  status: ('A' for Active; 'I' for Inactive)
REMARK    1  A    between atoms: C_1  and  C_2 
REMARK    2  A    between atoms: C_2  and  O_3 
REMARK    3  A    between atoms: O_3  and  C_4 
REMARK    4  A    between atoms: C_4  and  C_6 
REMARK    5  A    between atoms: C_10  and  N_12 
REMARK       I    between atoms: N_12  and  C_13 
REMARK    6  A    between atoms: C_13  and  C_15 
REMARK    7  A    between atoms: C_29  and  C_41 
REMARK    8  A    between atoms: C_34  and  C_36 
ROOT
ATOM      1  C   LIG d   1       5.906   0.014  -4.027  0.00  0.00     0.080 C 
ATOM      2  H   LIG d   1       5.097   0.730  -3.880  0.00  0.00     0.043 H 
ATOM      3  C   LIG d   1       5.938  -1.052  -2.864  0.00  0.00     0.090 C 
ATOM      4  H   LIG d   1       6.539  -0.794  -1.993  0.00  0.00     0.065 H 
ATOM      5  C   LIG d   1       4.444  -1.290  -2.608  0.00  0.00    -0.056 C 
ATOM      6  C   LIG d   1       4.023  -1.978  -3.657  0.00  0.00    -0.051 C 
ATOM      7  C   LIG d   1       5.251  -2.219  -4.522  0.00  0.00     0.119 C 
ATOM      8  C   LIG d   1       5.645  -0.858  -5.223  0.00  0.00     0.084 C 
ATOM      9  H   LIG d   1       6.582  -1.012  -5.758  0.00  0.00     0.043 H 
ATOM     10  C   LIG d   1       4.558  -0.751  -6.213  0.00  0.00     0.224 C 
ATOM     11  O   LIG d   1       3.936   0.243  -6.521  0.00  0.00    -0.275 OA
ATOM     12  N   LIG d   1       4.407  -2.009  -6.711  0.00  0.00    -0.284 N 
ATOM     13  C   LIG d   1       4.940  -3.020  -5.735  0.00  0.00     0.069 C 
ATOM     14  H   LIG d   1       4.177  -3.765  -5.508  0.00  0.00     0.054 H 
ATOM     15  C   LIG d   1       6.137  -3.670  -6.427  0.00  0.00     0.036 C 
ATOM     16  H   LIG d   1       6.487  -4.522  -5.843  0.00  0.00     0.039 H 
ATOM     17  C   LIG d   1       5.667  -4.136  -7.791  0.00  0.00     0.140 C 
ATOM     18  O   LIG d   1       5.819  -5.288  -8.121  0.00  0.00    -0.297 OA
ATOM     19  C   LIG d   1       5.008  -3.162  -8.739  0.00  0.00     0.032 C 
ATOM     20  C   LIG d   1       3.871  -2.419  -8.009  0.00  0.00     0.091 C 
ATOM     21  H   LIG d   1       3.021  -3.087  -7.868  0.00  0.00     0.059 H 
ATOM     22  O   LIG d   1       6.327  -2.294  -3.585  0.00  0.00    -0.359 OA
ATOM     23  H   LIG d   1       3.863  -0.967  -1.757  0.00  0.00     0.060 H 
ATOM     24  H   LIG d   1       3.013  -2.304  -3.858  0.00  0.00     0.060 H 
ATOM     25  H   LIG d   1       5.746  -2.440  -9.088  0.00  0.00     0.036 H 
ATOM     26  H   LIG d   1       4.598  -3.704  -9.590  0.00  0.00     0.036 H 
ENDROOT
BRANCH   1  27
ATOM     27  C   LIG d   1       7.232   0.718  -4.151  0.00  0.00     0.224 C 
ATOM     28  N   LIG d   1       7.271   2.049  -4.367  0.00  0.00    -0.285 N 
ATOM     29  H   LIG d   1       6.449   2.564  -4.368  0.00  0.00     0.155 HD
ATOM     30  O   LIG d   1       8.264   0.089  -4.056  0.00  0.00    -0.275 OA
BRANCH  28  31
ATOM     31  C   LIG d   1       8.498   2.686  -4.588  0.00  0.00     0.034 A 
ATOM     32  C   LIG d   1       9.052   2.703  -5.862  0.00  0.00    -0.040 A 
ATOM     33  C   LIG d   1      10.263   3.331  -6.086  0.00  0.00    -0.059 A 
ATOM     34  H   LIG d   1       8.535   2.225  -6.680  0.00  0.00     0.064 H 
ATOM     35  C   LIG d   1      10.931   3.944  -5.045  0.00  0.00    -0.048 A 
ATOM     36  H   LIG d   1      10.688   3.342  -7.079  0.00  0.00     0.062 H 
ATOM     37  C   LIG d   1      10.382   3.931  -3.761  0.00  0.00     0.061 A 
ATOM     38  H   LIG d   1      11.877   4.434  -5.224  0.00  0.00     0.063 H 
ATOM     39  C   LIG d   1       9.163   3.293  -3.533  0.00  0.00    -0.026 A 
ATOM     40  H   LIG d   1       8.736   3.276  -2.542  0.00  0.00     0.064 H 
BRANCH  37  41
ATOM     41  C   LIG d   1      11.095   4.587  -2.645  0.00  0.00     0.339 C 
ATOM     42  O   LIG d   1      12.299   4.466  -2.539  0.00  0.00    -0.245 OA
BRANCH  41  43
ATOM     43  O   LIG d   1      10.410   5.317  -1.744  0.00  0.00    -0.461 OA
BRANCH  43  44
ATOM     44  C   LIG d   1       9.854   6.553  -2.199  0.00  0.00     0.090 C 
ATOM     45  H   LIG d   1       8.877   6.370  -2.645  0.00  0.00     0.070 H 
ATOM     46  H   LIG d   1      10.516   6.997  -2.943  0.00  0.00     0.070 H 
BRANCH  44  47
ATOM     47  C   LIG d   1       9.704   7.510  -1.015  0.00  0.00    -0.031 C 
ATOM     48  H   LIG d   1       8.931   8.246  -1.238  0.00  0.00     0.026 H 
ATOM     49  H   LIG d   1       9.423   6.947  -0.125  0.00  0.00     0.026 H 
ATOM     50  H   LIG d   1      10.650   8.020  -0.837  0.00  0.00     0.026 H 
ENDBRANCH  44  47
ENDBRANCH  43  44
ENDBRANCH  41  43
ENDBRANCH  37  41
ENDBRANCH  28  31
ENDBRANCH   1  27
BRANCH  15  51
ATOM     51  C   LIG d   1       7.266  -2.649  -6.584  0.00  0.00    -0.054 C 
ATOM     52  H   LIG d   1       8.188  -3.059  -6.171  0.00  0.00     0.024 H 
ATOM     53  H   LIG d   1       7.410  -2.425  -7.641  0.00  0.00     0.024 H 
ATOM     54  H   LIG d   1       7.005  -1.734  -6.050  0.00  0.00     0.024 H 
ENDBRANCH  15  51
BRANCH  20  55
ATOM     55  C   LIG d   1       3.451  -1.207  -8.800  0.00  0.00     0.126 A 
ATOM     56  O   LIG d   1       4.268  -0.409  -9.507  0.00  0.00    -0.466 OA
ATOM     57  C   LIG d   1       3.551   0.568 -10.085  0.00  0.00     0.092 A 
ATOM     58  C   LIG d   1       2.260   0.406  -9.742  0.00  0.00    -0.024 A 
ATOM     59  H   LIG d   1       3.943   1.352 -10.715  0.00  0.00     0.103 H 
ATOM     60  C   LIG d   1       2.196  -0.737  -8.914  0.00  0.00    -0.019 A 
ATOM     61  H   LIG d   1       1.431   1.031 -10.041  0.00  0.00     0.065 H 
ATOM     62  H   LIG d   1       1.309  -1.155  -8.460  0.00  0.00     0.065 H 
ENDBRANCH  20  55
TORSDOF 8
ENDMDL
MODEL 6
REMARK VINA RESULT:      -6.3      7.124      9.899
REMARK  8 active torsions:
REMARK  status: ('A' for Active; 'I' for Inactive)
REMARK    1  A    between atoms: C_1  and  C_2 
REMARK    2  A    between atoms: C_2  and  O_3 
REMARK    3  A    between atoms: O_3  and  C_4 
REMARK    4  A    between atoms: C_4  and  C_6 
REMARK    5  A    between atoms: C_10  and  N_12 
REMARK       I    between atoms: N_12  and  C_13 
REMARK    6  A    between atoms: C_13  and  C_15 
REMARK    7  A    between atoms: C_29  and  C_41 
REMARK    8  A    between atoms: C_34  and  C_36 
ROOT
ATOM      1  C   LIG d   1       9.138   3.546  -4.970  0.00  0.00     0.080 C 
ATOM      2  H   LIG d   1       8.385   4.321  -4.828  0.00  0.00     0.043 H 
ATOM      3  C   LIG d   1       9.633   3.505  -6.469  0.00  0.00     0.090 C 
ATOM      4  H   LIG d   1       9.071   2.859  -7.142  0.00  0.00     0.065 H 
ATOM      5  C   LIG d   1       9.670   4.994  -6.833  0.00  0.00    -0.056 C 
ATOM      6  C   LIG d   1      10.706   5.483  -6.170  0.00  0.00    -0.051 C 
ATOM      7  C   LIG d   1      11.342   4.300  -5.454  0.00  0.00     0.119 C 
ATOM      8  C   LIG d   1      10.409   3.886  -4.246  0.00  0.00     0.084 C 
ATOM      9  H   LIG d   1      10.816   2.979  -3.801  0.00  0.00     0.043 H 
ATOM     10  C   LIG d   1      10.664   5.008  -3.324  0.00  0.00     0.224 C 
ATOM     11  O   LIG d   1       9.854   5.607  -2.649  0.00  0.00    -0.275 OA
ATOM     12  N   LIG d   1      12.006   5.226  -3.392  0.00  0.00    -0.284 N 
ATOM     13  C   LIG d   1      12.553   4.690  -4.685  0.00  0.00     0.069 C 
ATOM     14  H   LIG d   1      13.100   5.470  -5.216  0.00  0.00     0.054 H 
ATOM     15  C   LIG d   1      13.489   3.547  -4.295  0.00  0.00     0.036 C 
ATOM     16  H   LIG d   1      14.043   3.205  -5.170  0.00  0.00     0.039 H 
ATOM     17  C   LIG d   1      14.449   4.089  -3.255  0.00  0.00     0.140 C 
ATOM     18  O   LIG d   1      15.641   3.993  -3.426  0.00  0.00    -0.297 OA
ATOM     19  C   LIG d   1      13.917   4.751  -2.006  0.00  0.00     0.032 C 
ATOM     20  C   LIG d   1      12.885   5.829  -2.390  0.00  0.00     0.091 C 
ATOM     21  H   LIG d   1      13.393   6.696  -2.813  0.00  0.00     0.059 H 
ATOM     22  O   LIG d   1      11.079   3.190  -6.314  0.00  0.00    -0.359 OA
ATOM     23  H   LIG d   1       8.997   5.528  -7.489  0.00  0.00     0.060 H 
ATOM     24  H   LIG d   1      11.034   6.511  -6.144  0.00  0.00     0.060 H 
ATOM     25  H   LIG d   1      13.441   4.002  -1.374  0.00  0.00     0.036 H 
ATOM     26  H   LIG d   1      14.741   5.214  -1.462  0.00  0.00     0.036 H 
ENDROOT
BRANCH   1  27
ATOM     27  C   LIG d   1       8.613   2.201  -4.538  0.00  0.00     0.224 C 
ATOM     28  N   LIG d   1       8.499   1.201  -5.436  0.00  0.00    -0.285 N 
ATOM     29  H   LIG d   1       8.823   1.324  -6.342  0.00  0.00     0.155 HD
ATOM     30  O   LIG d   1       8.294   2.017  -3.382  0.00  0.00    -0.275 OA
BRANCH  28  31
ATOM     31  C   LIG d   1       7.914  -0.014  -5.060  0.00  0.00     0.034 A 
ATOM     32  C   LIG d   1       8.692  -1.161  -4.971  0.00  0.00    -0.040 A 
ATOM     33  C   LIG d   1       8.119  -2.363  -4.600  0.00  0.00    -0.059 A 
ATOM     34  H   LIG d   1       9.748  -1.114  -5.192  0.00  0.00     0.064 H 
ATOM     35  C   LIG d   1       6.771  -2.433  -4.316  0.00  0.00    -0.048 A 
ATOM     36  H   LIG d   1       8.729  -3.252  -4.532  0.00  0.00     0.062 H 
ATOM     37  C   LIG d   1       5.980  -1.285  -4.404  0.00  0.00     0.061 A 
ATOM     38  H   LIG d   1       6.327  -3.373  -4.026  0.00  0.00     0.063 H 
ATOM     39  C   LIG d   1       6.557  -0.072  -4.784  0.00  0.00    -0.026 A 
ATOM     40  H   LIG d   1       5.949   0.818  -4.857  0.00  0.00     0.064 H 
BRANCH  37  41
ATOM     41  C   LIG d   1       4.536  -1.355  -4.101  0.00  0.00     0.339 C 
ATOM     42  O   LIG d   1       3.981  -2.434  -4.036  0.00  0.00    -0.245 OA
BRANCH  41  43
ATOM     43  O   LIG d   1       3.834  -0.223  -3.897  0.00  0.00    -0.461 OA
BRANCH  43  44
ATOM     44  C   LIG d   1       3.418   0.050  -2.557  0.00  0.00     0.090 C 
ATOM     45  H   LIG d   1       3.405  -0.877  -1.984  0.00  0.00     0.070 H 
ATOM     46  H   LIG d   1       2.418   0.485  -2.569  0.00  0.00     0.070 H 
BRANCH  44  47
ATOM     47  C   LIG d   1       4.394   1.036  -1.912  0.00  0.00    -0.031 C 
ATOM     48  H   LIG d   1       5.050   1.451  -2.677  0.00  0.00     0.026 H 
ATOM     49  H   LIG d   1       3.836   1.841  -1.435  0.00  0.00     0.026 H 
ATOM     50  H   LIG d   1       4.992   0.517  -1.162  0.00  0.00     0.026 H 
ENDBRANCH  44  47
ENDBRANCH  43  44
ENDBRANCH  41  43
ENDBRANCH  37  41
ENDBRANCH  28  31
ENDBRANCH   1  27
BRANCH  15  51
ATOM     51  C   LIG d   1      12.680   2.389  -3.707  0.00  0.00    -0.054 C 
ATOM     52  H   LIG d   1      12.288   1.771  -4.515  0.00  0.00     0.024 H 
ATOM     53  H   LIG d   1      13.322   1.784  -3.067  0.00  0.00     0.024 H 
ATOM     54  H   LIG d   1      11.851   2.786  -3.119  0.00  0.00     0.024 H 
ENDBRANCH  15  51
BRANCH  20  55
ATOM     55  C   LIG d   1      12.085   6.237  -1.180  0.00  0.00     0.126 A 
ATOM     56  O   LIG d   1      11.525   7.441  -0.978  0.00  0.00    -0.466 OA
ATOM     57  C   LIG d   1      10.888   7.446   0.204  0.00  0.00     0.092 A 
ATOM     58  C   LIG d   1      11.045   6.238   0.776  0.00  0.00    -0.024 A 
ATOM     59  H   LIG d   1      10.345   8.278   0.626  0.00  0.00     0.103 H 
ATOM     60  C   LIG d   1      11.817   5.459  -0.115  0.00  0.00    -0.019 A 
ATOM     61  H   LIG d   1      10.656   5.924   1.734  0.00  0.00     0.065 H 
ATOM     62  H   LIG d   1      12.131   4.436   0.029  0.00  0.00     0.065 H 
ENDBRANCH  20  55
TORSDOF 8
ENDMDL
MODEL 7
REMARK VINA RESULT:      -6.1      6.571     10.379
REMARK  8 active torsions:
REMARK  status: ('A' for Active; 'I' for Inactive)
REMARK    1  A    between atoms: C_1  and  C_2 
REMARK    2  A    between atoms: C_2  and  O_3 
REMARK    3  A    between atoms: O_3  and  C_4 
REMARK    4  A    between atoms: C_4  and  C_6 
REMARK    5  A    between atoms: C_10  and  N_12 
REMARK       I    between atoms: N_12  and  C_13 
REMARK    6  A    between atoms: C_13  and  C_15 
REMARK    7  A    between atoms: C_29  and  C_41 
REMARK    8  A    between atoms: C_34  and  C_36 
ROOT
ATOM      1  C   LIG d   1       8.568  -7.299  -5.647  0.00  0.00     0.080 C 
ATOM      2  H   LIG d   1       9.604  -7.573  -5.450  0.00  0.00     0.043 H 
ATOM      3  C   LIG d   1       8.268  -7.288  -7.196  0.00  0.00     0.090 C 
ATOM      4  H   LIG d   1       8.448  -6.346  -7.713  0.00  0.00     0.065 H 
ATOM      5  C   LIG d   1       9.080  -8.494  -7.687  0.00  0.00    -0.056 C 
ATOM      6  C   LIG d   1       8.421  -9.552  -7.244  0.00  0.00    -0.051 C 
ATOM      7  C   LIG d   1       7.182  -9.013  -6.542  0.00  0.00     0.119 C 
ATOM      8  C   LIG d   1       7.626  -8.368  -5.169  0.00  0.00     0.084 C 
ATOM      9  H   LIG d   1       6.753  -7.895  -4.721  0.00  0.00     0.043 H 
ATOM     10  C   LIG d   1       7.940  -9.586  -4.399  0.00  0.00     0.224 C 
ATOM     11  O   LIG d   1       8.880  -9.766  -3.655  0.00  0.00    -0.275 OA
ATOM     12  N   LIG d   1       6.944 -10.463  -4.702  0.00  0.00    -0.284 N 
ATOM     13  C   LIG d   1       6.314 -10.099  -6.016  0.00  0.00     0.069 C 
ATOM     14  H   LIG d   1       6.329 -10.953  -6.692  0.00  0.00     0.054 H 
ATOM     15  C   LIG d   1       4.876  -9.698  -5.687  0.00  0.00     0.036 C 
ATOM     16  H   LIG d   1       4.307  -9.565  -6.608  0.00  0.00     0.039 H 
ATOM     17  C   LIG d   1       4.275 -10.822  -4.866  0.00  0.00     0.140 C 
ATOM     18  O   LIG d   1       3.243 -11.342  -5.219  0.00  0.00    -0.297 OA
ATOM     19  C   LIG d   1       4.965 -11.293  -3.608  0.00  0.00     0.032 C 
ATOM     20  C   LIG d   1       6.447 -11.589  -3.910  0.00  0.00     0.091 C 
ATOM     21  H   LIG d   1       6.533 -12.513  -4.481  0.00  0.00     0.059 H 
ATOM     22  O   LIG d   1       6.876  -7.811  -7.251  0.00  0.00    -0.359 OA
ATOM     23  H   LIG d   1       9.991  -8.481  -8.268  0.00  0.00     0.060 H 
ATOM     24  H   LIG d   1       8.703 -10.588  -7.359  0.00  0.00     0.060 H 
ATOM     25  H   LIG d   1       4.899 -10.517  -2.846  0.00  0.00     0.036 H 
ATOM     26  H   LIG d   1       4.481 -12.200  -3.246  0.00  0.00     0.036 H 
ENDROOT
BRANCH   1  27
ATOM     27  C   LIG d   1       8.236  -5.968  -5.022  0.00  0.00     0.224 C 
ATOM     28  N   LIG d   1       7.448  -5.094  -5.680  0.00  0.00    -0.285 N 
ATOM     29  H   LIG d   1       7.035  -5.349  -6.520  0.00  0.00     0.155 HD
ATOM     30  O   LIG d   1       8.677  -5.684  -3.929  0.00  0.00    -0.275 OA
BRANCH  28  31
ATOM     31  C   LIG d   1       7.225  -3.817  -5.150  0.00  0.00     0.034 A 
ATOM     32  C   LIG d   1       8.247  -2.875  -5.156  0.00  0.00    -0.040 A 
ATOM     33  C   LIG d   1       8.033  -1.613  -4.634  0.00  0.00    -0.059 A 
ATOM     34  H   LIG d   1       9.211  -3.129  -5.571  0.00  0.00     0.064 H 
ATOM     35  C   LIG d   1       6.804  -1.281  -4.102  0.00  0.00    -0.048 A 
ATOM     36  H   LIG d   1       8.830  -0.884  -4.643  0.00  0.00     0.062 H 
ATOM     37  C   LIG d   1       5.771  -2.221  -4.090  0.00  0.00     0.061 A 
ATOM     38  H   LIG d   1       6.640  -0.294  -3.695  0.00  0.00     0.063 H 
ATOM     39  C   LIG d   1       5.989  -3.497  -4.611  0.00  0.00    -0.026 A 
ATOM     40  H   LIG d   1       5.195  -4.229  -4.601  0.00  0.00     0.064 H 
BRANCH  37  41
ATOM     41  C   LIG d   1       4.454  -1.868  -3.521  0.00  0.00     0.339 C 
ATOM     42  O   LIG d   1       3.839  -2.684  -2.863  0.00  0.00    -0.245 OA
BRANCH  41  43
ATOM     43  O   LIG d   1       3.936  -0.643  -3.731  0.00  0.00    -0.461 OA
BRANCH  43  44
ATOM     44  C   LIG d   1       3.393   0.035  -2.596  0.00  0.00     0.090 C 
ATOM     45  H   LIG d   1       2.837  -0.672  -1.981  0.00  0.00     0.070 H 
ATOM     46  H   LIG d   1       2.725   0.829  -2.932  0.00  0.00     0.070 H 
BRANCH  44  47
ATOM     47  C   LIG d   1       4.530   0.643  -1.772  0.00  0.00    -0.031 C 
ATOM     48  H   LIG d   1       5.450   0.087  -1.957  0.00  0.00     0.026 H 
ATOM     49  H   LIG d   1       4.672   1.684  -2.060  0.00  0.00     0.026 H 
ATOM     50  H   LIG d   1       4.281   0.591  -0.713  0.00  0.00     0.026 H 
ENDBRANCH  44  47
ENDBRANCH  43  44
ENDBRANCH  41  43
ENDBRANCH  37  41
ENDBRANCH  28  31
ENDBRANCH   1  27
BRANCH  15  51
ATOM     51  C   LIG d   1       4.869  -8.398  -4.880  0.00  0.00    -0.054 C 
ATOM     52  H   LIG d   1       4.320  -7.632  -5.428  0.00  0.00     0.024 H 
ATOM     53  H   LIG d   1       4.388  -8.571  -3.917  0.00  0.00     0.024 H 
ATOM     54  H   LIG d   1       5.895  -8.065  -4.719  0.00  0.00     0.024 H 
ENDBRANCH  15  51
BRANCH  20  55
ATOM     55  C   LIG d   1       7.227 -11.701  -2.625  0.00  0.00     0.126 A 
ATOM     56  O   LIG d   1       8.338 -12.432  -2.442  0.00  0.00    -0.466 OA
ATOM     57  C   LIG d   1       8.763 -12.292  -1.175  0.00  0.00     0.092 A 
ATOM     58  C   LIG d   1       7.914 -11.471  -0.532  0.00  0.00    -0.024 A 
ATOM     59  H   LIG d   1       9.635 -12.762  -0.746  0.00  0.00     0.103 H 
ATOM     60  C   LIG d   1       6.924 -11.090  -1.465  0.00  0.00    -0.019 A 
ATOM     61  H   LIG d   1       7.976 -11.163   0.502  0.00  0.00     0.065 H 
ATOM     62  H   LIG d   1       6.085 -10.434  -1.284  0.00  0.00     0.065 H 
ENDBRANCH  20  55
TORSDOF 8
ENDMDL
MODEL 8
REMARK VINA RESULT:      -6.1      2.279      3.202
REMARK  8 active torsions:
REMARK  status: ('A' for Active; 'I' for Inactive)
REMARK    1  A    between atoms: C_1  and  C_2 
REMARK    2  A    between atoms: C_2  and  O_3 
REMARK    3  A    between atoms: O_3  and  C_4 
REMARK    4  A    between atoms: C_4  and  C_6 
REMARK    5  A    between atoms: C_10  and  N_12 
REMARK       I    between atoms: N_12  and  C_13 
REMARK    6  A    between atoms: C_13  and  C_15 
REMARK    7  A    between atoms: C_29  and  C_41 
REMARK    8  A    between atoms: C_34  and  C_36 
ROOT
ATOM      1  C   LIG d   1       5.718   0.527  -8.324  0.00  0.00     0.080 C 
ATOM      2  H   LIG d   1       5.262   1.407  -7.872  0.00  0.00     0.043 H 
ATOM      3  C   LIG d   1       7.075   0.896  -9.042  0.00  0.00     0.090 C 
ATOM      4  H   LIG d   1       6.999   1.197 -10.086  0.00  0.00     0.065 H 
ATOM      5  C   LIG d   1       7.672   1.932  -8.081  0.00  0.00    -0.056 C 
ATOM      6  C   LIG d   1       8.053   1.237  -7.022  0.00  0.00    -0.051 C 
ATOM      7  C   LIG d   1       7.754  -0.220  -7.345  0.00  0.00     0.119 C 
ATOM      8  C   LIG d   1       6.190  -0.438  -7.274  0.00  0.00     0.084 C 
ATOM      9  H   LIG d   1       5.976  -1.454  -7.605  0.00  0.00     0.043 H 
ATOM     10  C   LIG d   1       5.985  -0.375  -5.815  0.00  0.00     0.224 C 
ATOM     11  O   LIG d   1       5.089   0.184  -5.220  0.00  0.00    -0.275 OA
ATOM     12  N   LIG d   1       7.019  -1.081  -5.281  0.00  0.00    -0.284 N 
ATOM     13  C   LIG d   1       8.165  -1.137  -6.250  0.00  0.00     0.069 C 
ATOM     14  H   LIG d   1       9.078  -0.774  -5.778  0.00  0.00     0.054 H 
ATOM     15  C   LIG d   1       8.307  -2.609  -6.636  0.00  0.00     0.036 C 
ATOM     16  H   LIG d   1       9.216  -2.754  -7.221  0.00  0.00     0.039 H 
ATOM     17  C   LIG d   1       8.390  -3.403  -5.347  0.00  0.00     0.140 C 
ATOM     18  O   LIG d   1       9.320  -4.151  -5.157  0.00  0.00    -0.297 OA
ATOM     19  C   LIG d   1       7.312  -3.261  -4.299  0.00  0.00     0.032 C 
ATOM     20  C   LIG d   1       7.084  -1.768  -3.990  0.00  0.00     0.091 C 
ATOM     21  H   LIG d   1       7.915  -1.379  -3.402  0.00  0.00     0.059 H 
ATOM     22  O   LIG d   1       7.914  -0.301  -8.763  0.00  0.00    -0.359 OA
ATOM     23  H   LIG d   1       7.762   2.998  -8.236  0.00  0.00     0.060 H 
ATOM     24  H   LIG d   1       8.488   1.624  -6.112  0.00  0.00     0.060 H 
ATOM     25  H   LIG d   1       6.386  -3.699  -4.670  0.00  0.00     0.036 H 
ATOM     26  H   LIG d   1       7.619  -3.777  -3.390  0.00  0.00     0.036 H 
ENDROOT
BRANCH   1  27
ATOM     27  C   LIG d   1       4.765  -0.141  -9.282  0.00  0.00     0.224 C 
ATOM     28  N   LIG d   1       3.536  -0.504  -8.864  0.00  0.00    -0.285 N 
ATOM     29  H   LIG d   1       3.237  -0.271  -7.972  0.00  0.00     0.155 HD
ATOM     30  O   LIG d   1       5.104  -0.350 -10.427  0.00  0.00    -0.275 OA
BRANCH  28  31
ATOM     31  C   LIG d   1       2.690  -1.219  -9.721  0.00  0.00     0.034 A 
ATOM     32  C   LIG d   1       1.902  -0.541 -10.644  0.00  0.00    -0.040 A 
ATOM     33  C   LIG d   1       1.065  -1.242 -11.492  0.00  0.00    -0.059 A 
ATOM     34  H   LIG d   1       1.945   0.537 -10.699  0.00  0.00     0.064 H 
ATOM     35  C   LIG d   1       1.004  -2.619 -11.428  0.00  0.00    -0.048 A 
ATOM     36  H   LIG d   1       0.457  -0.709 -12.209  0.00  0.00     0.062 H 
ATOM     37  C   LIG d   1       1.791  -3.309 -10.503  0.00  0.00     0.061 A 
ATOM     38  H   LIG d   1       0.350  -3.163 -12.092  0.00  0.00     0.063 H 
ATOM     39  C   LIG d   1       2.632  -2.602  -9.643  0.00  0.00    -0.026 A 
ATOM     40  H   LIG d   1       3.239  -3.130  -8.922  0.00  0.00     0.064 H 
BRANCH  37  41
ATOM     41  C   LIG d   1       1.728  -4.783 -10.431  0.00  0.00     0.339 C 
ATOM     42  O   LIG d   1       0.652  -5.342 -10.346  0.00  0.00    -0.245 OA
BRANCH  41  43
ATOM     43  O   LIG d   1       2.863  -5.508 -10.459  0.00  0.00    -0.461 OA
BRANCH  43  44
ATOM     44  C   LIG d   1       3.251  -6.153  -9.245  0.00  0.00     0.090 C 
ATOM     45  H   LIG d   1       2.567  -5.867  -8.446  0.00  0.00     0.070 H 
ATOM     46  H   LIG d   1       4.265  -5.850  -8.980  0.00  0.00     0.070 H 
BRANCH  44  47
ATOM     47  C   LIG d   1       3.207  -7.670  -9.436  0.00  0.00    -0.031 C 
ATOM     48  H   LIG d   1       4.173  -8.019  -9.803  0.00  0.00     0.026 H 
ATOM     49  H   LIG d   1       2.986  -8.151  -8.484  0.00  0.00     0.026 H 
ATOM     50  H   LIG d   1       2.431  -7.923 -10.159  0.00  0.00     0.026 H 
ENDBRANCH  44  47
ENDBRANCH  43  44
ENDBRANCH  41  43
ENDBRANCH  37  41
ENDBRANCH  28  31
ENDBRANCH   1  27
BRANCH  15  51
ATOM     51  C   LIG d   1       7.089  -3.055  -7.448  0.00  0.00    -0.054 C 
ATOM     52  H   LIG d   1       7.346  -3.939  -8.032  0.00  0.00     0.024 H 
ATOM     53  H   LIG d   1       6.268  -3.293  -6.771  0.00  0.00     0.024 H 
ATOM     54  H   LIG d   1       6.786  -2.251  -8.120  0.00  0.00     0.024 H 
ENDBRANCH  15  51
BRANCH  20  55
ATOM     55  C   LIG d   1       5.789  -1.585  -3.241  0.00  0.00     0.126 A 
ATOM     56  O   LIG d   1       5.506  -0.579  -2.397  0.00  0.00    -0.466 OA
ATOM     57  C   LIG d   1       4.262  -0.736  -1.915  0.00  0.00     0.092 A 
ATOM     58  C   LIG d   1       3.739  -1.856  -2.446  0.00  0.00    -0.024 A 
ATOM     59  H   LIG d   1       3.767  -0.076  -1.219  0.00  0.00     0.103 H 
ATOM     60  C   LIG d   1       4.723  -2.403  -3.300  0.00  0.00    -0.019 A 
ATOM     61  H   LIG d   1       2.756  -2.260  -2.255  0.00  0.00     0.065 H 
ATOM     62  H   LIG d   1       4.637  -3.305  -3.888  0.00  0.00     0.065 H 
ENDBRANCH  20  55
TORSDOF 8
ENDMDL
MODEL 9
REMARK VINA RESULT:      -6.1      1.931      2.700
REMARK  8 active torsions:
REMARK  status: ('A' for Active; 'I' for Inactive)
REMARK    1  A    between atoms: C_1  and  C_2 
REMARK    2  A    between atoms: C_2  and  O_3 
REMARK    3  A    between atoms: O_3  and  C_4 
REMARK    4  A    between atoms: C_4  and  C_6 
REMARK    5  A    between atoms: C_10  and  N_12 
REMARK       I    between atoms: N_12  and  C_13 
REMARK    6  A    between atoms: C_13  and  C_15 
REMARK    7  A    between atoms: C_29  and  C_41 
REMARK    8  A    between atoms: C_34  and  C_36 
ROOT
ATOM      1  C   LIG d   1       3.609  -0.287  -9.323  0.00  0.00     0.080 C 
ATOM      2  H   LIG d   1       3.370   0.752  -9.097  0.00  0.00     0.043 H 
ATOM      3  C   LIG d   1       4.803  -0.384 -10.351  0.00  0.00     0.090 C 
ATOM      4  H   LIG d   1       4.529  -0.384 -11.406  0.00  0.00     0.065 H 
ATOM      5  C   LIG d   1       5.715   0.760  -9.890  0.00  0.00    -0.056 C 
ATOM      6  C   LIG d   1       6.242   0.339  -8.752  0.00  0.00    -0.051 C 
ATOM      7  C   LIG d   1       5.714  -1.073  -8.541  0.00  0.00     0.119 C 
ATOM      8  C   LIG d   1       4.192  -0.981  -8.124  0.00  0.00     0.084 C 
ATOM      9  H   LIG d   1       3.794  -1.994  -8.075  0.00  0.00     0.043 H 
ATOM     10  C   LIG d   1       4.329  -0.470  -6.748  0.00  0.00     0.224 C 
ATOM     11  O   LIG d   1       3.659   0.385  -6.209  0.00  0.00    -0.275 OA
ATOM     12  N   LIG d   1       5.369  -1.167  -6.213  0.00  0.00    -0.284 N 
ATOM     13  C   LIG d   1       6.253  -1.699  -7.305  0.00  0.00     0.069 C 
ATOM     14  H   LIG d   1       7.284  -1.385  -7.143  0.00  0.00     0.054 H 
ATOM     15  C   LIG d   1       6.136  -3.221  -7.226  0.00  0.00     0.036 C 
ATOM     16  H   LIG d   1       6.866  -3.685  -7.889  0.00  0.00     0.039 H 
ATOM     17  C   LIG d   1       6.415  -3.617  -5.789  0.00  0.00     0.140 C 
ATOM     18  O   LIG d   1       7.272  -4.432  -5.544  0.00  0.00    -0.297 OA
ATOM     19  C   LIG d   1       5.624  -2.994  -4.664  0.00  0.00     0.032 C 
ATOM     20  C   LIG d   1       5.644  -1.459  -4.806  0.00  0.00     0.091 C 
ATOM     21  H   LIG d   1       6.624  -1.072  -4.530  0.00  0.00     0.059 H 
ATOM     22  O   LIG d   1       5.541  -1.581  -9.865  0.00  0.00    -0.359 OA
ATOM     23  H   LIG d   1       5.889   1.703 -10.386  0.00  0.00     0.060 H 
ATOM     24  H   LIG d   1       6.912   0.885  -8.104  0.00  0.00     0.060 H 
ATOM     25  H   LIG d   1       4.594  -3.348  -4.705  0.00  0.00     0.036 H 
ATOM     26  H   LIG d   1       6.067  -3.275  -3.709  0.00  0.00     0.036 H 
ENDROOT
BRANCH   1  27
ATOM     27  C   LIG d   1       2.395  -1.019  -9.834  0.00  0.00     0.224 C 
ATOM     28  N   LIG d   1       2.544  -2.081 -10.651  0.00  0.00    -0.285 N 
ATOM     29  H   LIG d   1       3.430  -2.420 -10.851  0.00  0.00     0.155 HD
ATOM     30  O   LIG d   1       1.285  -0.653  -9.510  0.00  0.00    -0.275 OA
BRANCH  28  31
ATOM     31  C   LIG d   1       1.417  -2.696 -11.211  0.00  0.00     0.034 A 
ATOM     32  C   LIG d   1       0.854  -3.807 -10.595  0.00  0.00    -0.040 A 
ATOM     33  C   LIG d   1      -0.258  -4.418 -11.143  0.00  0.00    -0.059 A 
ATOM     34  H   LIG d   1       1.287  -4.195  -9.685  0.00  0.00     0.064 H 
ATOM     35  C   LIG d   1      -0.818  -3.928 -12.306  0.00  0.00    -0.048 A 
ATOM     36  H   LIG d   1      -0.692  -5.281 -10.660  0.00  0.00     0.062 H 
ATOM     37  C   LIG d   1      -0.259  -2.812 -12.933  0.00  0.00     0.061 A 
ATOM     38  H   LIG d   1      -1.687  -4.407 -12.731  0.00  0.00     0.063 H 
ATOM     39  C   LIG d   1       0.868  -2.199 -12.383  0.00  0.00    -0.026 A 
ATOM     40  H   LIG d   1       1.307  -1.339 -12.866  0.00  0.00     0.064 H 
BRANCH  37  41
ATOM     41  C   LIG d   1      -0.855  -2.286 -14.178  0.00  0.00     0.339 C 
ATOM     42  O   LIG d   1      -0.165  -2.141 -15.167  0.00  0.00    -0.245 OA
BRANCH  41  43
ATOM     43  O   LIG d   1      -2.163  -1.967 -14.216  0.00  0.00    -0.461 OA
BRANCH  43  44
ATOM     44  C   LIG d   1      -2.492  -0.614 -14.538  0.00  0.00     0.090 C 
ATOM     45  H   LIG d   1      -3.449  -0.586 -15.058  0.00  0.00     0.070 H 
ATOM     46  H   LIG d   1      -1.717  -0.195 -15.181  0.00  0.00     0.070 H 
BRANCH  44  47
ATOM     47  C   LIG d   1      -2.585   0.209 -13.251  0.00  0.00    -0.031 C 
ATOM     48  H   LIG d   1      -1.613   0.652 -13.032  0.00  0.00     0.026 H 
ATOM     49  H   LIG d   1      -3.324   0.999 -13.377  0.00  0.00     0.026 H 
ATOM     50  H   LIG d   1      -2.884  -0.439 -12.427  0.00  0.00     0.026 H 
ENDBRANCH  44  47
ENDBRANCH  43  44
ENDBRANCH  41  43
ENDBRANCH  37  41
ENDBRANCH  28  31
ENDBRANCH   1  27
BRANCH  15  51
ATOM     51  C   LIG d   1       4.724  -3.656  -7.623  0.00  0.00    -0.054 C 
ATOM     52  H   LIG d   1       4.387  -3.066  -8.475  0.00  0.00     0.024 H 
ATOM     53  H   LIG d   1       4.730  -4.712  -7.893  0.00  0.00     0.024 H 
ATOM     54  H   LIG d   1       4.045  -3.500  -6.783  0.00  0.00     0.024 H 
ENDBRANCH  15  51
BRANCH  20  55
ATOM     55  C   LIG d   1       4.580  -0.843  -3.933  0.00  0.00     0.126 A 
ATOM     56  O   LIG d   1       4.604   0.400  -3.424  0.00  0.00    -0.466 OA
ATOM     57  C   LIG d   1       3.493   0.608  -2.699  0.00  0.00     0.092 A 
ATOM     58  C   LIG d   1       2.748  -0.512  -2.732  0.00  0.00    -0.024 A 
ATOM     59  H   LIG d   1       3.242   1.519  -2.176  0.00  0.00     0.103 H 
ATOM     60  C   LIG d   1       3.449  -1.447  -3.527  0.00  0.00    -0.019 A 
ATOM     61  H   LIG d   1       1.798  -0.666  -2.243  0.00  0.00     0.065 H 
ATOM     62  H   LIG d   1       3.137  -2.453  -3.763  0.00  0.00     0.065 H 
ENDBRANCH  20  55
TORSDOF 8
ENDMDL
MODEL 10
REMARK VINA RESULT:      -6.1      7.318     10.755
REMARK  8 active torsions:
REMARK  status: ('A' for Active; 'I' for Inactive)
REMARK    1  A    between atoms: C_1  and  C_2 
REMARK    2  A    between atoms: C_2  and  O_3 
REMARK    3  A    between atoms: O_3  and  C_4 
REMARK    4  A    between atoms: C_4  and  C_6 
REMARK    5  A    between atoms: C_10  and  N_12 
REMARK       I    between atoms: N_12  and  C_13 
REMARK    6  A    between atoms: C_13  and  C_15 
REMARK    7  A    between atoms: C_29  and  C_41 
REMARK    8  A    between atoms: C_34  and  C_36 
ROOT
ATOM      1  C   LIG d   1      11.789   2.808  -5.610  0.00  0.00     0.080 C 
ATOM      2  H   LIG d   1      12.201   2.908  -6.614  0.00  0.00     0.043 H 
ATOM      3  C   LIG d   1      12.893   2.331  -4.588  0.00  0.00     0.090 C 
ATOM      4  H   LIG d   1      13.009   1.254  -4.475  0.00  0.00     0.065 H 
ATOM      5  C   LIG d   1      14.130   3.097  -5.075  0.00  0.00    -0.056 C 
ATOM      6  C   LIG d   1      13.907   4.357  -4.736  0.00  0.00    -0.051 C 
ATOM      7  C   LIG d   1      12.579   4.364  -3.992  0.00  0.00     0.119 C 
ATOM      8  C   LIG d   1      11.417   4.149  -5.042  0.00  0.00     0.084 C 
ATOM      9  H   LIG d   1      10.480   4.052  -4.493  0.00  0.00     0.043 H 
ATOM     10  C   LIG d   1      11.427   5.461  -5.713  0.00  0.00     0.224 C 
ATOM     11  O   LIG d   1      11.320   5.683  -6.901  0.00  0.00    -0.275 OA
ATOM     12  N   LIG d   1      11.580   6.371  -4.712  0.00  0.00    -0.284 N 
ATOM     13  C   LIG d   1      12.207   5.721  -3.512  0.00  0.00     0.069 C 
ATOM     14  H   LIG d   1      13.099   6.269  -3.208  0.00  0.00     0.054 H 
ATOM     15  C   LIG d   1      11.146   5.768  -2.414  0.00  0.00     0.036 C 
ATOM     16  H   LIG d   1      11.578   5.451  -1.464  0.00  0.00     0.039 H 
ATOM     17  C   LIG d   1      10.672   7.205  -2.313  0.00  0.00     0.140 C 
ATOM     18  O   LIG d   1      10.705   7.778  -1.249  0.00  0.00    -0.297 OA
ATOM     19  C   LIG d   1      10.158   7.921  -3.539  0.00  0.00     0.032 C 
ATOM     20  C   LIG d   1      11.177   7.777  -4.687  0.00  0.00     0.091 C 
ATOM     21  H   LIG d   1      12.043   8.410  -4.497  0.00  0.00     0.059 H 
ATOM     22  O   LIG d   1      12.530   3.085  -3.357  0.00  0.00    -0.359 OA
ATOM     23  H   LIG d   1      14.995   2.696  -5.583  0.00  0.00     0.060 H 
ATOM     24  H   LIG d   1      14.539   5.207  -4.943  0.00  0.00     0.060 H 
ATOM     25  H   LIG d   1       9.207   7.485  -3.842  0.00  0.00     0.036 H 
ATOM     26  H   LIG d   1      10.017   8.977  -3.310  0.00  0.00     0.036 H 
ENDROOT
BRANCH   1  27
ATOM     27  C   LIG d   1      10.607   1.873  -5.604  0.00  0.00     0.224 C 
ATOM     28  N   LIG d   1       9.357   2.365  -5.720  0.00  0.00    -0.285 N 
ATOM     29  H   LIG d   1       9.222   3.312  -5.881  0.00  0.00     0.155 HD
ATOM     30  O   LIG d   1      10.780   0.677  -5.495  0.00  0.00    -0.275 OA
BRANCH  28  31
ATOM     31  C   LIG d   1       8.255   1.509  -5.607  0.00  0.00     0.034 A 
ATOM     32  C   LIG d   1       7.785   0.832  -6.726  0.00  0.00    -0.040 A 
ATOM     33  C   LIG d   1       6.697  -0.014  -6.621  0.00  0.00    -0.059 A 
ATOM     34  H   LIG d   1       8.271   0.968  -7.681  0.00  0.00     0.064 H 
ATOM     35  C   LIG d   1       6.070  -0.193  -5.405  0.00  0.00    -0.048 A 
ATOM     36  H   LIG d   1       6.337  -0.539  -7.494  0.00  0.00     0.062 H 
ATOM     37  C   LIG d   1       6.535   0.484  -4.275  0.00  0.00     0.061 A 
ATOM     38  H   LIG d   1       5.221  -0.855  -5.327  0.00  0.00     0.063 H 
ATOM     39  C   LIG d   1       7.629   1.343  -4.382  0.00  0.00    -0.026 A 
ATOM     40  H   LIG d   1       7.990   1.872  -3.512  0.00  0.00     0.064 H 
BRANCH  37  41
ATOM     41  C   LIG d   1       5.865   0.295  -2.972  0.00  0.00     0.339 C 
ATOM     42  O   LIG d   1       5.584   1.260  -2.288  0.00  0.00    -0.245 OA
BRANCH  41  43
ATOM     43  O   LIG d   1       5.567  -0.945  -2.541  0.00  0.00    -0.461 OA
BRANCH  43  44
ATOM     44  C   LIG d   1       4.316  -1.116  -1.871  0.00  0.00     0.090 C 
ATOM     45  H   LIG d   1       4.090  -0.223  -1.289  0.00  0.00     0.070 H 
ATOM     46  H   LIG d   1       4.375  -1.978  -1.205  0.00  0.00     0.070 H 
BRANCH  44  47
ATOM     47  C   LIG d   1       3.212  -1.347  -2.904  0.00  0.00    -0.031 C 
ATOM     48  H   LIG d   1       3.410  -2.270  -3.448  0.00  0.00     0.026 H 
ATOM     49  H   LIG d   1       2.250  -1.423  -2.397  0.00  0.00     0.026 H 
ATOM     50  H   LIG d   1       3.188  -0.511  -3.604  0.00  0.00     0.026 H 
ENDBRANCH  44  47
ENDBRANCH  43  44
ENDBRANCH  41  43
ENDBRANCH  37  41
ENDBRANCH  28  31
ENDBRANCH   1  27
BRANCH  15  51
ATOM     51  C   LIG d   1       9.974   4.856  -2.782  0.00  0.00    -0.054 C 
ATOM     52  H   LIG d   1       9.055   5.440  -2.819  0.00  0.00     0.024 H 
ATOM     53  H   LIG d   1      10.156   4.403  -3.757  0.00  0.00     0.024 H 
ATOM     54  H   LIG d   1       9.875   4.072  -2.030  0.00  0.00     0.024 H 
ENDBRANCH  15  51
BRANCH  20  55
ATOM     55  C   LIG d   1      10.537   8.155  -5.999  0.00  0.00     0.126 A 
ATOM     56  O   LIG d   1      11.178   8.643  -7.073  0.00  0.00    -0.466 OA
ATOM     57  C   LIG d   1      10.295   8.862  -8.061  0.00  0.00     0.092 A 
ATOM     58  C   LIG d   1       9.071   8.521  -7.618  0.00  0.00    -0.024 A 
ATOM     59  H   LIG d   1      10.527   9.249  -9.042  0.00  0.00     0.103 H 
ATOM     60  C   LIG d   1       9.227   8.066  -6.290  0.00  0.00    -0.019 A 
ATOM     61  H   LIG d   1       8.146   8.585  -8.173  0.00  0.00     0.065 H 
ATOM     62  H   LIG d   1       8.445   7.714  -5.633  0.00  0.00     0.065 H 
ENDBRANCH  20  55
TORSDOF 8
ENDMDL
