MODEL 1
REMARK VINA RESULT:      -6.6      0.000      0.000
REMARK  3 active torsions:
REMARK  status: ('A' for Active; 'I' for Inactive)
REMARK    1  A    between atoms: C_1  and  C_2 
REMARK    2  A    between atoms: C_10  and  C_11 
REMARK    3  A    between atoms: N_12  and  C_13 
ROOT
ATOM      1  C   LIG d   1       4.334   0.008  -2.582  0.00  0.00    -0.050 A 
ATOM      2  C   LIG d   1       4.282  -1.254  -1.996  0.00  0.00    -0.053 A 
ATOM      3  C   LIG d   1       4.253  -2.381  -2.760  0.00  0.00     0.010 A 
ATOM      4  C   LIG d   1       4.274  -2.279  -4.162  0.00  0.00     0.209 A 
ATOM      5  C   LIG d   1       4.328  -0.995  -4.755  0.00  0.00     0.039 A 
ATOM      6  C   LIG d   1       4.352   0.147  -3.937  0.00  0.00    -0.046 A 
ATOM      7  C   LIG d   1       4.350  -0.867  -6.161  0.00  0.00    -0.076 A 
ATOM      8  O   LIG d   1       4.401   0.348  -6.747  0.00  0.00    -0.873 OA
ATOM      9  C   LIG d   1       4.318  -2.046  -6.936  0.00  0.00     0.096 A 
ATOM     10  C   LIG d   1       4.264  -3.343  -6.237  0.00  0.00     0.415 A 
ATOM     11  O   LIG d   1       4.235  -4.381  -6.882  0.00  0.00    -0.214 OA
ATOM     12  N   LIG d   1       4.245  -3.388  -4.913  0.00  0.00    -0.144 N 
ATOM     13  H   LIG d   1       4.265  -1.341  -0.920  0.00  0.00     0.062 H 
ATOM     14  H   LIG d   1       4.212  -3.352  -2.289  0.00  0.00     0.068 H 
ATOM     15  H   LIG d   1       4.388   1.131  -4.380  0.00  0.00     0.063 H 
ATOM     16  H   LIG d   1       4.208  -4.252  -4.473  0.00  0.00     0.448 HD
ENDROOT
BRANCH   9  17
ATOM     17  C   LIG d   1       4.339  -1.986  -8.329  0.00  0.00     0.010 C 
ATOM     18  N   LIG d   1       3.397  -1.289  -8.986  0.00  0.00    -0.320 N 
ATOM     19  H   LIG d   1       2.659  -0.892  -8.497  0.00  0.00     0.152 HD
ATOM     20  H   LIG d   1       5.114  -2.499  -8.879  0.00  0.00     0.079 H 
BRANCH  18  21
ATOM     21  C   LIG d   1       3.481  -1.136 -10.369  0.00  0.00     0.034 A 
ATOM     22  C   LIG d   1       4.366  -0.218 -10.935  0.00  0.00    -0.022 A 
ATOM     23  C   LIG d   1       4.423  -0.102 -12.308  0.00  0.00     0.029 A 
ATOM     24  H   LIG d   1       5.002   0.388 -10.306  0.00  0.00     0.065 H 
ATOM     25  N   LIG d   1       3.646  -0.835 -13.082  0.00  0.00    -0.263 NA
ATOM     26  H   LIG d   1       5.109   0.603 -12.755  0.00  0.00     0.083 H 
ATOM     27  C   LIG d   1       2.792  -1.709 -12.585  0.00  0.00     0.029 A 
ATOM     28  C   LIG d   1       2.678  -1.891 -11.223  0.00  0.00    -0.022 A 
ATOM     29  H   LIG d   1       2.175  -2.291 -13.254  0.00  0.00     0.083 H 
ATOM     30  H   LIG d   1       1.977  -2.608 -10.822  0.00  0.00     0.065 H 
ENDBRANCH  18  21
ENDBRANCH   9  17
BRANCH   1  31
ATOM     31  C   LIG d   1       4.365   1.235  -1.707  0.00  0.00    -0.040 C 
ATOM     32  H   LIG d   1       4.613   0.946  -0.685  0.00  0.00     0.028 H 
ATOM     33  H   LIG d   1       5.117   1.929  -2.081  0.00  0.00     0.028 H 
ATOM     34  H   LIG d   1       3.387   1.717  -1.721  0.00  0.00     0.028 H 
ENDBRANCH   1  31
TORSDOF 3
ENDMDL
MODEL 2
REMARK VINA RESULT:      -6.3      1.914      7.675
REMARK  3 active torsions:
REMARK  status: ('A' for Active; 'I' for Inactive)
REMARK    1  A    between atoms: C_1  and  C_2 
REMARK    2  A    between atoms: C_10  and  C_11 
REMARK    3  A    between atoms: N_12  and  C_13 
ROOT
ATOM      1  C   LIG d   1       2.621  -3.099 -11.530  0.00  0.00    -0.050 A 
ATOM      2  C   LIG d   1       2.169  -1.972 -12.211  0.00  0.00    -0.053 A 
ATOM      3  C   LIG d   1       2.148  -0.750 -11.610  0.00  0.00     0.010 A 
ATOM      4  C   LIG d   1       2.587  -0.614 -10.282  0.00  0.00     0.209 A 
ATOM      5  C   LIG d   1       3.048  -1.761  -9.591  0.00  0.00     0.039 A 
ATOM      6  C   LIG d   1       3.051  -3.007 -10.240  0.00  0.00    -0.046 A 
ATOM      7  C   LIG d   1       3.494  -1.650  -8.257  0.00  0.00    -0.076 A 
ATOM      8  O   LIG d   1       3.937  -2.730  -7.580  0.00  0.00    -0.873 OA
ATOM      9  C   LIG d   1       3.464  -0.375  -7.650  0.00  0.00     0.096 A 
ATOM     10  C   LIG d   1       2.970   0.766  -8.442  0.00  0.00     0.415 A 
ATOM     11  O   LIG d   1       2.933   1.881  -7.942  0.00  0.00    -0.214 OA
ATOM     12  N   LIG d   1       2.566   0.588  -9.691  0.00  0.00    -0.144 N 
ATOM     13  H   LIG d   1       1.829  -2.068 -13.233  0.00  0.00     0.062 H 
ATOM     14  H   LIG d   1       1.793   0.114 -12.154  0.00  0.00     0.068 H 
ATOM     15  H   LIG d   1       3.396  -3.889  -9.721  0.00  0.00     0.063 H 
ATOM     16  H   LIG d   1       2.244   1.352 -10.193  0.00  0.00     0.448 HD
ENDROOT
BRANCH   9  17
ATOM     17  C   LIG d   1       3.893  -0.200  -6.335  0.00  0.00     0.010 C 
ATOM     18  N   LIG d   1       3.087  -0.540  -5.315  0.00  0.00    -0.320 N 
ATOM     19  H   LIG d   1       2.179  -0.832  -5.491  0.00  0.00     0.152 HD
ATOM     20  H   LIG d   1       4.873   0.207  -6.137  0.00  0.00     0.079 H 
BRANCH  18  21
ATOM     21  C   LIG d   1       3.555  -0.470  -4.004  0.00  0.00     0.034 A 
ATOM     22  C   LIG d   1       3.855  -1.629  -3.289  0.00  0.00    -0.022 A 
ATOM     23  C   LIG d   1       4.322  -1.517  -1.995  0.00  0.00     0.029 A 
ATOM     24  H   LIG d   1       3.728  -2.601  -3.743  0.00  0.00     0.065 H 
ATOM     25  N   LIG d   1       4.475  -0.333  -1.432  0.00  0.00    -0.263 NA
ATOM     26  H   LIG d   1       4.561  -2.409  -1.435  0.00  0.00     0.083 H 
ATOM     27  C   LIG d   1       4.197   0.786  -2.073  0.00  0.00     0.029 A 
ATOM     28  C   LIG d   1       3.731   0.760  -3.371  0.00  0.00    -0.022 A 
ATOM     29  H   LIG d   1       4.337   1.734  -1.576  0.00  0.00     0.083 H 
ATOM     30  H   LIG d   1       3.506   1.680  -3.891  0.00  0.00     0.065 H 
ENDBRANCH  18  21
ENDBRANCH   9  17
BRANCH   1  31
ATOM     31  C   LIG d   1       2.630  -4.436 -12.226  0.00  0.00    -0.040 C 
ATOM     32  H   LIG d   1       2.919  -5.212 -11.517  0.00  0.00     0.028 H 
ATOM     33  H   LIG d   1       1.635  -4.650 -12.613  0.00  0.00     0.028 H 
ATOM     34  H   LIG d   1       3.344  -4.412 -13.050  0.00  0.00     0.028 H 
ENDBRANCH   1  31
TORSDOF 3
ENDMDL
MODEL 3
REMARK VINA RESULT:      -6.0      4.607      5.549
REMARK  3 active torsions:
REMARK  status: ('A' for Active; 'I' for Inactive)
REMARK    1  A    between atoms: C_1  and  C_2 
REMARK    2  A    between atoms: C_10  and  C_11 
REMARK    3  A    between atoms: N_12  and  C_13 
ROOT
ATOM      1  C   LIG d   1       5.052   0.512  -2.752  0.00  0.00    -0.050 A 
ATOM      2  C   LIG d   1       6.235   1.107  -3.182  0.00  0.00    -0.053 A 
ATOM      3  C   LIG d   1       7.140   0.412  -3.926  0.00  0.00     0.010 A 
ATOM      4  C   LIG d   1       6.884  -0.926  -4.272  0.00  0.00     0.209 A 
ATOM      5  C   LIG d   1       5.679  -1.529  -3.834  0.00  0.00     0.039 A 
ATOM      6  C   LIG d   1       4.771  -0.784  -3.064  0.00  0.00    -0.046 A 
ATOM      7  C   LIG d   1       5.400  -2.872  -4.168  0.00  0.00    -0.076 A 
ATOM      8  O   LIG d   1       4.259  -3.465  -3.762  0.00  0.00    -0.873 OA
ATOM      9  C   LIG d   1       6.350  -3.576  -4.940  0.00  0.00     0.096 A 
ATOM     10  C   LIG d   1       7.577  -2.872  -5.353  0.00  0.00     0.415 A 
ATOM     11  O   LIG d   1       8.418  -3.457  -6.021  0.00  0.00    -0.214 OA
ATOM     12  N   LIG d   1       7.774  -1.609  -5.003  0.00  0.00    -0.144 N 
ATOM     13  H   LIG d   1       6.440   2.135  -2.921  0.00  0.00     0.062 H 
ATOM     14  H   LIG d   1       8.053   0.889  -4.250  0.00  0.00     0.068 H 
ATOM     15  H   LIG d   1       3.852  -1.236  -2.722  0.00  0.00     0.063 H 
ATOM     16  H   LIG d   1       8.589  -1.166  -5.286  0.00  0.00     0.448 HD
ENDROOT
BRANCH   9  17
ATOM     17  C   LIG d   1       6.132  -4.904  -5.303  0.00  0.00     0.010 C 
ATOM     18  N   LIG d   1       4.927  -5.287  -5.757  0.00  0.00    -0.320 N 
ATOM     19  H   LIG d   1       4.188  -4.659  -5.759  0.00  0.00     0.152 HD
ATOM     20  H   LIG d   1       6.932  -5.624  -5.220  0.00  0.00     0.079 H 
BRANCH  18  21
ATOM     21  C   LIG d   1       4.739  -6.587  -6.225  0.00  0.00     0.034 A 
ATOM     22  C   LIG d   1       4.975  -7.685  -5.398  0.00  0.00    -0.022 A 
ATOM     23  C   LIG d   1       4.771  -8.955  -5.897  0.00  0.00     0.029 A 
ATOM     24  H   LIG d   1       5.307  -7.543  -4.380  0.00  0.00     0.065 H 
ATOM     25  N   LIG d   1       4.371  -9.137  -7.141  0.00  0.00    -0.263 NA
ATOM     26  H   LIG d   1       4.947  -9.812  -5.263  0.00  0.00     0.083 H 
ATOM     27  C   LIG d   1       4.142  -8.124  -7.955  0.00  0.00     0.029 A 
ATOM     28  C   LIG d   1       4.316  -6.823  -7.532  0.00  0.00    -0.022 A 
ATOM     29  H   LIG d   1       3.815  -8.317  -8.966  0.00  0.00     0.083 H 
ATOM     30  H   LIG d   1       4.128  -5.999  -8.204  0.00  0.00     0.065 H 
ENDBRANCH  18  21
ENDBRANCH   9  17
BRANCH   1  31
ATOM     31  C   LIG d   1       4.073   1.310  -1.930  0.00  0.00    -0.040 C 
ATOM     32  H   LIG d   1       3.057   1.080  -2.250  0.00  0.00     0.028 H 
ATOM     33  H   LIG d   1       4.189   1.053  -0.877  0.00  0.00     0.028 H 
ATOM     34  H   LIG d   1       4.265   2.375  -2.067  0.00  0.00     0.028 H 
ENDBRANCH   1  31
TORSDOF 3
ENDMDL
MODEL 4
REMARK VINA RESULT:      -6.0      9.546     13.362
REMARK  3 active torsions:
REMARK  status: ('A' for Active; 'I' for Inactive)
REMARK    1  A    between atoms: C_1  and  C_2 
REMARK    2  A    between atoms: C_10  and  C_11 
REMARK    3  A    between atoms: N_12  and  C_13 
ROOT
ATOM      1  C   LIG d   1       4.493 -10.320  -3.580  0.00  0.00    -0.050 A 
ATOM      2  C   LIG d   1       4.987  -9.521  -4.607  0.00  0.00    -0.053 A 
ATOM      3  C   LIG d   1       6.244  -9.001  -4.548  0.00  0.00     0.010 A 
ATOM      4  C   LIG d   1       7.063  -9.269  -3.437  0.00  0.00     0.209 A 
ATOM      5  C   LIG d   1       6.558 -10.082  -2.394  0.00  0.00     0.039 A 
ATOM      6  C   LIG d   1       5.255 -10.598  -2.485  0.00  0.00    -0.046 A 
ATOM      7  C   LIG d   1       7.362 -10.365  -1.268  0.00  0.00    -0.076 A 
ATOM      8  O   LIG d   1       6.900 -11.138  -0.262  0.00  0.00    -0.873 OA
ATOM      9  C   LIG d   1       8.661  -9.816  -1.224  0.00  0.00     0.096 A 
ATOM     10  C   LIG d   1       9.107  -8.981  -2.354  0.00  0.00     0.415 A 
ATOM     11  O   LIG d   1      10.228  -8.492  -2.343  0.00  0.00    -0.214 OA
ATOM     12  N   LIG d   1       8.300  -8.756  -3.379  0.00  0.00    -0.144 N 
ATOM     13  H   LIG d   1       4.364  -9.310  -5.464  0.00  0.00     0.062 H 
ATOM     14  H   LIG d   1       6.611  -8.382  -5.354  0.00  0.00     0.068 H 
ATOM     15  H   LIG d   1       4.859 -11.216  -1.692  0.00  0.00     0.063 H 
ATOM     16  H   LIG d   1       8.613  -8.203  -4.111  0.00  0.00     0.448 HD
ENDROOT
BRANCH   9  17
ATOM     17  C   LIG d   1       9.504 -10.060  -0.140  0.00  0.00     0.010 C 
ATOM     18  N   LIG d   1      10.062  -9.032   0.521  0.00  0.00    -0.320 N 
ATOM     19  H   LIG d   1       9.944  -8.126   0.197  0.00  0.00     0.152 HD
ATOM     20  H   LIG d   1       9.705 -11.075   0.169  0.00  0.00     0.079 H 
BRANCH  18  21
ATOM     21  C   LIG d   1      10.814  -9.270   1.671  0.00  0.00     0.034 A 
ATOM     22  C   LIG d   1      11.089 -10.571   2.090  0.00  0.00    -0.022 A 
ATOM     23  C   LIG d   1      11.841 -10.764   3.230  0.00  0.00     0.029 A 
ATOM     24  H   LIG d   1      10.723 -11.417   1.526  0.00  0.00     0.065 H 
ATOM     25  N   LIG d   1      12.288  -9.736   3.927  0.00  0.00    -0.263 NA
ATOM     26  H   LIG d   1      12.064 -11.768   3.559  0.00  0.00     0.083 H 
ATOM     27  C   LIG d   1      12.043  -8.490   3.567  0.00  0.00     0.029 A 
ATOM     28  C   LIG d   1      11.304  -8.213   2.436  0.00  0.00    -0.022 A 
ATOM     29  H   LIG d   1      12.428  -7.677   4.166  0.00  0.00     0.083 H 
ATOM     30  H   LIG d   1      11.108  -7.191   2.147  0.00  0.00     0.065 H 
ENDBRANCH  18  21
ENDBRANCH   9  17
BRANCH   1  31
ATOM     31  C   LIG d   1       3.096 -10.879  -3.677  0.00  0.00    -0.040 C 
ATOM     32  H   LIG d   1       3.036 -11.807  -3.108  0.00  0.00     0.028 H 
ATOM     33  H   LIG d   1       2.387 -10.157  -3.271  0.00  0.00     0.028 H 
ATOM     34  H   LIG d   1       2.856 -11.077  -4.722  0.00  0.00     0.028 H 
ENDBRANCH   1  31
TORSDOF 3
ENDMDL
MODEL 5
REMARK VINA RESULT:      -5.8      5.699      8.048
REMARK  3 active torsions:
REMARK  status: ('A' for Active; 'I' for Inactive)
REMARK    1  A    between atoms: C_1  and  C_2 
REMARK    2  A    between atoms: C_10  and  C_11 
REMARK    3  A    between atoms: N_12  and  C_13 
ROOT
ATOM      1  C   LIG d   1       4.891  -1.919  -3.179  0.00  0.00    -0.050 A 
ATOM      2  C   LIG d   1       5.544  -2.876  -3.951  0.00  0.00    -0.053 A 
ATOM      3  C   LIG d   1       6.662  -2.561  -4.662  0.00  0.00     0.010 A 
ATOM      4  C   LIG d   1       7.172  -1.251  -4.623  0.00  0.00     0.209 A 
ATOM      5  C   LIG d   1       6.506  -0.279  -3.837  0.00  0.00     0.039 A 
ATOM      6  C   LIG d   1       5.353  -0.638  -3.120  0.00  0.00    -0.046 A 
ATOM      7  C   LIG d   1       6.999   1.043  -3.782  0.00  0.00    -0.076 A 
ATOM      8  O   LIG d   1       6.380   1.984  -3.040  0.00  0.00    -0.873 OA
ATOM      9  C   LIG d   1       8.158   1.351  -4.527  0.00  0.00     0.096 A 
ATOM     10  C   LIG d   1       8.788   0.278  -5.318  0.00  0.00     0.415 A 
ATOM     11  O   LIG d   1       9.793   0.517  -5.973  0.00  0.00    -0.214 OA
ATOM     12  N   LIG d   1       8.271  -0.941  -5.324  0.00  0.00    -0.144 N 
ATOM     13  H   LIG d   1       5.159  -3.885  -3.986  0.00  0.00     0.062 H 
ATOM     14  H   LIG d   1       7.156  -3.316  -5.256  0.00  0.00     0.068 H 
ATOM     15  H   LIG d   1       4.836   0.096  -2.521  0.00  0.00     0.063 H 
ATOM     16  H   LIG d   1       8.701  -1.631  -5.852  0.00  0.00     0.448 HD
ENDROOT
BRANCH   9  17
ATOM     17  C   LIG d   1       8.694   2.638  -4.513  0.00  0.00     0.010 C 
ATOM     18  N   LIG d   1       9.262   3.117  -3.394  0.00  0.00    -0.320 N 
ATOM     19  H   LIG d   1       9.229   2.600  -2.574  0.00  0.00     0.152 HD
ATOM     20  H   LIG d   1       8.655   3.248  -5.403  0.00  0.00     0.079 H 
BRANCH  18  21
ATOM     21  C   LIG d   1       9.896   4.358  -3.410  0.00  0.00     0.034 A 
ATOM     22  C   LIG d   1      10.386   4.927  -2.235  0.00  0.00    -0.022 A 
ATOM     23  C   LIG d   1      11.013   6.154  -2.295  0.00  0.00     0.029 A 
ATOM     24  H   LIG d   1      10.280   4.411  -1.292  0.00  0.00     0.065 H 
ATOM     25  N   LIG d   1      11.142   6.793  -3.442  0.00  0.00    -0.263 NA
ATOM     26  H   LIG d   1      11.400   6.601  -1.390  0.00  0.00     0.083 H 
ATOM     27  C   LIG d   1      10.687   6.291  -4.575  0.00  0.00     0.029 A 
ATOM     28  C   LIG d   1      10.053   5.066  -4.601  0.00  0.00    -0.022 A 
ATOM     29  H   LIG d   1      10.813   6.846  -5.493  0.00  0.00     0.083 H 
ATOM     30  H   LIG d   1       9.683   4.661  -5.531  0.00  0.00     0.065 H 
ENDBRANCH  18  21
ENDBRANCH   9  17
BRANCH   1  31
ATOM     31  C   LIG d   1       3.657  -2.302  -2.404  0.00  0.00    -0.040 C 
ATOM     32  H   LIG d   1       3.826  -2.129  -1.341  0.00  0.00     0.028 H 
ATOM     33  H   LIG d   1       2.814  -1.698  -2.741  0.00  0.00     0.028 H 
ATOM     34  H   LIG d   1       3.436  -3.357  -2.570  0.00  0.00     0.028 H 
ENDBRANCH   1  31
TORSDOF 3
ENDMDL
MODEL 6
REMARK VINA RESULT:      -5.7      5.925      8.874
REMARK  3 active torsions:
REMARK  status: ('A' for Active; 'I' for Inactive)
REMARK    1  A    between atoms: C_1  and  C_2 
REMARK    2  A    between atoms: C_10  and  C_11 
REMARK    3  A    between atoms: N_12  and  C_13 
ROOT
ATOM      1  C   LIG d   1       9.982   4.448  -8.844  0.00  0.00    -0.050 A 
ATOM      2  C   LIG d   1      10.788   5.362  -8.171  0.00  0.00    -0.053 A 
ATOM      3  C   LIG d   1      10.867   5.361  -6.812  0.00  0.00     0.010 A 
ATOM      4  C   LIG d   1      10.127   4.427  -6.067  0.00  0.00     0.209 A 
ATOM      5  C   LIG d   1       9.308   3.497  -6.753  0.00  0.00     0.039 A 
ATOM      6  C   LIG d   1       9.247   3.530  -8.156  0.00  0.00    -0.046 A 
ATOM      7  C   LIG d   1       8.555   2.549  -6.027  0.00  0.00    -0.076 A 
ATOM      8  O   LIG d   1       7.769   1.654  -6.660  0.00  0.00    -0.873 OA
ATOM      9  C   LIG d   1       8.650   2.564  -4.618  0.00  0.00     0.096 A 
ATOM     10  C   LIG d   1       9.527   3.565  -3.985  0.00  0.00     0.415 A 
ATOM     11  O   LIG d   1       9.627   3.602  -2.767  0.00  0.00    -0.214 OA
ATOM     12  N   LIG d   1      10.205   4.426  -4.729  0.00  0.00    -0.144 N 
ATOM     13  H   LIG d   1      11.361   6.084  -8.736  0.00  0.00     0.062 H 
ATOM     14  H   LIG d   1      11.498   6.078  -6.306  0.00  0.00     0.068 H 
ATOM     15  H   LIG d   1       8.622   2.828  -8.688  0.00  0.00     0.063 H 
ATOM     16  H   LIG d   1      10.775   5.077  -4.292  0.00  0.00     0.448 HD
ENDROOT
BRANCH   9  17
ATOM     17  C   LIG d   1       7.932   1.652  -3.845  0.00  0.00     0.010 C 
ATOM     18  N   LIG d   1       6.596   1.573  -3.967  0.00  0.00    -0.320 N 
ATOM     19  H   LIG d   1       6.123   2.202  -4.533  0.00  0.00     0.152 HD
ATOM     20  H   LIG d   1       8.450   1.009  -3.150  0.00  0.00     0.079 H 
BRANCH  18  21
ATOM     21  C   LIG d   1       5.890   0.588  -3.278  0.00  0.00     0.034 A 
ATOM     22  C   LIG d   1       6.089  -0.763  -3.560  0.00  0.00    -0.022 A 
ATOM     23  C   LIG d   1       5.376  -1.708  -2.851  0.00  0.00     0.029 A 
ATOM     24  H   LIG d   1       6.796  -1.066  -4.319  0.00  0.00     0.065 H 
ATOM     25  N   LIG d   1       4.507  -1.346  -1.926  0.00  0.00    -0.263 NA
ATOM     26  H   LIG d   1       5.526  -2.757  -3.059  0.00  0.00     0.083 H 
ATOM     27  C   LIG d   1       4.287  -0.078  -1.634  0.00  0.00     0.029 A 
ATOM     28  C   LIG d   1       4.964   0.927  -2.293  0.00  0.00    -0.022 A 
ATOM     29  H   LIG d   1       3.567   0.176  -0.870  0.00  0.00     0.083 H 
ATOM     30  H   LIG d   1       4.779   1.963  -2.049  0.00  0.00     0.065 H 
ENDBRANCH  18  21
ENDBRANCH   9  17
BRANCH   1  31
ATOM     31  C   LIG d   1       9.918   4.478 -10.349  0.00  0.00    -0.040 C 
ATOM     32  H   LIG d   1      10.709   3.850 -10.759  0.00  0.00     0.028 H 
ATOM     33  H   LIG d   1       8.949   4.103 -10.679  0.00  0.00     0.028 H 
ATOM     34  H   LIG d   1      10.049   5.502 -10.699  0.00  0.00     0.028 H 
ENDBRANCH   1  31
TORSDOF 3
ENDMDL
MODEL 7
REMARK VINA RESULT:      -5.7      5.080      7.766
REMARK  3 active torsions:
REMARK  status: ('A' for Active; 'I' for Inactive)
REMARK    1  A    between atoms: C_1  and  C_2 
REMARK    2  A    between atoms: C_10  and  C_11 
REMARK    3  A    between atoms: N_12  and  C_13 
ROOT
ATOM      1  C   LIG d   1       6.090  -3.793  -5.398  0.00  0.00    -0.050 A 
ATOM      2  C   LIG d   1       4.964  -3.842  -4.582  0.00  0.00    -0.053 A 
ATOM      3  C   LIG d   1       4.618  -2.782  -3.800  0.00  0.00     0.010 A 
ATOM      4  C   LIG d   1       5.404  -1.617  -3.810  0.00  0.00     0.209 A 
ATOM      5  C   LIG d   1       6.549  -1.569  -4.642  0.00  0.00     0.039 A 
ATOM      6  C   LIG d   1       6.879  -2.683  -5.431  0.00  0.00    -0.046 A 
ATOM      7  C   LIG d   1       7.355  -0.410  -4.668  0.00  0.00    -0.076 A 
ATOM      8  O   LIG d   1       8.450  -0.344  -5.453  0.00  0.00    -0.873 OA
ATOM      9  C   LIG d   1       6.981   0.678  -3.850  0.00  0.00     0.096 A 
ATOM     10  C   LIG d   1       5.773   0.544  -3.015  0.00  0.00     0.415 A 
ATOM     11  O   LIG d   1       5.426   1.470  -2.296  0.00  0.00    -0.214 OA
ATOM     12  N   LIG d   1       5.064  -0.574  -3.040  0.00  0.00    -0.144 N 
ATOM     13  H   LIG d   1       4.354  -4.734  -4.569  0.00  0.00     0.062 H 
ATOM     14  H   LIG d   1       3.741  -2.837  -3.172  0.00  0.00     0.068 H 
ATOM     15  H   LIG d   1       7.753  -2.658  -6.066  0.00  0.00     0.063 H 
ATOM     16  H   LIG d   1       4.274  -0.641  -2.482  0.00  0.00     0.448 HD
ENDROOT
BRANCH   9  17
ATOM     17  C   LIG d   1       7.735   1.851  -3.833  0.00  0.00     0.010 C 
ATOM     18  N   LIG d   1       9.025   1.814  -3.462  0.00  0.00    -0.320 N 
ATOM     19  H   LIG d   1       9.412   0.989  -3.131  0.00  0.00     0.152 HD
ATOM     20  H   LIG d   1       7.281   2.788  -4.120  0.00  0.00     0.079 H 
BRANCH  18  21
ATOM     21  C   LIG d   1       9.809   2.964  -3.551  0.00  0.00     0.034 A 
ATOM     22  C   LIG d   1       9.484   3.983  -4.446  0.00  0.00    -0.022 A 
ATOM     23  C   LIG d   1      10.281   5.108  -4.499  0.00  0.00     0.029 A 
ATOM     24  H   LIG d   1       8.618   3.895  -5.085  0.00  0.00     0.065 H 
ATOM     25  N   LIG d   1      11.345   5.221  -3.726  0.00  0.00    -0.263 NA
ATOM     26  H   LIG d   1      10.035   5.904  -5.186  0.00  0.00     0.083 H 
ATOM     27  C   LIG d   1      11.688   4.276  -2.871  0.00  0.00     0.029 A 
ATOM     28  C   LIG d   1      10.940   3.124  -2.752  0.00  0.00    -0.022 A 
ATOM     29  H   LIG d   1      12.566   4.408  -2.255  0.00  0.00     0.083 H 
ATOM     30  H   LIG d   1      11.227   2.355  -2.049  0.00  0.00     0.065 H 
ENDBRANCH  18  21
ENDBRANCH   9  17
BRANCH   1  31
ATOM     31  C   LIG d   1       6.444  -4.984  -6.251  0.00  0.00    -0.040 C 
ATOM     32  H   LIG d   1       5.674  -5.131  -7.009  0.00  0.00     0.028 H 
ATOM     33  H   LIG d   1       7.404  -4.810  -6.738  0.00  0.00     0.028 H 
ATOM     34  H   LIG d   1       6.511  -5.874  -5.625  0.00  0.00     0.028 H 
ENDBRANCH   1  31
TORSDOF 3
ENDMDL
MODEL 8
REMARK VINA RESULT:      -5.6      8.092      9.557
REMARK  3 active torsions:
REMARK  status: ('A' for Active; 'I' for Inactive)
REMARK    1  A    between atoms: C_1  and  C_2 
REMARK    2  A    between atoms: C_10  and  C_11 
REMARK    3  A    between atoms: N_12  and  C_13 
ROOT
ATOM      1  C   LIG d   1      10.762   7.901  -0.089  0.00  0.00    -0.050 A 
ATOM      2  C   LIG d   1      11.364   6.927   0.702  0.00  0.00    -0.053 A 
ATOM      3  C   LIG d   1      11.477   5.641   0.267  0.00  0.00     0.010 A 
ATOM      4  C   LIG d   1      10.980   5.282  -0.998  0.00  0.00     0.209 A 
ATOM      5  C   LIG d   1      10.368   6.275  -1.801  0.00  0.00     0.039 A 
ATOM      6  C   LIG d   1      10.264   7.590  -1.319  0.00  0.00    -0.046 A 
ATOM      7  C   LIG d   1       9.860   5.939  -3.075  0.00  0.00    -0.076 A 
ATOM      8  O   LIG d   1       9.274   6.869  -3.856  0.00  0.00    -0.873 OA
ATOM      9  C   LIG d   1       9.985   4.601  -3.507  0.00  0.00     0.096 A 
ATOM     10  C   LIG d   1      10.637   3.631  -2.608  0.00  0.00     0.415 A 
ATOM     11  O   LIG d   1      10.758   2.466  -2.956  0.00  0.00    -0.214 OA
ATOM     12  N   LIG d   1      11.090   4.017  -1.425  0.00  0.00    -0.144 N 
ATOM     13  H   LIG d   1      11.749   7.195   1.675  0.00  0.00     0.062 H 
ATOM     14  H   LIG d   1      11.947   4.898   0.895  0.00  0.00     0.068 H 
ATOM     15  H   LIG d   1       9.795   8.354  -1.922  0.00  0.00     0.063 H 
ATOM     16  H   LIG d   1      11.514   3.363  -0.848  0.00  0.00     0.448 HD
ENDROOT
BRANCH   9  17
ATOM     17  C   LIG d   1       9.505   4.207  -4.756  0.00  0.00     0.010 C 
ATOM     18  N   LIG d   1       9.992   4.774  -5.872  0.00  0.00    -0.320 N 
ATOM     19  H   LIG d   1      10.619   5.511  -5.808  0.00  0.00     0.152 HD
ATOM     20  H   LIG d   1       8.744   3.444  -4.825  0.00  0.00     0.079 H 
BRANCH  18  21
ATOM     21  C   LIG d   1       9.595   4.303  -7.123  0.00  0.00     0.034 A 
ATOM     22  C   LIG d   1       9.532   5.159  -8.222  0.00  0.00    -0.022 A 
ATOM     23  C   LIG d   1       9.140   4.653  -9.444  0.00  0.00     0.029 A 
ATOM     24  H   LIG d   1       9.792   6.203  -8.119  0.00  0.00     0.065 H 
ATOM     25  N   LIG d   1       8.817   3.381  -9.577  0.00  0.00    -0.263 NA
ATOM     26  H   LIG d   1       9.093   5.308 -10.303  0.00  0.00     0.083 H 
ATOM     27  C   LIG d   1       8.858   2.541  -8.560  0.00  0.00     0.029 A 
ATOM     28  C   LIG d   1       9.245   2.966  -7.307  0.00  0.00    -0.022 A 
ATOM     29  H   LIG d   1       8.586   1.507  -8.712  0.00  0.00     0.083 H 
ATOM     30  H   LIG d   1       9.277   2.274  -6.479  0.00  0.00     0.065 H 
ENDBRANCH  18  21
ENDBRANCH   9  17
BRANCH   1  31
ATOM     31  C   LIG d   1      10.654   9.315   0.423  0.00  0.00    -0.040 C 
ATOM     32  H   LIG d   1       9.605   9.607   0.465  0.00  0.00     0.028 H 
ATOM     33  H   LIG d   1      11.088   9.373   1.421  0.00  0.00     0.028 H 
ATOM     34  H   LIG d   1      11.192   9.986  -0.246  0.00  0.00     0.028 H 
ENDBRANCH   1  31
TORSDOF 3
ENDMDL
MODEL 9
REMARK VINA RESULT:      -5.5      9.861     13.369
REMARK  3 active torsions:
REMARK  status: ('A' for Active; 'I' for Inactive)
REMARK    1  A    between atoms: C_1  and  C_2 
REMARK    2  A    between atoms: C_10  and  C_11 
REMARK    3  A    between atoms: N_12  and  C_13 
ROOT
ATOM      1  C   LIG d   1       9.579   5.861  -8.520  0.00  0.00    -0.050 A 
ATOM      2  C   LIG d   1       9.120   7.041  -9.099  0.00  0.00    -0.053 A 
ATOM      3  C   LIG d   1       9.001   8.182  -8.367  0.00  0.00     0.010 A 
ATOM      4  C   LIG d   1       9.345   8.181  -7.004  0.00  0.00     0.209 A 
ATOM      5  C   LIG d   1       9.813   6.980  -6.417  0.00  0.00     0.039 A 
ATOM      6  C   LIG d   1       9.918   5.820  -7.201  0.00  0.00    -0.046 A 
ATOM      7  C   LIG d   1      10.164   6.953  -5.049  0.00  0.00    -0.076 A 
ATOM      8  O   LIG d   1      10.612   5.820  -4.470  0.00  0.00    -0.873 OA
ATOM      9  C   LIG d   1      10.033   8.146  -4.306  0.00  0.00     0.096 A 
ATOM     10  C   LIG d   1       9.539   9.351  -4.997  0.00  0.00     0.415 A 
ATOM     11  O   LIG d   1       9.415  10.398  -4.378  0.00  0.00    -0.214 OA
ATOM     12  N   LIG d   1       9.227   9.304  -6.283  0.00  0.00    -0.144 N 
ATOM     13  H   LIG d   1       8.854   7.051 -10.147  0.00  0.00     0.062 H 
ATOM     14  H   LIG d   1       8.642   9.089  -8.833  0.00  0.00     0.068 H 
ATOM     15  H   LIG d   1      10.270   4.898  -6.761  0.00  0.00     0.063 H 
ATOM     16  H   LIG d   1       8.903  10.108  -6.717  0.00  0.00     0.448 HD
ENDROOT
BRANCH   9  17
ATOM     17  C   LIG d   1      10.365   8.184  -2.952  0.00  0.00     0.010 C 
ATOM     18  N   LIG d   1      10.136   7.112  -2.175  0.00  0.00    -0.320 N 
ATOM     19  H   LIG d   1       9.670   6.342  -2.535  0.00  0.00     0.152 HD
ATOM     20  H   LIG d   1      10.807   9.073  -2.530  0.00  0.00     0.079 H 
BRANCH  18  21
ATOM     21  C   LIG d   1      10.569   7.108  -0.849  0.00  0.00     0.034 A 
ATOM     22  C   LIG d   1      10.670   5.915  -0.133  0.00  0.00    -0.022 A 
ATOM     23  C   LIG d   1      11.108   5.954   1.174  0.00  0.00     0.029 A 
ATOM     24  H   LIG d   1      10.414   4.975  -0.598  0.00  0.00     0.065 H 
ATOM     25  N   LIG d   1      11.418   7.100   1.751  0.00  0.00    -0.263 NA
ATOM     26  H   LIG d   1      11.194   5.035   1.735  0.00  0.00     0.083 H 
ATOM     27  C   LIG d   1      11.330   8.249   1.109  0.00  0.00     0.029 A 
ATOM     28  C   LIG d   1      10.906   8.297  -0.203  0.00  0.00    -0.022 A 
ATOM     29  H   LIG d   1      11.593   9.165   1.618  0.00  0.00     0.083 H 
ATOM     30  H   LIG d   1      10.836   9.241  -0.722  0.00  0.00     0.065 H 
ENDBRANCH  18  21
ENDBRANCH   9  17
BRANCH   1  31
ATOM     31  C   LIG d   1       9.699   4.616  -9.360  0.00  0.00    -0.040 C 
ATOM     32  H   LIG d   1       9.301   3.765  -8.807  0.00  0.00     0.028 H 
ATOM     33  H   LIG d   1       9.134   4.745 -10.283  0.00  0.00     0.028 H 
ATOM     34  H   LIG d   1      10.747   4.437  -9.598  0.00  0.00     0.028 H 
ENDBRANCH   1  31
TORSDOF 3
ENDMDL
MODEL 10
REMARK VINA RESULT:      -5.3      9.203     12.585
REMARK  3 active torsions:
REMARK  status: ('A' for Active; 'I' for Inactive)
REMARK    1  A    between atoms: C_1  and  C_2 
REMARK    2  A    between atoms: C_10  and  C_11 
REMARK    3  A    between atoms: N_12  and  C_13 
ROOT
ATOM      1  C   LIG d   1       9.654   6.740  -7.988  0.00  0.00    -0.050 A 
ATOM      2  C   LIG d   1       9.599   5.399  -8.356  0.00  0.00    -0.053 A 
ATOM      3  C   LIG d   1       9.649   4.412  -7.419  0.00  0.00     0.010 A 
ATOM      4  C   LIG d   1       9.757   4.742  -6.057  0.00  0.00     0.209 A 
ATOM      5  C   LIG d   1       9.812   6.107  -5.685  0.00  0.00     0.039 A 
ATOM      6  C   LIG d   1       9.764   7.099  -6.678  0.00  0.00    -0.046 A 
ATOM      7  C   LIG d   1       9.921   6.464  -4.323  0.00  0.00    -0.076 A 
ATOM      8  O   LIG d   1       9.975   7.759  -3.947  0.00  0.00    -0.873 OA
ATOM      9  C   LIG d   1       9.972   5.427  -3.367  0.00  0.00     0.096 A 
ATOM     10  C   LIG d   1       9.908   4.033  -3.841  0.00  0.00     0.415 A 
ATOM     11  O   LIG d   1       9.951   3.115  -3.035  0.00  0.00    -0.214 OA
ATOM     12  N   LIG d   1       9.806   3.771  -5.135  0.00  0.00    -0.144 N 
ATOM     13  H   LIG d   1       9.516   5.136  -9.401  0.00  0.00     0.062 H 
ATOM     14  H   LIG d   1       9.606   3.375  -7.722  0.00  0.00     0.068 H 
ATOM     15  H   LIG d   1       9.809   8.143  -6.405  0.00  0.00     0.063 H 
ATOM     16  H   LIG d   1       9.767   2.847  -5.426  0.00  0.00     0.448 HD
ENDROOT
BRANCH   9  17
ATOM     17  C   LIG d   1      10.079   5.715  -2.007  0.00  0.00     0.010 C 
ATOM     18  N   LIG d   1      11.171   6.341  -1.536  0.00  0.00    -0.320 N 
ATOM     19  H   LIG d   1      11.918   6.522  -2.127  0.00  0.00     0.152 HD
ATOM     20  H   LIG d   1       9.283   5.437  -1.332  0.00  0.00     0.079 H 
BRANCH  18  21
ATOM     21  C   LIG d   1      11.229   6.728  -0.198  0.00  0.00     0.034 A 
ATOM     22  C   LIG d   1      11.490   8.053   0.152  0.00  0.00    -0.022 A 
ATOM     23  C   LIG d   1      11.534   8.397   1.487  0.00  0.00     0.029 A 
ATOM     24  H   LIG d   1      11.650   8.800  -0.612  0.00  0.00     0.065 H 
ATOM     25  N   LIG d   1      11.344   7.489   2.426  0.00  0.00    -0.263 NA
ATOM     26  H   LIG d   1      11.730   9.421   1.768  0.00  0.00     0.083 H 
ATOM     27  C   LIG d   1      11.100   6.225   2.135  0.00  0.00     0.029 A 
ATOM     28  C   LIG d   1      11.035   5.801   0.825  0.00  0.00    -0.022 A 
ATOM     29  H   LIG d   1      10.950   5.514   2.934  0.00  0.00     0.083 H 
ATOM     30  H   LIG d   1      10.835   4.765   0.594  0.00  0.00     0.065 H 
ENDBRANCH  18  21
ENDBRANCH   9  17
BRANCH   1  31
ATOM     31  C   LIG d   1       9.597   7.807  -9.051  0.00  0.00    -0.040 C 
ATOM     32  H   LIG d   1       9.325   7.355 -10.006  0.00  0.00     0.028 H 
ATOM     33  H   LIG d   1       8.851   8.553  -8.777  0.00  0.00     0.028 H 
ATOM     34  H   LIG d   1      10.573   8.285  -9.140  0.00  0.00     0.028 H 
ENDBRANCH   1  31
TORSDOF 3
ENDMDL
