MODEL 1
REMARK VINA RESULT:      -5.4      0.000      0.000
REMARK  18 active torsions:
REMARK  status: ('A' for Active; 'I' for Inactive)
REMARK    1  A    between atoms: C_1  and  C_2 
REMARK    2  A    between atoms: C_3  and  C_4 
REMARK    3  A    between atoms: C_5  and  C_6 
REMARK    4  A    between atoms: C_7  and  C_8 
REMARK    5  A    between atoms: C_8  and  C_10 
REMARK    6  A    between atoms: C_8  and  O_35 
REMARK    7  A    between atoms: C_10  and  C_12 
REMARK    8  A    between atoms: C_10  and  O_18 
REMARK    9  A    between atoms: C_13  and  C_14 
REMARK   10  A    between atoms: C_14  and  C_15 
REMARK   11  A    between atoms: C_15  and  C_16 
REMARK   12  A    between atoms: C_16  and  O_17 
REMARK   13  A    between atoms: O_18  and  C_19 
REMARK   14  A    between atoms: C_21  and  O_34 
REMARK   15  A    between atoms: C_23  and  O_33 
REMARK   16  A    between atoms: C_25  and  O_32 
REMARK   17  A    between atoms: C_27  and  C_30 
REMARK   18  A    between atoms: C_30  and  O_31 
ROOT
ATOM      1  C   LIG d   1       6.599  -0.211  -4.644  0.00  0.00     0.117 C 
ATOM      2  H   LIG d   1       6.286  -1.256  -4.623  0.00  0.00     0.068 H 
ENDROOT
BRANCH   1   3
ATOM      3  C   LIG d   1       8.114  -0.138  -4.838  0.00  0.00     0.146 C 
ATOM      4  H   LIG d   1       8.347  -0.184  -5.902  0.00  0.00     0.076 H 
BRANCH   3   5
ATOM      5  C   LIG d   1       8.621   1.125  -4.280  0.00  0.00    -0.054 C 
ATOM      6  C   LIG d   1       9.025   2.134  -3.834  0.00  0.00    -0.012 C 
BRANCH   6   7
ATOM      7  C   LIG d   1       9.500   3.315  -3.310  0.00  0.00    -0.010 C 
ATOM      8  C   LIG d   1       9.903   4.323  -2.862  0.00  0.00    -0.061 C 
BRANCH   8   9
ATOM      9  C   LIG d   1      10.397   5.552  -2.317  0.00  0.00    -0.015 C 
ATOM     10  C   LIG d   1      10.185   6.699  -2.961  0.00  0.00    -0.079 C 
ATOM     11  H   LIG d   1      10.557   7.626  -2.550  0.00  0.00     0.058 H 
ATOM     12  H   LIG d   1      10.940   5.549  -1.384  0.00  0.00     0.071 H 
BRANCH  10  13
ATOM     13  C   LIG d   1       9.427   6.704  -4.263  0.00  0.00    -0.046 C 
ATOM     14  H   LIG d   1       9.580   5.755  -4.776  0.00  0.00     0.027 H 
ATOM     15  H   LIG d   1       8.364   6.842  -4.065  0.00  0.00     0.027 H 
ATOM     16  H   LIG d   1       9.787   7.519  -4.892  0.00  0.00     0.027 H 
ENDBRANCH  10  13
ENDBRANCH   8   9
ENDBRANCH   6   7
ENDBRANCH   3   5
BRANCH   3  17
ATOM     17  O   LIG d   1       8.734  -1.237  -4.167  0.00  0.00    -0.376 OA
ATOM     18  H   LIG d   1       8.238  -1.561  -3.404  0.00  0.00     0.211 HD
ENDBRANCH   3  17
ENDBRANCH   1   3
BRANCH   1  19
ATOM     19  C   LIG d   1       6.226   0.450  -3.342  0.00  0.00    -0.056 C 
ATOM     20  C   LIG d   1       5.383  -0.135  -2.527  0.00  0.00    -0.085 C 
ATOM     21  H   LIG d   1       4.987   0.406  -1.681  0.00  0.00     0.057 H 
ATOM     22  H   LIG d   1       6.652   1.407  -3.081  0.00  0.00     0.060 H 
BRANCH  20  23
ATOM     23  C   LIG d   1       4.966  -1.562  -2.772  0.00  0.00    -0.033 C 
ATOM     24  H   LIG d   1       5.291  -1.871  -3.765  0.00  0.00     0.031 H 
ATOM     25  H   LIG d   1       5.424  -2.209  -2.023  0.00  0.00     0.031 H 
BRANCH  23  26
ATOM     26  C   LIG d   1       3.443  -1.672  -2.676  0.00  0.00    -0.026 C 
ATOM     27  H   LIG d   1       3.130  -2.669  -2.986  0.00  0.00     0.029 H 
ATOM     28  H   LIG d   1       3.131  -1.498  -1.646  0.00  0.00     0.029 H 
BRANCH  26  29
ATOM     29  C   LIG d   1       2.798  -0.627  -3.588  0.00  0.00     0.044 C 
ATOM     30  H   LIG d   1       1.719  -0.626  -3.433  0.00  0.00     0.056 H 
ATOM     31  H   LIG d   1       3.200   0.358  -3.354  0.00  0.00     0.056 H 
BRANCH  29  32
ATOM     32  O   LIG d   1       3.082  -0.945  -4.953  0.00  0.00    -0.395 OA
ATOM     33  H   LIG d   1       3.416  -0.199  -5.469  0.00  0.00     0.209 HD
ENDBRANCH  29  32
ENDBRANCH  26  29
ENDBRANCH  23  26
ENDBRANCH  20  23
ENDBRANCH   1  19
BRANCH   1  34
ATOM     34  O   LIG d   1       5.947   0.459  -5.724  0.00  0.00    -0.338 OA
BRANCH  34  35
ATOM     35  C   LIG d   1       5.795  -0.342  -6.898  0.00  0.00     0.189 C 
ATOM     36  H   LIG d   1       6.771  -0.506  -7.355  0.00  0.00     0.094 H 
ATOM     37  O   LIG d   1       5.215  -1.599  -6.545  0.00  0.00    -0.341 OA
ATOM     38  C   LIG d   1       5.041  -2.491  -7.648  0.00  0.00     0.113 C 
ATOM     39  C   LIG d   1       4.096  -1.857  -8.672  0.00  0.00     0.112 C 
ATOM     40  H   LIG d   1       6.007  -2.684  -8.115  0.00  0.00     0.065 H 
ATOM     41  C   LIG d   1       4.674  -0.510  -9.121  0.00  0.00     0.114 C 
ATOM     42  H   LIG d   1       3.998  -2.517  -9.535  0.00  0.00     0.065 H 
ATOM     43  C   LIG d   1       4.880   0.380  -7.892  0.00  0.00     0.134 C 
ATOM     44  H   LIG d   1       5.629  -0.672  -9.621  0.00  0.00     0.065 H 
ATOM     45  H   LIG d   1       5.342   1.319  -8.196  0.00  0.00     0.067 H 
BRANCH  38  46
ATOM     46  C   LIG d   1       4.442  -3.808  -7.149  0.00  0.00     0.073 C 
ATOM     47  H   LIG d   1       3.691  -4.157  -7.857  0.00  0.00     0.058 H 
ATOM     48  H   LIG d   1       5.232  -4.554  -7.059  0.00  0.00     0.058 H 
BRANCH  46  49
ATOM     49  O   LIG d   1       3.834  -3.601  -5.873  0.00  0.00    -0.392 OA
ATOM     50  H   LIG d   1       3.921  -2.699  -5.537  0.00  0.00     0.209 HD
ENDBRANCH  46  49
ENDBRANCH  38  46
BRANCH  39  51
ATOM     51  O   LIG d   1       2.814  -1.652  -8.077  0.00  0.00    -0.387 OA
ATOM     52  H   LIG d   1       2.723  -2.039  -7.195  0.00  0.00     0.210 HD
ENDBRANCH  39  51
BRANCH  41  53
ATOM     53  O   LIG d   1       3.765   0.124 -10.024  0.00  0.00    -0.386 OA
ATOM     54  H   LIG d   1       3.968  -0.027 -10.956  0.00  0.00     0.210 HD
ENDBRANCH  41  53
BRANCH  43  55
ATOM     55  O   LIG d   1       3.619   0.645  -7.275  0.00  0.00    -0.384 OA
ATOM     56  H   LIG d   1       3.171  -0.144  -6.941  0.00  0.00     0.210 HD
ENDBRANCH  43  55
ENDBRANCH  34  35
ENDBRANCH   1  34
TORSDOF 18
ENDMDL
MODEL 2
REMARK VINA RESULT:      -5.2      2.599      7.279
REMARK  18 active torsions:
REMARK  status: ('A' for Active; 'I' for Inactive)
REMARK    1  A    between atoms: C_1  and  C_2 
REMARK    2  A    between atoms: C_3  and  C_4 
REMARK    3  A    between atoms: C_5  and  C_6 
REMARK    4  A    between atoms: C_7  and  C_8 
REMARK    5  A    between atoms: C_8  and  C_10 
REMARK    6  A    between atoms: C_8  and  O_35 
REMARK    7  A    between atoms: C_10  and  C_12 
REMARK    8  A    between atoms: C_10  and  O_18 
REMARK    9  A    between atoms: C_13  and  C_14 
REMARK   10  A    between atoms: C_14  and  C_15 
REMARK   11  A    between atoms: C_15  and  C_16 
REMARK   12  A    between atoms: C_16  and  O_17 
REMARK   13  A    between atoms: O_18  and  C_19 
REMARK   14  A    between atoms: C_21  and  O_34 
REMARK   15  A    between atoms: C_23  and  O_33 
REMARK   16  A    between atoms: C_25  and  O_32 
REMARK   17  A    between atoms: C_27  and  C_30 
REMARK   18  A    between atoms: C_30  and  O_31 
ROOT
ATOM      1  C   LIG d   1       4.569  -0.603  -5.365  0.00  0.00     0.117 C 
ATOM      2  H   LIG d   1       5.180  -0.084  -4.626  0.00  0.00     0.068 H 
ENDROOT
BRANCH   1   3
ATOM      3  C   LIG d   1       3.298   0.205  -5.631  0.00  0.00     0.146 C 
ATOM      4  H   LIG d   1       3.521   1.269  -5.555  0.00  0.00     0.076 H 
BRANCH   3   5
ATOM      5  C   LIG d   1       2.798  -0.096  -6.982  0.00  0.00    -0.054 C 
ATOM      6  C   LIG d   1       2.400  -0.336  -8.060  0.00  0.00    -0.012 C 
BRANCH   6   7
ATOM      7  C   LIG d   1       1.934  -0.617  -9.325  0.00  0.00    -0.010 C 
ATOM      8  C   LIG d   1       1.535  -0.858 -10.403  0.00  0.00    -0.061 C 
BRANCH   8   9
ATOM      9  C   LIG d   1       1.049  -1.150 -11.718  0.00  0.00    -0.015 C 
ATOM     10  C   LIG d   1       1.903  -1.498 -12.681  0.00  0.00    -0.079 C 
ATOM     11  H   LIG d   1       1.537  -1.719 -13.673  0.00  0.00     0.058 H 
ATOM     12  H   LIG d   1      -0.007  -1.090 -11.930  0.00  0.00     0.071 H 
BRANCH  10  13
ATOM     13  C   LIG d   1       3.378  -1.583 -12.386  0.00  0.00    -0.046 C 
ATOM     14  H   LIG d   1       3.711  -0.654 -11.924  0.00  0.00     0.027 H 
ATOM     15  H   LIG d   1       3.567  -2.414 -11.707  0.00  0.00     0.027 H 
ATOM     16  H   LIG d   1       3.927  -1.742 -13.315  0.00  0.00     0.027 H 
ENDBRANCH  10  13
ENDBRANCH   8   9
ENDBRANCH   6   7
ENDBRANCH   3   5
BRANCH   3  17
ATOM     17  O   LIG d   1       2.302  -0.143  -4.667  0.00  0.00    -0.376 OA
ATOM     18  H   LIG d   1       2.586  -0.819  -4.036  0.00  0.00     0.211 HD
ENDBRANCH   3  17
ENDBRANCH   1   3
BRANCH   1  19
ATOM     19  C   LIG d   1       4.199  -1.967  -4.843  0.00  0.00    -0.056 C 
ATOM     20  C   LIG d   1       4.679  -2.382  -3.697  0.00  0.00    -0.085 C 
ATOM     21  H   LIG d   1       4.554  -3.413  -3.400  0.00  0.00     0.057 H 
ATOM     22  H   LIG d   1       3.538  -2.602  -5.413  0.00  0.00     0.060 H 
BRANCH  20  23
ATOM     23  C   LIG d   1       5.408  -1.422  -2.793  0.00  0.00    -0.033 C 
ATOM     24  H   LIG d   1       6.198  -1.951  -2.260  0.00  0.00     0.031 H 
ATOM     25  H   LIG d   1       5.847  -0.622  -3.390  0.00  0.00     0.031 H 
BRANCH  23  26
ATOM     26  C   LIG d   1       4.425  -0.824  -1.784  0.00  0.00    -0.026 C 
ATOM     27  H   LIG d   1       3.408  -1.101  -2.061  0.00  0.00     0.029 H 
ATOM     28  H   LIG d   1       4.647  -1.210  -0.789  0.00  0.00     0.029 H 
BRANCH  26  29
ATOM     29  C   LIG d   1       4.558   0.699  -1.783  0.00  0.00     0.044 C 
ATOM     30  H   LIG d   1       4.831   1.040  -0.784  0.00  0.00     0.056 H 
ATOM     31  H   LIG d   1       5.330   0.997  -2.492  0.00  0.00     0.056 H 
BRANCH  29  32
ATOM     32  O   LIG d   1       3.311   1.287  -2.162  0.00  0.00    -0.395 OA
ATOM     33  H   LIG d   1       3.126   2.131  -1.727  0.00  0.00     0.209 HD
ENDBRANCH  29  32
ENDBRANCH  26  29
ENDBRANCH  23  26
ENDBRANCH  20  23
ENDBRANCH   1  19
BRANCH   1  34
ATOM     34  O   LIG d   1       5.308  -0.742  -6.580  0.00  0.00    -0.338 OA
BRANCH  34  35
ATOM     35  C   LIG d   1       6.559  -0.049  -6.583  0.00  0.00     0.189 C 
ATOM     36  H   LIG d   1       6.540   0.734  -7.341  0.00  0.00     0.094 H 
ATOM     37  O   LIG d   1       6.782   0.536  -5.298  0.00  0.00    -0.341 OA
ATOM     38  C   LIG d   1       7.999   1.277  -5.198  0.00  0.00     0.113 C 
ATOM     39  C   LIG d   1       9.186   0.344  -5.456  0.00  0.00     0.112 C 
ATOM     40  H   LIG d   1       7.999   2.077  -5.938  0.00  0.00     0.065 H 
ATOM     41  C   LIG d   1       9.029  -0.299  -6.837  0.00  0.00     0.114 C 
ATOM     42  H   LIG d   1      10.114   0.917  -5.424  0.00  0.00     0.065 H 
ATOM     43  C   LIG d   1       7.687  -1.036  -6.896  0.00  0.00     0.134 C 
ATOM     44  H   LIG d   1       9.055   0.475  -7.605  0.00  0.00     0.065 H 
ATOM     45  H   LIG d   1       7.543  -1.450  -7.894  0.00  0.00     0.067 H 
BRANCH  38  46
ATOM     46  C   LIG d   1       8.118   1.877  -3.796  0.00  0.00     0.073 C 
ATOM     47  H   LIG d   1       7.726   2.894  -3.801  0.00  0.00     0.058 H 
ATOM     48  H   LIG d   1       7.547   1.271  -3.092  0.00  0.00     0.058 H 
BRANCH  46  49
ATOM     49  O   LIG d   1       9.491   1.897  -3.401  0.00  0.00    -0.392 OA
ATOM     50  H   LIG d   1       9.860   2.785  -3.302  0.00  0.00     0.209 HD
ENDBRANCH  46  49
ENDBRANCH  38  46
BRANCH  39  51
ATOM     51  O   LIG d   1       9.219  -0.675  -4.455  0.00  0.00    -0.387 OA
ATOM     52  H   LIG d   1       8.347  -1.022  -4.218  0.00  0.00     0.210 HD
ENDBRANCH  39  51
BRANCH  41  53
ATOM     53  O   LIG d   1      10.094  -1.226  -7.059  0.00  0.00    -0.386 OA
ATOM     54  H   LIG d   1      10.799  -0.886  -7.624  0.00  0.00     0.210 HD
ENDBRANCH  41  53
BRANCH  43  55
ATOM     55  O   LIG d   1       7.679  -2.092  -5.934  0.00  0.00    -0.384 OA
ATOM     56  H   LIG d   1       8.272  -1.947  -5.185  0.00  0.00     0.210 HD
ENDBRANCH  43  55
ENDBRANCH  34  35
ENDBRANCH   1  34
TORSDOF 18
ENDMDL
MODEL 3
REMARK VINA RESULT:      -5.2      3.404      5.853
REMARK  18 active torsions:
REMARK  status: ('A' for Active; 'I' for Inactive)
REMARK    1  A    between atoms: C_1  and  C_2 
REMARK    2  A    between atoms: C_3  and  C_4 
REMARK    3  A    between atoms: C_5  and  C_6 
REMARK    4  A    between atoms: C_7  and  C_8 
REMARK    5  A    between atoms: C_8  and  C_10 
REMARK    6  A    between atoms: C_8  and  O_35 
REMARK    7  A    between atoms: C_10  and  C_12 
REMARK    8  A    between atoms: C_10  and  O_18 
REMARK    9  A    between atoms: C_13  and  C_14 
REMARK   10  A    between atoms: C_14  and  C_15 
REMARK   11  A    between atoms: C_15  and  C_16 
REMARK   12  A    between atoms: C_16  and  O_17 
REMARK   13  A    between atoms: O_18  and  C_19 
REMARK   14  A    between atoms: C_21  and  O_34 
REMARK   15  A    between atoms: C_23  and  O_33 
REMARK   16  A    between atoms: C_25  and  O_32 
REMARK   17  A    between atoms: C_27  and  C_30 
REMARK   18  A    between atoms: C_30  and  O_31 
ROOT
ATOM      1  C   LIG d   1       4.402  -1.916  -4.744  0.00  0.00     0.117 C 
ATOM      2  H   LIG d   1       3.320  -1.816  -4.841  0.00  0.00     0.068 H 
ENDROOT
BRANCH   1   3
ATOM      3  C   LIG d   1       4.875  -3.123  -5.556  0.00  0.00     0.146 C 
ATOM      4  H   LIG d   1       4.972  -2.841  -6.604  0.00  0.00     0.076 H 
BRANCH   3   5
ATOM      5  C   LIG d   1       6.179  -3.577  -5.047  0.00  0.00    -0.054 C 
ATOM      6  C   LIG d   1       7.219  -3.939  -4.641  0.00  0.00    -0.012 C 
BRANCH   6   7
ATOM      7  C   LIG d   1       8.440  -4.362  -4.166  0.00  0.00    -0.010 C 
ATOM      8  C   LIG d   1       9.481  -4.724  -3.759  0.00  0.00    -0.061 C 
BRANCH   8   9
ATOM      9  C   LIG d   1      10.751  -5.164  -3.265  0.00  0.00    -0.015 C 
ATOM     10  C   LIG d   1      10.821  -6.230  -2.467  0.00  0.00    -0.079 C 
ATOM     11  H   LIG d   1      11.778  -6.563  -2.094  0.00  0.00     0.058 H 
ATOM     12  H   LIG d   1      11.650  -4.635  -3.538  0.00  0.00     0.071 H 
BRANCH  10  13
ATOM     13  C   LIG d   1       9.565  -6.971  -2.085  0.00  0.00    -0.046 C 
ATOM     14  H   LIG d   1       8.739  -6.629  -2.707  0.00  0.00     0.027 H 
ATOM     15  H   LIG d   1       9.714  -8.040  -2.234  0.00  0.00     0.027 H 
ATOM     16  H   LIG d   1       9.334  -6.779  -1.037  0.00  0.00     0.027 H 
ENDBRANCH  10  13
ENDBRANCH   8   9
ENDBRANCH   6   7
ENDBRANCH   3   5
BRANCH   3  17
ATOM     17  O   LIG d   1       3.922  -4.182  -5.434  0.00  0.00    -0.376 OA
ATOM     18  H   LIG d   1       4.061  -4.748  -4.663  0.00  0.00     0.211 HD
ENDBRANCH   3  17
ENDBRANCH   1   3
BRANCH   1  19
ATOM     19  C   LIG d   1       4.761  -2.112  -3.294  0.00  0.00    -0.056 C 
ATOM     20  C   LIG d   1       4.255  -1.320  -2.381  0.00  0.00    -0.085 C 
ATOM     21  H   LIG d   1       4.635  -1.349  -1.371  0.00  0.00     0.057 H 
ATOM     22  H   LIG d   1       5.435  -2.905  -3.007  0.00  0.00     0.060 H 
BRANCH  20  23
ATOM     23  C   LIG d   1       3.143  -0.368  -2.741  0.00  0.00    -0.033 C 
ATOM     24  H   LIG d   1       2.917  -0.458  -3.803  0.00  0.00     0.031 H 
ATOM     25  H   LIG d   1       2.254  -0.611  -2.159  0.00  0.00     0.031 H 
BRANCH  23  26
ATOM     26  C   LIG d   1       3.579   1.065  -2.431  0.00  0.00    -0.026 C 
ATOM     27  H   LIG d   1       3.246   1.727  -3.230  0.00  0.00     0.029 H 
ATOM     28  H   LIG d   1       3.135   1.383  -1.487  0.00  0.00     0.029 H 
BRANCH  26  29
ATOM     29  C   LIG d   1       5.104   1.122  -2.322  0.00  0.00     0.044 C 
ATOM     30  H   LIG d   1       5.387   1.842  -1.554  0.00  0.00     0.056 H 
ATOM     31  H   LIG d   1       5.486   0.137  -2.055  0.00  0.00     0.056 H 
BRANCH  29  32
ATOM     32  O   LIG d   1       5.656   1.524  -3.578  0.00  0.00    -0.395 OA
ATOM     33  H   LIG d   1       6.584   1.791  -3.531  0.00  0.00     0.209 HD
ENDBRANCH  29  32
ENDBRANCH  26  29
ENDBRANCH  23  26
ENDBRANCH  20  23
ENDBRANCH   1  19
BRANCH   1  34
ATOM     34  O   LIG d   1       5.035  -0.734  -5.237  0.00  0.00    -0.338 OA
BRANCH  34  35
ATOM     35  C   LIG d   1       5.105  -0.663  -6.663  0.00  0.00     0.189 C 
ATOM     36  H   LIG d   1       4.889  -1.644  -7.087  0.00  0.00     0.094 H 
ATOM     37  O   LIG d   1       4.147   0.284  -7.141  0.00  0.00    -0.341 OA
ATOM     38  C   LIG d   1       4.115   0.415  -8.563  0.00  0.00     0.113 C 
ATOM     39  C   LIG d   1       5.480   0.899  -9.061  0.00  0.00     0.112 C 
ATOM     40  H   LIG d   1       3.887  -0.552  -9.012  0.00  0.00     0.065 H 
ATOM     41  C   LIG d   1       6.559  -0.091  -8.609  0.00  0.00     0.114 C 
ATOM     42  H   LIG d   1       5.472   0.957 -10.149  0.00  0.00     0.065 H 
ATOM     43  C   LIG d   1       6.510  -0.222  -7.084  0.00  0.00     0.134 C 
ATOM     44  H   LIG d   1       6.376  -1.063  -9.066  0.00  0.00     0.065 H 
ATOM     45  H   LIG d   1       7.237  -0.966  -6.759  0.00  0.00     0.067 H 
BRANCH  38  46
ATOM     46  C   LIG d   1       3.040   1.429  -8.958  0.00  0.00     0.073 C 
ATOM     47  H   LIG d   1       3.346   1.949  -9.865  0.00  0.00     0.058 H 
ATOM     48  H   LIG d   1       2.099   0.908  -9.138  0.00  0.00     0.058 H 
BRANCH  46  49
ATOM     49  O   LIG d   1       2.866   2.374  -7.901  0.00  0.00    -0.392 OA
ATOM     50  H   LIG d   1       2.307   3.128  -8.135  0.00  0.00     0.209 HD
ENDBRANCH  46  49
ENDBRANCH  38  46
BRANCH  39  51
ATOM     51  O   LIG d   1       5.758   2.190  -8.515  0.00  0.00    -0.387 OA
ATOM     52  H   LIG d   1       6.634   2.266  -8.112  0.00  0.00     0.210 HD
ENDBRANCH  39  51
BRANCH  41  53
ATOM     53  O   LIG d   1       7.846   0.389  -9.006  0.00  0.00    -0.386 OA
ATOM     54  H   LIG d   1       7.874   0.739  -9.906  0.00  0.00     0.210 HD
ENDBRANCH  41  53
BRANCH  43  55
ATOM     55  O   LIG d   1       6.815   1.038  -6.484  0.00  0.00    -0.384 OA
ATOM     56  H   LIG d   1       6.887   1.008  -5.521  0.00  0.00     0.210 HD
ENDBRANCH  43  55
ENDBRANCH  34  35
ENDBRANCH   1  34
TORSDOF 18
ENDMDL
MODEL 4
REMARK VINA RESULT:      -5.1      5.053      9.976
REMARK  18 active torsions:
REMARK  status: ('A' for Active; 'I' for Inactive)
REMARK    1  A    between atoms: C_1  and  C_2 
REMARK    2  A    between atoms: C_3  and  C_4 
REMARK    3  A    between atoms: C_5  and  C_6 
REMARK    4  A    between atoms: C_7  and  C_8 
REMARK    5  A    between atoms: C_8  and  C_10 
REMARK    6  A    between atoms: C_8  and  O_35 
REMARK    7  A    between atoms: C_10  and  C_12 
REMARK    8  A    between atoms: C_10  and  O_18 
REMARK    9  A    between atoms: C_13  and  C_14 
REMARK   10  A    between atoms: C_14  and  C_15 
REMARK   11  A    between atoms: C_15  and  C_16 
REMARK   12  A    between atoms: C_16  and  O_17 
REMARK   13  A    between atoms: O_18  and  C_19 
REMARK   14  A    between atoms: C_21  and  O_34 
REMARK   15  A    between atoms: C_23  and  O_33 
REMARK   16  A    between atoms: C_25  and  O_32 
REMARK   17  A    between atoms: C_27  and  C_30 
REMARK   18  A    between atoms: C_30  and  O_31 
ROOT
ATOM      1  C   LIG d   1      10.513   4.346  -4.439  0.00  0.00     0.117 C 
ATOM      2  H   LIG d   1      11.458   4.869  -4.593  0.00  0.00     0.068 H 
ENDROOT
BRANCH   1   3
ATOM      3  C   LIG d   1      10.793   2.876  -4.121  0.00  0.00     0.146 C 
ATOM      4  H   LIG d   1      11.354   2.806  -3.189  0.00  0.00     0.076 H 
BRANCH   3   5
ATOM      5  C   LIG d   1       9.519   2.152  -3.982  0.00  0.00    -0.054 C 
ATOM      6  C   LIG d   1       8.503   1.575  -3.872  0.00  0.00    -0.012 C 
BRANCH   6   7
ATOM      7  C   LIG d   1       7.311   0.898  -3.743  0.00  0.00    -0.010 C 
ATOM      8  C   LIG d   1       6.294   0.320  -3.633  0.00  0.00    -0.061 C 
BRANCH   8   9
ATOM      9  C   LIG d   1       5.054  -0.384  -3.499  0.00  0.00    -0.015 C 
ATOM     10  C   LIG d   1       4.198  -0.046  -2.535  0.00  0.00    -0.079 C 
ATOM     11  H   LIG d   1       3.263  -0.576  -2.434  0.00  0.00     0.058 H 
ATOM     12  H   LIG d   1       4.813  -1.187  -4.178  0.00  0.00     0.071 H 
BRANCH  10  13
ATOM     13  C   LIG d   1       4.534   1.075  -1.586  0.00  0.00    -0.046 C 
ATOM     14  H   LIG d   1       3.628   1.628  -1.341  0.00  0.00     0.027 H 
ATOM     15  H   LIG d   1       4.967   0.663  -0.675  0.00  0.00     0.027 H 
ATOM     16  H   LIG d   1       5.252   1.748  -2.057  0.00  0.00     0.027 H 
ENDBRANCH  10  13
ENDBRANCH   8   9
ENDBRANCH   6   7
ENDBRANCH   3   5
BRANCH   3  17
ATOM     17  O   LIG d   1      11.557   2.296  -5.180  0.00  0.00    -0.376 OA
ATOM     18  H   LIG d   1      11.489   2.771  -6.019  0.00  0.00     0.211 HD
ENDBRANCH   3  17
ENDBRANCH   1   3
BRANCH   1  19
ATOM     19  C   LIG d   1       9.677   4.440  -5.689  0.00  0.00    -0.056 C 
ATOM     20  C   LIG d   1       9.854   5.434  -6.523  0.00  0.00    -0.085 C 
ATOM     21  H   LIG d   1       9.151   5.598  -7.326  0.00  0.00     0.057 H 
ATOM     22  H   LIG d   1       8.931   3.687  -5.897  0.00  0.00     0.060 H 
BRANCH  20  23
ATOM     23  C   LIG d   1      11.039   6.352  -6.360  0.00  0.00    -0.033 C 
ATOM     24  H   LIG d   1      11.393   6.311  -5.331  0.00  0.00     0.031 H 
ATOM     25  H   LIG d   1      11.838   6.037  -7.032  0.00  0.00     0.031 H 
BRANCH  23  26
ATOM     26  C   LIG d   1      10.624   7.785  -6.701  0.00  0.00    -0.026 C 
ATOM     27  H   LIG d   1      11.312   8.485  -6.226  0.00  0.00     0.029 H 
ATOM     28  H   LIG d   1      10.652   7.924  -7.782  0.00  0.00     0.029 H 
BRANCH  26  29
ATOM     29  C   LIG d   1       9.205   8.040  -6.191  0.00  0.00     0.044 C 
ATOM     30  H   LIG d   1       8.724   8.794  -6.814  0.00  0.00     0.056 H 
ATOM     31  H   LIG d   1       8.631   7.114  -6.233  0.00  0.00     0.056 H 
BRANCH  29  32
ATOM     32  O   LIG d   1       9.260   8.504  -4.840  0.00  0.00    -0.395 OA
ATOM     33  H   LIG d   1      10.151   8.521  -4.466  0.00  0.00     0.209 HD
ENDBRANCH  29  32
ENDBRANCH  26  29
ENDBRANCH  23  26
ENDBRANCH  20  23
ENDBRANCH   1  19
BRANCH   1  34
ATOM     34  O   LIG d   1       9.810   4.944  -3.349  0.00  0.00    -0.338 OA
BRANCH  34  35
ATOM     35  C   LIG d   1      10.497   6.044  -2.748  0.00  0.00     0.189 C 
ATOM     36  H   LIG d   1      11.047   6.591  -3.514  0.00  0.00     0.094 H 
ATOM     37  O   LIG d   1       9.550   6.915  -2.127  0.00  0.00    -0.341 OA
ATOM     38  C   LIG d   1      10.131   8.067  -1.514  0.00  0.00     0.113 C 
ATOM     39  C   LIG d   1      11.094   7.625  -0.409  0.00  0.00     0.112 C 
ATOM     40  H   LIG d   1      10.677   8.641  -2.263  0.00  0.00     0.065 H 
ATOM     41  C   LIG d   1      12.162   6.706  -1.012  0.00  0.00     0.114 C 
ATOM     42  H   LIG d   1      11.573   8.501   0.030  0.00  0.00     0.065 H 
ATOM     43  C   LIG d   1      11.474   5.520  -1.692  0.00  0.00     0.134 C 
ATOM     44  H   LIG d   1      12.748   7.261  -1.746  0.00  0.00     0.065 H 
ATOM     45  H   LIG d   1      12.224   4.890  -2.171  0.00  0.00     0.067 H 
BRANCH  38  46
ATOM     46  C   LIG d   1       9.026   8.936  -0.909  0.00  0.00     0.073 C 
ATOM     47  H   LIG d   1       9.317   9.248   0.094  0.00  0.00     0.058 H 
ATOM     48  H   LIG d   1       8.874   9.817  -1.534  0.00  0.00     0.058 H 
BRANCH  46  49
ATOM     49  O   LIG d   1       7.813   8.185  -0.843  0.00  0.00    -0.392 OA
ATOM     50  H   LIG d   1       7.570   7.754  -1.673  0.00  0.00     0.209 HD
ENDBRANCH  46  49
ENDBRANCH  38  46
BRANCH  39  51
ATOM     51  O   LIG d   1      10.372   6.918   0.601  0.00  0.00    -0.387 OA
ATOM     52  H   LIG d   1      10.158   6.004   0.365  0.00  0.00     0.210 HD
ENDBRANCH  39  51
BRANCH  41  53
ATOM     53  O   LIG d   1      13.025   6.230   0.024  0.00  0.00    -0.386 OA
ATOM     54  H   LIG d   1      13.270   5.300  -0.066  0.00  0.00     0.210 HD
ENDBRANCH  41  53
BRANCH  43  55
ATOM     55  O   LIG d   1      10.762   4.756  -0.718  0.00  0.00    -0.384 OA
ATOM     56  H   LIG d   1      10.377   3.939  -1.063  0.00  0.00     0.210 HD
ENDBRANCH  43  55
ENDBRANCH  34  35
ENDBRANCH   1  34
TORSDOF 18
ENDMDL
MODEL 5
REMARK VINA RESULT:      -5.1      2.956      6.340
REMARK  18 active torsions:
REMARK  status: ('A' for Active; 'I' for Inactive)
REMARK    1  A    between atoms: C_1  and  C_2 
REMARK    2  A    between atoms: C_3  and  C_4 
REMARK    3  A    between atoms: C_5  and  C_6 
REMARK    4  A    between atoms: C_7  and  C_8 
REMARK    5  A    between atoms: C_8  and  C_10 
REMARK    6  A    between atoms: C_8  and  O_35 
REMARK    7  A    between atoms: C_10  and  C_12 
REMARK    8  A    between atoms: C_10  and  O_18 
REMARK    9  A    between atoms: C_13  and  C_14 
REMARK   10  A    between atoms: C_14  and  C_15 
REMARK   11  A    between atoms: C_15  and  C_16 
REMARK   12  A    between atoms: C_16  and  O_17 
REMARK   13  A    between atoms: O_18  and  C_19 
REMARK   14  A    between atoms: C_21  and  O_34 
REMARK   15  A    between atoms: C_23  and  O_33 
REMARK   16  A    between atoms: C_25  and  O_32 
REMARK   17  A    between atoms: C_27  and  C_30 
REMARK   18  A    between atoms: C_30  and  O_31 
ROOT
ATOM      1  C   LIG d   1       6.567  -0.478  -4.427  0.00  0.00     0.117 C 
ATOM      2  H   LIG d   1       5.521  -0.730  -4.603  0.00  0.00     0.068 H 
ENDROOT
BRANCH   1   3
ATOM      3  C   LIG d   1       7.301  -1.706  -3.884  0.00  0.00     0.146 C 
ATOM      4  H   LIG d   1       7.205  -1.736  -2.799  0.00  0.00     0.076 H 
BRANCH   3   5
ATOM      5  C   LIG d   1       6.714  -2.924  -4.463  0.00  0.00    -0.054 C 
ATOM      6  C   LIG d   1       6.246  -3.897  -4.925  0.00  0.00    -0.012 C 
BRANCH   6   7
ATOM      7  C   LIG d   1       5.697  -5.037  -5.467  0.00  0.00    -0.010 C 
ATOM      8  C   LIG d   1       5.228  -6.009  -5.931  0.00  0.00    -0.061 C 
BRANCH   8   9
ATOM      9  C   LIG d   1       4.657  -7.195  -6.496  0.00  0.00    -0.015 C 
ATOM     10  C   LIG d   1       4.984  -8.390  -6.006  0.00  0.00    -0.079 C 
ATOM     11  H   LIG d   1       4.553  -9.284  -6.431  0.00  0.00     0.058 H 
ATOM     12  H   LIG d   1       3.961  -7.120  -7.318  0.00  0.00     0.071 H 
BRANCH  10  13
ATOM     13  C   LIG d   1       5.955  -8.495  -4.858  0.00  0.00    -0.046 C 
ATOM     14  H   LIG d   1       6.778  -9.150  -5.137  0.00  0.00     0.027 H 
ATOM     15  H   LIG d   1       6.343  -7.505  -4.619  0.00  0.00     0.027 H 
ATOM     16  H   LIG d   1       5.444  -8.904  -3.986  0.00  0.00     0.027 H 
ENDBRANCH  10  13
ENDBRANCH   8   9
ENDBRANCH   6   7
ENDBRANCH   3   5
BRANCH   3  17
ATOM     17  O   LIG d   1       8.684  -1.629  -4.238  0.00  0.00    -0.376 OA
ATOM     18  H   LIG d   1       9.244  -1.242  -3.551  0.00  0.00     0.211 HD
ENDBRANCH   3  17
ENDBRANCH   1   3
BRANCH   1  19
ATOM     19  C   LIG d   1       6.652   0.643  -3.423  0.00  0.00    -0.056 C 
ATOM     20  C   LIG d   1       5.571   1.057  -2.810  0.00  0.00    -0.085 C 
ATOM     21  H   LIG d   1       5.597   1.962  -2.221  0.00  0.00     0.057 H 
ATOM     22  H   LIG d   1       7.605   1.105  -3.209  0.00  0.00     0.060 H 
BRANCH  20  23
ATOM     23  C   LIG d   1       4.290   0.271  -2.928  0.00  0.00    -0.033 C 
ATOM     24  H   LIG d   1       3.440   0.940  -2.797  0.00  0.00     0.031 H 
ATOM     25  H   LIG d   1       4.238  -0.194  -3.913  0.00  0.00     0.031 H 
BRANCH  23  26
ATOM     26  C   LIG d   1       4.256  -0.814  -1.850  0.00  0.00    -0.026 C 
ATOM     27  H   LIG d   1       5.256  -0.945  -1.436  0.00  0.00     0.029 H 
ATOM     28  H   LIG d   1       3.571  -0.516  -1.056  0.00  0.00     0.029 H 
BRANCH  26  29
ATOM     29  C   LIG d   1       3.782  -2.130  -2.466  0.00  0.00     0.044 C 
ATOM     30  H   LIG d   1       4.604  -2.846  -2.474  0.00  0.00     0.056 H 
ATOM     31  H   LIG d   1       2.957  -2.532  -1.876  0.00  0.00     0.056 H 
BRANCH  29  32
ATOM     32  O   LIG d   1       3.340  -1.898  -3.806  0.00  0.00    -0.395 OA
ATOM     33  H   LIG d   1       3.653  -1.065  -4.184  0.00  0.00     0.209 HD
ENDBRANCH  29  32
ENDBRANCH  26  29
ENDBRANCH  23  26
ENDBRANCH  20  23
ENDBRANCH   1  19
BRANCH   1  34
ATOM     34  O   LIG d   1       7.172  -0.066  -5.654  0.00  0.00    -0.338 OA
BRANCH  34  35
ATOM     35  C   LIG d   1       6.382  -0.345  -6.813  0.00  0.00     0.189 C 
ATOM     36  H   LIG d   1       6.420  -1.413  -7.030  0.00  0.00     0.094 H 
ATOM     37  O   LIG d   1       5.029   0.045  -6.573  0.00  0.00    -0.341 OA
ATOM     38  C   LIG d   1       4.144  -0.215  -7.664  0.00  0.00     0.113 C 
ATOM     39  C   LIG d   1       4.606   0.574  -8.893  0.00  0.00     0.112 C 
ATOM     40  H   LIG d   1       4.152  -1.280  -7.893  0.00  0.00     0.065 H 
ATOM     41  C   LIG d   1       6.048   0.181  -9.229  0.00  0.00     0.114 C 
ATOM     42  H   LIG d   1       3.959   0.342  -9.740  0.00  0.00     0.065 H 
ATOM     43  C   LIG d   1       6.934   0.439  -8.007  0.00  0.00     0.134 C 
ATOM     44  H   LIG d   1       6.086  -0.876  -9.493  0.00  0.00     0.065 H 
ATOM     45  H   LIG d   1       7.951   0.110  -8.219  0.00  0.00     0.067 H 
BRANCH  38  46
ATOM     46  C   LIG d   1       2.726   0.216  -7.286  0.00  0.00     0.073 C 
ATOM     47  H   LIG d   1       2.633   1.296  -7.394  0.00  0.00     0.058 H 
ATOM     48  H   LIG d   1       2.009  -0.279  -7.941  0.00  0.00     0.058 H 
BRANCH  46  49
ATOM     49  O   LIG d   1       2.463  -0.152  -5.930  0.00  0.00    -0.392 OA
ATOM     50  H   LIG d   1       1.905   0.478  -5.453  0.00  0.00     0.209 HD
ENDBRANCH  46  49
ENDBRANCH  38  46
BRANCH  39  51
ATOM     51  O   LIG d   1       4.545   1.974  -8.613  0.00  0.00    -0.387 OA
ATOM     52  H   LIG d   1       3.825   2.225  -8.018  0.00  0.00     0.210 HD
ENDBRANCH  39  51
BRANCH  41  53
ATOM     53  O   LIG d   1       6.514   0.964 -10.331  0.00  0.00    -0.386 OA
ATOM     54  H   LIG d   1       6.907   1.809 -10.074  0.00  0.00     0.210 HD
ENDBRANCH  41  53
BRANCH  43  55
ATOM     55  O   LIG d   1       6.937   1.834  -7.702  0.00  0.00    -0.384 OA
ATOM     56  H   LIG d   1       7.302   2.047  -6.833  0.00  0.00     0.210 HD
ENDBRANCH  43  55
ENDBRANCH  34  35
ENDBRANCH   1  34
TORSDOF 18
ENDMDL
MODEL 6
REMARK VINA RESULT:      -5.1      5.796     10.678
REMARK  18 active torsions:
REMARK  status: ('A' for Active; 'I' for Inactive)
REMARK    1  A    between atoms: C_1  and  C_2 
REMARK    2  A    between atoms: C_3  and  C_4 
REMARK    3  A    between atoms: C_5  and  C_6 
REMARK    4  A    between atoms: C_7  and  C_8 
REMARK    5  A    between atoms: C_8  and  C_10 
REMARK    6  A    between atoms: C_8  and  O_35 
REMARK    7  A    between atoms: C_10  and  C_12 
REMARK    8  A    between atoms: C_10  and  O_18 
REMARK    9  A    between atoms: C_13  and  C_14 
REMARK   10  A    between atoms: C_14  and  C_15 
REMARK   11  A    between atoms: C_15  and  C_16 
REMARK   12  A    between atoms: C_16  and  O_17 
REMARK   13  A    between atoms: O_18  and  C_19 
REMARK   14  A    between atoms: C_21  and  O_34 
REMARK   15  A    between atoms: C_23  and  O_33 
REMARK   16  A    between atoms: C_25  and  O_32 
REMARK   17  A    between atoms: C_27  and  C_30 
REMARK   18  A    between atoms: C_30  and  O_31 
ROOT
ATOM      1  C   LIG d   1      10.337   6.053  -3.411  0.00  0.00     0.117 C 
ATOM      2  H   LIG d   1      11.143   6.697  -3.766  0.00  0.00     0.068 H 
ENDROOT
BRANCH   1   3
ATOM      3  C   LIG d   1      10.902   4.672  -3.073  0.00  0.00     0.146 C 
ATOM      4  H   LIG d   1      11.208   4.650  -2.027  0.00  0.00     0.076 H 
BRANCH   3   5
ATOM      5  C   LIG d   1       9.869   3.649  -3.303  0.00  0.00    -0.054 C 
ATOM      6  C   LIG d   1       9.045   2.833  -3.487  0.00  0.00    -0.012 C 
BRANCH   6   7
ATOM      7  C   LIG d   1       8.079   1.876  -3.703  0.00  0.00    -0.010 C 
ATOM      8  C   LIG d   1       7.255   1.060  -3.887  0.00  0.00    -0.061 C 
BRANCH   8   9
ATOM      9  C   LIG d   1       6.249   0.065  -4.112  0.00  0.00    -0.015 C 
ATOM     10  C   LIG d   1       5.170   0.021  -3.332  0.00  0.00    -0.079 C 
ATOM     11  H   LIG d   1       4.412  -0.729  -3.501  0.00  0.00     0.058 H 
ATOM     12  H   LIG d   1       6.365  -0.647  -4.914  0.00  0.00     0.071 H 
BRANCH  10  13
ATOM     13  C   LIG d   1       5.008   1.016  -2.212  0.00  0.00    -0.046 C 
ATOM     14  H   LIG d   1       4.318   1.801  -2.520  0.00  0.00     0.027 H 
ATOM     15  H   LIG d   1       4.612   0.511  -1.330  0.00  0.00     0.027 H 
ATOM     16  H   LIG d   1       5.976   1.457  -1.973  0.00  0.00     0.027 H 
ENDBRANCH  10  13
ENDBRANCH   8   9
ENDBRANCH   6   7
ENDBRANCH   3   5
BRANCH   3  17
ATOM     17  O   LIG d   1      12.032   4.403  -3.906  0.00  0.00    -0.376 OA
ATOM     18  H   LIG d   1      12.393   3.512  -3.800  0.00  0.00     0.211 HD
ENDBRANCH   3  17
ENDBRANCH   1   3
BRANCH   1  19
ATOM     19  C   LIG d   1       9.290   5.920  -4.486  0.00  0.00    -0.056 C 
ATOM     20  C   LIG d   1       9.498   6.437  -5.672  0.00  0.00    -0.085 C 
ATOM     21  H   LIG d   1       8.691   6.490  -6.387  0.00  0.00     0.057 H 
ATOM     22  H   LIG d   1       8.367   5.398  -4.279  0.00  0.00     0.060 H 
BRANCH  20  23
ATOM     23  C   LIG d   1      10.864   6.958  -6.037  0.00  0.00    -0.033 C 
ATOM     24  H   LIG d   1      11.388   7.272  -5.134  0.00  0.00     0.031 H 
ATOM     25  H   LIG d   1      11.434   6.171  -6.531  0.00  0.00     0.031 H 
BRANCH  23  26
ATOM     26  C   LIG d   1      10.718   8.152  -6.983  0.00  0.00    -0.026 C 
ATOM     27  H   LIG d   1      10.826   9.078  -6.419  0.00  0.00     0.029 H 
ATOM     28  H   LIG d   1      11.490   8.103  -7.751  0.00  0.00     0.029 H 
BRANCH  26  29
ATOM     29  C   LIG d   1       9.339   8.114  -7.643  0.00  0.00     0.044 C 
ATOM     30  H   LIG d   1       9.390   7.525  -8.558  0.00  0.00     0.056 H 
ATOM     31  H   LIG d   1       8.621   7.661  -6.958  0.00  0.00     0.056 H 
BRANCH  29  32
ATOM     32  O   LIG d   1       8.923   9.446  -7.956  0.00  0.00    -0.395 OA
ATOM     33  H   LIG d   1       8.362   9.851  -7.281  0.00  0.00     0.209 HD
ENDBRANCH  29  32
ENDBRANCH  26  29
ENDBRANCH  23  26
ENDBRANCH  20  23
ENDBRANCH   1  19
BRANCH   1  34
ATOM     34  O   LIG d   1       9.750   6.626  -2.241  0.00  0.00    -0.338 OA
BRANCH  34  35
ATOM     35  C   LIG d   1      10.164   7.970  -1.982  0.00  0.00     0.189 C 
ATOM     36  H   LIG d   1      11.231   7.986  -1.760  0.00  0.00     0.094 H 
ATOM     37  O   LIG d   1       9.904   8.779  -3.131  0.00  0.00    -0.341 OA
ATOM     38  C   LIG d   1      10.305  10.142  -2.988  0.00  0.00     0.113 C 
ATOM     39  C   LIG d   1       9.532  10.782  -1.832  0.00  0.00     0.112 C 
ATOM     40  H   LIG d   1      11.374  10.187  -2.779  0.00  0.00     0.065 H 
ATOM     41  C   LIG d   1       9.789   9.980  -0.552  0.00  0.00     0.114 C 
ATOM     42  H   LIG d   1       9.868  11.809  -1.692  0.00  0.00     0.065 H 
ATOM     43  C   LIG d   1       9.384   8.522  -0.786  0.00  0.00     0.134 C 
ATOM     44  H   LIG d   1      10.848  10.030  -0.297  0.00  0.00     0.065 H 
ATOM     45  H   LIG d   1       9.615   7.933   0.102  0.00  0.00     0.067 H 
BRANCH  38  46
ATOM     46  C   LIG d   1      10.006  10.901  -4.283  0.00  0.00     0.073 C 
ATOM     47  H   LIG d   1       9.770  11.939  -4.049  0.00  0.00     0.058 H 
ATOM     48  H   LIG d   1      10.879  10.865  -4.935  0.00  0.00     0.058 H 
BRANCH  46  49
ATOM     49  O   LIG d   1       8.893  10.295  -4.943  0.00  0.00    -0.392 OA
ATOM     50  H   LIG d   1       8.761   9.364  -4.718  0.00  0.00     0.209 HD
ENDBRANCH  46  49
ENDBRANCH  38  46
BRANCH  39  51
ATOM     51  O   LIG d   1       8.134  10.772  -2.128  0.00  0.00    -0.387 OA
ATOM     52  H   LIG d   1       7.581  11.141  -1.425  0.00  0.00     0.210 HD
ENDBRANCH  39  51
BRANCH  41  53
ATOM     53  O   LIG d   1       9.015  10.525   0.519  0.00  0.00    -0.386 OA
ATOM     54  H   LIG d   1       8.387  11.206   0.244  0.00  0.00     0.210 HD
ENDBRANCH  41  53
BRANCH  43  55
ATOM     55  O   LIG d   1       7.983   8.450  -1.054  0.00  0.00    -0.384 OA
ATOM     56  H   LIG d   1       7.670   9.108  -1.690  0.00  0.00     0.210 HD
ENDBRANCH  43  55
ENDBRANCH  34  35
ENDBRANCH   1  34
TORSDOF 18
ENDMDL
MODEL 7
REMARK VINA RESULT:      -5.1      2.854      5.393
REMARK  18 active torsions:
REMARK  status: ('A' for Active; 'I' for Inactive)
REMARK    1  A    between atoms: C_1  and  C_2 
REMARK    2  A    between atoms: C_3  and  C_4 
REMARK    3  A    between atoms: C_5  and  C_6 
REMARK    4  A    between atoms: C_7  and  C_8 
REMARK    5  A    between atoms: C_8  and  C_10 
REMARK    6  A    between atoms: C_8  and  O_35 
REMARK    7  A    between atoms: C_10  and  C_12 
REMARK    8  A    between atoms: C_10  and  O_18 
REMARK    9  A    between atoms: C_13  and  C_14 
REMARK   10  A    between atoms: C_14  and  C_15 
REMARK   11  A    between atoms: C_15  and  C_16 
REMARK   12  A    between atoms: C_16  and  O_17 
REMARK   13  A    between atoms: O_18  and  C_19 
REMARK   14  A    between atoms: C_21  and  O_34 
REMARK   15  A    between atoms: C_23  and  O_33 
REMARK   16  A    between atoms: C_25  and  O_32 
REMARK   17  A    between atoms: C_27  and  C_30 
REMARK   18  A    between atoms: C_30  and  O_31 
ROOT
ATOM      1  C   LIG d   1       6.239  -0.210  -4.117  0.00  0.00     0.117 C 
ATOM      2  H   LIG d   1       5.589  -1.082  -4.194  0.00  0.00     0.068 H 
ENDROOT
BRANCH   1   3
ATOM      3  C   LIG d   1       7.636  -0.654  -3.680  0.00  0.00     0.146 C 
ATOM      4  H   LIG d   1       7.755  -0.480  -2.610  0.00  0.00     0.076 H 
BRANCH   3   5
ATOM      5  C   LIG d   1       7.808  -2.087  -3.966  0.00  0.00    -0.054 C 
ATOM      6  C   LIG d   1       7.946  -3.230  -4.194  0.00  0.00    -0.012 C 
BRANCH   6   7
ATOM      7  C   LIG d   1       8.106  -4.571  -4.463  0.00  0.00    -0.010 C 
ATOM      8  C   LIG d   1       8.244  -5.715  -4.691  0.00  0.00    -0.061 C 
BRANCH   8   9
ATOM      9  C   LIG d   1       8.410  -7.110  -4.970  0.00  0.00    -0.015 C 
ATOM     10  C   LIG d   1       8.850  -7.931  -4.017  0.00  0.00    -0.079 C 
ATOM     11  H   LIG d   1       8.975  -8.983  -4.227  0.00  0.00     0.058 H 
ATOM     12  H   LIG d   1       8.179  -7.495  -5.951  0.00  0.00     0.071 H 
BRANCH  10  13
ATOM     13  C   LIG d   1       9.172  -7.393  -2.647  0.00  0.00    -0.046 C 
ATOM     14  H   LIG d   1      10.208  -7.058  -2.623  0.00  0.00     0.027 H 
ATOM     15  H   LIG d   1       8.513  -6.554  -2.421  0.00  0.00     0.027 H 
ATOM     16  H   LIG d   1       9.027  -8.178  -1.904  0.00  0.00     0.027 H 
ENDBRANCH  10  13
ENDBRANCH   8   9
ENDBRANCH   6   7
ENDBRANCH   3   5
BRANCH   3  17
ATOM     17  O   LIG d   1       8.620   0.096  -4.396  0.00  0.00    -0.376 OA
ATOM     18  H   LIG d   1       9.496   0.085  -3.986  0.00  0.00     0.211 HD
ENDBRANCH   3  17
ENDBRANCH   1   3
BRANCH   1  19
ATOM     19  C   LIG d   1       5.675   0.749  -3.100  0.00  0.00    -0.056 C 
ATOM     20  C   LIG d   1       4.692   0.372  -2.319  0.00  0.00    -0.085 C 
ATOM     21  H   LIG d   1       4.176   1.101  -1.711  0.00  0.00     0.057 H 
ATOM     22  H   LIG d   1       6.080   1.746  -3.015  0.00  0.00     0.060 H 
BRANCH  20  23
ATOM     23  C   LIG d   1       4.280  -1.076  -2.272  0.00  0.00    -0.033 C 
ATOM     24  H   LIG d   1       4.904  -1.655  -2.953  0.00  0.00     0.031 H 
ATOM     25  H   LIG d   1       4.401  -1.456  -1.257  0.00  0.00     0.031 H 
BRANCH  23  26
ATOM     26  C   LIG d   1       2.813  -1.203  -2.691  0.00  0.00    -0.026 C 
ATOM     27  H   LIG d   1       2.623  -2.216  -3.045  0.00  0.00     0.029 H 
ATOM     28  H   LIG d   1       2.172  -0.992  -1.835  0.00  0.00     0.029 H 
BRANCH  26  29
ATOM     29  C   LIG d   1       2.515  -0.206  -3.811  0.00  0.00     0.044 C 
ATOM     30  H   LIG d   1       1.448   0.017  -3.824  0.00  0.00     0.056 H 
ATOM     31  H   LIG d   1       3.076   0.713  -3.638  0.00  0.00     0.056 H 
BRANCH  29  32
ATOM     32  O   LIG d   1       2.899  -0.770  -5.067  0.00  0.00    -0.395 OA
ATOM     33  H   LIG d   1       2.200  -0.757  -5.734  0.00  0.00     0.209 HD
ENDBRANCH  29  32
ENDBRANCH  26  29
ENDBRANCH  23  26
ENDBRANCH  20  23
ENDBRANCH   1  19
BRANCH   1  34
ATOM     34  O   LIG d   1       6.321   0.437  -5.388  0.00  0.00    -0.338 OA
BRANCH  34  35
ATOM     35  C   LIG d   1       6.172  -0.448  -6.501  0.00  0.00     0.189 C 
ATOM     36  H   LIG d   1       7.157  -0.729  -6.876  0.00  0.00     0.094 H 
ATOM     37  O   LIG d   1       5.467  -1.619  -6.088  0.00  0.00    -0.341 OA
ATOM     38  C   LIG d   1       5.285  -2.587  -7.123  0.00  0.00     0.113 C 
ATOM     39  C   LIG d   1       4.461  -1.970  -8.257  0.00  0.00     0.112 C 
ATOM     40  H   LIG d   1       6.257  -2.896  -7.506  0.00  0.00     0.065 H 
ATOM     41  C   LIG d   1       5.178  -0.718  -8.774  0.00  0.00     0.114 C 
ATOM     42  H   LIG d   1       4.359  -2.691  -9.068  0.00  0.00     0.065 H 
ATOM     43  C   LIG d   1       5.385   0.256  -7.610  0.00  0.00     0.134 C 
ATOM     44  H   LIG d   1       6.144  -0.997  -9.193  0.00  0.00     0.065 H 
ATOM     45  H   LIG d   1       5.943   1.125  -7.957  0.00  0.00     0.067 H 
BRANCH  38  46
ATOM     46  C   LIG d   1       4.546  -3.803  -6.561  0.00  0.00     0.073 C 
ATOM     47  H   LIG d   1       3.788  -4.129  -7.273  0.00  0.00     0.058 H 
ATOM     48  H   LIG d   1       5.256  -4.612  -6.390  0.00  0.00     0.058 H 
BRANCH  46  49
ATOM     49  O   LIG d   1       3.920  -3.451  -5.326  0.00  0.00    -0.392 OA
ATOM     50  H   LIG d   1       3.091  -2.964  -5.429  0.00  0.00     0.209 HD
ENDBRANCH  46  49
ENDBRANCH  38  46
BRANCH  39  51
ATOM     51  O   LIG d   1       3.167  -1.612  -7.769  0.00  0.00    -0.387 OA
ATOM     52  H   LIG d   1       2.795  -0.821  -8.185  0.00  0.00     0.210 HD
ENDBRANCH  39  51
BRANCH  41  53
ATOM     53  O   LIG d   1       4.383  -0.093  -9.784  0.00  0.00    -0.386 OA
ATOM     54  H   LIG d   1       3.470   0.076  -9.517  0.00  0.00     0.210 HD
ENDBRANCH  41  53
BRANCH  43  55
ATOM     55  O   LIG d   1       4.116   0.674  -7.103  0.00  0.00    -0.384 OA
ATOM     56  H   LIG d   1       3.937   0.380  -6.200  0.00  0.00     0.210 HD
ENDBRANCH  43  55
ENDBRANCH  34  35
ENDBRANCH   1  34
TORSDOF 18
ENDMDL
MODEL 8
REMARK VINA RESULT:      -5.0      4.154      6.999
REMARK  18 active torsions:
REMARK  status: ('A' for Active; 'I' for Inactive)
REMARK    1  A    between atoms: C_1  and  C_2 
REMARK    2  A    between atoms: C_3  and  C_4 
REMARK    3  A    between atoms: C_5  and  C_6 
REMARK    4  A    between atoms: C_7  and  C_8 
REMARK    5  A    between atoms: C_8  and  C_10 
REMARK    6  A    between atoms: C_8  and  O_35 
REMARK    7  A    between atoms: C_10  and  C_12 
REMARK    8  A    between atoms: C_10  and  O_18 
REMARK    9  A    between atoms: C_13  and  C_14 
REMARK   10  A    between atoms: C_14  and  C_15 
REMARK   11  A    between atoms: C_15  and  C_16 
REMARK   12  A    between atoms: C_16  and  O_17 
REMARK   13  A    between atoms: O_18  and  C_19 
REMARK   14  A    between atoms: C_21  and  O_34 
REMARK   15  A    between atoms: C_23  and  O_33 
REMARK   16  A    between atoms: C_25  and  O_32 
REMARK   17  A    between atoms: C_27  and  C_30 
REMARK   18  A    between atoms: C_30  and  O_31 
ROOT
ATOM      1  C   LIG d   1       2.891  -0.174  -9.686  0.00  0.00     0.117 C 
ATOM      2  H   LIG d   1       2.445   0.125 -10.635  0.00  0.00     0.068 H 
ENDROOT
BRANCH   1   3
ATOM      3  C   LIG d   1       2.715   0.952  -8.666  0.00  0.00     0.146 C 
ATOM      4  H   LIG d   1       1.691   1.326  -8.710  0.00  0.00     0.076 H 
BRANCH   3   5
ATOM      5  C   LIG d   1       2.991   0.440  -7.315  0.00  0.00    -0.054 C 
ATOM      6  C   LIG d   1       3.212   0.031  -6.236  0.00  0.00    -0.012 C 
BRANCH   6   7
ATOM      7  C   LIG d   1       3.471  -0.450  -4.972  0.00  0.00    -0.010 C 
ATOM      8  C   LIG d   1       3.690  -0.859  -3.893  0.00  0.00    -0.061 C 
BRANCH   8   9
ATOM      9  C   LIG d   1       3.958  -1.359  -2.578  0.00  0.00    -0.015 C 
ATOM     10  C   LIG d   1       4.403  -0.534  -1.631  0.00  0.00    -0.079 C 
ATOM     11  H   LIG d   1       4.605  -0.911  -0.638  0.00  0.00     0.058 H 
ATOM     12  H   LIG d   1       3.798  -2.402  -2.355  0.00  0.00     0.071 H 
BRANCH  10  13
ATOM     13  C   LIG d   1       4.625   0.923  -1.942  0.00  0.00    -0.046 C 
ATOM     14  H   LIG d   1       3.666   1.405  -2.131  0.00  0.00     0.027 H 
ATOM     15  H   LIG d   1       5.113   1.406  -1.095  0.00  0.00     0.027 H 
ATOM     16  H   LIG d   1       5.258   1.015  -2.825  0.00  0.00     0.027 H 
ENDBRANCH  10  13
ENDBRANCH   8   9
ENDBRANCH   6   7
ENDBRANCH   3   5
BRANCH   3  17
ATOM     17  O   LIG d   1       3.623   2.015  -8.967  0.00  0.00    -0.376 OA
ATOM     18  H   LIG d   1       4.530   1.850  -8.677  0.00  0.00     0.211 HD
ENDBRANCH   3  17
ENDBRANCH   1   3
BRANCH   1  19
ATOM     19  C   LIG d   1       4.359  -0.449  -9.883  0.00  0.00    -0.056 C 
ATOM     20  C   LIG d   1       4.867  -0.459 -11.090  0.00  0.00    -0.085 C 
ATOM     21  H   LIG d   1       5.874  -0.818 -11.250  0.00  0.00     0.057 H 
ATOM     22  H   LIG d   1       4.992  -0.638  -9.029  0.00  0.00     0.060 H 
BRANCH  20  23
ATOM     23  C   LIG d   1       4.047   0.028 -12.258  0.00  0.00    -0.033 C 
ATOM     24  H   LIG d   1       3.170   0.559 -11.889  0.00  0.00     0.031 H 
ATOM     25  H   LIG d   1       4.649   0.701 -12.869  0.00  0.00     0.031 H 
BRANCH  23  26
ATOM     26  C   LIG d   1       3.603  -1.168 -13.103  0.00  0.00    -0.026 C 
ATOM     27  H   LIG d   1       4.088  -2.072 -12.735  0.00  0.00     0.029 H 
ATOM     28  H   LIG d   1       2.521  -1.281 -13.031  0.00  0.00     0.029 H 
BRANCH  26  29
ATOM     29  C   LIG d   1       3.996  -0.935 -14.562  0.00  0.00     0.044 C 
ATOM     30  H   LIG d   1       4.579  -1.782 -14.922  0.00  0.00     0.056 H 
ATOM     31  H   LIG d   1       3.096  -0.829 -15.169  0.00  0.00     0.056 H 
BRANCH  29  32
ATOM     32  O   LIG d   1       4.778   0.258 -14.661  0.00  0.00    -0.395 OA
ATOM     33  H   LIG d   1       4.531   0.831 -15.399  0.00  0.00     0.209 HD
ENDBRANCH  29  32
ENDBRANCH  26  29
ENDBRANCH  23  26
ENDBRANCH  20  23
ENDBRANCH   1  19
BRANCH   1  34
ATOM     34  O   LIG d   1       2.244  -1.355  -9.207  0.00  0.00    -0.338 OA
BRANCH  34  35
ATOM     35  C   LIG d   1       2.829  -2.570  -9.681  0.00  0.00     0.189 C 
ATOM     36  H   LIG d   1       3.766  -2.347 -10.193  0.00  0.00     0.094 H 
ATOM     37  O   LIG d   1       3.085  -3.439  -8.576  0.00  0.00    -0.341 OA
ATOM     38  C   LIG d   1       3.696  -4.678  -8.937  0.00  0.00     0.113 C 
ATOM     39  C   LIG d   1       2.768  -5.448  -9.880  0.00  0.00     0.112 C 
ATOM     40  H   LIG d   1       4.644  -4.484  -9.439  0.00  0.00     0.065 H 
ATOM     41  C   LIG d   1       2.473  -4.584 -11.110  0.00  0.00     0.114 C 
ATOM     42  H   LIG d   1       3.251  -6.374 -10.193  0.00  0.00     0.065 H 
ATOM     43  C   LIG d   1       1.865  -3.254 -10.654  0.00  0.00     0.134 C 
ATOM     44  H   LIG d   1       3.399  -4.396 -11.654  0.00  0.00     0.065 H 
ATOM     45  H   LIG d   1       1.704  -2.612 -11.519  0.00  0.00     0.067 H 
BRANCH  38  46
ATOM     46  C   LIG d   1       3.947  -5.510  -7.677  0.00  0.00     0.073 C 
ATOM     47  H   LIG d   1       3.788  -6.565  -7.901  0.00  0.00     0.058 H 
ATOM     48  H   LIG d   1       4.973  -5.360  -7.342  0.00  0.00     0.058 H 
BRANCH  46  49
ATOM     49  O   LIG d   1       3.045  -5.099  -6.648  0.00  0.00    -0.392 OA
ATOM     50  H   LIG d   1       3.229  -4.220  -6.291  0.00  0.00     0.209 HD
ENDBRANCH  46  49
ENDBRANCH  38  46
BRANCH  39  51
ATOM     51  O   LIG d   1       1.545  -5.751  -9.205  0.00  0.00    -0.387 OA
ATOM     52  H   LIG d   1       1.307  -6.689  -9.224  0.00  0.00     0.210 HD
ENDBRANCH  39  51
BRANCH  41  53
ATOM     53  O   LIG d   1       1.549  -5.264 -11.964  0.00  0.00    -0.386 OA
ATOM     54  H   LIG d   1       0.963  -5.876 -11.500  0.00  0.00     0.210 HD
ENDBRANCH  41  53
BRANCH  43  55
ATOM     55  O   LIG d   1       0.619  -3.497 -10.000  0.00  0.00    -0.384 OA
ATOM     56  H   LIG d   1       0.269  -2.732  -9.523  0.00  0.00     0.210 HD
ENDBRANCH  43  55
ENDBRANCH  34  35
ENDBRANCH   1  34
TORSDOF 18
ENDMDL
MODEL 9
REMARK VINA RESULT:      -4.8      2.628      7.967
REMARK  18 active torsions:
REMARK  status: ('A' for Active; 'I' for Inactive)
REMARK    1  A    between atoms: C_1  and  C_2 
REMARK    2  A    between atoms: C_3  and  C_4 
REMARK    3  A    between atoms: C_5  and  C_6 
REMARK    4  A    between atoms: C_7  and  C_8 
REMARK    5  A    between atoms: C_8  and  C_10 
REMARK    6  A    between atoms: C_8  and  O_35 
REMARK    7  A    between atoms: C_10  and  C_12 
REMARK    8  A    between atoms: C_10  and  O_18 
REMARK    9  A    between atoms: C_13  and  C_14 
REMARK   10  A    between atoms: C_14  and  C_15 
REMARK   11  A    between atoms: C_15  and  C_16 
REMARK   12  A    between atoms: C_16  and  O_17 
REMARK   13  A    between atoms: O_18  and  C_19 
REMARK   14  A    between atoms: C_21  and  O_34 
REMARK   15  A    between atoms: C_23  and  O_33 
REMARK   16  A    between atoms: C_25  and  O_32 
REMARK   17  A    between atoms: C_27  and  C_30 
REMARK   18  A    between atoms: C_30  and  O_31 
ROOT
ATOM      1  C   LIG d   1       3.854   0.217  -6.490  0.00  0.00     0.117 C 
ATOM      2  H   LIG d   1       4.464   0.940  -5.946  0.00  0.00     0.068 H 
ENDROOT
BRANCH   1   3
ATOM      3  C   LIG d   1       3.638   0.710  -7.921  0.00  0.00     0.146 C 
ATOM      4  H   LIG d   1       4.604   0.891  -8.393  0.00  0.00     0.076 H 
BRANCH   3   5
ATOM      5  C   LIG d   1       2.901  -0.308  -8.686  0.00  0.00    -0.054 C 
ATOM      6  C   LIG d   1       2.313  -1.121  -9.297  0.00  0.00    -0.012 C 
BRANCH   6   7
ATOM      7  C   LIG d   1       1.623  -2.072 -10.014  0.00  0.00    -0.010 C 
ATOM      8  C   LIG d   1       1.034  -2.885 -10.623  0.00  0.00    -0.061 C 
BRANCH   8   9
ATOM      9  C   LIG d   1       0.315  -3.875 -11.368  0.00  0.00    -0.015 C 
ATOM     10  C   LIG d   1      -0.292  -3.541 -12.506  0.00  0.00    -0.079 C 
ATOM     11  H   LIG d   1      -0.834  -4.287 -13.069  0.00  0.00     0.058 H 
ATOM     12  H   LIG d   1       0.267  -4.891 -11.009  0.00  0.00     0.071 H 
BRANCH  10  13
ATOM     13  C   LIG d   1      -0.224  -2.122 -13.009  0.00  0.00    -0.046 C 
ATOM     14  H   LIG d   1      -1.050  -1.548 -12.591  0.00  0.00     0.027 H 
ATOM     15  H   LIG d   1       0.721  -1.673 -12.705  0.00  0.00     0.027 H 
ATOM     16  H   LIG d   1      -0.294  -2.117 -14.097  0.00  0.00     0.027 H 
ENDBRANCH  10  13
ENDBRANCH   8   9
ENDBRANCH   6   7
ENDBRANCH   3   5
BRANCH   3  17
ATOM     17  O   LIG d   1       2.885   1.925  -7.898  0.00  0.00    -0.376 OA
ATOM     18  H   LIG d   1       3.302   2.636  -7.392  0.00  0.00     0.211 HD
ENDBRANCH   3  17
ENDBRANCH   1   3
BRANCH   1  19
ATOM     19  C   LIG d   1       2.521   0.066  -5.803  0.00  0.00    -0.056 C 
ATOM     20  C   LIG d   1       2.400   0.366  -4.534  0.00  0.00    -0.085 C 
ATOM     21  H   LIG d   1       1.499   0.103  -4.000  0.00  0.00     0.057 H 
ATOM     22  H   LIG d   1       1.666  -0.290  -6.357  0.00  0.00     0.060 H 
BRANCH  20  23
ATOM     23  C   LIG d   1       3.520   1.077  -3.818  0.00  0.00    -0.033 C 
ATOM     24  H   LIG d   1       4.478   0.693  -4.168  0.00  0.00     0.031 H 
ATOM     25  H   LIG d   1       3.461   2.146  -4.021  0.00  0.00     0.031 H 
BRANCH  23  26
ATOM     26  C   LIG d   1       3.394   0.838  -2.311  0.00  0.00    -0.026 C 
ATOM     27  H   LIG d   1       3.356   1.797  -1.794  0.00  0.00     0.029 H 
ATOM     28  H   LIG d   1       2.480   0.280  -2.108  0.00  0.00     0.029 H 
BRANCH  26  29
ATOM     29  C   LIG d   1       4.601   0.039  -1.819  0.00  0.00     0.044 C 
ATOM     30  H   LIG d   1       5.152   0.628  -1.086  0.00  0.00     0.056 H 
ATOM     31  H   LIG d   1       4.260  -0.889  -1.359  0.00  0.00     0.056 H 
BRANCH  29  32
ATOM     32  O   LIG d   1       5.455  -0.264  -2.925  0.00  0.00    -0.395 OA
ATOM     33  H   LIG d   1       6.136   0.402  -3.090  0.00  0.00     0.209 HD
ENDBRANCH  29  32
ENDBRANCH  26  29
ENDBRANCH  23  26
ENDBRANCH  20  23
ENDBRANCH   1  19
BRANCH   1  34
ATOM     34  O   LIG d   1       4.522  -1.045  -6.517  0.00  0.00    -0.338 OA
BRANCH  34  35
ATOM     35  C   LIG d   1       5.949  -0.948  -6.520  0.00  0.00     0.189 C 
ATOM     36  H   LIG d   1       6.303  -0.825  -7.544  0.00  0.00     0.094 H 
ATOM     37  O   LIG d   1       6.351   0.178  -5.738  0.00  0.00    -0.341 OA
ATOM     38  C   LIG d   1       7.764   0.384  -5.695  0.00  0.00     0.113 C 
ATOM     39  C   LIG d   1       8.437  -0.838  -5.063  0.00  0.00     0.112 C 
ATOM     40  H   LIG d   1       8.142   0.524  -6.707  0.00  0.00     0.065 H 
ATOM     41  C   LIG d   1       8.072  -2.087  -5.873  0.00  0.00     0.114 C 
ATOM     42  H   LIG d   1       9.519  -0.703  -5.070  0.00  0.00     0.065 H 
ATOM     43  C   LIG d   1       6.548  -2.223  -5.922  0.00  0.00     0.134 C 
ATOM     44  H   LIG d   1       8.464  -1.992  -6.886  0.00  0.00     0.065 H 
ATOM     45  H   LIG d   1       6.279  -3.078  -6.542  0.00  0.00     0.067 H 
BRANCH  38  46
ATOM     46  C   LIG d   1       8.074   1.626  -4.857  0.00  0.00     0.073 C 
ATOM     47  H   LIG d   1       9.006   1.475  -4.313  0.00  0.00     0.058 H 
ATOM     48  H   LIG d   1       8.172   2.491  -5.513  0.00  0.00     0.058 H 
BRANCH  46  49
ATOM     49  O   LIG d   1       7.012   1.851  -3.928  0.00  0.00    -0.392 OA
ATOM     50  H   LIG d   1       6.735   2.775  -3.862  0.00  0.00     0.209 HD
ENDBRANCH  46  49
ENDBRANCH  38  46
BRANCH  39  51
ATOM     51  O   LIG d   1       7.983  -0.993  -3.717  0.00  0.00    -0.387 OA
ATOM     52  H   LIG d   1       7.199  -1.553  -3.629  0.00  0.00     0.210 HD
ENDBRANCH  39  51
BRANCH  41  53
ATOM     53  O   LIG d   1       8.637  -3.244  -5.251  0.00  0.00    -0.386 OA
ATOM     54  H   LIG d   1       8.245  -4.077  -5.542  0.00  0.00     0.210 HD
ENDBRANCH  41  53
BRANCH  43  55
ATOM     55  O   LIG d   1       6.042  -2.415  -4.600  0.00  0.00    -0.384 OA
ATOM     56  H   LIG d   1       6.070  -3.332  -4.297  0.00  0.00     0.210 HD
ENDBRANCH  43  55
ENDBRANCH  34  35
ENDBRANCH   1  34
TORSDOF 18
ENDMDL
MODEL 10
REMARK VINA RESULT:      -4.8      2.299      6.773
REMARK  18 active torsions:
REMARK  status: ('A' for Active; 'I' for Inactive)
REMARK    1  A    between atoms: C_1  and  C_2 
REMARK    2  A    between atoms: C_3  and  C_4 
REMARK    3  A    between atoms: C_5  and  C_6 
REMARK    4  A    between atoms: C_7  and  C_8 
REMARK    5  A    between atoms: C_8  and  C_10 
REMARK    6  A    between atoms: C_8  and  O_35 
REMARK    7  A    between atoms: C_10  and  C_12 
REMARK    8  A    between atoms: C_10  and  O_18 
REMARK    9  A    between atoms: C_13  and  C_14 
REMARK   10  A    between atoms: C_14  and  C_15 
REMARK   11  A    between atoms: C_15  and  C_16 
REMARK   12  A    between atoms: C_16  and  O_17 
REMARK   13  A    between atoms: O_18  and  C_19 
REMARK   14  A    between atoms: C_21  and  O_34 
REMARK   15  A    between atoms: C_23  and  O_33 
REMARK   16  A    between atoms: C_25  and  O_32 
REMARK   17  A    between atoms: C_27  and  C_30 
REMARK   18  A    between atoms: C_30  and  O_31 
ROOT
ATOM      1  C   LIG d   1       5.962  -0.753  -3.682  0.00  0.00     0.117 C 
ATOM      2  H   LIG d   1       5.362   0.040  -4.130  0.00  0.00     0.068 H 
ENDROOT
BRANCH   1   3
ATOM      3  C   LIG d   1       5.893  -2.001  -4.564  0.00  0.00     0.146 C 
ATOM      4  H   LIG d   1       5.420  -2.812  -4.010  0.00  0.00     0.076 H 
BRANCH   3   5
ATOM      5  C   LIG d   1       5.105  -1.707  -5.771  0.00  0.00    -0.054 C 
ATOM      6  C   LIG d   1       4.476  -1.473  -6.735  0.00  0.00    -0.012 C 
BRANCH   6   7
ATOM      7  C   LIG d   1       3.739  -1.197  -7.865  0.00  0.00    -0.010 C 
ATOM      8  C   LIG d   1       3.111  -0.963  -8.829  0.00  0.00    -0.061 C 
BRANCH   8   9
ATOM      9  C   LIG d   1       2.345  -0.676 -10.005  0.00  0.00    -0.015 C 
ATOM     10  C   LIG d   1       2.868   0.074 -10.974  0.00  0.00    -0.079 C 
ATOM     11  H   LIG d   1       2.291   0.291 -11.861  0.00  0.00     0.058 H 
ATOM     12  H   LIG d   1       1.345  -1.069 -10.106  0.00  0.00     0.071 H 
BRANCH  10  13
ATOM     13  C   LIG d   1       4.265   0.623 -10.833  0.00  0.00    -0.046 C 
ATOM     14  H   LIG d   1       4.903   0.194 -11.605  0.00  0.00     0.027 H 
ATOM     15  H   LIG d   1       4.242   1.707 -10.940  0.00  0.00     0.027 H 
ATOM     16  H   LIG d   1       4.660   0.364  -9.850  0.00  0.00     0.027 H 
ENDBRANCH  10  13
ENDBRANCH   8   9
ENDBRANCH   6   7
ENDBRANCH   3   5
BRANCH   3  17
ATOM     17  O   LIG d   1       7.216  -2.390  -4.942  0.00  0.00    -0.376 OA
ATOM     18  H   LIG d   1       7.247  -2.978  -5.709  0.00  0.00     0.211 HD
ENDBRANCH   3  17
ENDBRANCH   1   3
BRANCH   1  19
ATOM     19  C   LIG d   1       5.427  -1.076  -2.311  0.00  0.00    -0.056 C 
ATOM     20  C   LIG d   1       4.374  -0.445  -1.853  0.00  0.00    -0.085 C 
ATOM     21  H   LIG d   1       4.090  -0.550  -0.817  0.00  0.00     0.057 H 
ATOM     22  H   LIG d   1       5.911  -1.827  -1.706  0.00  0.00     0.060 H 
BRANCH  20  23
ATOM     23  C   LIG d   1       3.561   0.430  -2.772  0.00  0.00    -0.033 C 
ATOM     24  H   LIG d   1       3.102   1.234  -2.198  0.00  0.00     0.031 H 
ATOM     25  H   LIG d   1       4.210   0.856  -3.538  0.00  0.00     0.031 H 
BRANCH  23  26
ATOM     26  C   LIG d   1       2.469  -0.408  -3.441  0.00  0.00    -0.026 C 
ATOM     27  H   LIG d   1       2.844  -1.415  -3.620  0.00  0.00     0.029 H 
ATOM     28  H   LIG d   1       1.598  -0.456  -2.787  0.00  0.00     0.029 H 
BRANCH  26  29
ATOM     29  C   LIG d   1       2.074   0.235  -4.771  0.00  0.00     0.044 C 
ATOM     30  H   LIG d   1       2.300  -0.451  -5.587  0.00  0.00     0.056 H 
ATOM     31  H   LIG d   1       1.006   0.455  -4.765  0.00  0.00     0.056 H 
BRANCH  29  32
ATOM     32  O   LIG d   1       2.809   1.448  -4.950  0.00  0.00    -0.395 OA
ATOM     33  H   LIG d   1       2.275   2.249  -4.860  0.00  0.00     0.209 HD
ENDBRANCH  29  32
ENDBRANCH  26  29
ENDBRANCH  23  26
ENDBRANCH  20  23
ENDBRANCH   1  19
BRANCH   1  34
ATOM     34  O   LIG d   1       7.319  -0.320  -3.575  0.00  0.00    -0.338 OA
BRANCH  34  35
ATOM     35  C   LIG d   1       7.574   0.950  -4.180  0.00  0.00     0.189 C 
ATOM     36  H   LIG d   1       6.655   1.537  -4.194  0.00  0.00     0.094 H 
ATOM     37  O   LIG d   1       8.573   1.643  -3.431  0.00  0.00    -0.341 OA
ATOM     38  C   LIG d   1       8.887   2.942  -3.938  0.00  0.00     0.113 C 
ATOM     39  C   LIG d   1       9.433   2.813  -5.363  0.00  0.00     0.112 C 
ATOM     40  H   LIG d   1       7.987   3.555  -3.948  0.00  0.00     0.065 H 
ATOM     41  C   LIG d   1       8.395   2.101  -6.236  0.00  0.00     0.114 C 
ATOM     42  H   LIG d   1       9.631   3.806  -5.769  0.00  0.00     0.065 H 
ATOM     43  C   LIG d   1       8.067   0.741  -5.615  0.00  0.00     0.134 C 
ATOM     44  H   LIG d   1       7.489   2.706  -6.292  0.00  0.00     0.065 H 
ATOM     45  H   LIG d   1       7.289   0.251  -6.200  0.00  0.00     0.067 H 
BRANCH  38  46
ATOM     46  C   LIG d   1       9.942   3.597  -3.045  0.00  0.00     0.073 C 
ATOM     47  H   LIG d   1      10.642   4.160  -3.662  0.00  0.00     0.058 H 
ATOM     48  H   LIG d   1       9.454   4.272  -2.342  0.00  0.00     0.058 H 
BRANCH  46  49
ATOM     49  O   LIG d   1      10.649   2.587  -2.323  0.00  0.00    -0.392 OA
ATOM     50  H   LIG d   1      11.274   2.933  -1.672  0.00  0.00     0.209 HD
ENDBRANCH  46  49
ENDBRANCH  38  46
BRANCH  39  51
ATOM     51  O   LIG d   1      10.643   2.054  -5.345  0.00  0.00    -0.387 OA
ATOM     52  H   LIG d   1      10.514   1.113  -5.159  0.00  0.00     0.210 HD
ENDBRANCH  39  51
BRANCH  41  53
ATOM     53  O   LIG d   1       8.923   1.912  -7.551  0.00  0.00    -0.386 OA
ATOM     54  H   LIG d   1       9.858   1.671  -7.568  0.00  0.00     0.210 HD
ENDBRANCH  41  53
BRANCH  43  55
ATOM     55  O   LIG d   1       9.240  -0.075  -5.603  0.00  0.00    -0.384 OA
ATOM     56  H   LIG d   1       9.103  -0.955  -5.226  0.00  0.00     0.210 HD
ENDBRANCH  43  55
ENDBRANCH  34  35
ENDBRANCH   1  34
TORSDOF 18
ENDMDL
