MODEL 1
REMARK VINA RESULT:      -7.5      0.000      0.000
REMARK  6 active torsions:
REMARK  status: ('A' for Active; 'I' for Inactive)
REMARK    1  A    between atoms: C_1  and  C_2 
REMARK    2  A    between atoms: C_13  and  O_15 
REMARK    3  A    between atoms: O_15  and  C_16 
REMARK    4  A    between atoms: C_16  and  C_18 
REMARK    5  A    between atoms: C_18  and  C_19 
REMARK    6  A    between atoms: C_19  and  C_20 
ROOT
ATOM      1  C   LIG d   1       6.696  -1.246  -5.757  0.00  0.00     0.008 C 
ATOM      2  C   LIG d   1       6.235  -2.640  -5.373  0.00  0.00    -0.044 C 
ATOM      3  C   LIG d   1       7.203  -3.156  -4.297  0.00  0.00    -0.049 C 
ATOM      4  C   LIG d   1       8.647  -3.156  -4.788  0.00  0.00    -0.031 C 
ATOM      5  H   LIG d   1       8.749  -3.884  -5.593  0.00  0.00     0.031 H 
ATOM      6  C   LIG d   1       9.073  -1.776  -5.308  0.00  0.00    -0.034 C 
ATOM      7  H   LIG d   1       9.044  -1.047  -4.497  0.00  0.00     0.031 H 
ATOM      8  C   LIG d   1       8.093  -1.393  -6.417  0.00  0.00    -0.029 C 
ATOM      9  H   LIG d   1       8.069  -2.157  -7.194  0.00  0.00     0.031 H 
ATOM     10  C   LIG d   1       8.296   0.001  -7.024  0.00  0.00    -0.046 C 
ATOM     11  C   LIG d   1       6.898   0.331  -7.614  0.00  0.00    -0.015 C 
ATOM     12  C   LIG d   1       5.877  -0.524  -6.823  0.00  0.00     0.109 C 
ATOM     13  H   LIG d   1       5.397  -1.246  -7.483  0.00  0.00     0.074 H 
ATOM     14  C   LIG d   1      10.493  -1.871  -5.874  0.00  0.00    -0.046 C 
ATOM     15  C   LIG d   1      11.465  -2.201  -4.738  0.00  0.00    -0.031 C 
ATOM     16  C   LIG d   1      10.995  -3.465  -4.042  0.00  0.00    -0.063 C 
ATOM     17  C   LIG d   1      11.894  -4.425  -3.827  0.00  0.00    -0.020 C 
ATOM     18  C   LIG d   1      11.498  -5.661  -3.144  0.00  0.00     0.156 C 
ATOM     19  O   LIG d   1      12.136  -6.686  -3.258  0.00  0.00    -0.293 OA
ATOM     20  C   LIG d   1      10.249  -5.589  -2.287  0.00  0.00     0.010 C 
ATOM     21  C   LIG d   1       9.153  -4.942  -3.132  0.00  0.00    -0.039 C 
ATOM     22  C   LIG d   1       9.571  -3.558  -3.632  0.00  0.00    -0.016 C 
ATOM     23  H   LIG d   1       9.416  -2.851  -2.816  0.00  0.00     0.035 H 
ATOM     24  H   LIG d   1       5.222  -2.599  -4.974  0.00  0.00     0.027 H 
ATOM     25  H   LIG d   1       6.266  -3.293  -6.245  0.00  0.00     0.027 H 
ATOM     26  H   LIG d   1       7.127  -2.518  -3.415  0.00  0.00     0.027 H 
ATOM     27  H   LIG d   1       6.921  -4.172  -4.023  0.00  0.00     0.027 H 
ATOM     28  H   LIG d   1       8.571   0.721  -6.253  0.00  0.00     0.027 H 
ATOM     29  H   LIG d   1       9.050  -0.028  -7.812  0.00  0.00     0.027 H 
ATOM     30  H   LIG d   1       6.678   1.391  -7.484  0.00  0.00     0.030 H 
ATOM     31  H   LIG d   1       6.866   0.069  -8.671  0.00  0.00     0.030 H 
ATOM     32  H   LIG d   1      10.532  -2.660  -6.626  0.00  0.00     0.027 H 
ATOM     33  H   LIG d   1      10.771  -0.920  -6.327  0.00  0.00     0.027 H 
ATOM     34  H   LIG d   1      12.463  -2.358  -5.147  0.00  0.00     0.031 H 
ATOM     35  H   LIG d   1      11.486  -1.377  -4.025  0.00  0.00     0.031 H 
ATOM     36  H   LIG d   1      12.914  -4.293  -4.157  0.00  0.00     0.065 H 
ATOM     37  H   LIG d   1       9.945  -6.592  -1.990  0.00  0.00     0.035 H 
ATOM     38  H   LIG d   1      10.442  -4.982  -1.403  0.00  0.00     0.035 H 
ATOM     39  H   LIG d   1       8.943  -5.579  -3.991  0.00  0.00     0.028 H 
ATOM     40  H   LIG d   1       8.248  -4.851  -2.531  0.00  0.00     0.028 H 
ENDROOT
BRANCH  12  41
ATOM     41  O   LIG d   1       4.897   0.315  -6.209  0.00  0.00    -0.461 OA
BRANCH  41  42
ATOM     42  C   LIG d   1       3.609   0.042  -6.475  0.00  0.00     0.308 C 
ATOM     43  O   LIG d   1       3.326  -0.790  -7.304  0.00  0.00    -0.251 OA
BRANCH  42  44
ATOM     44  C   LIG d   1       2.517   0.774  -5.739  0.00  0.00     0.049 C 
ATOM     45  H   LIG d   1       2.929   1.671  -5.275  0.00  0.00     0.038 H 
ATOM     46  H   LIG d   1       1.731   1.055  -6.440  0.00  0.00     0.038 H 
BRANCH  44  47
ATOM     47  C   LIG d   1       1.933  -0.136  -4.656  0.00  0.00    -0.018 C 
ATOM     48  H   LIG d   1       1.006   0.297  -4.280  0.00  0.00     0.032 H 
ATOM     49  H   LIG d   1       1.728  -1.119  -5.080  0.00  0.00     0.032 H 
BRANCH  47  50
ATOM     50  C   LIG d   1       2.920  -0.271  -3.526  0.00  0.00    -0.047 A 
ATOM     51  C   LIG d   1       3.324  -1.525  -3.108  0.00  0.00    -0.059 A 
ATOM     52  C   LIG d   1       4.234  -1.649  -2.074  0.00  0.00    -0.061 A 
ATOM     53  H   LIG d   1       2.932  -2.408  -3.589  0.00  0.00     0.062 H 
ATOM     54  C   LIG d   1       4.733  -0.518  -1.453  0.00  0.00    -0.062 A 
ATOM     55  H   LIG d   1       4.553  -2.628  -1.749  0.00  0.00     0.062 H 
ATOM     56  C   LIG d   1       4.326   0.736  -1.869  0.00  0.00    -0.061 A 
ATOM     57  H   LIG d   1       5.442  -0.615  -0.644  0.00  0.00     0.062 H 
ATOM     58  C   LIG d   1       3.419   0.859  -2.906  0.00  0.00    -0.059 A 
ATOM     59  H   LIG d   1       4.716   1.618  -1.384  0.00  0.00     0.062 H 
ATOM     60  H   LIG d   1       3.101   1.839  -3.231  0.00  0.00     0.062 H 
ENDBRANCH  47  50
ENDBRANCH  44  47
ENDBRANCH  42  44
ENDBRANCH  41  42
ENDBRANCH  12  41
BRANCH   1  61
ATOM     61  C   LIG d   1       6.802  -0.373  -4.505  0.00  0.00    -0.056 C 
ATOM     62  H   LIG d   1       7.465  -0.851  -3.784  0.00  0.00     0.024 H 
ATOM     63  H   LIG d   1       7.204   0.604  -4.776  0.00  0.00     0.024 H 
ATOM     64  H   LIG d   1       5.813  -0.250  -4.063  0.00  0.00     0.024 H 
ENDBRANCH   1  61
TORSDOF 6
ENDMDL
MODEL 2
REMARK VINA RESULT:      -7.4      3.286      5.289
REMARK  6 active torsions:
REMARK  status: ('A' for Active; 'I' for Inactive)
REMARK    1  A    between atoms: C_1  and  C_2 
REMARK    2  A    between atoms: C_13  and  O_15 
REMARK    3  A    between atoms: O_15  and  C_16 
REMARK    4  A    between atoms: C_16  and  C_18 
REMARK    5  A    between atoms: C_18  and  C_19 
REMARK    6  A    between atoms: C_19  and  C_20 
ROOT
ATOM      1  C   LIG d   1       6.892  -0.757  -5.703  0.00  0.00     0.008 C 
ATOM      2  C   LIG d   1       7.355  -0.569  -4.271  0.00  0.00    -0.044 C 
ATOM      3  C   LIG d   1       7.643   0.929  -4.081  0.00  0.00    -0.049 C 
ATOM      4  C   LIG d   1       8.679   1.437  -5.079  0.00  0.00    -0.031 C 
ATOM      5  H   LIG d   1       9.638   0.963  -4.867  0.00  0.00     0.031 H 
ATOM      6  C   LIG d   1       8.278   1.123  -6.528  0.00  0.00    -0.034 C 
ATOM      7  H   LIG d   1       7.355   1.645  -6.779  0.00  0.00     0.031 H 
ATOM      8  C   LIG d   1       8.088  -0.391  -6.622  0.00  0.00    -0.029 C 
ATOM      9  H   LIG d   1       8.989  -0.915  -6.302  0.00  0.00     0.031 H 
ATOM     10  C   LIG d   1       7.605  -0.911  -7.982  0.00  0.00    -0.046 C 
ATOM     11  C   LIG d   1       6.950  -2.272  -7.621  0.00  0.00    -0.015 C 
ATOM     12  C   LIG d   1       6.543  -2.179  -6.129  0.00  0.00     0.109 C 
ATOM     13  H   LIG d   1       7.109  -2.900  -5.538  0.00  0.00     0.074 H 
ATOM     14  C   LIG d   1       9.403   1.569  -7.465  0.00  0.00    -0.046 C 
ATOM     15  C   LIG d   1       9.540   3.093  -7.397  0.00  0.00    -0.031 C 
ATOM     16  C   LIG d   1       9.748   3.501  -5.950  0.00  0.00    -0.063 C 
ATOM     17  C   LIG d   1      10.746   4.341  -5.681  0.00  0.00    -0.020 C 
ATOM     18  C   LIG d   1      10.983   4.782  -4.302  0.00  0.00     0.156 C 
ATOM     19  O   LIG d   1      12.059   5.213  -3.945  0.00  0.00    -0.293 OA
ATOM     20  C   LIG d   1       9.810   4.670  -3.347  0.00  0.00     0.010 C 
ATOM     21  C   LIG d   1       9.246   3.257  -3.481  0.00  0.00    -0.039 C 
ATOM     22  C   LIG d   1       8.826   2.955  -4.922  0.00  0.00    -0.016 C 
ATOM     23  H   LIG d   1       7.847   3.406  -5.083  0.00  0.00     0.035 H 
ATOM     24  H   LIG d   1       6.572  -0.888  -3.583  0.00  0.00     0.027 H 
ATOM     25  H   LIG d   1       8.262  -1.147  -4.097  0.00  0.00     0.027 H 
ATOM     26  H   LIG d   1       6.717   1.488  -4.214  0.00  0.00     0.027 H 
ATOM     27  H   LIG d   1       8.013   1.094  -3.070  0.00  0.00     0.027 H 
ATOM     28  H   LIG d   1       6.871  -0.231  -8.415  0.00  0.00     0.027 H 
ATOM     29  H   LIG d   1       8.446  -1.056  -8.660  0.00  0.00     0.027 H 
ATOM     30  H   LIG d   1       6.067  -2.437  -8.239  0.00  0.00     0.030 H 
ATOM     31  H   LIG d   1       7.665  -3.082  -7.764  0.00  0.00     0.030 H 
ATOM     32  H   LIG d   1      10.341   1.106  -7.155  0.00  0.00     0.027 H 
ATOM     33  H   LIG d   1       9.169   1.270  -8.486  0.00  0.00     0.027 H 
ATOM     34  H   LIG d   1      10.396   3.409  -7.993  0.00  0.00     0.031 H 
ATOM     35  H   LIG d   1       8.632   3.558  -7.781  0.00  0.00     0.031 H 
ATOM     36  H   LIG d   1      11.383   4.697  -6.478  0.00  0.00     0.065 H 
ATOM     37  H   LIG d   1      10.148   4.838  -2.325  0.00  0.00     0.035 H 
ATOM     38  H   LIG d   1       9.047   5.402  -3.611  0.00  0.00     0.035 H 
ATOM     39  H   LIG d   1      10.006   2.539  -3.177  0.00  0.00     0.028 H 
ATOM     40  H   LIG d   1       8.381   3.156  -2.825  0.00  0.00     0.028 H 
ENDROOT
BRANCH  12  41
ATOM     41  O   LIG d   1       5.140  -2.410  -5.982  0.00  0.00    -0.461 OA
BRANCH  41  42
ATOM     42  C   LIG d   1       4.765  -3.298  -5.047  0.00  0.00     0.308 C 
ATOM     43  O   LIG d   1       4.160  -4.294  -5.367  0.00  0.00    -0.251 OA
BRANCH  42  44
ATOM     44  C   LIG d   1       5.097  -3.052  -3.598  0.00  0.00     0.049 C 
ATOM     45  H   LIG d   1       5.470  -3.973  -3.149  0.00  0.00     0.038 H 
ATOM     46  H   LIG d   1       5.862  -2.278  -3.527  0.00  0.00     0.038 H 
BRANCH  44  47
ATOM     47  C   LIG d   1       3.839  -2.595  -2.856  0.00  0.00    -0.018 C 
ATOM     48  H   LIG d   1       2.957  -2.946  -3.390  0.00  0.00     0.032 H 
ATOM     49  H   LIG d   1       3.842  -3.011  -1.848  0.00  0.00     0.032 H 
BRANCH  47  50
ATOM     50  C   LIG d   1       3.818  -1.091  -2.780  0.00  0.00    -0.047 A 
ATOM     51  C   LIG d   1       4.558  -0.437  -1.813  0.00  0.00    -0.059 A 
ATOM     52  C   LIG d   1       4.542   0.944  -1.747  0.00  0.00    -0.061 A 
ATOM     53  H   LIG d   1       5.151  -1.004  -1.111  0.00  0.00     0.062 H 
ATOM     54  C   LIG d   1       3.779   1.670  -2.642  0.00  0.00    -0.062 A 
ATOM     55  H   LIG d   1       5.124   1.455  -0.993  0.00  0.00     0.062 H 
ATOM     56  C   LIG d   1       3.035   1.016  -3.606  0.00  0.00    -0.061 A 
ATOM     57  H   LIG d   1       3.765   2.749  -2.588  0.00  0.00     0.062 H 
ATOM     58  C   LIG d   1       3.055  -0.365  -3.675  0.00  0.00    -0.059 A 
ATOM     59  H   LIG d   1       2.439   1.584  -4.305  0.00  0.00     0.062 H 
ATOM     60  H   LIG d   1       2.474  -0.876  -4.429  0.00  0.00     0.062 H 
ENDBRANCH  47  50
ENDBRANCH  44  47
ENDBRANCH  42  44
ENDBRANCH  41  42
ENDBRANCH  12  41
BRANCH   1  61
ATOM     61  C   LIG d   1       5.712   0.174  -5.992  0.00  0.00    -0.056 C 
ATOM     62  H   LIG d   1       5.914   1.158  -5.568  0.00  0.00     0.024 H 
ATOM     63  H   LIG d   1       5.575   0.264  -7.070  0.00  0.00     0.024 H 
ATOM     64  H   LIG d   1       4.808  -0.236  -5.543  0.00  0.00     0.024 H 
ENDBRANCH   1  61
TORSDOF 6
ENDMDL
MODEL 3
REMARK VINA RESULT:      -7.2      1.687      2.644
REMARK  6 active torsions:
REMARK  status: ('A' for Active; 'I' for Inactive)
REMARK    1  A    between atoms: C_1  and  C_2 
REMARK    2  A    between atoms: C_13  and  O_15 
REMARK    3  A    between atoms: O_15  and  C_16 
REMARK    4  A    between atoms: C_16  and  C_18 
REMARK    5  A    between atoms: C_18  and  C_19 
REMARK    6  A    between atoms: C_19  and  C_20 
ROOT
ATOM      1  C   LIG d   1       5.666  -2.270  -6.241  0.00  0.00     0.008 C 
ATOM      2  C   LIG d   1       5.904  -1.916  -4.785  0.00  0.00    -0.044 C 
ATOM      3  C   LIG d   1       7.299  -2.446  -4.413  0.00  0.00    -0.049 C 
ATOM      4  C   LIG d   1       7.416  -3.948  -4.654  0.00  0.00    -0.031 C 
ATOM      5  H   LIG d   1       6.752  -4.471  -3.966  0.00  0.00     0.031 H 
ATOM      6  C   LIG d   1       7.039  -4.326  -6.094  0.00  0.00    -0.034 C 
ATOM      7  H   LIG d   1       7.736  -3.866  -6.794  0.00  0.00     0.031 H 
ATOM      8  C   LIG d   1       5.616  -3.819  -6.332  0.00  0.00    -0.029 C 
ATOM      9  H   LIG d   1       4.931  -4.223  -5.588  0.00  0.00     0.031 H 
ATOM     10  C   LIG d   1       5.072  -4.028  -7.750  0.00  0.00    -0.046 C 
ATOM     11  C   LIG d   1       3.964  -2.945  -7.861  0.00  0.00    -0.015 C 
ATOM     12  C   LIG d   1       4.331  -1.840  -6.839  0.00  0.00     0.109 C 
ATOM     13  H   LIG d   1       3.570  -1.778  -6.061  0.00  0.00     0.074 H 
ATOM     14  C   LIG d   1       7.083  -5.850  -6.238  0.00  0.00    -0.046 C 
ATOM     15  C   LIG d   1       8.524  -6.331  -6.050  0.00  0.00    -0.031 C 
ATOM     16  C   LIG d   1       9.039  -5.826  -4.715  0.00  0.00    -0.063 C 
ATOM     17  C   LIG d   1       9.637  -6.702  -3.909  0.00  0.00    -0.020 C 
ATOM     18  C   LIG d   1      10.168  -6.264  -2.614  0.00  0.00     0.156 C 
ATOM     19  O   LIG d   1      10.364  -7.046  -1.707  0.00  0.00    -0.293 OA
ATOM     20  C   LIG d   1      10.460  -4.783  -2.470  0.00  0.00     0.010 C 
ATOM     21  C   LIG d   1       9.221  -4.026  -2.945  0.00  0.00    -0.039 C 
ATOM     22  C   LIG d   1       8.860  -4.389  -4.387  0.00  0.00    -0.016 C 
ATOM     23  H   LIG d   1       9.514  -3.816  -5.046  0.00  0.00     0.035 H 
ATOM     24  H   LIG d   1       5.871  -0.835  -4.655  0.00  0.00     0.027 H 
ATOM     25  H   LIG d   1       5.148  -2.390  -4.160  0.00  0.00     0.027 H 
ATOM     26  H   LIG d   1       8.047  -1.930  -5.015  0.00  0.00     0.027 H 
ATOM     27  H   LIG d   1       7.489  -2.239  -3.360  0.00  0.00     0.027 H 
ATOM     28  H   LIG d   1       5.853  -3.860  -8.492  0.00  0.00     0.027 H 
ATOM     29  H   LIG d   1       4.646  -5.026  -7.856  0.00  0.00     0.027 H 
ATOM     30  H   LIG d   1       3.946  -2.531  -8.869  0.00  0.00     0.030 H 
ATOM     31  H   LIG d   1       2.994  -3.375  -7.615  0.00  0.00     0.030 H 
ATOM     32  H   LIG d   1       6.446  -6.305  -5.479  0.00  0.00     0.027 H 
ATOM     33  H   LIG d   1       6.730  -6.134  -7.229  0.00  0.00     0.027 H 
ATOM     34  H   LIG d   1       8.549  -7.421  -6.063  0.00  0.00     0.031 H 
ATOM     35  H   LIG d   1       9.147  -5.940  -6.854  0.00  0.00     0.031 H 
ATOM     36  H   LIG d   1       9.729  -7.736  -4.209  0.00  0.00     0.065 H 
ATOM     37  H   LIG d   1      10.662  -4.546  -1.425  0.00  0.00     0.035 H 
ATOM     38  H   LIG d   1      11.319  -4.514  -3.084  0.00  0.00     0.035 H 
ATOM     39  H   LIG d   1       8.382  -4.275  -2.297  0.00  0.00     0.028 H 
ATOM     40  H   LIG d   1       9.413  -2.955  -2.879  0.00  0.00     0.028 H 
ENDROOT
BRANCH  12  41
ATOM     41  O   LIG d   1       4.468  -0.579  -7.499  0.00  0.00    -0.461 OA
BRANCH  41  42
ATOM     42  C   LIG d   1       3.569   0.370  -7.191  0.00  0.00     0.308 C 
ATOM     43  O   LIG d   1       3.646   1.463  -7.700  0.00  0.00    -0.251 OA
BRANCH  42  44
ATOM     44  C   LIG d   1       2.466   0.071  -6.209  0.00  0.00     0.049 C 
ATOM     45  H   LIG d   1       1.501   0.157  -6.710  0.00  0.00     0.038 H 
ATOM     46  H   LIG d   1       2.586  -0.942  -5.824  0.00  0.00     0.038 H 
BRANCH  44  47
ATOM     47  C   LIG d   1       2.529   1.069  -5.051  0.00  0.00    -0.018 C 
ATOM     48  H   LIG d   1       3.120   1.934  -5.350  0.00  0.00     0.032 H 
ATOM     49  H   LIG d   1       1.519   1.390  -4.793  0.00  0.00     0.032 H 
BRANCH  47  50
ATOM     50  C   LIG d   1       3.169   0.411  -3.855  0.00  0.00    -0.047 A 
ATOM     51  C   LIG d   1       4.067   1.116  -3.077  0.00  0.00    -0.059 A 
ATOM     52  C   LIG d   1       4.651   0.514  -1.977  0.00  0.00    -0.061 A 
ATOM     53  H   LIG d   1       4.312   2.139  -3.326  0.00  0.00     0.062 H 
ATOM     54  C   LIG d   1       4.342  -0.796  -1.662  0.00  0.00    -0.062 A 
ATOM     55  H   LIG d   1       5.350   1.067  -1.367  0.00  0.00     0.062 H 
ATOM     56  C   LIG d   1       3.446  -1.502  -2.443  0.00  0.00    -0.061 A 
ATOM     57  H   LIG d   1       4.799  -1.266  -0.805  0.00  0.00     0.062 H 
ATOM     58  C   LIG d   1       2.860  -0.899  -3.540  0.00  0.00    -0.059 A 
ATOM     59  H   LIG d   1       3.205  -2.526  -2.196  0.00  0.00     0.062 H 
ATOM     60  H   LIG d   1       2.160  -1.451  -4.150  0.00  0.00     0.062 H 
ENDBRANCH  47  50
ENDBRANCH  44  47
ENDBRANCH  42  44
ENDBRANCH  41  42
ENDBRANCH  12  41
BRANCH   1  61
ATOM     61  C   LIG d   1       6.815  -1.736  -7.099  0.00  0.00    -0.056 C 
ATOM     62  H   LIG d   1       7.684  -2.385  -6.987  0.00  0.00     0.024 H 
ATOM     63  H   LIG d   1       6.508  -1.715  -8.145  0.00  0.00     0.024 H 
ATOM     64  H   LIG d   1       7.071  -0.727  -6.775  0.00  0.00     0.024 H 
ENDBRANCH   1  61
TORSDOF 6
ENDMDL
MODEL 4
REMARK VINA RESULT:      -7.2      1.580      2.433
REMARK  6 active torsions:
REMARK  status: ('A' for Active; 'I' for Inactive)
REMARK    1  A    between atoms: C_1  and  C_2 
REMARK    2  A    between atoms: C_13  and  O_15 
REMARK    3  A    between atoms: O_15  and  C_16 
REMARK    4  A    between atoms: C_16  and  C_18 
REMARK    5  A    between atoms: C_18  and  C_19 
REMARK    6  A    between atoms: C_19  and  C_20 
ROOT
ATOM      1  C   LIG d   1       6.117  -2.870  -5.723  0.00  0.00     0.008 C 
ATOM      2  C   LIG d   1       6.391  -3.898  -6.804  0.00  0.00    -0.044 C 
ATOM      3  C   LIG d   1       6.871  -5.177  -6.100  0.00  0.00    -0.049 C 
ATOM      4  C   LIG d   1       8.105  -4.921  -5.240  0.00  0.00    -0.031 C 
ATOM      5  H   LIG d   1       8.941  -4.658  -5.889  0.00  0.00     0.031 H 
ATOM      6  C   LIG d   1       7.875  -3.782  -4.237  0.00  0.00    -0.034 C 
ATOM      7  H   LIG d   1       7.086  -4.058  -3.535  0.00  0.00     0.031 H 
ATOM      8  C   LIG d   1       7.475  -2.547  -5.044  0.00  0.00    -0.029 C 
ATOM      9  H   LIG d   1       8.230  -2.313  -5.794  0.00  0.00     0.031 H 
ATOM     10  C   LIG d   1       7.120  -1.305  -4.217  0.00  0.00    -0.046 C 
ATOM     11  C   LIG d   1       6.223  -0.487  -5.185  0.00  0.00    -0.015 C 
ATOM     12  C   LIG d   1       5.624  -1.503  -6.189  0.00  0.00     0.109 C 
ATOM     13  H   LIG d   1       5.983  -1.295  -7.197  0.00  0.00     0.074 H 
ATOM     14  C   LIG d   1       9.178  -3.514  -3.479  0.00  0.00    -0.046 C 
ATOM     15  C   LIG d   1       9.530  -4.741  -2.635  0.00  0.00    -0.031 C 
ATOM     16  C   LIG d   1       9.586  -5.958  -3.539  0.00  0.00    -0.063 C 
ATOM     17  C   LIG d   1      10.651  -6.754  -3.442  0.00  0.00    -0.020 C 
ATOM     18  C   LIG d   1      10.749  -7.953  -4.281  0.00  0.00     0.156 C 
ATOM     19  O   LIG d   1      11.815  -8.483  -4.516  0.00  0.00    -0.293 OA
ATOM     20  C   LIG d   1       9.447  -8.495  -4.840  0.00  0.00     0.010 C 
ATOM     21  C   LIG d   1       8.702  -7.324  -5.478  0.00  0.00    -0.039 C 
ATOM     22  C   LIG d   1       8.455  -6.200  -4.469  0.00  0.00    -0.016 C 
ATOM     23  H   LIG d   1       7.588  -6.478  -3.870  0.00  0.00     0.035 H 
ATOM     24  H   LIG d   1       5.478  -4.101  -7.364  0.00  0.00     0.027 H 
ATOM     25  H   LIG d   1       7.166  -3.531  -7.477  0.00  0.00     0.027 H 
ATOM     26  H   LIG d   1       6.068  -5.556  -5.467  0.00  0.00     0.027 H 
ATOM     27  H   LIG d   1       7.111  -5.928  -6.852  0.00  0.00     0.027 H 
ATOM     28  H   LIG d   1       6.568  -1.585  -3.320  0.00  0.00     0.027 H 
ATOM     29  H   LIG d   1       8.019  -0.745  -3.958  0.00  0.00     0.027 H 
ATOM     30  H   LIG d   1       5.424   0.004  -4.628  0.00  0.00     0.030 H 
ATOM     31  H   LIG d   1       6.821   0.254  -5.714  0.00  0.00     0.030 H 
ATOM     32  H   LIG d   1       9.980  -3.320  -4.192  0.00  0.00     0.027 H 
ATOM     33  H   LIG d   1       9.051  -2.648  -2.829  0.00  0.00     0.027 H 
ATOM     34  H   LIG d   1      10.501  -4.592  -2.162  0.00  0.00     0.031 H 
ATOM     35  H   LIG d   1       8.769  -4.889  -1.869  0.00  0.00     0.031 H 
ATOM     36  H   LIG d   1      11.441  -6.516  -2.746  0.00  0.00     0.065 H 
ATOM     37  H   LIG d   1       9.655  -9.256  -5.592  0.00  0.00     0.035 H 
ATOM     38  H   LIG d   1       8.849  -8.922  -4.035  0.00  0.00     0.035 H 
ATOM     39  H   LIG d   1       9.293  -6.934  -6.305  0.00  0.00     0.028 H 
ATOM     40  H   LIG d   1       7.746  -7.679  -5.864  0.00  0.00     0.028 H 
ENDROOT
BRANCH  12  41
ATOM     41  O   LIG d   1       4.195  -1.454  -6.152  0.00  0.00    -0.461 OA
BRANCH  41  42
ATOM     42  C   LIG d   1       3.604  -0.445  -6.811  0.00  0.00     0.308 C 
ATOM     43  O   LIG d   1       3.742  -0.340  -8.007  0.00  0.00    -0.251 OA
BRANCH  42  44
ATOM     44  C   LIG d   1       2.767   0.557  -6.058  0.00  0.00     0.049 C 
ATOM     45  H   LIG d   1       3.401   1.377  -5.717  0.00  0.00     0.038 H 
ATOM     46  H   LIG d   1       1.990   0.948  -6.715  0.00  0.00     0.038 H 
BRANCH  44  47
ATOM     47  C   LIG d   1       2.120  -0.123  -4.850  0.00  0.00    -0.018 C 
ATOM     48  H   LIG d   1       1.161   0.349  -4.640  0.00  0.00     0.032 H 
ATOM     49  H   LIG d   1       1.965  -1.180  -5.069  0.00  0.00     0.032 H 
BRANCH  47  50
ATOM     50  C   LIG d   1       3.023   0.016  -3.652  0.00  0.00    -0.047 A 
ATOM     51  C   LIG d   1       3.500   1.260  -3.287  0.00  0.00    -0.059 A 
ATOM     52  C   LIG d   1       4.325   1.389  -2.184  0.00  0.00    -0.061 A 
ATOM     53  H   LIG d   1       3.227   2.134  -3.861  0.00  0.00     0.062 H 
ATOM     54  C   LIG d   1       4.679   0.270  -1.452  0.00  0.00    -0.062 A 
ATOM     55  H   LIG d   1       4.695   2.362  -1.897  0.00  0.00     0.062 H 
ATOM     56  C   LIG d   1       4.205  -0.975  -1.820  0.00  0.00    -0.061 A 
ATOM     57  H   LIG d   1       5.325   0.370  -0.593  0.00  0.00     0.062 H 
ATOM     58  C   LIG d   1       3.377  -1.102  -2.920  0.00  0.00    -0.059 A 
ATOM     59  H   LIG d   1       4.482  -1.848  -1.248  0.00  0.00     0.062 H 
ATOM     60  H   LIG d   1       3.007  -2.075  -3.207  0.00  0.00     0.062 H 
ENDBRANCH  47  50
ENDBRANCH  44  47
ENDBRANCH  42  44
ENDBRANCH  41  42
ENDBRANCH  12  41
BRANCH   1  61
ATOM     61  C   LIG d   1       5.145  -3.448  -4.693  0.00  0.00    -0.056 C 
ATOM     62  H   LIG d   1       5.261  -2.918  -3.747  0.00  0.00     0.024 H 
ATOM     63  H   LIG d   1       4.123  -3.332  -5.051  0.00  0.00     0.024 H 
ATOM     64  H   LIG d   1       5.361  -4.506  -4.545  0.00  0.00     0.024 H 
ENDBRANCH   1  61
TORSDOF 6
ENDMDL
MODEL 5
REMARK VINA RESULT:      -7.0      5.767      8.924
REMARK  6 active torsions:
REMARK  status: ('A' for Active; 'I' for Inactive)
REMARK    1  A    between atoms: C_1  and  C_2 
REMARK    2  A    between atoms: C_13  and  O_15 
REMARK    3  A    between atoms: O_15  and  C_16 
REMARK    4  A    between atoms: C_16  and  C_18 
REMARK    5  A    between atoms: C_18  and  C_19 
REMARK    6  A    between atoms: C_19  and  C_20 
ROOT
ATOM      1  C   LIG d   1       2.752  -0.677 -10.212  0.00  0.00     0.008 C 
ATOM      2  C   LIG d   1       1.357  -1.169  -9.875  0.00  0.00    -0.044 C 
ATOM      3  C   LIG d   1       1.213  -2.574 -10.483  0.00  0.00    -0.049 C 
ATOM      4  C   LIG d   1       1.459  -2.566 -11.989  0.00  0.00    -0.031 C 
ATOM      5  H   LIG d   1       0.668  -1.995 -12.475  0.00  0.00     0.031 H 
ATOM      6  C   LIG d   1       2.816  -1.938 -12.343  0.00  0.00    -0.034 C 
ATOM      7  H   LIG d   1       3.624  -2.536 -11.921  0.00  0.00     0.031 H 
ATOM      8  C   LIG d   1       2.823  -0.526 -11.755  0.00  0.00    -0.029 C 
ATOM      9  H   LIG d   1       1.973   0.050 -12.122  0.00  0.00     0.031 H 
ATOM     10  C   LIG d   1       4.132   0.253 -11.931  0.00  0.00    -0.046 C 
ATOM     11  C   LIG d   1       4.068   1.301 -10.787  0.00  0.00    -0.015 C 
ATOM     12  C   LIG d   1       3.128   0.712  -9.706  0.00  0.00     0.109 C 
ATOM     13  H   LIG d   1       2.236   1.330  -9.602  0.00  0.00     0.074 H 
ATOM     14  C   LIG d   1       2.953  -1.872 -13.866  0.00  0.00    -0.046 C 
ATOM     15  C   LIG d   1       3.000  -3.295 -14.428  0.00  0.00    -0.031 C 
ATOM     16  C   LIG d   1       1.770  -4.049 -13.955  0.00  0.00    -0.063 C 
ATOM     17  C   LIG d   1       1.066  -4.720 -14.866  0.00  0.00    -0.020 C 
ATOM     18  C   LIG d   1      -0.122  -5.479 -14.461  0.00  0.00     0.156 C 
ATOM     19  O   LIG d   1      -0.991  -5.776 -15.254  0.00  0.00    -0.293 OA
ATOM     20  C   LIG d   1      -0.206  -5.874 -12.999  0.00  0.00     0.010 C 
ATOM     21  C   LIG d   1       0.067  -4.618 -12.172  0.00  0.00    -0.039 C 
ATOM     22  C   LIG d   1       1.428  -4.007 -12.511  0.00  0.00    -0.016 C 
ATOM     23  H   LIG d   1       2.188  -4.575 -11.975  0.00  0.00     0.035 H 
ATOM     24  H   LIG d   1       1.232  -1.218  -8.794  0.00  0.00     0.027 H 
ATOM     25  H   LIG d   1       0.614  -0.500 -10.307  0.00  0.00     0.027 H 
ATOM     26  H   LIG d   1       1.934  -3.241 -10.009  0.00  0.00     0.027 H 
ATOM     27  H   LIG d   1       0.207  -2.944 -10.290  0.00  0.00     0.027 H 
ATOM     28  H   LIG d   1       4.992  -0.404 -11.805  0.00  0.00     0.027 H 
ATOM     29  H   LIG d   1       4.159   0.746 -12.903  0.00  0.00     0.027 H 
ATOM     30  H   LIG d   1       5.063   1.461 -10.370  0.00  0.00     0.030 H 
ATOM     31  H   LIG d   1       3.664   2.241 -11.161  0.00  0.00     0.030 H 
ATOM     32  H   LIG d   1       2.097  -1.343 -14.286  0.00  0.00     0.027 H 
ATOM     33  H   LIG d   1       3.872  -1.347 -14.128  0.00  0.00     0.027 H 
ATOM     34  H   LIG d   1       3.008  -3.257 -15.518  0.00  0.00     0.031 H 
ATOM     35  H   LIG d   1       3.898  -3.800 -14.072  0.00  0.00     0.031 H 
ATOM     36  H   LIG d   1       1.370  -4.704 -15.903  0.00  0.00     0.065 H 
ATOM     37  H   LIG d   1      -1.201  -6.256 -12.776  0.00  0.00     0.035 H 
ATOM     38  H   LIG d   1       0.543  -6.634 -12.778  0.00  0.00     0.035 H 
ATOM     39  H   LIG d   1      -0.711  -3.883 -12.374  0.00  0.00     0.028 H 
ATOM     40  H   LIG d   1       0.041  -4.878 -11.113  0.00  0.00     0.028 H 
ENDROOT
BRANCH  12  41
ATOM     41  O   LIG d   1       3.811   0.614  -8.454  0.00  0.00    -0.461 OA
BRANCH  41  42
ATOM     42  C   LIG d   1       3.124   0.972  -7.357  0.00  0.00     0.308 C 
ATOM     43  O   LIG d   1       2.706   2.100  -7.246  0.00  0.00    -0.251 OA
BRANCH  42  44
ATOM     44  C   LIG d   1       2.876  -0.035  -6.263  0.00  0.00     0.049 C 
ATOM     45  H   LIG d   1       2.145  -0.769  -6.603  0.00  0.00     0.038 H 
ATOM     46  H   LIG d   1       3.810  -0.540  -6.015  0.00  0.00     0.038 H 
BRANCH  44  47
ATOM     47  C   LIG d   1       2.338   0.682  -5.022  0.00  0.00    -0.018 C 
ATOM     48  H   LIG d   1       2.461   1.758  -5.144  0.00  0.00     0.032 H 
ATOM     49  H   LIG d   1       1.280   0.449  -4.899  0.00  0.00     0.032 H 
BRANCH  47  50
ATOM     50  C   LIG d   1       3.101   0.222  -3.807  0.00  0.00    -0.047 A 
ATOM     51  C   LIG d   1       3.716   1.149  -2.986  0.00  0.00    -0.059 A 
ATOM     52  C   LIG d   1       4.412   0.727  -1.868  0.00  0.00    -0.061 A 
ATOM     53  H   LIG d   1       3.652   2.202  -3.216  0.00  0.00     0.062 H 
ATOM     54  C   LIG d   1       4.499  -0.621  -1.576  0.00  0.00    -0.062 A 
ATOM     55  H   LIG d   1       4.890   1.451  -1.224  0.00  0.00     0.062 H 
ATOM     56  C   LIG d   1       3.887  -1.548  -2.399  0.00  0.00    -0.061 A 
ATOM     57  H   LIG d   1       5.045  -0.950  -0.704  0.00  0.00     0.062 H 
ATOM     58  C   LIG d   1       3.188  -1.126  -3.515  0.00  0.00    -0.059 A 
ATOM     59  H   LIG d   1       3.956  -2.601  -2.171  0.00  0.00     0.062 H 
ATOM     60  H   LIG d   1       2.710  -1.850  -4.158  0.00  0.00     0.062 H 
ENDBRANCH  47  50
ENDBRANCH  44  47
ENDBRANCH  42  44
ENDBRANCH  41  42
ENDBRANCH  12  41
BRANCH   1  61
ATOM     61  C   LIG d   1       3.790  -1.699  -9.742  0.00  0.00    -0.056 C 
ATOM     62  H   LIG d   1       3.418  -2.706  -9.930  0.00  0.00     0.024 H 
ATOM     63  H   LIG d   1       4.722  -1.547 -10.286  0.00  0.00     0.024 H 
ATOM     64  H   LIG d   1       3.967  -1.570  -8.674  0.00  0.00     0.024 H 
ENDBRANCH   1  61
TORSDOF 6
ENDMDL
MODEL 6
REMARK VINA RESULT:      -6.9      4.187      8.185
REMARK  6 active torsions:
REMARK  status: ('A' for Active; 'I' for Inactive)
REMARK    1  A    between atoms: C_1  and  C_2 
REMARK    2  A    between atoms: C_13  and  O_15 
REMARK    3  A    between atoms: O_15  and  C_16 
REMARK    4  A    between atoms: C_16  and  C_18 
REMARK    5  A    between atoms: C_18  and  C_19 
REMARK    6  A    between atoms: C_19  and  C_20 
ROOT
ATOM      1  C   LIG d   1       5.205  -0.171  -8.495  0.00  0.00     0.008 C 
ATOM      2  C   LIG d   1       6.091  -0.851  -9.521  0.00  0.00    -0.044 C 
ATOM      3  C   LIG d   1       5.421  -0.665 -10.892  0.00  0.00    -0.049 C 
ATOM      4  C   LIG d   1       4.004  -1.229 -10.910  0.00  0.00    -0.031 C 
ATOM      5  H   LIG d   1       4.052  -2.312 -10.794  0.00  0.00     0.031 H 
ATOM      6  C   LIG d   1       3.142  -0.645  -9.782  0.00  0.00    -0.034 C 
ATOM      7  H   LIG d   1       3.026   0.431  -9.921  0.00  0.00     0.031 H 
ATOM      8  C   LIG d   1       3.861  -0.947  -8.466  0.00  0.00    -0.029 C 
ATOM      9  H   LIG d   1       4.041  -2.017  -8.360  0.00  0.00     0.031 H 
ATOM     10  C   LIG d   1       3.199  -0.374  -7.207  0.00  0.00    -0.046 C 
ATOM     11  C   LIG d   1       4.377  -0.299  -6.199  0.00  0.00    -0.015 C 
ATOM     12  C   LIG d   1       5.673  -0.224  -7.044  0.00  0.00     0.109 C 
ATOM     13  H   LIG d   1       6.285  -1.111  -6.877  0.00  0.00     0.074 H 
ATOM     14  C   LIG d   1       1.770  -1.324  -9.797  0.00  0.00    -0.046 C 
ATOM     15  C   LIG d   1       1.046  -0.964 -11.097  0.00  0.00    -0.031 C 
ATOM     16  C   LIG d   1       1.931  -1.340 -12.271  0.00  0.00    -0.063 C 
ATOM     17  C   LIG d   1       1.381  -2.041 -13.263  0.00  0.00    -0.020 C 
ATOM     18  C   LIG d   1       2.186  -2.417 -14.429  0.00  0.00     0.156 C 
ATOM     19  O   LIG d   1       1.873  -3.342 -15.149  0.00  0.00    -0.293 OA
ATOM     20  C   LIG d   1       3.428  -1.587 -14.689  0.00  0.00     0.010 C 
ATOM     21  C   LIG d   1       4.203  -1.503 -13.374  0.00  0.00    -0.039 C 
ATOM     22  C   LIG d   1       3.348  -0.900 -12.257  0.00  0.00    -0.016 C 
ATOM     23  H   LIG d   1       3.359   0.183 -12.380  0.00  0.00     0.035 H 
ATOM     24  H   LIG d   1       7.078  -0.388  -9.524  0.00  0.00     0.027 H 
ATOM     25  H   LIG d   1       6.178  -1.912  -9.291  0.00  0.00     0.027 H 
ATOM     26  H   LIG d   1       5.383   0.399 -11.128  0.00  0.00     0.027 H 
ATOM     27  H   LIG d   1       6.016  -1.173 -11.650  0.00  0.00     0.027 H 
ATOM     28  H   LIG d   1       2.794   0.619  -7.403  0.00  0.00     0.027 H 
ATOM     29  H   LIG d   1       2.421  -1.045  -6.842  0.00  0.00     0.027 H 
ATOM     30  H   LIG d   1       4.283   0.593  -5.579  0.00  0.00     0.030 H 
ATOM     31  H   LIG d   1       4.391  -1.190  -5.572  0.00  0.00     0.030 H 
ATOM     32  H   LIG d   1       1.900  -2.406  -9.741  0.00  0.00     0.027 H 
ATOM     33  H   LIG d   1       1.183  -0.982  -8.946  0.00  0.00     0.027 H 
ATOM     34  H   LIG d   1       0.107  -1.515 -11.156  0.00  0.00     0.031 H 
ATOM     35  H   LIG d   1       0.845   0.107 -11.118  0.00  0.00     0.031 H 
ATOM     36  H   LIG d   1       0.342  -2.332 -13.206  0.00  0.00     0.065 H 
ATOM     37  H   LIG d   1       4.042  -2.068 -15.450  0.00  0.00     0.035 H 
ATOM     38  H   LIG d   1       3.144  -0.588 -15.017  0.00  0.00     0.035 H 
ATOM     39  H   LIG d   1       4.514  -2.505 -13.080  0.00  0.00     0.028 H 
ATOM     40  H   LIG d   1       5.090  -0.887 -13.523  0.00  0.00     0.028 H 
ENDROOT
BRANCH  12  41
ATOM     41  O   LIG d   1       6.411   0.956  -6.719  0.00  0.00    -0.461 OA
BRANCH  41  42
ATOM     42  C   LIG d   1       7.691   0.790  -6.349  0.00  0.00     0.308 C 
ATOM     43  O   LIG d   1       8.583   1.063  -7.117  0.00  0.00    -0.251 OA
BRANCH  42  44
ATOM     44  C   LIG d   1       8.015   0.264  -4.974  0.00  0.00     0.049 C 
ATOM     45  H   LIG d   1       7.599  -0.738  -4.861  0.00  0.00     0.038 H 
ATOM     46  H   LIG d   1       9.097   0.225  -4.845  0.00  0.00     0.038 H 
BRANCH  44  47
ATOM     47  C   LIG d   1       7.408   1.189  -3.917  0.00  0.00    -0.018 C 
ATOM     48  H   LIG d   1       8.174   1.460  -3.191  0.00  0.00     0.032 H 
ATOM     49  H   LIG d   1       7.030   2.092  -4.399  0.00  0.00     0.032 H 
BRANCH  47  50
ATOM     50  C   LIG d   1       6.278   0.481  -3.217  0.00  0.00    -0.047 A 
ATOM     51  C   LIG d   1       5.293   1.212  -2.581  0.00  0.00    -0.059 A 
ATOM     52  C   LIG d   1       4.253   0.561  -1.942  0.00  0.00    -0.061 A 
ATOM     53  H   LIG d   1       5.333   2.291  -2.584  0.00  0.00     0.062 H 
ATOM     54  C   LIG d   1       4.204  -0.821  -1.933  0.00  0.00    -0.062 A 
ATOM     55  H   LIG d   1       3.481   1.132  -1.448  0.00  0.00     0.062 H 
ATOM     56  C   LIG d   1       5.192  -1.552  -2.567  0.00  0.00    -0.061 A 
ATOM     57  H   LIG d   1       3.393  -1.328  -1.433  0.00  0.00     0.062 H 
ATOM     58  C   LIG d   1       6.229  -0.901  -3.209  0.00  0.00    -0.059 A 
ATOM     59  H   LIG d   1       5.153  -2.631  -2.560  0.00  0.00     0.062 H 
ATOM     60  H   LIG d   1       7.000  -1.472  -3.703  0.00  0.00     0.062 H 
ENDBRANCH  47  50
ENDBRANCH  44  47
ENDBRANCH  42  44
ENDBRANCH  41  42
ENDBRANCH  12  41
BRANCH   1  61
ATOM     61  C   LIG d   1       4.956   1.282  -8.906  0.00  0.00    -0.056 C 
ATOM     62  H   LIG d   1       5.181   1.403  -9.966  0.00  0.00     0.024 H 
ATOM     63  H   LIG d   1       3.913   1.538  -8.724  0.00  0.00     0.024 H 
ATOM     64  H   LIG d   1       5.600   1.940  -8.321  0.00  0.00     0.024 H 
ENDBRANCH   1  61
TORSDOF 6
ENDMDL
MODEL 7
REMARK VINA RESULT:      -6.7      5.334      8.322
REMARK  6 active torsions:
REMARK  status: ('A' for Active; 'I' for Inactive)
REMARK    1  A    between atoms: C_1  and  C_2 
REMARK    2  A    between atoms: C_13  and  O_15 
REMARK    3  A    between atoms: O_15  and  C_16 
REMARK    4  A    between atoms: C_16  and  C_18 
REMARK    5  A    between atoms: C_18  and  C_19 
REMARK    6  A    between atoms: C_19  and  C_20 
ROOT
ATOM      1  C   LIG d   1       3.740  -0.418 -10.458  0.00  0.00     0.008 C 
ATOM      2  C   LIG d   1       5.148  -0.950 -10.273  0.00  0.00    -0.044 C 
ATOM      3  C   LIG d   1       5.924  -0.636 -11.562  0.00  0.00    -0.049 C 
ATOM      4  C   LIG d   1       5.249  -1.242 -12.790  0.00  0.00    -0.031 C 
ATOM      5  H   LIG d   1       5.297  -2.329 -12.721  0.00  0.00     0.031 H 
ATOM      6  C   LIG d   1       3.779  -0.814 -12.902  0.00  0.00    -0.034 C 
ATOM      7  H   LIG d   1       3.715   0.266 -13.041  0.00  0.00     0.031 H 
ATOM      8  C   LIG d   1       3.089  -1.236 -11.605  0.00  0.00    -0.029 C 
ATOM      9  H   LIG d   1       3.214  -2.305 -11.429  0.00  0.00     0.031 H 
ATOM     10  C   LIG d   1       1.616  -0.829 -11.479  0.00  0.00    -0.046 C 
ATOM     11  C   LIG d   1       1.385  -0.827  -9.943  0.00  0.00    -0.015 C 
ATOM     12  C   LIG d   1       2.775  -0.616  -9.293  0.00  0.00     0.109 C 
ATOM     13  H   LIG d   1       3.058  -1.495  -8.713  0.00  0.00     0.074 H 
ATOM     14  C   LIG d   1       3.139  -1.533 -14.094  0.00  0.00    -0.046 C 
ATOM     15  C   LIG d   1       3.807  -1.055 -15.386  0.00  0.00    -0.031 C 
ATOM     16  C   LIG d   1       5.305  -1.269 -15.272  0.00  0.00    -0.063 C 
ATOM     17  C   LIG d   1       5.924  -1.873 -16.285  0.00  0.00    -0.020 C 
ATOM     18  C   LIG d   1       7.373  -2.091 -16.235  0.00  0.00     0.156 C 
ATOM     19  O   LIG d   1       7.915  -2.941 -16.910  0.00  0.00    -0.293 OA
ATOM     20  C   LIG d   1       8.158  -1.198 -15.294  0.00  0.00     0.010 C 
ATOM     21  C   LIG d   1       7.456  -1.234 -13.938  0.00  0.00    -0.039 C 
ATOM     22  C   LIG d   1       5.996  -0.787 -14.049  0.00  0.00    -0.016 C 
ATOM     23  H   LIG d   1       5.985   0.302 -14.072  0.00  0.00     0.035 H 
ATOM     24  H   LIG d   1       5.623  -0.458  -9.424  0.00  0.00     0.027 H 
ATOM     25  H   LIG d   1       5.119  -2.027 -10.110  0.00  0.00     0.027 H 
ATOM     26  H   LIG d   1       5.983   0.446 -11.687  0.00  0.00     0.027 H 
ATOM     27  H   LIG d   1       6.933  -1.038 -11.477  0.00  0.00     0.027 H 
ATOM     28  H   LIG d   1       1.454   0.166 -11.895  0.00  0.00     0.027 H 
ATOM     29  H   LIG d   1       0.971  -1.561 -11.965  0.00  0.00     0.027 H 
ATOM     30  H   LIG d   1       0.715  -0.012  -9.667  0.00  0.00     0.030 H 
ATOM     31  H   LIG d   1       0.965  -1.781  -9.626  0.00  0.00     0.030 H 
ATOM     32  H   LIG d   1       3.281  -2.609 -13.988  0.00  0.00     0.027 H 
ATOM     33  H   LIG d   1       2.074  -1.306 -14.128  0.00  0.00     0.027 H 
ATOM     34  H   LIG d   1       3.419  -1.626 -16.229  0.00  0.00     0.031 H 
ATOM     35  H   LIG d   1       3.599   0.004 -15.534  0.00  0.00     0.031 H 
ATOM     36  H   LIG d   1       5.357  -2.203 -17.144  0.00  0.00     0.065 H 
ATOM     37  H   LIG d   1       9.177  -1.571 -15.194  0.00  0.00     0.035 H 
ATOM     38  H   LIG d   1       8.172  -0.178 -15.678  0.00  0.00     0.035 H 
ATOM     39  H   LIG d   1       7.485  -2.252 -13.549  0.00  0.00     0.028 H 
ATOM     40  H   LIG d   1       7.983  -0.577 -13.247  0.00  0.00     0.028 H 
ENDROOT
BRANCH  12  41
ATOM     41  O   LIG d   1       2.762   0.544  -8.458  0.00  0.00    -0.461 OA
BRANCH  41  42
ATOM     42  C   LIG d   1       3.295   0.418  -7.232  0.00  0.00     0.308 C 
ATOM     43  O   LIG d   1       4.458   0.687  -7.047  0.00  0.00    -0.251 OA
BRANCH  42  44
ATOM     44  C   LIG d   1       2.440  -0.059  -6.086  0.00  0.00     0.049 C 
ATOM     45  H   LIG d   1       1.413  -0.189  -6.428  0.00  0.00     0.038 H 
ATOM     46  H   LIG d   1       2.824  -1.011  -5.718  0.00  0.00     0.038 H 
BRANCH  44  47
ATOM     47  C   LIG d   1       2.475   0.975  -4.959  0.00  0.00    -0.018 C 
ATOM     48  H   LIG d   1       3.005   1.864  -5.299  0.00  0.00     0.032 H 
ATOM     49  H   LIG d   1       1.455   1.245  -4.682  0.00  0.00     0.032 H 
BRANCH  47  50
ATOM     50  C   LIG d   1       3.184   0.393  -3.764  0.00  0.00    -0.047 A 
ATOM     51  C   LIG d   1       3.843   1.224  -2.879  0.00  0.00    -0.059 A 
ATOM     52  C   LIG d   1       4.490   0.690  -1.779  0.00  0.00    -0.061 A 
ATOM     53  H   LIG d   1       3.852   2.291  -3.044  0.00  0.00     0.062 H 
ATOM     54  C   LIG d   1       4.484  -0.677  -1.571  0.00  0.00    -0.062 A 
ATOM     55  H   LIG d   1       5.003   1.340  -1.085  0.00  0.00     0.062 H 
ATOM     56  C   LIG d   1       3.827  -1.509  -2.459  0.00  0.00    -0.061 A 
ATOM     57  H   LIG d   1       4.991  -1.094  -0.714  0.00  0.00     0.062 H 
ATOM     58  C   LIG d   1       3.177  -0.974  -3.555  0.00  0.00    -0.059 A 
ATOM     59  H   LIG d   1       3.823  -2.576  -2.295  0.00  0.00     0.062 H 
ATOM     60  H   LIG d   1       2.665  -1.624  -4.249  0.00  0.00     0.062 H 
ENDBRANCH  47  50
ENDBRANCH  44  47
ENDBRANCH  42  44
ENDBRANCH  41  42
ENDBRANCH  12  41
BRANCH   1  61
ATOM     61  C   LIG d   1       3.792   1.063 -10.841  0.00  0.00    -0.056 C 
ATOM     62  H   LIG d   1       2.782   1.474 -10.838  0.00  0.00     0.024 H 
ATOM     63  H   LIG d   1       4.407   1.603 -10.122  0.00  0.00     0.024 H 
ATOM     64  H   LIG d   1       4.222   1.164 -11.837  0.00  0.00     0.024 H 
ENDBRANCH   1  61
TORSDOF 6
ENDMDL
MODEL 8
REMARK VINA RESULT:      -6.7      5.505      7.687
REMARK  6 active torsions:
REMARK  status: ('A' for Active; 'I' for Inactive)
REMARK    1  A    between atoms: C_1  and  C_2 
REMARK    2  A    between atoms: C_13  and  O_15 
REMARK    3  A    between atoms: O_15  and  C_16 
REMARK    4  A    between atoms: C_16  and  C_18 
REMARK    5  A    between atoms: C_18  and  C_19 
REMARK    6  A    between atoms: C_19  and  C_20 
ROOT
ATOM      1  C   LIG d   1       9.567   2.290  -5.199  0.00  0.00     0.008 C 
ATOM      2  C   LIG d   1      10.302   2.201  -3.875  0.00  0.00    -0.044 C 
ATOM      3  C   LIG d   1       9.890   3.429  -3.046  0.00  0.00    -0.049 C 
ATOM      4  C   LIG d   1      10.199   4.733  -3.775  0.00  0.00    -0.031 C 
ATOM      5  H   LIG d   1      11.280   4.839  -3.869  0.00  0.00     0.031 H 
ATOM      6  C   LIG d   1       9.571   4.766  -5.176  0.00  0.00    -0.034 C 
ATOM      7  H   LIG d   1       8.484   4.730  -5.098  0.00  0.00     0.031 H 
ATOM      8  C   LIG d   1      10.101   3.549  -5.934  0.00  0.00    -0.029 C 
ATOM      9  H   LIG d   1      11.191   3.547  -5.951  0.00  0.00     0.031 H 
ATOM     10  C   LIG d   1       9.530   3.350  -7.343  0.00  0.00    -0.046 C 
ATOM     11  C   LIG d   1       9.743   1.833  -7.594  0.00  0.00    -0.015 C 
ATOM     12  C   LIG d   1       9.822   1.166  -6.199  0.00  0.00     0.109 C 
ATOM     13  H   LIG d   1      10.811   0.736  -6.040  0.00  0.00     0.074 H 
ATOM     14  C   LIG d   1      10.002   6.053  -5.886  0.00  0.00    -0.046 C 
ATOM     15  C   LIG d   1       9.415   7.256  -5.143  0.00  0.00    -0.031 C 
ATOM     16  C   LIG d   1       9.838   7.188  -3.687  0.00  0.00    -0.063 C 
ATOM     17  C   LIG d   1      10.348   8.289  -3.137  0.00  0.00    -0.020 C 
ATOM     18  C   LIG d   1      10.758   8.283  -1.729  0.00  0.00     0.156 C 
ATOM     19  O   LIG d   1      11.553   9.089  -1.292  0.00  0.00    -0.293 OA
ATOM     20  C   LIG d   1      10.136   7.216  -0.849  0.00  0.00     0.010 C 
ATOM     21  C   LIG d   1      10.296   5.879  -1.570  0.00  0.00    -0.039 C 
ATOM     22  C   LIG d   1       9.651   5.908  -2.957  0.00  0.00    -0.016 C 
ATOM     23  H   LIG d   1       8.580   5.756  -2.827  0.00  0.00     0.035 H 
ATOM     24  H   LIG d   1      10.017   1.288  -3.353  0.00  0.00     0.027 H 
ATOM     25  H   LIG d   1      11.377   2.212  -4.046  0.00  0.00     0.027 H 
ATOM     26  H   LIG d   1       8.819   3.379  -2.845  0.00  0.00     0.027 H 
ATOM     27  H   LIG d   1      10.427   3.415  -2.099  0.00  0.00     0.027 H 
ATOM     28  H   LIG d   1       8.470   3.601  -7.368  0.00  0.00     0.027 H 
ATOM     29  H   LIG d   1      10.085   3.943  -8.071  0.00  0.00     0.027 H 
ATOM     30  H   LIG d   1       8.903   1.425  -8.157  0.00  0.00     0.030 H 
ATOM     31  H   LIG d   1      10.673   1.670  -8.139  0.00  0.00     0.030 H 
ATOM     32  H   LIG d   1      11.090   6.121  -5.887  0.00  0.00     0.027 H 
ATOM     33  H   LIG d   1       9.636   6.045  -6.912  0.00  0.00     0.027 H 
ATOM     34  H   LIG d   1       9.790   8.178  -5.589  0.00  0.00     0.031 H 
ATOM     35  H   LIG d   1       8.328   7.232  -5.210  0.00  0.00     0.031 H 
ATOM     36  H   LIG d   1      10.461   9.186  -3.729  0.00  0.00     0.065 H 
ATOM     37  H   LIG d   1      10.650   7.183   0.112  0.00  0.00     0.035 H 
ATOM     38  H   LIG d   1       9.079   7.432  -0.697  0.00  0.00     0.035 H 
ATOM     39  H   LIG d   1      11.358   5.658  -1.678  0.00  0.00     0.028 H 
ATOM     40  H   LIG d   1       9.831   5.095  -0.972  0.00  0.00     0.028 H 
ENDROOT
BRANCH  12  41
ATOM     41  O   LIG d   1       8.817   0.156  -6.074  0.00  0.00    -0.461 OA
BRANCH  41  42
ATOM     42  C   LIG d   1       9.149  -0.951  -5.390  0.00  0.00     0.308 C 
ATOM     43  O   LIG d   1      10.246  -1.438  -5.523  0.00  0.00    -0.251 OA
BRANCH  42  44
ATOM     44  C   LIG d   1       8.151  -1.585  -4.455  0.00  0.00     0.049 C 
ATOM     45  H   LIG d   1       8.298  -2.665  -4.444  0.00  0.00     0.038 H 
ATOM     46  H   LIG d   1       8.292  -1.188  -3.449  0.00  0.00     0.038 H 
BRANCH  44  47
ATOM     47  C   LIG d   1       6.732  -1.269  -4.933  0.00  0.00    -0.018 C 
ATOM     48  H   LIG d   1       6.766  -0.459  -5.661  0.00  0.00     0.032 H 
ATOM     49  H   LIG d   1       6.301  -2.156  -5.398  0.00  0.00     0.032 H 
BRANCH  47  50
ATOM     50  C   LIG d   1       5.886  -0.855  -3.757  0.00  0.00    -0.047 A 
ATOM     51  C   LIG d   1       5.849   0.470  -3.366  0.00  0.00    -0.059 A 
ATOM     52  C   LIG d   1       5.068   0.851  -2.289  0.00  0.00    -0.061 A 
ATOM     53  H   LIG d   1       6.427   1.208  -3.901  0.00  0.00     0.062 H 
ATOM     54  C   LIG d   1       4.333  -0.095  -1.600  0.00  0.00    -0.062 A 
ATOM     55  H   LIG d   1       5.037   1.887  -1.985  0.00  0.00     0.062 H 
ATOM     56  C   LIG d   1       4.374  -1.421  -1.989  0.00  0.00    -0.061 A 
ATOM     57  H   LIG d   1       3.726   0.202  -0.758  0.00  0.00     0.062 H 
ATOM     58  C   LIG d   1       5.150  -1.801  -3.068  0.00  0.00    -0.059 A 
ATOM     59  H   LIG d   1       3.799  -2.159  -1.450  0.00  0.00     0.062 H 
ATOM     60  H   LIG d   1       5.182  -2.837  -3.372  0.00  0.00     0.062 H 
ENDBRANCH  47  50
ENDBRANCH  44  47
ENDBRANCH  42  44
ENDBRANCH  41  42
ENDBRANCH  12  41
BRANCH   1  61
ATOM     61  C   LIG d   1       8.064   2.432  -4.950  0.00  0.00    -0.056 C 
ATOM     62  H   LIG d   1       7.649   3.164  -5.644  0.00  0.00     0.024 H 
ATOM     63  H   LIG d   1       7.578   1.469  -5.103  0.00  0.00     0.024 H 
ATOM     64  H   LIG d   1       7.896   2.766  -3.927  0.00  0.00     0.024 H 
ENDBRANCH   1  61
TORSDOF 6
ENDMDL
MODEL 9
REMARK VINA RESULT:      -6.7      4.442      8.179
REMARK  6 active torsions:
REMARK  status: ('A' for Active; 'I' for Inactive)
REMARK    1  A    between atoms: C_1  and  C_2 
REMARK    2  A    between atoms: C_13  and  O_15 
REMARK    3  A    between atoms: O_15  and  C_16 
REMARK    4  A    between atoms: C_16  and  C_18 
REMARK    5  A    between atoms: C_18  and  C_19 
REMARK    6  A    between atoms: C_19  and  C_20 
ROOT
ATOM      1  C   LIG d   1       4.306  -2.106  -7.912  0.00  0.00     0.008 C 
ATOM      2  C   LIG d   1       3.996  -3.589  -7.990  0.00  0.00    -0.044 C 
ATOM      3  C   LIG d   1       3.592  -3.891  -9.442  0.00  0.00    -0.049 C 
ATOM      4  C   LIG d   1       2.403  -3.043  -9.886  0.00  0.00    -0.031 C 
ATOM      5  H   LIG d   1       1.524  -3.335  -9.311  0.00  0.00     0.031 H 
ATOM      6  C   LIG d   1       2.661  -1.544  -9.677  0.00  0.00    -0.034 C 
ATOM      7  H   LIG d   1       3.495  -1.219 -10.299  0.00  0.00     0.031 H 
ATOM      8  C   LIG d   1       2.981  -1.347  -8.195  0.00  0.00    -0.029 C 
ATOM      9  H   LIG d   1       2.177  -1.737  -7.570  0.00  0.00     0.031 H 
ATOM     10  C   LIG d   1       3.350   0.084  -7.785  0.00  0.00    -0.046 C 
ATOM     11  C   LIG d   1       4.168  -0.128  -6.482  0.00  0.00    -0.015 C 
ATOM     12  C   LIG d   1       4.735  -1.567  -6.551  0.00  0.00     0.109 C 
ATOM     13  H   LIG d   1       4.313  -2.178  -5.753  0.00  0.00     0.074 H 
ATOM     14  C   LIG d   1       1.397  -0.763 -10.048  0.00  0.00    -0.046 C 
ATOM     15  C   LIG d   1       1.126  -0.929 -11.546  0.00  0.00    -0.031 C 
ATOM     16  C   LIG d   1       1.050  -2.409 -11.869  0.00  0.00    -0.063 C 
ATOM     17  C   LIG d   1       0.014  -2.834 -12.592  0.00  0.00    -0.020 C 
ATOM     18  C   LIG d   1      -0.101  -4.252 -12.948  0.00  0.00     0.156 C 
ATOM     19  O   LIG d   1      -1.164  -4.749 -13.253  0.00  0.00    -0.293 OA
ATOM     20  C   LIG d   1       1.180  -5.063 -12.913  0.00  0.00     0.010 C 
ATOM     21  C   LIG d   1       1.857  -4.790 -11.571  0.00  0.00    -0.039 C 
ATOM     22  C   LIG d   1       2.132  -3.297 -11.374  0.00  0.00    -0.016 C 
ATOM     23  H   LIG d   1       3.039  -3.053 -11.927  0.00  0.00     0.035 H 
ATOM     24  H   LIG d   1       4.880  -4.167  -7.723  0.00  0.00     0.027 H 
ATOM     25  H   LIG d   1       3.174  -3.832  -7.318  0.00  0.00     0.027 H 
ATOM     26  H   LIG d   1       4.439  -3.685 -10.097  0.00  0.00     0.027 H 
ATOM     27  H   LIG d   1       3.328  -4.944  -9.526  0.00  0.00     0.027 H 
ATOM     28  H   LIG d   1       3.961   0.559  -8.552  0.00  0.00     0.027 H 
ATOM     29  H   LIG d   1       2.453   0.671  -7.586  0.00  0.00     0.027 H 
ATOM     30  H   LIG d   1       4.985   0.594  -6.433  0.00  0.00     0.030 H 
ATOM     31  H   LIG d   1       3.522  -0.022  -5.612  0.00  0.00     0.030 H 
ATOM     32  H   LIG d   1       0.551  -1.150  -9.480  0.00  0.00     0.027 H 
ATOM     33  H   LIG d   1       1.539   0.293  -9.818  0.00  0.00     0.027 H 
ATOM     34  H   LIG d   1       0.181  -0.450 -11.800  0.00  0.00     0.031 H 
ATOM     35  H   LIG d   1       1.935  -0.471 -12.116  0.00  0.00     0.031 H 
ATOM     36  H   LIG d   1      -0.741  -2.132 -12.917  0.00  0.00     0.065 H 
ATOM     37  H   LIG d   1       0.949  -6.124 -13.002  0.00  0.00     0.035 H 
ATOM     38  H   LIG d   1       1.835  -4.755 -13.728  0.00  0.00     0.035 H 
ATOM     39  H   LIG d   1       1.208  -5.138 -10.768  0.00  0.00     0.028 H 
ATOM     40  H   LIG d   1       2.798  -5.339 -11.528  0.00  0.00     0.028 H 
ENDROOT
BRANCH  12  41
ATOM     41  O   LIG d   1       6.161  -1.545  -6.456  0.00  0.00    -0.461 OA
BRANCH  41  42
ATOM     42  C   LIG d   1       6.732  -2.456  -5.651  0.00  0.00     0.308 C 
ATOM     43  O   LIG d   1       7.818  -2.909  -5.924  0.00  0.00    -0.251 OA
BRANCH  42  44
ATOM     44  C   LIG d   1       6.017  -2.912  -4.405  0.00  0.00     0.049 C 
ATOM     45  H   LIG d   1       4.940  -2.815  -4.548  0.00  0.00     0.038 H 
ATOM     46  H   LIG d   1       6.265  -3.955  -4.205  0.00  0.00     0.038 H 
BRANCH  44  47
ATOM     47  C   LIG d   1       6.453  -2.047  -3.221  0.00  0.00    -0.018 C 
ATOM     48  H   LIG d   1       6.558  -2.673  -2.335  0.00  0.00     0.032 H 
ATOM     49  H   LIG d   1       7.410  -1.576  -3.448  0.00  0.00     0.032 H 
BRANCH  47  50
ATOM     50  C   LIG d   1       5.416  -0.984  -2.966  0.00  0.00    -0.047 A 
ATOM     51  C   LIG d   1       5.798   0.339  -2.849  0.00  0.00    -0.059 A 
ATOM     52  C   LIG d   1       4.846   1.316  -2.620  0.00  0.00    -0.061 A 
ATOM     53  H   LIG d   1       6.839   0.612  -2.940  0.00  0.00     0.062 H 
ATOM     54  C   LIG d   1       3.513   0.967  -2.499  0.00  0.00    -0.062 A 
ATOM     55  H   LIG d   1       5.143   2.350  -2.533  0.00  0.00     0.062 H 
ATOM     56  C   LIG d   1       3.133  -0.357  -2.611  0.00  0.00    -0.061 A 
ATOM     57  H   LIG d   1       2.771   1.729  -2.318  0.00  0.00     0.062 H 
ATOM     58  C   LIG d   1       4.084  -1.333  -2.845  0.00  0.00    -0.059 A 
ATOM     59  H   LIG d   1       2.092  -0.629  -2.516  0.00  0.00     0.062 H 
ATOM     60  H   LIG d   1       3.786  -2.367  -2.932  0.00  0.00     0.062 H 
ENDBRANCH  47  50
ENDBRANCH  44  47
ENDBRANCH  42  44
ENDBRANCH  41  42
ENDBRANCH  12  41
BRANCH   1  61
ATOM     61  C   LIG d   1       5.350  -1.738  -8.968  0.00  0.00    -0.056 C 
ATOM     62  H   LIG d   1       6.256  -2.321  -8.801  0.00  0.00     0.024 H 
ATOM     63  H   LIG d   1       4.955  -1.954  -9.961  0.00  0.00     0.024 H 
ATOM     64  H   LIG d   1       5.583  -0.676  -8.893  0.00  0.00     0.024 H 
ENDBRANCH   1  61
TORSDOF 6
ENDMDL
MODEL 10
REMARK VINA RESULT:      -6.7      3.869      6.914
REMARK  6 active torsions:
REMARK  status: ('A' for Active; 'I' for Inactive)
REMARK    1  A    between atoms: C_1  and  C_2 
REMARK    2  A    between atoms: C_13  and  O_15 
REMARK    3  A    between atoms: O_15  and  C_16 
REMARK    4  A    between atoms: C_16  and  C_18 
REMARK    5  A    between atoms: C_18  and  C_19 
REMARK    6  A    between atoms: C_19  and  C_20 
ROOT
ATOM      1  C   LIG d   1       7.967   0.868  -6.081  0.00  0.00     0.008 C 
ATOM      2  C   LIG d   1       7.398   1.219  -7.442  0.00  0.00    -0.044 C 
ATOM      3  C   LIG d   1       8.468   2.036  -8.183  0.00  0.00    -0.049 C 
ATOM      4  C   LIG d   1       8.869   3.284  -7.402  0.00  0.00    -0.031 C 
ATOM      5  H   LIG d   1       8.017   3.962  -7.355  0.00  0.00     0.031 H 
ATOM      6  C   LIG d   1       9.315   2.943  -5.972  0.00  0.00    -0.034 C 
ATOM      7  H   LIG d   1      10.209   2.320  -6.000  0.00  0.00     0.031 H 
ATOM      8  C   LIG d   1       8.156   2.200  -5.307  0.00  0.00    -0.029 C 
ATOM      9  H   LIG d   1       7.243   2.795  -5.343  0.00  0.00     0.031 H 
ATOM     10  C   LIG d   1       8.427   1.697  -3.884  0.00  0.00    -0.046 C 
ATOM     11  C   LIG d   1       7.405   0.539  -3.725  0.00  0.00    -0.015 C 
ATOM     12  C   LIG d   1       7.073   0.048  -5.156  0.00  0.00     0.109 C 
ATOM     13  H   LIG d   1       6.023   0.232  -5.385  0.00  0.00     0.074 H 
ATOM     14  C   LIG d   1       9.606   4.243  -5.217  0.00  0.00    -0.046 C 
ATOM     15  C   LIG d   1      10.803   4.943  -5.866  0.00  0.00    -0.031 C 
ATOM     16  C   LIG d   1      10.514   5.143  -7.342  0.00  0.00    -0.063 C 
ATOM     17  C   LIG d   1      10.725   6.353  -7.857  0.00  0.00    -0.020 C 
ATOM     18  C   LIG d   1      10.477   6.598  -9.282  0.00  0.00     0.156 C 
ATOM     19  O   LIG d   1      10.282   7.715  -9.713  0.00  0.00    -0.293 OA
ATOM     20  C   LIG d   1      10.478   5.381 -10.186  0.00  0.00     0.010 C 
ATOM     21  C   LIG d   1       9.566   4.336  -9.546  0.00  0.00    -0.039 C 
ATOM     22  C   LIG d   1      10.024   3.983  -8.129  0.00  0.00    -0.016 C 
ATOM     23  H   LIG d   1      10.846   3.272  -8.215  0.00  0.00     0.035 H 
ATOM     24  H   LIG d   1       7.175   0.308  -7.997  0.00  0.00     0.027 H 
ATOM     25  H   LIG d   1       6.493   1.814  -7.323  0.00  0.00     0.027 H 
ATOM     26  H   LIG d   1       9.350   1.412  -8.334  0.00  0.00     0.027 H 
ATOM     27  H   LIG d   1       8.077   2.336  -9.155  0.00  0.00     0.027 H 
ATOM     28  H   LIG d   1       9.448   1.327  -3.794  0.00  0.00     0.027 H 
ATOM     29  H   LIG d   1       8.235   2.483  -3.154  0.00  0.00     0.027 H 
ATOM     30  H   LIG d   1       7.846  -0.272  -3.144  0.00  0.00     0.030 H 
ATOM     31  H   LIG d   1       6.501   0.901  -3.235  0.00  0.00     0.030 H 
ATOM     32  H   LIG d   1       8.734   4.895  -5.266  0.00  0.00     0.027 H 
ATOM     33  H   LIG d   1       9.836   4.018  -4.176  0.00  0.00     0.027 H 
ATOM     34  H   LIG d   1      10.961   5.911  -5.390  0.00  0.00     0.031 H 
ATOM     35  H   LIG d   1      11.694   4.326  -5.748  0.00  0.00     0.031 H 
ATOM     36  H   LIG d   1      11.078   7.155  -7.225  0.00  0.00     0.065 H 
ATOM     37  H   LIG d   1      10.097   5.651 -11.171  0.00  0.00     0.035 H 
ATOM     38  H   LIG d   1      11.490   4.986 -10.274  0.00  0.00     0.035 H 
ATOM     39  H   LIG d   1       8.551   4.729  -9.501  0.00  0.00     0.028 H 
ATOM     40  H   LIG d   1       9.569   3.436 -10.161  0.00  0.00     0.028 H 
ENDROOT
BRANCH  12  41
ATOM     41  O   LIG d   1       7.372  -1.344  -5.285  0.00  0.00    -0.461 OA
BRANCH  41  42
ATOM     42  C   LIG d   1       6.330  -2.191  -5.299  0.00  0.00     0.308 C 
ATOM     43  O   LIG d   1       5.730  -2.396  -6.327  0.00  0.00    -0.251 OA
BRANCH  42  44
ATOM     44  C   LIG d   1       5.909  -2.886  -4.030  0.00  0.00     0.049 C 
ATOM     45  H   LIG d   1       6.120  -3.953  -4.112  0.00  0.00     0.038 H 
ATOM     46  H   LIG d   1       6.462  -2.471  -3.187  0.00  0.00     0.038 H 
BRANCH  44  47
ATOM     47  C   LIG d   1       4.409  -2.680  -3.808  0.00  0.00    -0.018 C 
ATOM     48  H   LIG d   1       3.880  -2.831  -4.748  0.00  0.00     0.032 H 
ATOM     49  H   LIG d   1       4.050  -3.397  -3.069  0.00  0.00     0.032 H 
BRANCH  47  50
ATOM     50  C   LIG d   1       4.163  -1.279  -3.310  0.00  0.00    -0.047 A 
ATOM     51  C   LIG d   1       4.632  -0.894  -2.069  0.00  0.00    -0.059 A 
ATOM     52  C   LIG d   1       4.410   0.393  -1.614  0.00  0.00    -0.061 A 
ATOM     53  H   LIG d   1       5.175  -1.597  -1.454  0.00  0.00     0.062 H 
ATOM     54  C   LIG d   1       3.711   1.292  -2.398  0.00  0.00    -0.062 A 
ATOM     55  H   LIG d   1       4.780   0.695  -0.645  0.00  0.00     0.062 H 
ATOM     56  C   LIG d   1       3.238   0.905  -3.638  0.00  0.00    -0.061 A 
ATOM     57  H   LIG d   1       3.535   2.296  -2.042  0.00  0.00     0.062 H 
ATOM     58  C   LIG d   1       3.464  -0.380  -4.094  0.00  0.00    -0.059 A 
ATOM     59  H   LIG d   1       2.692   1.607  -4.250  0.00  0.00     0.062 H 
ATOM     60  H   LIG d   1       3.094  -0.682  -5.063  0.00  0.00     0.062 H 
ENDBRANCH  47  50
ENDBRANCH  44  47
ENDBRANCH  42  44
ENDBRANCH  41  42
ENDBRANCH  12  41
BRANCH   1  61
ATOM     61  C   LIG d   1       9.318   0.169  -6.248  0.00  0.00    -0.056 C 
ATOM     62  H   LIG d   1      10.118   0.908  -6.187  0.00  0.00     0.024 H 
ATOM     63  H   LIG d   1       9.445  -0.571  -5.459  0.00  0.00     0.024 H 
ATOM     64  H   LIG d   1       9.353  -0.324  -7.219  0.00  0.00     0.024 H 
ENDBRANCH   1  61
TORSDOF 6
ENDMDL
