MODEL 1
REMARK VINA RESULT:      -4.5      0.000      0.000
REMARK  4 active torsions:
REMARK  status: ('A' for Active; 'I' for Inactive)
REMARK    1  A    between atoms: C_1  and  O_2 
REMARK    2  A    between atoms: O_2  and  C_3 
REMARK    3  A    between atoms: C_3  and  C_4 
REMARK    4  A    between atoms: C_7  and  O_11 
ROOT
ATOM      1  C   LIG d   1       5.036  -2.391  -3.751  0.00  0.00    -0.021 A 
ATOM      2  C   LIG d   1       4.109  -2.211  -2.742  0.00  0.00    -0.053 A 
ATOM      3  C   LIG d   1       4.082  -1.029  -2.029  0.00  0.00    -0.019 A 
ATOM      4  C   LIG d   1       4.994  -0.024  -2.318  0.00  0.00     0.131 A 
ATOM      5  C   LIG d   1       5.929  -0.209  -3.328  0.00  0.00     0.060 A 
ATOM      6  C   LIG d   1       5.947  -1.392  -4.042  0.00  0.00    -0.039 A 
ATOM      7 BR   LIG d   1       7.175   1.156  -3.726  0.00  0.00    -0.046 Br
ATOM      8  H   LIG d   1       3.401  -2.995  -2.514  0.00  0.00     0.062 H 
ATOM      9  H   LIG d   1       3.354  -0.887  -1.244  0.00  0.00     0.065 H 
ATOM     10  H   LIG d   1       6.674  -1.536  -4.828  0.00  0.00     0.063 H 
ENDROOT
BRANCH   1  11
ATOM     11  C   LIG d   1       5.059  -3.680  -4.531  0.00  0.00     0.072 C 
ATOM     12  H   LIG d   1       6.075  -3.882  -4.870  0.00  0.00     0.061 H 
ATOM     13  H   LIG d   1       4.720  -4.497  -3.893  0.00  0.00     0.061 H 
BRANCH  11  14
ATOM     14  O   LIG d   1       4.192  -3.569  -5.662  0.00  0.00    -0.378 OA
BRANCH  14  15
ATOM     15  C   LIG d   1       4.105  -4.759  -6.446  0.00  0.00     0.037 C 
ATOM     16  H   LIG d   1       5.108  -5.105  -6.695  0.00  0.00     0.052 H 
ATOM     17  H   LIG d   1       3.584  -5.531  -5.880  0.00  0.00     0.052 H 
ATOM     18  H   LIG d   1       3.556  -4.550  -7.365  0.00  0.00     0.052 H 
ENDBRANCH  14  15
ENDBRANCH  11  14
ENDBRANCH   1  11
BRANCH   4  19
ATOM     19  O   LIG d   1       4.974   1.138  -1.613  0.00  0.00    -0.506 OA
ATOM     20  H   LIG d   1       5.495   1.113  -0.799  0.00  0.00     0.292 HD
ENDBRANCH   4  19
TORSDOF 4
ENDMDL
MODEL 2
REMARK VINA RESULT:      -4.4      3.458      3.689
REMARK  4 active torsions:
REMARK  status: ('A' for Active; 'I' for Inactive)
REMARK    1  A    between atoms: C_1  and  O_2 
REMARK    2  A    between atoms: O_2  and  C_3 
REMARK    3  A    between atoms: C_3  and  C_4 
REMARK    4  A    between atoms: C_7  and  O_11 
ROOT
ATOM      1  C   LIG d   1       3.369  -0.142  -5.477  0.00  0.00    -0.021 A 
ATOM      2  C   LIG d   1       2.468   0.124  -4.463  0.00  0.00    -0.053 A 
ATOM      3  C   LIG d   1       2.811  -0.128  -3.149  0.00  0.00    -0.019 A 
ATOM      4  C   LIG d   1       4.056  -0.660  -2.847  0.00  0.00     0.131 A 
ATOM      5  C   LIG d   1       4.958  -0.931  -3.868  0.00  0.00     0.060 A 
ATOM      6  C   LIG d   1       4.612  -0.671  -5.180  0.00  0.00    -0.039 A 
ATOM      7 BR   LIG d   1       6.657  -1.655  -3.463  0.00  0.00    -0.046 Br
ATOM      8  H   LIG d   1       1.496   0.533  -4.698  0.00  0.00     0.062 H 
ATOM      9  H   LIG d   1       2.108   0.083  -2.356  0.00  0.00     0.065 H 
ATOM     10  H   LIG d   1       5.312  -0.882  -5.975  0.00  0.00     0.063 H 
ENDROOT
BRANCH   1  11
ATOM     11  C   LIG d   1       2.994   0.140  -6.909  0.00  0.00     0.072 C 
ATOM     12  H   LIG d   1       3.676  -0.389  -7.574  0.00  0.00     0.061 H 
ATOM     13  H   LIG d   1       1.974  -0.198  -7.091  0.00  0.00     0.061 H 
BRANCH  11  14
ATOM     14  O   LIG d   1       3.080   1.545  -7.157  0.00  0.00    -0.378 OA
BRANCH  14  15
ATOM     15  C   LIG d   1       2.868   1.908  -8.522  0.00  0.00     0.037 C 
ATOM     16  H   LIG d   1       2.975   1.027  -9.154  0.00  0.00     0.052 H 
ATOM     17  H   LIG d   1       1.865   2.318  -8.637  0.00  0.00     0.052 H 
ATOM     18  H   LIG d   1       3.602   2.658  -8.817  0.00  0.00     0.052 H 
ENDBRANCH  14  15
ENDBRANCH  11  14
ENDBRANCH   1  11
BRANCH   4  19
ATOM     19  O   LIG d   1       4.394  -0.915  -1.555  0.00  0.00    -0.506 OA
ATOM     20  H   LIG d   1       3.880  -1.625  -1.148  0.00  0.00     0.292 HD
ENDBRANCH   4  19
TORSDOF 4
ENDMDL
MODEL 3
REMARK VINA RESULT:      -4.3      2.687      4.291
REMARK  4 active torsions:
REMARK  status: ('A' for Active; 'I' for Inactive)
REMARK    1  A    between atoms: C_1  and  O_2 
REMARK    2  A    between atoms: O_2  and  C_3 
REMARK    3  A    between atoms: C_3  and  C_4 
REMARK    4  A    between atoms: C_7  and  O_11 
ROOT
ATOM      1  C   LIG d   1       6.153   0.410  -3.301  0.00  0.00    -0.021 A 
ATOM      2  C   LIG d   1       5.258   0.601  -2.265  0.00  0.00    -0.053 A 
ATOM      3  C   LIG d   1       4.363  -0.396  -1.930  0.00  0.00    -0.019 A 
ATOM      4  C   LIG d   1       4.354  -1.587  -2.642  0.00  0.00     0.131 A 
ATOM      5  C   LIG d   1       5.250  -1.775  -3.686  0.00  0.00     0.060 A 
ATOM      6  C   LIG d   1       6.148  -0.776  -4.012  0.00  0.00    -0.039 A 
ATOM      7 BR   LIG d   1       5.243  -3.396  -4.660  0.00  0.00    -0.046 Br
ATOM      8  H   LIG d   1       5.262   1.530  -1.714  0.00  0.00     0.062 H 
ATOM      9  H   LIG d   1       3.667  -0.248  -1.118  0.00  0.00     0.065 H 
ATOM     10  H   LIG d   1       6.845  -0.922  -4.824  0.00  0.00     0.063 H 
ENDROOT
BRANCH   1  11
ATOM     11  C   LIG d   1       7.132   1.497  -3.659  0.00  0.00     0.072 C 
ATOM     12  H   LIG d   1       6.792   2.445  -3.242  0.00  0.00     0.061 H 
ATOM     13  H   LIG d   1       8.113   1.253  -3.251  0.00  0.00     0.061 H 
BRANCH  11  14
ATOM     14  O   LIG d   1       7.223   1.608  -5.081  0.00  0.00    -0.378 OA
BRANCH  14  15
ATOM     15  C   LIG d   1       8.483   2.092  -5.547  0.00  0.00     0.037 C 
ATOM     16  H   LIG d   1       9.053   2.491  -4.708  0.00  0.00     0.052 H 
ATOM     17  H   LIG d   1       9.039   1.275  -6.008  0.00  0.00     0.052 H 
ATOM     18  H   LIG d   1       8.321   2.880  -6.283  0.00  0.00     0.052 H 
ENDBRANCH  14  15
ENDBRANCH  11  14
ENDBRANCH   1  11
BRANCH   4  19
ATOM     19  O   LIG d   1       3.470  -2.568  -2.319  0.00  0.00    -0.506 OA
ATOM     20  H   LIG d   1       2.777  -2.705  -2.979  0.00  0.00     0.292 HD
ENDBRANCH   4  19
TORSDOF 4
ENDMDL
MODEL 4
REMARK VINA RESULT:      -4.1      2.788      3.667
REMARK  4 active torsions:
REMARK  status: ('A' for Active; 'I' for Inactive)
REMARK    1  A    between atoms: C_1  and  O_2 
REMARK    2  A    between atoms: O_2  and  C_3 
REMARK    3  A    between atoms: C_3  and  C_4 
REMARK    4  A    between atoms: C_7  and  O_11 
ROOT
ATOM      1  C   LIG d   1       7.036  -2.610  -3.990  0.00  0.00    -0.021 A 
ATOM      2  C   LIG d   1       6.134  -3.352  -4.728  0.00  0.00    -0.053 A 
ATOM      3  C   LIG d   1       4.784  -3.062  -4.667  0.00  0.00    -0.019 A 
ATOM      4  C   LIG d   1       4.333  -2.032  -3.854  0.00  0.00     0.131 A 
ATOM      5  C   LIG d   1       5.240  -1.291  -3.109  0.00  0.00     0.060 A 
ATOM      6  C   LIG d   1       6.590  -1.582  -3.179  0.00  0.00    -0.039 A 
ATOM      7 BR   LIG d   1       4.632   0.113  -2.000  0.00  0.00    -0.046 Br
ATOM      8  H   LIG d   1       6.484  -4.157  -5.357  0.00  0.00     0.062 H 
ATOM      9  H   LIG d   1       4.080  -3.640  -5.247  0.00  0.00     0.065 H 
ATOM     10  H   LIG d   1       7.297  -1.006  -2.600  0.00  0.00     0.063 H 
ENDROOT
BRANCH   1  11
ATOM     11  C   LIG d   1       8.507  -2.925  -4.064  0.00  0.00     0.072 C 
ATOM     12  H   LIG d   1       8.833  -2.899  -5.104  0.00  0.00     0.061 H 
ATOM     13  H   LIG d   1       9.067  -2.185  -3.490  0.00  0.00     0.061 H 
BRANCH  11  14
ATOM     14  O   LIG d   1       8.745  -4.225  -3.522  0.00  0.00    -0.378 OA
BRANCH  14  15
ATOM     15  C   LIG d   1       9.651  -4.239  -2.418  0.00  0.00     0.037 C 
ATOM     16  H   LIG d   1       9.692  -5.241  -1.992  0.00  0.00     0.052 H 
ATOM     17  H   LIG d   1      10.644  -3.947  -2.758  0.00  0.00     0.052 H 
ATOM     18  H   LIG d   1       9.308  -3.537  -1.657  0.00  0.00     0.052 H 
ENDBRANCH  14  15
ENDBRANCH  11  14
ENDBRANCH   1  11
BRANCH   4  19
ATOM     19  O   LIG d   1       3.005  -1.749  -3.787  0.00  0.00    -0.506 OA
ATOM     20  H   LIG d   1       2.698  -1.142  -4.474  0.00  0.00     0.292 HD
ENDBRANCH   4  19
TORSDOF 4
ENDMDL
MODEL 5
REMARK VINA RESULT:      -4.1      2.848      3.220
REMARK  4 active torsions:
REMARK  status: ('A' for Active; 'I' for Inactive)
REMARK    1  A    between atoms: C_1  and  O_2 
REMARK    2  A    between atoms: O_2  and  C_3 
REMARK    3  A    between atoms: C_3  and  C_4 
REMARK    4  A    between atoms: C_7  and  O_11 
ROOT
ATOM      1  C   LIG d   1       5.607  -1.521  -3.472  0.00  0.00    -0.021 A 
ATOM      2  C   LIG d   1       4.661  -1.635  -2.470  0.00  0.00    -0.053 A 
ATOM      3  C   LIG d   1       3.348  -1.282  -2.714  0.00  0.00    -0.019 A 
ATOM      4  C   LIG d   1       2.980  -0.802  -3.963  0.00  0.00     0.131 A 
ATOM      5  C   LIG d   1       3.932  -0.684  -4.966  0.00  0.00     0.060 A 
ATOM      6  C   LIG d   1       5.243  -1.044  -4.718  0.00  0.00    -0.039 A 
ATOM      7 BR   LIG d   1       3.437  -0.030  -6.670  0.00  0.00    -0.046 Br
ATOM      8  H   LIG d   1       4.948  -2.004  -1.497  0.00  0.00     0.062 H 
ATOM      9  H   LIG d   1       2.609  -1.375  -1.932  0.00  0.00     0.065 H 
ATOM     10  H   LIG d   1       5.985  -0.952  -5.498  0.00  0.00     0.063 H 
ENDROOT
BRANCH   1  11
ATOM     11  C   LIG d   1       7.037  -1.912  -3.204  0.00  0.00     0.072 C 
ATOM     12  H   LIG d   1       7.696  -1.088  -3.478  0.00  0.00     0.061 H 
ATOM     13  H   LIG d   1       7.160  -2.139  -2.145  0.00  0.00     0.061 H 
BRANCH  11  14
ATOM     14  O   LIG d   1       7.369  -3.066  -3.979  0.00  0.00    -0.378 OA
BRANCH  14  15
ATOM     15  C   LIG d   1       8.735  -3.468  -3.867  0.00  0.00     0.037 C 
ATOM     16  H   LIG d   1       9.349  -2.858  -4.530  0.00  0.00     0.052 H 
ATOM     17  H   LIG d   1       9.070  -3.336  -2.839  0.00  0.00     0.052 H 
ATOM     18  H   LIG d   1       8.830  -4.517  -4.148  0.00  0.00     0.052 H 
ENDBRANCH  14  15
ENDBRANCH  11  14
ENDBRANCH   1  11
BRANCH   4  19
ATOM     19  O   LIG d   1       1.690  -0.449  -4.204  0.00  0.00    -0.506 OA
ATOM     20  H   LIG d   1       1.374   0.284  -3.657  0.00  0.00     0.292 HD
ENDBRANCH   4  19
TORSDOF 4
ENDMDL
MODEL 6
REMARK VINA RESULT:      -3.9      2.167      3.025
REMARK  4 active torsions:
REMARK  status: ('A' for Active; 'I' for Inactive)
REMARK    1  A    between atoms: C_1  and  O_2 
REMARK    2  A    between atoms: O_2  and  C_3 
REMARK    3  A    between atoms: C_3  and  C_4 
REMARK    4  A    between atoms: C_7  and  O_11 
ROOT
ATOM      1  C   LIG d   1       5.187  -3.841  -5.115  0.00  0.00    -0.021 A 
ATOM      2  C   LIG d   1       6.544  -3.704  -5.338  0.00  0.00    -0.053 A 
ATOM      3  C   LIG d   1       7.275  -2.785  -4.611  0.00  0.00    -0.019 A 
ATOM      4  C   LIG d   1       6.645  -1.990  -3.665  0.00  0.00     0.131 A 
ATOM      5  C   LIG d   1       5.280  -2.126  -3.446  0.00  0.00     0.060 A 
ATOM      6  C   LIG d   1       4.555  -3.051  -4.172  0.00  0.00    -0.039 A 
ATOM      7 BR   LIG d   1       4.416  -1.045  -2.158  0.00  0.00    -0.046 Br
ATOM      8  H   LIG d   1       7.034  -4.319  -6.078  0.00  0.00     0.062 H 
ATOM      9  H   LIG d   1       8.337  -2.681  -4.782  0.00  0.00     0.065 H 
ATOM     10  H   LIG d   1       3.493  -3.157  -4.003  0.00  0.00     0.063 H 
ENDROOT
BRANCH   1  11
ATOM     11  C   LIG d   1       4.393  -4.849  -5.906  0.00  0.00     0.072 C 
ATOM     12  H   LIG d   1       3.437  -4.412  -6.196  0.00  0.00     0.061 H 
ATOM     13  H   LIG d   1       4.950  -5.129  -6.800  0.00  0.00     0.061 H 
BRANCH  11  14
ATOM     14  O   LIG d   1       4.164  -6.010  -5.105  0.00  0.00    -0.378 OA
BRANCH  14  15
ATOM     15  C   LIG d   1       4.942  -7.144  -5.489  0.00  0.00     0.037 C 
ATOM     16  H   LIG d   1       4.885  -7.906  -4.712  0.00  0.00     0.052 H 
ATOM     17  H   LIG d   1       4.556  -7.550  -6.424  0.00  0.00     0.052 H 
ATOM     18  H   LIG d   1       5.981  -6.843  -5.626  0.00  0.00     0.052 H 
ENDBRANCH  14  15
ENDBRANCH  11  14
ENDBRANCH   1  11
BRANCH   4  19
ATOM     19  O   LIG d   1       7.361  -1.081  -2.952  0.00  0.00    -0.506 OA
ATOM     20  H   LIG d   1       8.310  -1.094  -3.139  0.00  0.00     0.292 HD
ENDBRANCH   4  19
TORSDOF 4
ENDMDL
MODEL 7
REMARK VINA RESULT:      -3.9      1.796      4.188
REMARK  4 active torsions:
REMARK  status: ('A' for Active; 'I' for Inactive)
REMARK    1  A    between atoms: C_1  and  O_2 
REMARK    2  A    between atoms: O_2  and  C_3 
REMARK    3  A    between atoms: C_3  and  C_4 
REMARK    4  A    between atoms: C_7  and  O_11 
ROOT
ATOM      1  C   LIG d   1       5.015  -1.360  -2.757  0.00  0.00    -0.021 A 
ATOM      2  C   LIG d   1       4.164  -2.345  -3.221  0.00  0.00    -0.053 A 
ATOM      3  C   LIG d   1       4.614  -3.272  -4.141  0.00  0.00    -0.019 A 
ATOM      4  C   LIG d   1       5.919  -3.207  -4.608  0.00  0.00     0.131 A 
ATOM      5  C   LIG d   1       6.771  -2.215  -4.144  0.00  0.00     0.060 A 
ATOM      6  C   LIG d   1       6.317  -1.293  -3.219  0.00  0.00    -0.039 A 
ATOM      7 BR   LIG d   1       8.550  -2.122  -4.777  0.00  0.00    -0.046 Br
ATOM      8  H   LIG d   1       3.146  -2.392  -2.862  0.00  0.00     0.062 H 
ATOM      9  H   LIG d   1       3.949  -4.044  -4.501  0.00  0.00     0.065 H 
ATOM     10  H   LIG d   1       6.979  -0.520  -2.858  0.00  0.00     0.063 H 
ENDROOT
BRANCH   1  11
ATOM     11  C   LIG d   1       4.523  -0.355  -1.749  0.00  0.00     0.072 C 
ATOM     12  H   LIG d   1       4.239  -0.869  -0.831  0.00  0.00     0.061 H 
ATOM     13  H   LIG d   1       5.316   0.362  -1.533  0.00  0.00     0.061 H 
BRANCH  11  14
ATOM     14  O   LIG d   1       3.389   0.336  -2.279  0.00  0.00    -0.378 OA
BRANCH  14  15
ATOM     15  C   LIG d   1       3.701   1.601  -2.863  0.00  0.00     0.037 C 
ATOM     16  H   LIG d   1       4.626   1.521  -3.434  0.00  0.00     0.052 H 
ATOM     17  H   LIG d   1       2.890   1.906  -3.526  0.00  0.00     0.052 H 
ATOM     18  H   LIG d   1       3.824   2.346  -2.076  0.00  0.00     0.052 H 
ENDBRANCH  14  15
ENDBRANCH  11  14
ENDBRANCH   1  11
BRANCH   4  19
ATOM     19  O   LIG d   1       6.362  -4.115  -5.518  0.00  0.00    -0.506 OA
ATOM     20  H   LIG d   1       5.753  -4.263  -6.254  0.00  0.00     0.292 HD
ENDBRANCH   4  19
TORSDOF 4
ENDMDL
MODEL 8
REMARK VINA RESULT:      -3.9      2.523      4.703
REMARK  4 active torsions:
REMARK  status: ('A' for Active; 'I' for Inactive)
REMARK    1  A    between atoms: C_1  and  O_2 
REMARK    2  A    between atoms: O_2  and  C_3 
REMARK    3  A    between atoms: C_3  and  C_4 
REMARK    4  A    between atoms: C_7  and  O_11 
ROOT
ATOM      1  C   LIG d   1       5.152  -1.677  -2.893  0.00  0.00    -0.021 A 
ATOM      2  C   LIG d   1       6.463  -1.267  -3.049  0.00  0.00    -0.053 A 
ATOM      3  C   LIG d   1       7.272  -1.875  -3.989  0.00  0.00    -0.019 A 
ATOM      4  C   LIG d   1       6.772  -2.908  -4.769  0.00  0.00     0.131 A 
ATOM      5  C   LIG d   1       5.457  -3.322  -4.608  0.00  0.00     0.060 A 
ATOM      6  C   LIG d   1       4.650  -2.705  -3.670  0.00  0.00    -0.039 A 
ATOM      7 BR   LIG d   1       4.771  -4.728  -5.669  0.00  0.00    -0.046 Br
ATOM      8  H   LIG d   1       6.854  -0.467  -2.438  0.00  0.00     0.062 H 
ATOM      9  H   LIG d   1       8.295  -1.552  -4.113  0.00  0.00     0.065 H 
ATOM     10  H   LIG d   1       3.627  -3.027  -3.544  0.00  0.00     0.063 H 
ENDROOT
BRANCH   1  11
ATOM     11  C   LIG d   1       4.271  -1.008  -1.872  0.00  0.00     0.072 C 
ATOM     12  H   LIG d   1       3.230  -1.071  -2.192  0.00  0.00     0.061 H 
ATOM     13  H   LIG d   1       4.385  -1.507  -0.909  0.00  0.00     0.061 H 
BRANCH  11  14
ATOM     14  O   LIG d   1       4.647   0.365  -1.743  0.00  0.00    -0.378 OA
BRANCH  14  15
ATOM     15  C   LIG d   1       3.748   1.276  -2.375  0.00  0.00     0.037 C 
ATOM     16  H   LIG d   1       4.315   2.002  -2.959  0.00  0.00     0.052 H 
ATOM     17  H   LIG d   1       3.076   0.726  -3.034  0.00  0.00     0.052 H 
ATOM     18  H   LIG d   1       3.165   1.798  -1.616  0.00  0.00     0.052 H 
ENDBRANCH  14  15
ENDBRANCH  11  14
ENDBRANCH   1  11
BRANCH   4  19
ATOM     19  O   LIG d   1       7.568  -3.512  -5.691  0.00  0.00    -0.506 OA
ATOM     20  H   LIG d   1       8.489  -3.610  -5.411  0.00  0.00     0.292 HD
ENDBRANCH   4  19
TORSDOF 4
ENDMDL
MODEL 9
REMARK VINA RESULT:      -3.9      2.926      3.961
REMARK  4 active torsions:
REMARK  status: ('A' for Active; 'I' for Inactive)
REMARK    1  A    between atoms: C_1  and  O_2 
REMARK    2  A    between atoms: O_2  and  C_3 
REMARK    3  A    between atoms: C_3  and  C_4 
REMARK    4  A    between atoms: C_7  and  O_11 
ROOT
ATOM      1  C   LIG d   1       5.397  -0.217  -2.693  0.00  0.00    -0.021 A 
ATOM      2  C   LIG d   1       5.977   0.980  -3.069  0.00  0.00    -0.053 A 
ATOM      3  C   LIG d   1       7.162   0.982  -3.780  0.00  0.00    -0.019 A 
ATOM      4  C   LIG d   1       7.776  -0.219  -4.107  0.00  0.00     0.131 A 
ATOM      5  C   LIG d   1       7.193  -1.420  -3.724  0.00  0.00     0.060 A 
ATOM      6  C   LIG d   1       6.005  -1.415  -3.018  0.00  0.00    -0.039 A 
ATOM      7 BR   LIG d   1       8.025  -3.059  -4.167  0.00  0.00    -0.046 Br
ATOM      8  H   LIG d   1       5.502   1.915  -2.810  0.00  0.00     0.062 H 
ATOM      9  H   LIG d   1       7.613   1.917  -4.076  0.00  0.00     0.065 H 
ATOM     10  H   LIG d   1       5.551  -2.349  -2.720  0.00  0.00     0.063 H 
ENDROOT
BRANCH   1  11
ATOM     11  C   LIG d   1       4.102  -0.215  -1.924  0.00  0.00     0.072 C 
ATOM     12  H   LIG d   1       3.806  -1.242  -1.707  0.00  0.00     0.061 H 
ATOM     13  H   LIG d   1       4.235   0.328  -0.988  0.00  0.00     0.061 H 
BRANCH  11  14
ATOM     14  O   LIG d   1       3.085   0.420  -2.701  0.00  0.00    -0.378 OA
BRANCH  14  15
ATOM     15  C   LIG d   1       2.514  -0.418  -3.707  0.00  0.00     0.037 C 
ATOM     16  H   LIG d   1       1.479  -0.123  -3.882  0.00  0.00     0.052 H 
ATOM     17  H   LIG d   1       3.082  -0.315  -4.632  0.00  0.00     0.052 H 
ATOM     18  H   LIG d   1       2.544  -1.456  -3.376  0.00  0.00     0.052 H 
ENDBRANCH  14  15
ENDBRANCH  11  14
ENDBRANCH   1  11
BRANCH   4  19
ATOM     19  O   LIG d   1       8.944  -0.220  -4.801  0.00  0.00    -0.506 OA
ATOM     20  H   LIG d   1       9.542   0.503  -4.564  0.00  0.00     0.292 HD
ENDBRANCH   4  19
TORSDOF 4
ENDMDL
