MODEL 1
REMARK VINA RESULT:      -6.1      0.000      0.000
REMARK  12 active torsions:
REMARK  status: ('A' for Active; 'I' for Inactive)
REMARK    1  A    between atoms: C_1  and  C_2 
REMARK    2  A    between atoms: C_2  and  C_3 
REMARK    3  A    between atoms: C_3  and  C_4 
REMARK    4  A    between atoms: C_4  and  C_5 
REMARK    5  A    between atoms: C_5  and  C_7 
REMARK    6  A    between atoms: C_5  and  N_22 
REMARK    7  A    between atoms: C_7  and  O_9 
REMARK    8  A    between atoms: O_9  and  C_10 
REMARK    9  A    between atoms: C_14  and  C_21 
REMARK   10  A    between atoms: N_22  and  S_23 
REMARK   11  A    between atoms: S_23  and  C_26 
REMARK   12  A    between atoms: C_29  and  C_32 
ROOT
ATOM      1  C   LIG d   1       4.630  -1.834  -4.334  0.00  0.00     0.126 C 
ATOM      2  H   LIG d   1       5.446  -2.267  -3.755  0.00  0.00     0.059 H 
ENDROOT
BRANCH   1   3
ATOM      3  C   LIG d   1       3.637  -1.156  -3.386  0.00  0.00    -0.026 C 
ATOM      4  H   LIG d   1       3.394  -0.163  -3.766  0.00  0.00     0.029 H 
ATOM      5  H   LIG d   1       2.729  -1.754  -3.323  0.00  0.00     0.029 H 
BRANCH   3   6
ATOM      6  C   LIG d   1       4.264  -1.031  -1.996  0.00  0.00    -0.051 C 
ATOM      7  H   LIG d   1       3.557  -1.383  -1.246  0.00  0.00     0.027 H 
ATOM      8  H   LIG d   1       5.171  -1.634  -1.951  0.00  0.00     0.027 H 
BRANCH   6   9
ATOM      9  C   LIG d   1       4.611   0.434  -1.723  0.00  0.00    -0.056 C 
ATOM     10  H   LIG d   1       4.543   0.631  -0.653  0.00  0.00     0.026 H 
ATOM     11  H   LIG d   1       5.625   0.638  -2.066  0.00  0.00     0.026 H 
BRANCH   9  12
ATOM     12  C   LIG d   1       3.630   1.339  -2.471  0.00  0.00    -0.065 C 
ATOM     13  H   LIG d   1       3.626   2.328  -2.012  0.00  0.00     0.023 H 
ATOM     14  H   LIG d   1       3.935   1.423  -3.513  0.00  0.00     0.023 H 
ATOM     15  H   LIG d   1       2.628   0.912  -2.418  0.00  0.00     0.023 H 
ENDBRANCH   9  12
ENDBRANCH   6   9
ENDBRANCH   3   6
ENDBRANCH   1   3
BRANCH   1  16
ATOM     16  C   LIG d   1       5.181  -0.815  -5.297  0.00  0.00     0.331 C 
ATOM     17  O   LIG d   1       6.369  -0.772  -5.516  0.00  0.00    -0.249 OA
BRANCH  16  18
ATOM     18  O   LIG d   1       4.354   0.045  -5.911  0.00  0.00    -0.425 OA
BRANCH  18  19
ATOM     19  C   LIG d   1       4.155  -0.134  -7.242  0.00  0.00     0.135 A 
ATOM     20  C   LIG d   1       3.088  -0.900  -7.681  0.00  0.00     0.024 A 
ATOM     21  C   LIG d   1       2.884  -1.084  -9.041  0.00  0.00     0.143 A 
ATOM     22  H   LIG d   1       2.416  -1.353  -6.967  0.00  0.00     0.069 H 
ATOM     23  C   LIG d   1       3.765  -0.482  -9.959  0.00  0.00     0.021 A 
ATOM     24  O   LIG d   1       1.850  -1.827  -9.490  0.00  0.00    -0.422 OA
ATOM     25  C   LIG d   1       4.842   0.284  -9.498  0.00  0.00    -0.047 A 
ATOM     26  C   LIG d   1       3.545  -0.687 -11.392  0.00  0.00    -0.033 A 
ATOM     27  C   LIG d   1       5.027   0.455  -8.157  0.00  0.00    -0.018 A 
ATOM     28  H   LIG d   1       5.521   0.743 -10.201  0.00  0.00     0.063 H 
ATOM     29  H   LIG d   1       5.855   1.050  -7.801  0.00  0.00     0.065 H 
ATOM     30  C   LIG d   1       2.486  -1.445 -11.777  0.00  0.00     0.026 A 
ATOM     31  C   LIG d   1       1.639  -2.014 -10.802  0.00  0.00     0.338 A 
ATOM     32  H   LIG d   1       2.292  -1.613 -12.826  0.00  0.00     0.069 H 
ATOM     33  O   LIG d   1       0.693  -2.692 -11.160  0.00  0.00    -0.245 OA
BRANCH  26  34
ATOM     34  C   LIG d   1       4.465  -0.068 -12.413  0.00  0.00    -0.039 C 
ATOM     35  H   LIG d   1       4.126   0.942 -12.643  0.00  0.00     0.028 H 
ATOM     36  H   LIG d   1       5.477  -0.030 -12.013  0.00  0.00     0.028 H 
ATOM     37  H   LIG d   1       4.456  -0.670 -13.322  0.00  0.00     0.028 H 
ENDBRANCH  26  34
ENDBRANCH  18  19
ENDBRANCH  16  18
ENDBRANCH   1  16
BRANCH   1  38
ATOM     38  N   LIG d   1       3.947  -2.892  -5.081  0.00  0.00    -0.176 N 
ATOM     39  H   LIG d   1       2.998  -2.817  -5.272  0.00  0.00     0.149 HD
BRANCH  38  40
ATOM     40  S   LIG d   1       4.792  -4.217  -5.600  0.00  0.00     0.059 S 
ATOM     41  O   LIG d   1       6.098  -4.108  -5.049  0.00  0.00    -0.153 OA
ATOM     42  O   LIG d   1       3.961  -5.346  -5.372  0.00  0.00    -0.153 OA
BRANCH  40  43
ATOM     43  C   LIG d   1       4.970  -4.070  -7.347  0.00  0.00     0.105 A 
ATOM     44  C   LIG d   1       6.045  -3.381  -7.877  0.00  0.00    -0.035 A 
ATOM     45  C   LIG d   1       6.185  -3.265  -9.248  0.00  0.00    -0.057 A 
ATOM     46  H   LIG d   1       6.777  -2.933  -7.221  0.00  0.00     0.064 H 
ATOM     47  C   LIG d   1       5.249  -3.839 -10.089  0.00  0.00    -0.050 A 
ATOM     48  H   LIG d   1       7.024  -2.726  -9.661  0.00  0.00     0.062 H 
ATOM     49  C   LIG d   1       4.175  -4.528  -9.559  0.00  0.00    -0.057 A 
ATOM     50  C   LIG d   1       4.037  -4.647  -8.188  0.00  0.00    -0.035 A 
ATOM     51  H   LIG d   1       3.443  -4.976 -10.216  0.00  0.00     0.062 H 
ATOM     52  H   LIG d   1       3.200  -5.190  -7.774  0.00  0.00     0.064 H 
BRANCH  47  53
ATOM     53  C   LIG d   1       5.401  -3.713 -11.582  0.00  0.00    -0.040 C 
ATOM     54  H   LIG d   1       5.189  -2.688 -11.884  0.00  0.00     0.028 H 
ATOM     55  H   LIG d   1       6.421  -3.973 -11.867  0.00  0.00     0.028 H 
ATOM     56  H   LIG d   1       4.704  -4.389 -12.077  0.00  0.00     0.028 H 
ENDBRANCH  47  53
ENDBRANCH  40  43
ENDBRANCH  38  40
ENDBRANCH   1  38
TORSDOF 12
ENDMDL
MODEL 2
REMARK VINA RESULT:      -5.9      1.442      2.178
REMARK  12 active torsions:
REMARK  status: ('A' for Active; 'I' for Inactive)
REMARK    1  A    between atoms: C_1  and  C_2 
REMARK    2  A    between atoms: C_2  and  C_3 
REMARK    3  A    between atoms: C_3  and  C_4 
REMARK    4  A    between atoms: C_4  and  C_5 
REMARK    5  A    between atoms: C_5  and  C_7 
REMARK    6  A    between atoms: C_5  and  N_22 
REMARK    7  A    between atoms: C_7  and  O_9 
REMARK    8  A    between atoms: O_9  and  C_10 
REMARK    9  A    between atoms: C_14  and  C_21 
REMARK   10  A    between atoms: N_22  and  S_23 
REMARK   11  A    between atoms: S_23  and  C_26 
REMARK   12  A    between atoms: C_29  and  C_32 
ROOT
ATOM      1  C   LIG d   1       4.183  -1.208  -4.477  0.00  0.00     0.126 C 
ATOM      2  H   LIG d   1       5.246  -1.215  -4.235  0.00  0.00     0.059 H 
ENDROOT
BRANCH   1   3
ATOM      3  C   LIG d   1       3.372  -0.947  -3.205  0.00  0.00    -0.026 C 
ATOM      4  H   LIG d   1       2.878   0.021  -3.282  0.00  0.00     0.029 H 
ATOM      5  H   LIG d   1       2.624  -1.730  -3.085  0.00  0.00     0.029 H 
BRANCH   3   6
ATOM      6  C   LIG d   1       4.309  -0.947  -1.995  0.00  0.00    -0.051 C 
ATOM      7  H   LIG d   1       3.798  -1.391  -1.140  0.00  0.00     0.027 H 
ATOM      8  H   LIG d   1       5.201  -1.529  -2.226  0.00  0.00     0.027 H 
BRANCH   6   9
ATOM      9  C   LIG d   1       4.709   0.491  -1.660  0.00  0.00    -0.056 C 
ATOM     10  H   LIG d   1       4.795   0.602  -0.580  0.00  0.00     0.026 H 
ATOM     11  H   LIG d   1       5.668   0.719  -2.127  0.00  0.00     0.026 H 
BRANCH   9  12
ATOM     12  C   LIG d   1       3.645   1.453  -2.189  0.00  0.00    -0.065 C 
ATOM     13  H   LIG d   1       2.813   0.883  -2.603  0.00  0.00     0.023 H 
ATOM     14  H   LIG d   1       3.284   2.080  -1.375  0.00  0.00     0.023 H 
ATOM     15  H   LIG d   1       4.076   2.081  -2.969  0.00  0.00     0.023 H 
ENDBRANCH   9  12
ENDBRANCH   6   9
ENDBRANCH   3   6
ENDBRANCH   1   3
BRANCH   1  16
ATOM     16  C   LIG d   1       3.904  -0.121  -5.482  0.00  0.00     0.331 C 
ATOM     17  O   LIG d   1       2.949   0.606  -5.336  0.00  0.00    -0.249 OA
BRANCH  16  18
ATOM     18  O   LIG d   1       4.716   0.042  -6.539  0.00  0.00    -0.425 OA
BRANCH  18  19
ATOM     19  C   LIG d   1       4.186  -0.197  -7.766  0.00  0.00     0.135 A 
ATOM     20  C   LIG d   1       5.001  -0.161  -8.886  0.00  0.00     0.024 A 
ATOM     21  C   LIG d   1       4.461  -0.404 -10.140  0.00  0.00     0.143 A 
ATOM     22  H   LIG d   1       6.054   0.056  -8.782  0.00  0.00     0.069 H 
ATOM     23  C   LIG d   1       3.088  -0.691 -10.256  0.00  0.00     0.021 A 
ATOM     24  O   LIG d   1       5.238  -0.374 -11.243  0.00  0.00    -0.422 OA
ATOM     25  C   LIG d   1       2.278  -0.719  -9.116  0.00  0.00    -0.047 A 
ATOM     26  C   LIG d   1       2.527  -0.941 -11.586  0.00  0.00    -0.033 A 
ATOM     27  C   LIG d   1       2.826  -0.477  -7.890  0.00  0.00    -0.018 A 
ATOM     28  H   LIG d   1       1.224  -0.935  -9.205  0.00  0.00     0.063 H 
ATOM     29  H   LIG d   1       2.202  -0.502  -7.008  0.00  0.00     0.065 H 
ATOM     30  C   LIG d   1       3.363  -0.896 -12.655  0.00  0.00     0.026 A 
ATOM     31  C   LIG d   1       4.731  -0.608 -12.464  0.00  0.00     0.338 A 
ATOM     32  H   LIG d   1       2.982  -1.079 -13.649  0.00  0.00     0.069 H 
ATOM     33  O   LIG d   1       5.470  -0.570 -13.430  0.00  0.00    -0.245 OA
BRANCH  26  34
ATOM     34  C   LIG d   1       1.062  -1.247 -11.762  0.00  0.00    -0.039 C 
ATOM     35  H   LIG d   1       0.605  -1.412 -10.787  0.00  0.00     0.028 H 
ATOM     36  H   LIG d   1       0.572  -0.408 -12.255  0.00  0.00     0.028 H 
ATOM     37  H   LIG d   1       0.948  -2.144 -12.372  0.00  0.00     0.028 H 
ENDBRANCH  26  34
ENDBRANCH  18  19
ENDBRANCH  16  18
ENDBRANCH   1  16
BRANCH   1  38
ATOM     38  N   LIG d   1       3.803  -2.505  -5.042  0.00  0.00    -0.176 N 
ATOM     39  H   LIG d   1       2.866  -2.721  -5.172  0.00  0.00     0.149 HD
BRANCH  38  40
ATOM     40  S   LIG d   1       4.971  -3.601  -5.458  0.00  0.00     0.059 S 
ATOM     41  O   LIG d   1       6.220  -3.011  -5.123  0.00  0.00    -0.153 OA
ATOM     42  O   LIG d   1       4.557  -4.855  -4.934  0.00  0.00    -0.153 OA
BRANCH  40  43
ATOM     43  C   LIG d   1       4.941  -3.754  -7.212  0.00  0.00     0.105 A 
ATOM     44  C   LIG d   1       3.762  -4.076  -7.859  0.00  0.00    -0.035 A 
ATOM     45  C   LIG d   1       3.738  -4.195  -9.236  0.00  0.00    -0.057 A 
ATOM     46  H   LIG d   1       2.858  -4.232  -7.288  0.00  0.00     0.064 H 
ATOM     47  C   LIG d   1       4.895  -3.994  -9.967  0.00  0.00    -0.050 A 
ATOM     48  H   LIG d   1       2.817  -4.448  -9.740  0.00  0.00     0.062 H 
ATOM     49  C   LIG d   1       6.073  -3.673  -9.321  0.00  0.00    -0.057 A 
ATOM     50  C   LIG d   1       6.096  -3.549  -7.945  0.00  0.00    -0.035 A 
ATOM     51  H   LIG d   1       6.977  -3.516  -9.892  0.00  0.00     0.062 H 
ATOM     52  H   LIG d   1       7.016  -3.293  -7.440  0.00  0.00     0.064 H 
BRANCH  47  53
ATOM     53  C   LIG d   1       4.869  -4.125 -11.468  0.00  0.00    -0.040 C 
ATOM     54  H   LIG d   1       4.600  -5.146 -11.740  0.00  0.00     0.028 H 
ATOM     55  H   LIG d   1       4.134  -3.433 -11.880  0.00  0.00     0.028 H 
ATOM     56  H   LIG d   1       5.855  -3.890 -11.871  0.00  0.00     0.028 H 
ENDBRANCH  47  53
ENDBRANCH  40  43
ENDBRANCH  38  40
ENDBRANCH   1  38
TORSDOF 12
ENDMDL
MODEL 3
REMARK VINA RESULT:      -5.9      2.547      4.007
REMARK  12 active torsions:
REMARK  status: ('A' for Active; 'I' for Inactive)
REMARK    1  A    between atoms: C_1  and  C_2 
REMARK    2  A    between atoms: C_2  and  C_3 
REMARK    3  A    between atoms: C_3  and  C_4 
REMARK    4  A    between atoms: C_4  and  C_5 
REMARK    5  A    between atoms: C_5  and  C_7 
REMARK    6  A    between atoms: C_5  and  N_22 
REMARK    7  A    between atoms: C_7  and  O_9 
REMARK    8  A    between atoms: O_9  and  C_10 
REMARK    9  A    between atoms: C_14  and  C_21 
REMARK   10  A    between atoms: N_22  and  S_23 
REMARK   11  A    between atoms: S_23  and  C_26 
REMARK   12  A    between atoms: C_29  and  C_32 
ROOT
ATOM      1  C   LIG d   1       6.006  -1.193  -3.924  0.00  0.00     0.126 C 
ATOM      2  H   LIG d   1       5.381  -0.355  -4.235  0.00  0.00     0.059 H 
ENDROOT
BRANCH   1   3
ATOM      3  C   LIG d   1       5.701  -1.544  -2.466  0.00  0.00    -0.026 C 
ATOM      4  H   LIG d   1       5.632  -2.626  -2.360  0.00  0.00     0.029 H 
ATOM      5  H   LIG d   1       6.498  -1.165  -1.827  0.00  0.00     0.029 H 
BRANCH   3   6
ATOM      6  C   LIG d   1       4.372  -0.905  -2.056  0.00  0.00    -0.051 C 
ATOM      7  H   LIG d   1       3.658  -0.994  -2.875  0.00  0.00     0.027 H 
ATOM      8  H   LIG d   1       3.980  -1.415  -1.176  0.00  0.00     0.027 H 
BRANCH   6   9
ATOM      9  C   LIG d   1       4.595   0.573  -1.732  0.00  0.00    -0.056 C 
ATOM     10  H   LIG d   1       4.461   0.736  -0.663  0.00  0.00     0.026 H 
ATOM     11  H   LIG d   1       5.608   0.859  -2.019  0.00  0.00     0.026 H 
BRANCH   9  12
ATOM     12  C   LIG d   1       3.588   1.423  -2.508  0.00  0.00    -0.065 C 
ATOM     13  H   LIG d   1       3.611   1.143  -3.561  0.00  0.00     0.023 H 
ATOM     14  H   LIG d   1       2.588   1.256  -2.110  0.00  0.00     0.023 H 
ATOM     15  H   LIG d   1       3.848   2.477  -2.408  0.00  0.00     0.023 H 
ENDBRANCH   9  12
ENDBRANCH   6   9
ENDBRANCH   3   6
ENDBRANCH   1   3
BRANCH   1  16
ATOM     16  C   LIG d   1       5.718  -2.386  -4.798  0.00  0.00     0.331 C 
ATOM     17  O   LIG d   1       6.532  -3.274  -4.896  0.00  0.00    -0.249 OA
BRANCH  16  18
ATOM     18  O   LIG d   1       4.557  -2.463  -5.469  0.00  0.00    -0.425 OA
BRANCH  18  19
ATOM     19  C   LIG d   1       4.500  -1.846  -6.677  0.00  0.00     0.135 A 
ATOM     20  C   LIG d   1       4.356  -0.470  -6.740  0.00  0.00     0.024 A 
ATOM     21  C   LIG d   1       4.297   0.161  -7.974  0.00  0.00     0.143 A 
ATOM     22  H   LIG d   1       4.289   0.109  -5.831  0.00  0.00     0.069 H 
ATOM     23  C   LIG d   1       4.392  -0.608  -9.148  0.00  0.00     0.021 A 
ATOM     24  O   LIG d   1       4.157   1.501  -8.057  0.00  0.00    -0.422 OA
ATOM     25  C   LIG d   1       4.532  -1.998  -9.067  0.00  0.00    -0.047 A 
ATOM     26  C   LIG d   1       4.323   0.068 -10.446  0.00  0.00    -0.033 A 
ATOM     27  C   LIG d   1       4.588  -2.603  -7.844  0.00  0.00    -0.018 A 
ATOM     28  H   LIG d   1       4.601  -2.590  -9.967  0.00  0.00     0.063 H 
ATOM     29  H   LIG d   1       4.701  -3.675  -7.781  0.00  0.00     0.065 H 
ATOM     30  C   LIG d   1       4.182   1.418 -10.460  0.00  0.00     0.026 A 
ATOM     31  C   LIG d   1       4.099   2.128  -9.243  0.00  0.00     0.338 A 
ATOM     32  H   LIG d   1       4.131   1.948 -11.400  0.00  0.00     0.069 H 
ATOM     33  O   LIG d   1       3.972   3.338  -9.269  0.00  0.00    -0.245 OA
BRANCH  26  34
ATOM     34  C   LIG d   1       4.414  -0.714 -11.731  0.00  0.00    -0.039 C 
ATOM     35  H   LIG d   1       5.302  -0.407 -12.282  0.00  0.00     0.028 H 
ATOM     36  H   LIG d   1       4.476  -1.778 -11.505  0.00  0.00     0.028 H 
ATOM     37  H   LIG d   1       3.527  -0.522 -12.337  0.00  0.00     0.028 H 
ENDBRANCH  26  34
ENDBRANCH  18  19
ENDBRANCH  16  18
ENDBRANCH   1  16
BRANCH   1  38
ATOM     38  N   LIG d   1       7.417  -0.822  -4.053  0.00  0.00    -0.176 N 
ATOM     39  H   LIG d   1       8.108  -1.432  -3.747  0.00  0.00     0.149 HD
BRANCH  38  40
ATOM     40  S   LIG d   1       7.833   0.635  -4.720  0.00  0.00     0.059 S 
ATOM     41  O   LIG d   1       6.761   1.527  -4.449  0.00  0.00    -0.153 OA
ATOM     42  O   LIG d   1       9.167   0.903  -4.312  0.00  0.00    -0.153 OA
BRANCH  40  43
ATOM     43  C   LIG d   1       7.875   0.415  -6.467  0.00  0.00     0.105 A 
ATOM     44  C   LIG d   1       7.688   1.499  -7.305  0.00  0.00    -0.035 A 
ATOM     45  C   LIG d   1       7.722   1.327  -8.676  0.00  0.00    -0.057 A 
ATOM     46  H   LIG d   1       7.517   2.481  -6.889  0.00  0.00     0.064 H 
ATOM     47  C   LIG d   1       7.942   0.070  -9.210  0.00  0.00    -0.050 A 
ATOM     48  H   LIG d   1       7.575   2.173  -9.331  0.00  0.00     0.062 H 
ATOM     49  C   LIG d   1       8.129  -1.013  -8.372  0.00  0.00    -0.057 A 
ATOM     50  C   LIG d   1       8.100  -0.840  -7.001  0.00  0.00    -0.035 A 
ATOM     51  H   LIG d   1       8.300  -1.995  -8.789  0.00  0.00     0.062 H 
ATOM     52  H   LIG d   1       8.251  -1.686  -6.346  0.00  0.00     0.064 H 
BRANCH  47  53
ATOM     53  C   LIG d   1       7.978  -0.118 -10.705  0.00  0.00    -0.040 C 
ATOM     54  H   LIG d   1       8.118   0.848 -11.189  0.00  0.00     0.028 H 
ATOM     55  H   LIG d   1       8.803  -0.780 -10.968  0.00  0.00     0.028 H 
ATOM     56  H   LIG d   1       7.038  -0.559 -11.038  0.00  0.00     0.028 H 
ENDBRANCH  47  53
ENDBRANCH  40  43
ENDBRANCH  38  40
ENDBRANCH   1  38
TORSDOF 12
ENDMDL
MODEL 4
REMARK VINA RESULT:      -5.8      3.163      6.594
REMARK  12 active torsions:
REMARK  status: ('A' for Active; 'I' for Inactive)
REMARK    1  A    between atoms: C_1  and  C_2 
REMARK    2  A    between atoms: C_2  and  C_3 
REMARK    3  A    between atoms: C_3  and  C_4 
REMARK    4  A    between atoms: C_4  and  C_5 
REMARK    5  A    between atoms: C_5  and  C_7 
REMARK    6  A    between atoms: C_5  and  N_22 
REMARK    7  A    between atoms: C_7  and  O_9 
REMARK    8  A    between atoms: O_9  and  C_10 
REMARK    9  A    between atoms: C_14  and  C_21 
REMARK   10  A    between atoms: N_22  and  S_23 
REMARK   11  A    between atoms: S_23  and  C_26 
REMARK   12  A    between atoms: C_29  and  C_32 
ROOT
ATOM      1  C   LIG d   1       3.523   0.098  -7.268  0.00  0.00     0.126 C 
ATOM      2  H   LIG d   1       4.254   0.812  -6.888  0.00  0.00     0.059 H 
ENDROOT
BRANCH   1   3
ATOM      3  C   LIG d   1       2.613   0.791  -8.285  0.00  0.00    -0.026 C 
ATOM      4  H   LIG d   1       2.758   0.342  -9.267  0.00  0.00     0.029 H 
ATOM      5  H   LIG d   1       1.573   0.673  -7.980  0.00  0.00     0.029 H 
BRANCH   3   6
ATOM      6  C   LIG d   1       2.961   2.279  -8.348  0.00  0.00    -0.051 C 
ATOM      7  H   LIG d   1       2.078   2.847  -8.642  0.00  0.00     0.027 H 
ATOM      8  H   LIG d   1       3.298   2.615  -7.367  0.00  0.00     0.027 H 
BRANCH   6   9
ATOM      9  C   LIG d   1       4.074   2.500  -9.374  0.00  0.00    -0.056 C 
ATOM     10  H   LIG d   1       4.080   3.544  -9.685  0.00  0.00     0.026 H 
ATOM     11  H   LIG d   1       5.036   2.248  -8.927  0.00  0.00     0.026 H 
BRANCH   9  12
ATOM     12  C   LIG d   1       3.830   1.607 -10.591  0.00  0.00    -0.065 C 
ATOM     13  H   LIG d   1       2.783   1.676 -10.888  0.00  0.00     0.023 H 
ATOM     14  H   LIG d   1       4.462   1.934 -11.416  0.00  0.00     0.023 H 
ATOM     15  H   LIG d   1       4.067   0.574 -10.338  0.00  0.00     0.023 H 
ENDBRANCH   9  12
ENDBRANCH   6   9
ENDBRANCH   3   6
ENDBRANCH   1   3
BRANCH   1  16
ATOM     16  C   LIG d   1       4.240  -1.047  -7.934  0.00  0.00     0.331 C 
ATOM     17  O   LIG d   1       3.768  -2.159  -7.898  0.00  0.00    -0.249 OA
BRANCH  16  18
ATOM     18  O   LIG d   1       5.403  -0.833  -8.570  0.00  0.00    -0.425 OA
BRANCH  18  19
ATOM     19  C   LIG d   1       6.497  -0.612  -7.797  0.00  0.00     0.135 A 
ATOM     20  C   LIG d   1       6.655   0.608  -7.161  0.00  0.00     0.024 A 
ATOM     21  C   LIG d   1       7.773   0.835  -6.371  0.00  0.00     0.143 A 
ATOM     22  H   LIG d   1       5.910   1.381  -7.280  0.00  0.00     0.069 H 
ATOM     23  C   LIG d   1       8.731  -0.185  -6.222  0.00  0.00     0.021 A 
ATOM     24  O   LIG d   1       7.945   2.017  -5.742  0.00  0.00    -0.422 OA
ATOM     25  C   LIG d   1       8.559  -1.410  -6.876  0.00  0.00    -0.047 A 
ATOM     26  C   LIG d   1       9.910   0.067  -5.390  0.00  0.00    -0.033 A 
ATOM     27  C   LIG d   1       7.454  -1.616  -7.650  0.00  0.00    -0.018 A 
ATOM     28  H   LIG d   1       9.296  -2.191  -6.766  0.00  0.00     0.063 H 
ATOM     29  H   LIG d   1       7.318  -2.562  -8.151  0.00  0.00     0.065 H 
ATOM     30  C   LIG d   1      10.023   1.277  -4.786  0.00  0.00     0.026 A 
ATOM     31  C   LIG d   1       9.020   2.253  -4.974  0.00  0.00     0.338 A 
ATOM     32  H   LIG d   1      10.878   1.495  -4.162  0.00  0.00     0.069 H 
ATOM     33  O   LIG d   1       9.133   3.334  -4.427  0.00  0.00    -0.245 OA
BRANCH  26  34
ATOM     34  C   LIG d   1      10.967  -0.992  -5.206  0.00  0.00    -0.039 C 
ATOM     35  H   LIG d   1      11.297  -1.350  -6.180  0.00  0.00     0.028 H 
ATOM     36  H   LIG d   1      11.814  -0.569  -4.667  0.00  0.00     0.028 H 
ATOM     37  H   LIG d   1      10.552  -1.823  -4.635  0.00  0.00     0.028 H 
ENDBRANCH  26  34
ENDBRANCH  18  19
ENDBRANCH  16  18
ENDBRANCH   1  16
BRANCH   1  38
ATOM     38  N   LIG d   1       2.716  -0.412  -6.157  0.00  0.00    -0.176 N 
ATOM     39  H   LIG d   1       1.928  -0.950  -6.337  0.00  0.00     0.149 HD
BRANCH  38  40
ATOM     40  S   LIG d   1       3.147  -0.071  -4.596  0.00  0.00     0.059 S 
ATOM     41  O   LIG d   1       3.463   1.313  -4.554  0.00  0.00    -0.153 OA
ATOM     42  O   LIG d   1       2.152  -0.651  -3.763  0.00  0.00    -0.153 OA
BRANCH  40  43
ATOM     43  C   LIG d   1       4.644  -0.939  -4.267  0.00  0.00     0.105 A 
ATOM     44  C   LIG d   1       5.680  -0.306  -3.605  0.00  0.00    -0.035 A 
ATOM     45  C   LIG d   1       6.855  -0.987  -3.347  0.00  0.00    -0.057 A 
ATOM     46  H   LIG d   1       5.570   0.721  -3.287  0.00  0.00     0.064 H 
ATOM     47  C   LIG d   1       6.996  -2.302  -3.753  0.00  0.00    -0.050 A 
ATOM     48  H   LIG d   1       7.664  -0.492  -2.830  0.00  0.00     0.062 H 
ATOM     49  C   LIG d   1       5.961  -2.934  -4.415  0.00  0.00    -0.057 A 
ATOM     50  C   LIG d   1       4.784  -2.255  -4.669  0.00  0.00    -0.035 A 
ATOM     51  H   LIG d   1       6.071  -3.961  -4.732  0.00  0.00     0.062 H 
ATOM     52  H   LIG d   1       3.973  -2.751  -5.182  0.00  0.00     0.064 H 
BRANCH  47  53
ATOM     53  C   LIG d   1       8.277  -3.043  -3.472  0.00  0.00    -0.040 C 
ATOM     54  H   LIG d   1       8.582  -3.593  -4.362  0.00  0.00     0.028 H 
ATOM     55  H   LIG d   1       9.056  -2.331  -3.198  0.00  0.00     0.028 H 
ATOM     56  H   LIG d   1       8.119  -3.742  -2.650  0.00  0.00     0.028 H 
ENDBRANCH  47  53
ENDBRANCH  40  43
ENDBRANCH  38  40
ENDBRANCH   1  38
TORSDOF 12
ENDMDL
MODEL 5
REMARK VINA RESULT:      -5.7      2.310      3.683
REMARK  12 active torsions:
REMARK  status: ('A' for Active; 'I' for Inactive)
REMARK    1  A    between atoms: C_1  and  C_2 
REMARK    2  A    between atoms: C_2  and  C_3 
REMARK    3  A    between atoms: C_3  and  C_4 
REMARK    4  A    between atoms: C_4  and  C_5 
REMARK    5  A    between atoms: C_5  and  C_7 
REMARK    6  A    between atoms: C_5  and  N_22 
REMARK    7  A    between atoms: C_7  and  O_9 
REMARK    8  A    between atoms: O_9  and  C_10 
REMARK    9  A    between atoms: C_14  and  C_21 
REMARK   10  A    between atoms: N_22  and  S_23 
REMARK   11  A    between atoms: S_23  and  C_26 
REMARK   12  A    between atoms: C_29  and  C_32 
ROOT
ATOM      1  C   LIG d   1       6.075  -1.270  -3.835  0.00  0.00     0.126 C 
ATOM      2  H   LIG d   1       5.420  -0.513  -4.268  0.00  0.00     0.059 H 
ENDROOT
BRANCH   1   3
ATOM      3  C   LIG d   1       5.728  -1.460  -2.357  0.00  0.00    -0.026 C 
ATOM      4  H   LIG d   1       5.688  -2.525  -2.127  0.00  0.00     0.029 H 
ATOM      5  H   LIG d   1       6.490  -0.983  -1.741  0.00  0.00     0.029 H 
BRANCH   3   6
ATOM      6  C   LIG d   1       4.367  -0.824  -2.067  0.00  0.00    -0.051 C 
ATOM      7  H   LIG d   1       3.720  -0.938  -2.937  0.00  0.00     0.027 H 
ATOM      8  H   LIG d   1       3.911  -1.317  -1.209  0.00  0.00     0.027 H 
BRANCH   6   9
ATOM      9  C   LIG d   1       4.554   0.664  -1.763  0.00  0.00    -0.056 C 
ATOM     10  H   LIG d   1       4.293   0.857  -0.723  0.00  0.00     0.026 H 
ATOM     11  H   LIG d   1       5.594   0.942  -1.934  0.00  0.00     0.026 H 
BRANCH   9  12
ATOM     12  C   LIG d   1       3.649   1.490  -2.678  0.00  0.00    -0.065 C 
ATOM     13  H   LIG d   1       2.880   0.846  -3.105  0.00  0.00     0.023 H 
ATOM     14  H   LIG d   1       3.178   2.285  -2.101  0.00  0.00     0.023 H 
ATOM     15  H   LIG d   1       4.244   1.925  -3.481  0.00  0.00     0.023 H 
ENDBRANCH   9  12
ENDBRANCH   6   9
ENDBRANCH   3   6
ENDBRANCH   1   3
BRANCH   1  16
ATOM     16  C   LIG d   1       5.887  -2.574  -4.567  0.00  0.00     0.331 C 
ATOM     17  O   LIG d   1       6.782  -3.384  -4.598  0.00  0.00    -0.249 OA
BRANCH  16  18
ATOM     18  O   LIG d   1       4.723  -2.836  -5.184  0.00  0.00    -0.425 OA
BRANCH  18  19
ATOM     19  C   LIG d   1       4.348  -1.991  -6.178  0.00  0.00     0.135 A 
ATOM     20  C   LIG d   1       4.311  -2.443  -7.487  0.00  0.00     0.024 A 
ATOM     21  C   LIG d   1       3.929  -1.580  -8.504  0.00  0.00     0.143 A 
ATOM     22  H   LIG d   1       4.580  -3.463  -7.715  0.00  0.00     0.069 H 
ATOM     23  C   LIG d   1       3.576  -0.255  -8.188  0.00  0.00     0.021 A 
ATOM     24  O   LIG d   1       3.886  -2.000  -9.786  0.00  0.00    -0.422 OA
ATOM     25  C   LIG d   1       3.624   0.187  -6.861  0.00  0.00    -0.047 A 
ATOM     26  C   LIG d   1       3.178   0.650  -9.270  0.00  0.00    -0.033 A 
ATOM     27  C   LIG d   1       4.003  -0.675  -5.873  0.00  0.00    -0.018 A 
ATOM     28  H   LIG d   1       3.357   1.205  -6.618  0.00  0.00     0.063 H 
ATOM     29  H   LIG d   1       4.036  -0.336  -4.849  0.00  0.00     0.065 H 
ATOM     30  C   LIG d   1       3.156   0.164 -10.537  0.00  0.00     0.026 A 
ATOM     31  C   LIG d   1       3.517  -1.179 -10.781  0.00  0.00     0.338 A 
ATOM     32  H   LIG d   1       2.864   0.803 -11.358  0.00  0.00     0.069 H 
ATOM     33  O   LIG d   1       3.493  -1.602 -11.922  0.00  0.00    -0.245 OA
BRANCH  26  34
ATOM     34  C   LIG d   1       2.798   2.079  -8.982  0.00  0.00    -0.039 C 
ATOM     35  H   LIG d   1       3.178   2.367  -8.002  0.00  0.00     0.028 H 
ATOM     36  H   LIG d   1       3.227   2.730  -9.744  0.00  0.00     0.028 H 
ATOM     37  H   LIG d   1       1.712   2.176  -8.992  0.00  0.00     0.028 H 
ENDBRANCH  26  34
ENDBRANCH  18  19
ENDBRANCH  16  18
ENDBRANCH   1  16
BRANCH   1  38
ATOM     38  N   LIG d   1       7.469  -0.838  -3.959  0.00  0.00    -0.176 N 
ATOM     39  H   LIG d   1       8.180  -1.382  -3.584  0.00  0.00     0.149 HD
BRANCH  38  40
ATOM     40  S   LIG d   1       7.831   0.577  -4.737  0.00  0.00     0.059 S 
ATOM     41  O   LIG d   1       6.847   1.523  -4.340  0.00  0.00    -0.153 OA
ATOM     42  O   LIG d   1       9.221   0.801  -4.549  0.00  0.00    -0.153 OA
BRANCH  40  43
ATOM     43  C   LIG d   1       7.596   0.300  -6.460  0.00  0.00     0.105 A 
ATOM     44  C   LIG d   1       7.855  -0.946  -7.002  0.00  0.00    -0.035 A 
ATOM     45  C   LIG d   1       7.670  -1.164  -8.355  0.00  0.00    -0.057 A 
ATOM     46  H   LIG d   1       8.201  -1.749  -6.368  0.00  0.00     0.064 H 
ATOM     47  C   LIG d   1       7.226  -0.136  -9.166  0.00  0.00    -0.050 A 
ATOM     48  H   LIG d   1       7.874  -2.137  -8.778  0.00  0.00     0.062 H 
ATOM     49  C   LIG d   1       6.967   1.109  -8.625  0.00  0.00    -0.057 A 
ATOM     50  C   LIG d   1       7.147   1.326  -7.272  0.00  0.00    -0.035 A 
ATOM     51  H   LIG d   1       6.620   1.912  -9.259  0.00  0.00     0.062 H 
ATOM     52  H   LIG d   1       6.940   2.297  -6.848  0.00  0.00     0.064 H 
BRANCH  47  53
ATOM     53  C   LIG d   1       7.025  -0.374 -10.641  0.00  0.00    -0.040 C 
ATOM     54  H   LIG d   1       7.446   0.458 -11.204  0.00  0.00     0.028 H 
ATOM     55  H   LIG d   1       7.524  -1.299 -10.930  0.00  0.00     0.028 H 
ATOM     56  H   LIG d   1       5.959  -0.455 -10.854  0.00  0.00     0.028 H 
ENDBRANCH  47  53
ENDBRANCH  40  43
ENDBRANCH  38  40
ENDBRANCH   1  38
TORSDOF 12
ENDMDL
MODEL 6
REMARK VINA RESULT:      -5.7      4.705      8.358
REMARK  12 active torsions:
REMARK  status: ('A' for Active; 'I' for Inactive)
REMARK    1  A    between atoms: C_1  and  C_2 
REMARK    2  A    between atoms: C_2  and  C_3 
REMARK    3  A    between atoms: C_3  and  C_4 
REMARK    4  A    between atoms: C_4  and  C_5 
REMARK    5  A    between atoms: C_5  and  C_7 
REMARK    6  A    between atoms: C_5  and  N_22 
REMARK    7  A    between atoms: C_7  and  O_9 
REMARK    8  A    between atoms: O_9  and  C_10 
REMARK    9  A    between atoms: C_14  and  C_21 
REMARK   10  A    between atoms: N_22  and  S_23 
REMARK   11  A    between atoms: S_23  and  C_26 
REMARK   12  A    between atoms: C_29  and  C_32 
ROOT
ATOM      1  C   LIG d   1       7.478  -4.479  -5.217  0.00  0.00     0.126 C 
ATOM      2  H   LIG d   1       6.923  -4.919  -4.388  0.00  0.00     0.059 H 
ENDROOT
BRANCH   1   3
ATOM      3  C   LIG d   1       8.594  -3.588  -4.666  0.00  0.00    -0.026 C 
ATOM      4  H   LIG d   1       9.561  -4.046  -4.874  0.00  0.00     0.029 H 
ATOM      5  H   LIG d   1       8.545  -2.609  -5.143  0.00  0.00     0.029 H 
BRANCH   3   6
ATOM      6  C   LIG d   1       8.419  -3.428  -3.155  0.00  0.00    -0.051 C 
ATOM      7  H   LIG d   1       8.424  -2.369  -2.898  0.00  0.00     0.027 H 
ATOM      8  H   LIG d   1       7.470  -3.870  -2.850  0.00  0.00     0.027 H 
BRANCH   6   9
ATOM      9  C   LIG d   1       9.568  -4.134  -2.431  0.00  0.00    -0.056 C 
ATOM     10  H   LIG d   1       9.813  -3.589  -1.520  0.00  0.00     0.026 H 
ATOM     11  H   LIG d   1       9.266  -5.150  -2.176  0.00  0.00     0.026 H 
BRANCH   9  12
ATOM     12  C   LIG d   1      10.794  -4.180  -3.344  0.00  0.00    -0.065 C 
ATOM     13  H   LIG d   1      11.630  -3.680  -2.854  0.00  0.00     0.023 H 
ATOM     14  H   LIG d   1      11.059  -5.218  -3.544  0.00  0.00     0.023 H 
ATOM     15  H   LIG d   1      10.568  -3.674  -4.282  0.00  0.00     0.023 H 
ENDBRANCH   9  12
ENDBRANCH   6   9
ENDBRANCH   3   6
ENDBRANCH   1   3
BRANCH   1  16
ATOM     16  C   LIG d   1       8.080  -5.575  -6.057  0.00  0.00     0.331 C 
ATOM     17  O   LIG d   1       9.252  -5.539  -6.347  0.00  0.00    -0.249 OA
BRANCH  16  18
ATOM     18  O   LIG d   1       7.314  -6.592  -6.484  0.00  0.00    -0.425 OA
BRANCH  18  19
ATOM     19  C   LIG d   1       6.936  -7.511  -5.559  0.00  0.00     0.135 A 
ATOM     20  C   LIG d   1       5.657  -8.041  -5.598  0.00  0.00     0.024 A 
ATOM     21  C   LIG d   1       5.270  -8.979  -4.652  0.00  0.00     0.143 A 
ATOM     22  H   LIG d   1       4.963  -7.724  -6.361  0.00  0.00     0.069 H 
ATOM     23  C   LIG d   1       6.190  -9.386  -3.667  0.00  0.00     0.021 A 
ATOM     24  O   LIG d   1       4.029  -9.508  -4.673  0.00  0.00    -0.422 OA
ATOM     25  C   LIG d   1       7.476  -8.837  -3.639  0.00  0.00    -0.047 A 
ATOM     26  C   LIG d   1       5.769 -10.374  -2.670  0.00  0.00    -0.033 A 
ATOM     27  C   LIG d   1       7.840  -7.914  -4.576  0.00  0.00    -0.018 A 
ATOM     28  H   LIG d   1       8.181  -9.145  -2.881  0.00  0.00     0.063 H 
ATOM     29  H   LIG d   1       8.834  -7.493  -4.558  0.00  0.00     0.065 H 
ATOM     30  C   LIG d   1       4.507 -10.866  -2.747  0.00  0.00     0.026 A 
ATOM     31  C   LIG d   1       3.639 -10.418  -3.766  0.00  0.00     0.338 A 
ATOM     32  H   LIG d   1       4.166 -11.599  -2.030  0.00  0.00     0.069 H 
ATOM     33  O   LIG d   1       2.509 -10.867  -3.824  0.00  0.00    -0.245 OA
BRANCH  26  34
ATOM     34  C   LIG d   1       6.716 -10.835  -1.592  0.00  0.00    -0.039 C 
ATOM     35  H   LIG d   1       6.376 -10.464  -0.626  0.00  0.00     0.028 H 
ATOM     36  H   LIG d   1       6.743 -11.924  -1.574  0.00  0.00     0.028 H 
ATOM     37  H   LIG d   1       7.716 -10.450  -1.797  0.00  0.00     0.028 H 
ENDBRANCH  26  34
ENDBRANCH  18  19
ENDBRANCH  16  18
ENDBRANCH   1  16
BRANCH   1  38
ATOM     38  N   LIG d   1       6.572  -3.674  -6.039  0.00  0.00    -0.176 N 
ATOM     39  H   LIG d   1       6.907  -3.223  -6.830  0.00  0.00     0.149 HD
BRANCH  38  40
ATOM     40  S   LIG d   1       4.976  -3.537  -5.620  0.00  0.00     0.059 S 
ATOM     41  O   LIG d   1       4.289  -3.083  -6.779  0.00  0.00    -0.153 OA
ATOM     42  O   LIG d   1       4.626  -4.740  -4.951  0.00  0.00    -0.153 OA
BRANCH  40  43
ATOM     43  C   LIG d   1       4.859  -2.246  -4.428  0.00  0.00     0.105 A 
ATOM     44  C   LIG d   1       5.361  -0.990  -4.717  0.00  0.00    -0.035 A 
ATOM     45  C   LIG d   1       5.269   0.024  -3.781  0.00  0.00    -0.057 A 
ATOM     46  H   LIG d   1       5.823  -0.800  -5.674  0.00  0.00     0.064 H 
ATOM     47  C   LIG d   1       4.676  -0.219  -2.555  0.00  0.00    -0.050 A 
ATOM     48  H   LIG d   1       5.662   1.004  -4.007  0.00  0.00     0.062 H 
ATOM     49  C   LIG d   1       4.175  -1.474  -2.267  0.00  0.00    -0.057 A 
ATOM     50  C   LIG d   1       4.263  -2.486  -3.204  0.00  0.00    -0.035 A 
ATOM     51  H   LIG d   1       3.713  -1.663  -1.309  0.00  0.00     0.062 H 
ATOM     52  H   LIG d   1       3.867  -3.466  -2.980  0.00  0.00     0.064 H 
BRANCH  47  53
ATOM     53  C   LIG d   1       4.577   0.886  -1.535  0.00  0.00    -0.040 C 
ATOM     54  H   LIG d   1       3.537   1.014  -1.238  0.00  0.00     0.028 H 
ATOM     55  H   LIG d   1       5.177   0.628  -0.662  0.00  0.00     0.028 H 
ATOM     56  H   LIG d   1       4.948   1.815  -1.969  0.00  0.00     0.028 H 
ENDBRANCH  47  53
ENDBRANCH  40  43
ENDBRANCH  38  40
ENDBRANCH   1  38
TORSDOF 12
ENDMDL
MODEL 7
REMARK VINA RESULT:      -5.6      3.173      7.341
REMARK  12 active torsions:
REMARK  status: ('A' for Active; 'I' for Inactive)
REMARK    1  A    between atoms: C_1  and  C_2 
REMARK    2  A    between atoms: C_2  and  C_3 
REMARK    3  A    between atoms: C_3  and  C_4 
REMARK    4  A    between atoms: C_4  and  C_5 
REMARK    5  A    between atoms: C_5  and  C_7 
REMARK    6  A    between atoms: C_5  and  N_22 
REMARK    7  A    between atoms: C_7  and  O_9 
REMARK    8  A    between atoms: O_9  and  C_10 
REMARK    9  A    between atoms: C_14  and  C_21 
REMARK   10  A    between atoms: N_22  and  S_23 
REMARK   11  A    between atoms: S_23  and  C_26 
REMARK   12  A    between atoms: C_29  and  C_32 
ROOT
ATOM      1  C   LIG d   1       4.331   1.172  -9.234  0.00  0.00     0.126 C 
ATOM      2  H   LIG d   1       4.564   0.108  -9.250  0.00  0.00     0.059 H 
ENDROOT
BRANCH   1   3
ATOM      3  C   LIG d   1       3.956   1.633 -10.644  0.00  0.00    -0.026 C 
ATOM      4  H   LIG d   1       2.939   2.025 -10.641  0.00  0.00     0.029 H 
ATOM      5  H   LIG d   1       4.646   2.414 -10.966  0.00  0.00     0.029 H 
BRANCH   3   6
ATOM      6  C   LIG d   1       4.043   0.448 -11.607  0.00  0.00    -0.051 C 
ATOM      7  H   LIG d   1       4.069   0.814 -12.634  0.00  0.00     0.027 H 
ATOM      8  H   LIG d   1       4.950  -0.121 -11.402  0.00  0.00     0.027 H 
BRANCH   6   9
ATOM      9  C   LIG d   1       2.821  -0.453 -11.418  0.00  0.00    -0.056 C 
ATOM     10  H   LIG d   1       2.895  -0.970 -10.461  0.00  0.00     0.026 H 
ATOM     11  H   LIG d   1       1.915   0.154 -11.434  0.00  0.00     0.026 H 
BRANCH   9  12
ATOM     12  C   LIG d   1       2.764  -1.481 -12.549  0.00  0.00    -0.065 C 
ATOM     13  H   LIG d   1       3.659  -1.392 -13.166  0.00  0.00     0.023 H 
ATOM     14  H   LIG d   1       2.712  -2.484 -12.127  0.00  0.00     0.023 H 
ATOM     15  H   LIG d   1       1.881  -1.298 -13.163  0.00  0.00     0.023 H 
ENDBRANCH   9  12
ENDBRANCH   6   9
ENDBRANCH   3   6
ENDBRANCH   1   3
BRANCH   1  16
ATOM     16  C   LIG d   1       3.174   1.419  -8.301  0.00  0.00     0.331 C 
ATOM     17  O   LIG d   1       2.775   2.545  -8.119  0.00  0.00    -0.249 OA
BRANCH  16  18
ATOM     18  O   LIG d   1       2.585   0.389  -7.673  0.00  0.00    -0.425 OA
BRANCH  18  19
ATOM     19  C   LIG d   1       3.166  -0.048  -6.526  0.00  0.00     0.135 A 
ATOM     20  C   LIG d   1       4.214  -0.952  -6.587  0.00  0.00     0.024 A 
ATOM     21  C   LIG d   1       4.808  -1.399  -5.416  0.00  0.00     0.143 A 
ATOM     22  H   LIG d   1       4.567  -1.308  -7.544  0.00  0.00     0.069 H 
ATOM     23  C   LIG d   1       4.340  -0.921  -4.178  0.00  0.00     0.021 A 
ATOM     24  O   LIG d   1       5.830  -2.280  -5.453  0.00  0.00    -0.422 OA
ATOM     25  C   LIG d   1       3.277  -0.012  -4.134  0.00  0.00    -0.047 A 
ATOM     26  C   LIG d   1       4.970  -1.403  -2.947  0.00  0.00    -0.033 A 
ATOM     27  C   LIG d   1       2.704   0.417  -5.296  0.00  0.00    -0.018 A 
ATOM     28  H   LIG d   1       2.914   0.353  -3.185  0.00  0.00     0.063 H 
ATOM     29  H   LIG d   1       1.886   1.122  -5.263  0.00  0.00     0.065 H 
ATOM     30  C   LIG d   1       5.994  -2.289  -3.055  0.00  0.00     0.026 A 
ATOM     31  C   LIG d   1       6.417  -2.722  -4.330  0.00  0.00     0.338 A 
ATOM     32  H   LIG d   1       6.484  -2.662  -2.167  0.00  0.00     0.069 H 
ATOM     33  O   LIG d   1       7.335  -3.516  -4.413  0.00  0.00    -0.245 OA
BRANCH  26  34
ATOM     34  C   LIG d   1       4.499  -0.925  -1.598  0.00  0.00    -0.039 C 
ATOM     35  H   LIG d   1       3.454  -1.199  -1.460  0.00  0.00     0.028 H 
ATOM     36  H   LIG d   1       5.103  -1.387  -0.818  0.00  0.00     0.028 H 
ATOM     37  H   LIG d   1       4.600   0.160  -1.541  0.00  0.00     0.028 H 
ENDBRANCH  26  34
ENDBRANCH  18  19
ENDBRANCH  16  18
ENDBRANCH   1  16
BRANCH   1  38
ATOM     38  N   LIG d   1       5.501   1.922  -8.770  0.00  0.00    -0.176 N 
ATOM     39  H   LIG d   1       5.398   2.833  -8.451  0.00  0.00     0.149 HD
BRANCH  38  40
ATOM     40  S   LIG d   1       6.997   1.214  -8.788  0.00  0.00     0.059 S 
ATOM     41  O   LIG d   1       6.783  -0.190  -8.838  0.00  0.00    -0.153 OA
ATOM     42  O   LIG d   1       7.761   1.903  -9.768  0.00  0.00    -0.153 OA
BRANCH  40  43
ATOM     43  C   LIG d   1       7.753   1.552  -7.233  0.00  0.00     0.105 A 
ATOM     44  C   LIG d   1       8.675   2.576  -7.119  0.00  0.00    -0.035 A 
ATOM     45  C   LIG d   1       9.268   2.841  -5.899  0.00  0.00    -0.057 A 
ATOM     46  H   LIG d   1       8.932   3.169  -7.985  0.00  0.00     0.064 H 
ATOM     47  C   LIG d   1       8.938   2.082  -4.791  0.00  0.00    -0.050 A 
ATOM     48  H   LIG d   1       9.989   3.640  -5.811  0.00  0.00     0.062 H 
ATOM     49  C   LIG d   1       8.016   1.059  -4.904  0.00  0.00    -0.057 A 
ATOM     50  C   LIG d   1       7.420   0.796  -6.123  0.00  0.00    -0.035 A 
ATOM     51  H   LIG d   1       7.759   0.466  -4.039  0.00  0.00     0.062 H 
ATOM     52  H   LIG d   1       6.696   0.000  -6.211  0.00  0.00     0.064 H 
BRANCH  47  53
ATOM     53  C   LIG d   1       9.584   2.371  -3.461  0.00  0.00    -0.040 C 
ATOM     54  H   LIG d   1      10.223   1.536  -3.177  0.00  0.00     0.028 H 
ATOM     55  H   LIG d   1      10.184   3.279  -3.538  0.00  0.00     0.028 H 
ATOM     56  H   LIG d   1       8.812   2.511  -2.704  0.00  0.00     0.028 H 
ENDBRANCH  47  53
ENDBRANCH  40  43
ENDBRANCH  38  40
ENDBRANCH   1  38
TORSDOF 12
ENDMDL
MODEL 8
REMARK VINA RESULT:      -5.6      1.503      2.087
REMARK  12 active torsions:
REMARK  status: ('A' for Active; 'I' for Inactive)
REMARK    1  A    between atoms: C_1  and  C_2 
REMARK    2  A    between atoms: C_2  and  C_3 
REMARK    3  A    between atoms: C_3  and  C_4 
REMARK    4  A    between atoms: C_4  and  C_5 
REMARK    5  A    between atoms: C_5  and  C_7 
REMARK    6  A    between atoms: C_5  and  N_22 
REMARK    7  A    between atoms: C_7  and  O_9 
REMARK    8  A    between atoms: O_9  and  C_10 
REMARK    9  A    between atoms: C_14  and  C_21 
REMARK   10  A    between atoms: N_22  and  S_23 
REMARK   11  A    between atoms: S_23  and  C_26 
REMARK   12  A    between atoms: C_29  and  C_32 
ROOT
ATOM      1  C   LIG d   1       4.384  -0.517  -5.847  0.00  0.00     0.126 C 
ATOM      2  H   LIG d   1       5.257  -0.023  -6.274  0.00  0.00     0.059 H 
ENDROOT
BRANCH   1   3
ATOM      3  C   LIG d   1       4.561  -0.646  -4.332  0.00  0.00    -0.026 C 
ATOM      4  H   LIG d   1       5.603  -0.458  -4.070  0.00  0.00     0.029 H 
ATOM      5  H   LIG d   1       3.923   0.081  -3.829  0.00  0.00     0.029 H 
BRANCH   3   6
ATOM      6  C   LIG d   1       4.172  -2.058  -3.892  0.00  0.00    -0.051 C 
ATOM      7  H   LIG d   1       3.267  -2.366  -4.416  0.00  0.00     0.027 H 
ATOM      8  H   LIG d   1       4.980  -2.749  -4.129  0.00  0.00     0.027 H 
BRANCH   6   9
ATOM      9  C   LIG d   1       3.916  -2.070  -2.383  0.00  0.00    -0.056 C 
ATOM     10  H   LIG d   1       2.853  -2.218  -2.195  0.00  0.00     0.026 H 
ATOM     11  H   LIG d   1       4.483  -2.881  -1.925  0.00  0.00     0.026 H 
BRANCH   9  12
ATOM     12  C   LIG d   1       4.359  -0.736  -1.780  0.00  0.00    -0.065 C 
ATOM     13  H   LIG d   1       5.017  -0.221  -2.481  0.00  0.00     0.023 H 
ATOM     14  H   LIG d   1       3.484  -0.117  -1.584  0.00  0.00     0.023 H 
ATOM     15  H   LIG d   1       4.893  -0.917  -0.848  0.00  0.00     0.023 H 
ENDBRANCH   9  12
ENDBRANCH   6   9
ENDBRANCH   3   6
ENDBRANCH   1   3
BRANCH   1  16
ATOM     16  C   LIG d   1       3.152   0.298  -6.141  0.00  0.00     0.331 C 
ATOM     17  O   LIG d   1       2.153   0.142  -5.479  0.00  0.00    -0.249 OA
BRANCH  16  18
ATOM     18  O   LIG d   1       3.163   1.198  -7.137  0.00  0.00    -0.425 OA
BRANCH  18  19
ATOM     19  C   LIG d   1       3.191   0.713  -8.405  0.00  0.00     0.135 A 
ATOM     20  C   LIG d   1       2.135  -0.051  -8.873  0.00  0.00     0.024 A 
ATOM     21  C   LIG d   1       2.163  -0.547 -10.168  0.00  0.00     0.143 A 
ATOM     22  H   LIG d   1       1.293  -0.261  -8.231  0.00  0.00     0.069 H 
ATOM     23  C   LIG d   1       3.266  -0.259 -10.994  0.00  0.00     0.021 A 
ATOM     24  O   LIG d   1       1.144  -1.294 -10.643  0.00  0.00    -0.422 OA
ATOM     25  C   LIG d   1       4.327   0.511 -10.504  0.00  0.00    -0.047 A 
ATOM     26  C   LIG d   1       3.288  -0.791 -12.358  0.00  0.00    -0.033 A 
ATOM     27  C   LIG d   1       4.283   0.990  -9.227  0.00  0.00    -0.018 A 
ATOM     28  H   LIG d   1       5.175   0.729 -11.135  0.00  0.00     0.063 H 
ATOM     29  H   LIG d   1       5.099   1.588  -8.849  0.00  0.00     0.065 H 
ATOM     30  C   LIG d   1       2.231  -1.535 -12.774  0.00  0.00     0.026 A 
ATOM     31  C   LIG d   1       1.155  -1.780 -11.895  0.00  0.00     0.338 A 
ATOM     32  H   LIG d   1       2.214  -1.940 -13.776  0.00  0.00     0.069 H 
ATOM     33  O   LIG d   1       0.214  -2.449 -12.279  0.00  0.00    -0.245 OA
BRANCH  26  34
ATOM     34  C   LIG d   1       4.450  -0.515 -13.278  0.00  0.00    -0.039 C 
ATOM     35  H   LIG d   1       5.232   0.007 -12.728  0.00  0.00     0.028 H 
ATOM     36  H   LIG d   1       4.841  -1.457 -13.661  0.00  0.00     0.028 H 
ATOM     37  H   LIG d   1       4.115   0.106 -14.110  0.00  0.00     0.028 H 
ENDBRANCH  26  34
ENDBRANCH  18  19
ENDBRANCH  16  18
ENDBRANCH   1  16
BRANCH   1  38
ATOM     38  N   LIG d   1       4.241  -1.850  -6.436  0.00  0.00    -0.176 N 
ATOM     39  H   LIG d   1       3.427  -2.359  -6.293  0.00  0.00     0.149 HD
BRANCH  38  40
ATOM     40  S   LIG d   1       5.466  -2.489  -7.348  0.00  0.00     0.059 S 
ATOM     41  O   LIG d   1       6.238  -1.392  -7.817  0.00  0.00    -0.153 OA
ATOM     42  O   LIG d   1       6.031  -3.547  -6.587  0.00  0.00    -0.153 OA
BRANCH  40  43
ATOM     43  C   LIG d   1       4.730  -3.228  -8.767  0.00  0.00     0.105 A 
ATOM     44  C   LIG d   1       5.431  -3.292  -9.957  0.00  0.00    -0.035 A 
ATOM     45  C   LIG d   1       4.853  -3.872 -11.071  0.00  0.00    -0.057 A 
ATOM     46  H   LIG d   1       6.431  -2.888 -10.017  0.00  0.00     0.064 H 
ATOM     47  C   LIG d   1       3.572  -4.389 -10.994  0.00  0.00    -0.050 A 
ATOM     48  H   LIG d   1       5.400  -3.921 -12.000  0.00  0.00     0.062 H 
ATOM     49  C   LIG d   1       2.872  -4.326  -9.805  0.00  0.00    -0.057 A 
ATOM     50  C   LIG d   1       3.451  -3.750  -8.690  0.00  0.00    -0.035 A 
ATOM     51  H   LIG d   1       1.871  -4.730  -9.746  0.00  0.00     0.062 H 
ATOM     52  H   LIG d   1       2.905  -3.704  -7.760  0.00  0.00     0.064 H 
BRANCH  47  53
ATOM     53  C   LIG d   1       2.942  -5.022 -12.208  0.00  0.00    -0.040 C 
ATOM     54  H   LIG d   1       3.062  -6.103 -12.158  0.00  0.00     0.028 H 
ATOM     55  H   LIG d   1       1.881  -4.773 -12.237  0.00  0.00     0.028 H 
ATOM     56  H   LIG d   1       3.428  -4.643 -13.109  0.00  0.00     0.028 H 
ENDBRANCH  47  53
ENDBRANCH  40  43
ENDBRANCH  38  40
ENDBRANCH   1  38
TORSDOF 12
ENDMDL
MODEL 9
REMARK VINA RESULT:      -5.5      4.864      8.694
REMARK  12 active torsions:
REMARK  status: ('A' for Active; 'I' for Inactive)
REMARK    1  A    between atoms: C_1  and  C_2 
REMARK    2  A    between atoms: C_2  and  C_3 
REMARK    3  A    between atoms: C_3  and  C_4 
REMARK    4  A    between atoms: C_4  and  C_5 
REMARK    5  A    between atoms: C_5  and  C_7 
REMARK    6  A    between atoms: C_5  and  N_22 
REMARK    7  A    between atoms: C_7  and  O_9 
REMARK    8  A    between atoms: O_9  and  C_10 
REMARK    9  A    between atoms: C_14  and  C_21 
REMARK   10  A    between atoms: N_22  and  S_23 
REMARK   11  A    between atoms: S_23  and  C_26 
REMARK   12  A    between atoms: C_29  and  C_32 
ROOT
ATOM      1  C   LIG d   1       7.421  -4.544  -5.095  0.00  0.00     0.126 C 
ATOM      2  H   LIG d   1       6.864  -4.940  -4.245  0.00  0.00     0.059 H 
ENDROOT
BRANCH   1   3
ATOM      3  C   LIG d   1       8.433  -3.506  -4.604  0.00  0.00    -0.026 C 
ATOM      4  H   LIG d   1       9.406  -3.707  -5.052  0.00  0.00     0.029 H 
ATOM      5  H   LIG d   1       8.099  -2.509  -4.890  0.00  0.00     0.029 H 
BRANCH   3   6
ATOM      6  C   LIG d   1       8.547  -3.588  -3.080  0.00  0.00    -0.051 C 
ATOM      7  H   LIG d   1       8.442  -2.590  -2.654  0.00  0.00     0.027 H 
ATOM      8  H   LIG d   1       7.759  -4.233  -2.691  0.00  0.00     0.027 H 
BRANCH   6   9
ATOM      9  C   LIG d   1       9.912  -4.165  -2.701  0.00  0.00    -0.056 C 
ATOM     10  H   LIG d   1      10.483  -4.372  -3.606  0.00  0.00     0.026 H 
ATOM     11  H   LIG d   1      10.453  -3.444  -2.087  0.00  0.00     0.026 H 
BRANCH   9  12
ATOM     12  C   LIG d   1       9.718  -5.460  -1.913  0.00  0.00    -0.065 C 
ATOM     13  H   LIG d   1      10.364  -6.237  -2.325  0.00  0.00     0.023 H 
ATOM     14  H   LIG d   1       9.976  -5.293  -0.867  0.00  0.00     0.023 H 
ATOM     15  H   LIG d   1       8.678  -5.778  -1.985  0.00  0.00     0.023 H 
ENDBRANCH   9  12
ENDBRANCH   6   9
ENDBRANCH   3   6
ENDBRANCH   1   3
BRANCH   1  16
ATOM     16  C   LIG d   1       8.149  -5.667  -5.786  0.00  0.00     0.331 C 
ATOM     17  O   LIG d   1       9.357  -5.690  -5.793  0.00  0.00    -0.249 OA
BRANCH  16  18
ATOM     18  O   LIG d   1       7.456  -6.643  -6.395  0.00  0.00    -0.425 OA
BRANCH  18  19
ATOM     19  C   LIG d   1       6.829  -7.545  -5.596  0.00  0.00     0.135 A 
ATOM     20  C   LIG d   1       7.507  -8.102  -4.524  0.00  0.00     0.024 A 
ATOM     21  C   LIG d   1       6.868  -9.024  -3.708  0.00  0.00     0.143 A 
ATOM     22  H   LIG d   1       8.530  -7.820  -4.325  0.00  0.00     0.069 H 
ATOM     23  C   LIG d   1       5.532  -9.375  -3.978  0.00  0.00     0.021 A 
ATOM     24  O   LIG d   1       7.510  -9.578  -2.658  0.00  0.00    -0.422 OA
ATOM     25  C   LIG d   1       4.864  -8.807  -5.069  0.00  0.00    -0.047 A 
ATOM     26  C   LIG d   1       4.868 -10.353  -3.113  0.00  0.00    -0.033 A 
ATOM     27  C   LIG d   1       5.508  -7.903  -5.862  0.00  0.00    -0.018 A 
ATOM     28  H   LIG d   1       3.841  -9.080  -5.279  0.00  0.00     0.063 H 
ATOM     29  H   LIG d   1       4.992  -7.460  -6.701  0.00  0.00     0.065 H 
ATOM     30  C   LIG d   1       5.570 -10.873  -2.074  0.00  0.00     0.026 A 
ATOM     31  C   LIG d   1       6.905 -10.470  -1.858  0.00  0.00     0.338 A 
ATOM     32  H   LIG d   1       5.109 -11.594  -1.415  0.00  0.00     0.069 H 
ATOM     33  O   LIG d   1       7.525 -10.943  -0.923  0.00  0.00    -0.245 OA
BRANCH  26  34
ATOM     34  C   LIG d   1       3.441 -10.767  -3.367  0.00  0.00    -0.039 C 
ATOM     35  H   LIG d   1       3.313 -11.004  -4.423  0.00  0.00     0.028 H 
ATOM     36  H   LIG d   1       3.205 -11.645  -2.766  0.00  0.00     0.028 H 
ATOM     37  H   LIG d   1       2.772  -9.950  -3.095  0.00  0.00     0.028 H 
ENDBRANCH  26  34
ENDBRANCH  18  19
ENDBRANCH  16  18
ENDBRANCH   1  16
BRANCH   1  38
ATOM     38  N   LIG d   1       6.492  -3.913  -6.036  0.00  0.00    -0.176 N 
ATOM     39  H   LIG d   1       6.808  -3.613  -6.903  0.00  0.00     0.149 HD
BRANCH  38  40
ATOM     40  S   LIG d   1       4.902  -3.712  -5.620  0.00  0.00     0.059 S 
ATOM     41  O   LIG d   1       4.233  -3.248  -6.784  0.00  0.00    -0.153 OA
ATOM     42  O   LIG d   1       4.508  -4.892  -4.935  0.00  0.00    -0.153 OA
BRANCH  40  43
ATOM     43  C   LIG d   1       4.833  -2.402  -4.444  0.00  0.00     0.105 A 
ATOM     44  C   LIG d   1       4.251  -2.612  -3.207  0.00  0.00    -0.035 A 
ATOM     45  C   LIG d   1       4.197  -1.584  -2.285  0.00  0.00    -0.057 A 
ATOM     46  H   LIG d   1       3.839  -3.580  -2.962  0.00  0.00     0.064 H 
ATOM     47  C   LIG d   1       4.724  -0.345  -2.598  0.00  0.00    -0.050 A 
ATOM     48  H   LIG d   1       3.741  -1.749  -1.319  0.00  0.00     0.062 H 
ATOM     49  C   LIG d   1       5.306  -0.135  -3.834  0.00  0.00    -0.057 A 
ATOM     50  C   LIG d   1       5.364  -1.164  -4.755  0.00  0.00    -0.035 A 
ATOM     51  H   LIG d   1       5.718   0.833  -4.079  0.00  0.00     0.062 H 
ATOM     52  H   LIG d   1       5.823  -1.001  -5.719  0.00  0.00     0.064 H 
BRANCH  47  53
ATOM     53  C   LIG d   1       4.664   0.776  -1.593  0.00  0.00    -0.040 C 
ATOM     54  H   LIG d   1       5.435   0.628  -0.837  0.00  0.00     0.028 H 
ATOM     55  H   LIG d   1       4.829   1.727  -2.099  0.00  0.00     0.028 H 
ATOM     56  H   LIG d   1       3.684   0.784  -1.115  0.00  0.00     0.028 H 
ENDBRANCH  47  53
ENDBRANCH  40  43
ENDBRANCH  38  40
ENDBRANCH   1  38
TORSDOF 12
ENDMDL
MODEL 10
REMARK VINA RESULT:      -5.3      2.323      4.335
REMARK  12 active torsions:
REMARK  status: ('A' for Active; 'I' for Inactive)
REMARK    1  A    between atoms: C_1  and  C_2 
REMARK    2  A    between atoms: C_2  and  C_3 
REMARK    3  A    between atoms: C_3  and  C_4 
REMARK    4  A    between atoms: C_4  and  C_5 
REMARK    5  A    between atoms: C_5  and  C_7 
REMARK    6  A    between atoms: C_5  and  N_22 
REMARK    7  A    between atoms: C_7  and  O_9 
REMARK    8  A    between atoms: O_9  and  C_10 
REMARK    9  A    between atoms: C_14  and  C_21 
REMARK   10  A    between atoms: N_22  and  S_23 
REMARK   11  A    between atoms: S_23  and  C_26 
REMARK   12  A    between atoms: C_29  and  C_32 
ROOT
ATOM      1  C   LIG d   1       4.136  -0.788  -6.119  0.00  0.00     0.126 C 
ATOM      2  H   LIG d   1       3.055  -0.802  -6.259  0.00  0.00     0.059 H 
ENDROOT
BRANCH   1   3
ATOM      3  C   LIG d   1       4.464  -0.172  -4.756  0.00  0.00    -0.026 C 
ATOM      4  H   LIG d   1       4.986  -0.906  -4.142  0.00  0.00     0.029 H 
ATOM      5  H   LIG d   1       5.100   0.702  -4.897  0.00  0.00     0.029 H 
BRANCH   3   6
ATOM      6  C   LIG d   1       3.168   0.247  -4.061  0.00  0.00    -0.051 C 
ATOM      7  H   LIG d   1       3.326   1.187  -3.533  0.00  0.00     0.027 H 
ATOM      8  H   LIG d   1       2.382   0.377  -4.805  0.00  0.00     0.027 H 
BRANCH   6   9
ATOM      9  C   LIG d   1       2.752  -0.835  -3.062  0.00  0.00    -0.056 C 
ATOM     10  H   LIG d   1       2.040  -0.419  -2.351  0.00  0.00     0.026 H 
ATOM     11  H   LIG d   1       2.290  -1.665  -3.597  0.00  0.00     0.026 H 
BRANCH   9  12
ATOM     12  C   LIG d   1       3.987  -1.338  -2.312  0.00  0.00    -0.065 C 
ATOM     13  H   LIG d   1       3.971  -0.957  -1.290  0.00  0.00     0.023 H 
ATOM     14  H   LIG d   1       3.982  -2.427  -2.293  0.00  0.00     0.023 H 
ATOM     15  H   LIG d   1       4.887  -0.986  -2.815  0.00  0.00     0.023 H 
ENDBRANCH   9  12
ENDBRANCH   6   9
ENDBRANCH   3   6
ENDBRANCH   1   3
BRANCH   1  16
ATOM     16  C   LIG d   1       4.668  -2.196  -6.174  0.00  0.00     0.331 C 
ATOM     17  O   LIG d   1       4.355  -2.994  -5.323  0.00  0.00    -0.249 OA
BRANCH  16  18
ATOM     18  O   LIG d   1       5.490  -2.565  -7.170  0.00  0.00    -0.425 OA
BRANCH  18  19
ATOM     19  C   LIG d   1       4.926  -3.179  -8.241  0.00  0.00     0.135 A 
ATOM     20  C   LIG d   1       3.949  -4.142  -8.045  0.00  0.00     0.024 A 
ATOM     21  C   LIG d   1       3.372  -4.771  -9.138  0.00  0.00     0.143 A 
ATOM     22  H   LIG d   1       3.638  -4.402  -7.044  0.00  0.00     0.069 H 
ATOM     23  C   LIG d   1       3.784  -4.416 -10.436  0.00  0.00     0.021 A 
ATOM     24  O   LIG d   1       2.418  -5.711  -8.969  0.00  0.00    -0.422 OA
ATOM     25  C   LIG d   1       4.776  -3.446 -10.616  0.00  0.00    -0.047 A 
ATOM     26  C   LIG d   1       3.172  -5.090 -11.583  0.00  0.00    -0.033 A 
ATOM     27  C   LIG d   1       5.333  -2.837  -9.529  0.00  0.00    -0.018 A 
ATOM     28  H   LIG d   1       5.096  -3.175 -11.611  0.00  0.00     0.063 H 
ATOM     29  H   LIG d   1       6.096  -2.085  -9.667  0.00  0.00     0.065 H 
ATOM     30  C   LIG d   1       2.219  -6.027 -11.344  0.00  0.00     0.026 A 
ATOM     31  C   LIG d   1       1.849  -6.329 -10.016  0.00  0.00     0.338 A 
ATOM     32  H   LIG d   1       1.744  -6.540 -12.168  0.00  0.00     0.069 H 
ATOM     33  O   LIG d   1       0.993  -7.171  -9.815  0.00  0.00    -0.245 OA
BRANCH  26  34
ATOM     34  C   LIG d   1       3.585  -4.749 -12.992  0.00  0.00    -0.039 C 
ATOM     35  H   LIG d   1       2.879  -5.190 -13.695  0.00  0.00     0.028 H 
ATOM     36  H   LIG d   1       3.594  -3.666 -13.116  0.00  0.00     0.028 H 
ATOM     37  H   LIG d   1       4.583  -5.144 -13.184  0.00  0.00     0.028 H 
ENDBRANCH  26  34
ENDBRANCH  18  19
ENDBRANCH  16  18
ENDBRANCH   1  16
BRANCH   1  38
ATOM     38  N   LIG d   1       4.756   0.011  -7.178  0.00  0.00    -0.176 N 
ATOM     39  H   LIG d   1       5.704  -0.081  -7.363  0.00  0.00     0.149 HD
BRANCH  38  40
ATOM     40  S   LIG d   1       3.838   1.069  -8.062  0.00  0.00     0.059 S 
ATOM     41  O   LIG d   1       2.793   1.512  -7.207  0.00  0.00    -0.153 OA
ATOM     42  O   LIG d   1       4.743   1.968  -8.687  0.00  0.00    -0.153 OA
BRANCH  40  43
ATOM     43  C   LIG d   1       3.075   0.145  -9.352  0.00  0.00     0.105 A 
ATOM     44  C   LIG d   1       2.043  -0.728  -9.062  0.00  0.00    -0.035 A 
ATOM     45  C   LIG d   1       1.444  -1.453 -10.075  0.00  0.00    -0.057 A 
ATOM     46  H   LIG d   1       1.704  -0.843  -8.043  0.00  0.00     0.064 H 
ATOM     47  C   LIG d   1       1.877  -1.306 -11.380  0.00  0.00    -0.050 A 
ATOM     48  H   LIG d   1       0.638  -2.136  -9.847  0.00  0.00     0.062 H 
ATOM     49  C   LIG d   1       2.908  -0.433 -11.671  0.00  0.00    -0.057 A 
ATOM     50  C   LIG d   1       3.505   0.296 -10.658  0.00  0.00    -0.035 A 
ATOM     51  H   LIG d   1       3.247  -0.318 -12.690  0.00  0.00     0.062 H 
ATOM     52  H   LIG d   1       4.307   0.981 -10.886  0.00  0.00     0.064 H 
BRANCH  47  53
ATOM     53  C   LIG d   1       1.224  -2.096 -12.484  0.00  0.00    -0.040 C 
ATOM     54  H   LIG d   1       0.608  -2.884 -12.052  0.00  0.00     0.028 H 
ATOM     55  H   LIG d   1       0.600  -1.433 -13.085  0.00  0.00     0.028 H 
ATOM     56  H   LIG d   1       1.993  -2.541 -13.116  0.00  0.00     0.028 H 
ENDBRANCH  47  53
ENDBRANCH  40  43
ENDBRANCH  38  40
ENDBRANCH   1  38
TORSDOF 12
ENDMDL
