MODEL 1
REMARK VINA RESULT:      -6.1      0.000      0.000
REMARK  0 active torsions:
REMARK  status: ('A' for Active; 'I' for Inactive)
ROOT
ATOM      1  C   LIG d   1       4.112   1.278  -2.313  0.00  0.00    -0.061 A 
ATOM      2  C   LIG d   1       3.179   0.260  -2.337  0.00  0.00    -0.061 A 
ATOM      3  C   LIG d   1       3.509  -0.983  -2.857  0.00  0.00    -0.051 A 
ATOM      4  C   LIG d   1       4.789  -1.209  -3.345  0.00  0.00     0.030 A 
ATOM      5  C   LIG d   1       5.741  -0.175  -3.316  0.00  0.00     0.036 A 
ATOM      6  C   LIG d   1       5.394   1.067  -2.797  0.00  0.00    -0.050 A 
ATOM      7  C   LIG d   1       7.101  -0.425  -3.838  0.00  0.00     0.231 A 
ATOM      8  O   LIG d   1       7.934   0.458  -3.820  0.00  0.00    -0.283 OA
ATOM      9  C   LIG d   1       7.442  -1.758  -4.383  0.00  0.00     0.228 A 
ATOM     10  C   LIG d   1       6.524  -2.747  -4.410  0.00  0.00     0.162 A 
ATOM     11  C   LIG d   1       5.165  -2.529  -3.899  0.00  0.00     0.189 A 
ATOM     12  O   LIG d   1       4.351  -3.432  -3.931  0.00  0.00    -0.290 OA
ATOM     13 CL   LIG d   1       6.956  -4.300  -5.056  0.00  0.00    -0.105 Cl
ATOM     14  O   LIG d   1       8.688  -1.988  -4.861  0.00  0.00    -0.287 OA
ATOM     15  H   LIG d   1       3.843   2.244  -1.911  0.00  0.00     0.062 H 
ATOM     16  H   LIG d   1       2.185   0.435  -1.954  0.00  0.00     0.062 H 
ATOM     17  H   LIG d   1       2.773  -1.774  -2.877  0.00  0.00     0.062 H 
ATOM     18  H   LIG d   1       6.121   1.866  -2.773  0.00  0.00     0.062 H 
ATOM     19  H   LIG d   1       7.311  -2.134  -4.464  0.00  0.00     0.063 H 
ENDROOT
TORSDOF 0
ENDMDL
MODEL 2
REMARK VINA RESULT:      -6.0      1.083      2.876
REMARK  0 active torsions:
REMARK  status: ('A' for Active; 'I' for Inactive)
ROOT
ATOM      1  C   LIG d   1       3.170   0.272  -2.312  0.00  0.00    -0.061 A 
ATOM      2  C   LIG d   1       4.116   1.278  -2.300  0.00  0.00    -0.061 A 
ATOM      3  C   LIG d   1       5.395   1.045  -2.784  0.00  0.00    -0.051 A 
ATOM      4  C   LIG d   1       5.722  -0.204  -3.296  0.00  0.00     0.030 A 
ATOM      5  C   LIG d   1       4.758  -1.226  -3.313  0.00  0.00     0.036 A 
ATOM      6  C   LIG d   1       3.482  -0.980  -2.820  0.00  0.00    -0.050 A 
ATOM      7  C   LIG d   1       5.115  -2.553  -3.860  0.00  0.00     0.231 A 
ATOM      8  O   LIG d   1       4.293  -3.446  -3.882  0.00  0.00    -0.283 OA
ATOM      9  C   LIG d   1       6.481  -2.786  -4.379  0.00  0.00     0.228 A 
ATOM     10  C   LIG d   1       7.404  -1.801  -4.359  0.00  0.00     0.162 A 
ATOM     11  C   LIG d   1       7.079  -0.474  -3.823  0.00  0.00     0.189 A 
ATOM     12  O   LIG d   1       7.922   0.402  -3.812  0.00  0.00    -0.290 OA
ATOM     13 CL   LIG d   1       8.998  -2.107  -4.977  0.00  0.00    -0.105 Cl
ATOM     14  O   LIG d   1       6.809  -4.000  -4.880  0.00  0.00    -0.287 OA
ATOM     15  H   LIG d   1       2.178   0.464  -1.928  0.00  0.00     0.062 H 
ATOM     16  H   LIG d   1       3.860   2.250  -1.906  0.00  0.00     0.062 H 
ATOM     17  H   LIG d   1       6.132   1.834  -2.767  0.00  0.00     0.062 H 
ATOM     18  H   LIG d   1       2.736  -1.762  -2.830  0.00  0.00     0.062 H 
ATOM     19  H   LIG d   1       6.849  -2.627  -4.447  0.00  0.00     0.063 H 
ENDROOT
TORSDOF 0
ENDMDL
MODEL 3
REMARK VINA RESULT:      -5.9      1.616      1.968
REMARK  0 active torsions:
REMARK  status: ('A' for Active; 'I' for Inactive)
ROOT
ATOM      1  C   LIG d   1       4.383   0.523  -1.868  0.00  0.00    -0.061 A 
ATOM      2  C   LIG d   1       4.264  -0.853  -1.851  0.00  0.00    -0.061 A 
ATOM      3  C   LIG d   1       5.139  -1.642  -2.581  0.00  0.00    -0.051 A 
ATOM      4  C   LIG d   1       6.149  -1.047  -3.326  0.00  0.00     0.030 A 
ATOM      5  C   LIG d   1       6.274   0.354  -3.339  0.00  0.00     0.036 A 
ATOM      6  C   LIG d   1       5.386   1.133  -2.606  0.00  0.00    -0.050 A 
ATOM      7  C   LIG d   1       7.352   0.979  -4.135  0.00  0.00     0.231 A 
ATOM      8  O   LIG d   1       7.472   2.187  -4.156  0.00  0.00    -0.283 OA
ATOM      9  C   LIG d   1       8.283   0.124  -4.904  0.00  0.00     0.228 A 
ATOM     10  C   LIG d   1       8.159  -1.219  -4.889  0.00  0.00     0.162 A 
ATOM     11  C   LIG d   1       7.098  -1.869  -4.109  0.00  0.00     0.189 A 
ATOM     12  O   LIG d   1       7.000  -3.081  -4.107  0.00  0.00    -0.290 OA
ATOM     13 CL   LIG d   1       9.268  -2.193  -5.803  0.00  0.00    -0.105 Cl
ATOM     14  O   LIG d   1       9.271   0.697  -5.633  0.00  0.00    -0.287 OA
ATOM     15  H   LIG d   1       3.693   1.129  -1.298  0.00  0.00     0.062 H 
ATOM     16  H   LIG d   1       3.482  -1.316  -1.269  0.00  0.00     0.062 H 
ATOM     17  H   LIG d   1       5.038  -2.718  -2.568  0.00  0.00     0.062 H 
ATOM     18  H   LIG d   1       5.476   2.209  -2.613  0.00  0.00     0.062 H 
ATOM     19  H   LIG d   1       8.388  -0.254  -5.008  0.00  0.00     0.063 H 
ENDROOT
TORSDOF 0
ENDMDL
MODEL 4
REMARK VINA RESULT:      -5.9      2.011      3.267
REMARK  0 active torsions:
REMARK  status: ('A' for Active; 'I' for Inactive)
ROOT
ATOM      1  C   LIG d   1       4.256  -0.796  -1.859  0.00  0.00    -0.061 A 
ATOM      2  C   LIG d   1       4.377   0.580  -1.897  0.00  0.00    -0.061 A 
ATOM      3  C   LIG d   1       5.388   1.176  -2.635  0.00  0.00    -0.051 A 
ATOM      4  C   LIG d   1       6.277   0.386  -3.351  0.00  0.00     0.030 A 
ATOM      5  C   LIG d   1       6.151  -1.014  -3.318  0.00  0.00     0.036 A 
ATOM      6  C   LIG d   1       5.137  -1.598  -2.569  0.00  0.00    -0.050 A 
ATOM      7  C   LIG d   1       7.103  -1.846  -4.084  0.00  0.00     0.231 A 
ATOM      8  O   LIG d   1       7.008  -3.057  -4.065  0.00  0.00    -0.283 OA
ATOM      9  C   LIG d   1       8.173  -1.197  -4.873  0.00  0.00     0.228 A 
ATOM     10  C   LIG d   1       8.290   0.147  -4.901  0.00  0.00     0.162 A 
ATOM     11  C   LIG d   1       7.360   1.001  -4.151  0.00  0.00     0.189 A 
ATOM     12  O   LIG d   1       7.480   2.210  -4.187  0.00  0.00    -0.290 OA
ATOM     13 CL   LIG d   1       9.557   0.878  -5.838  0.00  0.00    -0.105 Cl
ATOM     14  O   LIG d   1       9.045  -1.959  -5.575  0.00  0.00    -0.287 OA
ATOM     15  H   LIG d   1       3.468  -1.250  -1.277  0.00  0.00     0.062 H 
ATOM     16  H   LIG d   1       3.682   1.194  -1.343  0.00  0.00     0.062 H 
ATOM     17  H   LIG d   1       5.480   2.252  -2.656  0.00  0.00     0.062 H 
ATOM     18  H   LIG d   1       5.035  -2.673  -2.539  0.00  0.00     0.062 H 
ATOM     19  H   LIG d   1       8.344  -0.847  -4.988  0.00  0.00     0.063 H 
ENDROOT
TORSDOF 0
ENDMDL
MODEL 5
REMARK VINA RESULT:      -5.8      2.606      3.070
REMARK  0 active torsions:
REMARK  status: ('A' for Active; 'I' for Inactive)
ROOT
ATOM      1  C   LIG d   1       3.767   0.837  -2.222  0.00  0.00    -0.061 A 
ATOM      2  C   LIG d   1       4.450  -0.246  -1.705  0.00  0.00    -0.061 A 
ATOM      3  C   LIG d   1       4.853  -1.283  -2.533  0.00  0.00    -0.051 A 
ATOM      4  C   LIG d   1       4.579  -1.226  -3.893  0.00  0.00     0.030 A 
ATOM      5  C   LIG d   1       3.889  -0.121  -4.422  0.00  0.00     0.036 A 
ATOM      6  C   LIG d   1       3.486   0.908  -3.578  0.00  0.00    -0.050 A 
ATOM      7  C   LIG d   1       3.602  -0.069  -5.871  0.00  0.00     0.231 A 
ATOM      8  O   LIG d   1       3.007   0.879  -6.342  0.00  0.00    -0.283 OA
ATOM      9  C   LIG d   1       4.044  -1.179  -6.745  0.00  0.00     0.228 A 
ATOM     10  C   LIG d   1       4.705  -2.238  -6.233  0.00  0.00     0.162 A 
ATOM     11  C   LIG d   1       5.005  -2.318  -4.798  0.00  0.00     0.189 A 
ATOM     12  O   LIG d   1       5.601  -3.280  -4.353  0.00  0.00    -0.290 OA
ATOM     13 CL   LIG d   1       5.210  -3.523  -7.285  0.00  0.00    -0.105 Cl
ATOM     14  O   LIG d   1       3.782  -1.131  -8.072  0.00  0.00    -0.287 OA
ATOM     15  H   LIG d   1       3.454   1.637  -1.567  0.00  0.00     0.062 H 
ATOM     16  H   LIG d   1       4.666  -0.289  -0.648  0.00  0.00     0.062 H 
ATOM     17  H   LIG d   1       5.382  -2.130  -2.122  0.00  0.00     0.062 H 
ATOM     18  H   LIG d   1       2.955   1.760  -3.978  0.00  0.00     0.062 H 
ATOM     19  H   LIG d   1       4.233  -1.537  -6.766  0.00  0.00     0.063 H 
ENDROOT
TORSDOF 0
ENDMDL
MODEL 6
REMARK VINA RESULT:      -5.8      3.408      4.171
REMARK  0 active torsions:
REMARK  status: ('A' for Active; 'I' for Inactive)
ROOT
ATOM      1  C   LIG d   1       4.600  -1.640  -2.142  0.00  0.00    -0.061 A 
ATOM      2  C   LIG d   1       3.915  -0.454  -1.967  0.00  0.00    -0.061 A 
ATOM      3  C   LIG d   1       3.436   0.249  -3.063  0.00  0.00    -0.051 A 
ATOM      4  C   LIG d   1       3.635  -0.250  -4.343  0.00  0.00     0.030 A 
ATOM      5  C   LIG d   1       4.327  -1.460  -4.522  0.00  0.00     0.036 A 
ATOM      6  C   LIG d   1       4.807  -2.151  -3.415  0.00  0.00    -0.050 A 
ATOM      7  C   LIG d   1       4.535  -1.983  -5.889  0.00  0.00     0.231 A 
ATOM      8  O   LIG d   1       5.131  -3.027  -6.060  0.00  0.00    -0.283 OA
ATOM      9  C   LIG d   1       4.012  -1.227  -7.049  0.00  0.00     0.228 A 
ATOM     10  C   LIG d   1       3.348  -0.065  -6.872  0.00  0.00     0.162 A 
ATOM     11  C   LIG d   1       3.127   0.480  -5.527  0.00  0.00     0.189 A 
ATOM     12  O   LIG d   1       2.528   1.528  -5.386  0.00  0.00    -0.290 OA
ATOM     13 CL   LIG d   1       2.748   0.798  -8.254  0.00  0.00    -0.105 Cl
ATOM     14  O   LIG d   1       4.201  -1.706  -8.301  0.00  0.00    -0.287 OA
ATOM     15  H   LIG d   1       4.974  -2.176  -1.282  0.00  0.00     0.062 H 
ATOM     16  H   LIG d   1       3.757  -0.068  -0.971  0.00  0.00     0.062 H 
ATOM     17  H   LIG d   1       2.905   1.178  -2.920  0.00  0.00     0.062 H 
ATOM     18  H   LIG d   1       5.341  -3.081  -3.546  0.00  0.00     0.062 H 
ATOM     19  H   LIG d   1       3.811  -0.897  -7.175  0.00  0.00     0.063 H 
ENDROOT
TORSDOF 0
ENDMDL
MODEL 7
REMARK VINA RESULT:      -5.3      3.666      4.612
REMARK  0 active torsions:
REMARK  status: ('A' for Active; 'I' for Inactive)
ROOT
ATOM      1  C   LIG d   1       3.301  -0.202  -8.342  0.00  0.00    -0.061 A 
ATOM      2  C   LIG d   1       3.956  -1.415  -8.252  0.00  0.00    -0.061 A 
ATOM      3  C   LIG d   1       4.318  -1.926  -7.015  0.00  0.00    -0.051 A 
ATOM      4  C   LIG d   1       4.010  -1.221  -5.859  0.00  0.00     0.030 A 
ATOM      5  C   LIG d   1       3.339   0.011  -5.950  0.00  0.00     0.036 A 
ATOM      6  C   LIG d   1       2.987   0.514  -7.197  0.00  0.00    -0.050 A 
ATOM      7  C   LIG d   1       3.015   0.754  -4.714  0.00  0.00     0.231 A 
ATOM      8  O   LIG d   1       2.436   1.820  -4.776  0.00  0.00    -0.283 OA
ATOM      9  C   LIG d   1       3.402   0.194  -3.400  0.00  0.00     0.228 A 
ATOM     10  C   LIG d   1       4.047  -0.989  -3.318  0.00  0.00     0.162 A 
ATOM     11  C   LIG d   1       4.382  -1.750  -4.528  0.00  0.00     0.189 A 
ATOM     12  O   LIG d   1       4.964  -2.814  -4.435  0.00  0.00    -0.290 OA
ATOM     13 CL   LIG d   1       4.486  -1.619  -1.761  0.00  0.00    -0.105 Cl
ATOM     14  O   LIG d   1       3.105   0.874  -2.268  0.00  0.00    -0.287 OA
ATOM     15  H   LIG d   1       3.028   0.190  -9.311  0.00  0.00     0.062 H 
ATOM     16  H   LIG d   1       4.192  -1.964  -9.150  0.00  0.00     0.062 H 
ATOM     17  H   LIG d   1       4.835  -2.873  -6.951  0.00  0.00     0.062 H 
ATOM     18  H   LIG d   1       2.471   1.461  -7.274  0.00  0.00     0.062 H 
ATOM     19  H   LIG d   1       3.580  -0.113  -3.203  0.00  0.00     0.063 H 
ENDROOT
TORSDOF 0
ENDMDL
MODEL 8
REMARK VINA RESULT:      -5.3      2.477      4.866
REMARK  0 active torsions:
REMARK  status: ('A' for Active; 'I' for Inactive)
ROOT
ATOM      1  C   LIG d   1       8.183  -2.618  -5.274  0.00  0.00    -0.061 A 
ATOM      2  C   LIG d   1       8.728  -1.356  -5.129  0.00  0.00    -0.061 A 
ATOM      3  C   LIG d   1       7.998  -0.341  -4.530  0.00  0.00    -0.051 A 
ATOM      4  C   LIG d   1       6.716  -0.596  -4.061  0.00  0.00     0.030 A 
ATOM      5  C   LIG d   1       6.163  -1.881  -4.204  0.00  0.00     0.036 A 
ATOM      6  C   LIG d   1       6.904  -2.888  -4.811  0.00  0.00    -0.050 A 
ATOM      7  C   LIG d   1       4.797  -2.143  -3.702  0.00  0.00     0.231 A 
ATOM      8  O   LIG d   1       4.306  -3.247  -3.818  0.00  0.00    -0.283 OA
ATOM      9  C   LIG d   1       4.032  -1.052  -3.059  0.00  0.00     0.228 A 
ATOM     10  C   LIG d   1       4.567   0.180  -2.925  0.00  0.00     0.162 A 
ATOM     11  C   LIG d   1       5.920   0.471  -3.414  0.00  0.00     0.189 A 
ATOM     12  O   LIG d   1       6.387   1.587  -3.286  0.00  0.00    -0.290 OA
ATOM     13 CL   LIG d   1       3.642   1.438  -2.165  0.00  0.00    -0.105 Cl
ATOM     14  O   LIG d   1       2.781  -1.292  -2.599  0.00  0.00    -0.287 OA
ATOM     15  H   LIG d   1       8.758  -3.400  -5.746  0.00  0.00     0.062 H 
ATOM     16  H   LIG d   1       9.726  -1.160  -5.489  0.00  0.00     0.062 H 
ATOM     17  H   LIG d   1       8.428   0.644  -4.424  0.00  0.00     0.062 H 
ATOM     18  H   LIG d   1       6.484  -3.877  -4.924  0.00  0.00     0.062 H 
ATOM     19  H   LIG d   1       4.029  -0.662  -2.944  0.00  0.00     0.063 H 
ENDROOT
TORSDOF 0
ENDMDL
MODEL 9
REMARK VINA RESULT:      -5.2      2.316      3.938
REMARK  0 active torsions:
REMARK  status: ('A' for Active; 'I' for Inactive)
ROOT
ATOM      1  C   LIG d   1       6.309  -3.755  -6.154  0.00  0.00    -0.061 A 
ATOM      2  C   LIG d   1       5.315  -4.277  -5.349  0.00  0.00    -0.061 A 
ATOM      3  C   LIG d   1       4.785  -3.525  -4.312  0.00  0.00    -0.051 A 
ATOM      4  C   LIG d   1       5.246  -2.235  -4.088  0.00  0.00     0.030 A 
ATOM      5  C   LIG d   1       6.254  -1.701  -4.911  0.00  0.00     0.036 A 
ATOM      6  C   LIG d   1       6.780  -2.468  -5.943  0.00  0.00    -0.050 A 
ATOM      7  C   LIG d   1       6.739  -0.326  -4.665  0.00  0.00     0.231 A 
ATOM      8  O   LIG d   1       7.609   0.149  -5.367  0.00  0.00    -0.283 OA
ATOM      9  C   LIG d   1       6.160   0.468  -3.559  0.00  0.00     0.228 A 
ATOM     10  C   LIG d   1       5.193  -0.049  -2.771  0.00  0.00     0.162 A 
ATOM     11  C   LIG d   1       4.691  -1.412  -2.990  0.00  0.00     0.189 A 
ATOM     12  O   LIG d   1       3.820  -1.862  -2.271  0.00  0.00    -0.290 OA
ATOM     13 CL   LIG d   1       4.534   0.909  -1.482  0.00  0.00    -0.105 Cl
ATOM     14  O   LIG d   1       6.604   1.727  -3.334  0.00  0.00    -0.287 OA
ATOM     15  H   LIG d   1       6.718  -4.351  -6.956  0.00  0.00     0.062 H 
ATOM     16  H   LIG d   1       4.953  -5.279  -5.525  0.00  0.00     0.062 H 
ATOM     17  H   LIG d   1       4.011  -3.940  -3.682  0.00  0.00     0.062 H 
ATOM     18  H   LIG d   1       7.555  -2.064  -6.579  0.00  0.00     0.062 H 
ATOM     19  H   LIG d   1       5.892   0.477  -3.253  0.00  0.00     0.063 H 
ENDROOT
TORSDOF 0
ENDMDL
MODEL 10
REMARK VINA RESULT:      -5.1      2.174      4.019
REMARK  0 active torsions:
REMARK  status: ('A' for Active; 'I' for Inactive)
ROOT
ATOM      1  C   LIG d   1       8.857  -2.207  -5.087  0.00  0.00    -0.061 A 
ATOM      2  C   LIG d   1       8.148  -3.386  -4.960  0.00  0.00    -0.061 A 
ATOM      3  C   LIG d   1       6.834  -3.370  -4.517  0.00  0.00    -0.051 A 
ATOM      4  C   LIG d   1       6.222  -2.162  -4.212  0.00  0.00     0.030 A 
ATOM      5  C   LIG d   1       6.942  -0.961  -4.347  0.00  0.00     0.036 A 
ATOM      6  C   LIG d   1       8.260  -0.992  -4.786  0.00  0.00    -0.050 A 
ATOM      7  C   LIG d   1       6.282   0.321  -4.019  0.00  0.00     0.231 A 
ATOM      8  O   LIG d   1       6.890   1.366  -4.131  0.00  0.00    -0.283 OA
ATOM      9  C   LIG d   1       4.877   0.324  -3.555  0.00  0.00     0.228 A 
ATOM     10  C   LIG d   1       4.191  -0.831  -3.426  0.00  0.00     0.162 A 
ATOM     11  C   LIG d   1       4.819  -2.120  -3.743  0.00  0.00     0.189 A 
ATOM     12  O   LIG d   1       4.187  -3.152  -3.621  0.00  0.00    -0.290 OA
ATOM     13 CL   LIG d   1       2.544  -0.794  -2.879  0.00  0.00    -0.105 Cl
ATOM     14  O   LIG d   1       4.273   1.498  -3.255  0.00  0.00    -0.287 OA
ATOM     15  H   LIG d   1       9.882  -2.231  -5.428  0.00  0.00     0.062 H 
ATOM     16  H   LIG d   1       8.622  -4.325  -5.201  0.00  0.00     0.062 H 
ATOM     17  H   LIG d   1       6.286  -4.296  -4.415  0.00  0.00     0.062 H 
ATOM     18  H   LIG d   1       8.818  -0.073  -4.892  0.00  0.00     0.062 H 
ATOM     19  H   LIG d   1       4.550   0.100  -3.466  0.00  0.00     0.063 H 
ENDROOT
TORSDOF 0
ENDMDL
