MODEL 1
REMARK VINA RESULT:      -6.6      0.000      0.000
REMARK  15 active torsions:
REMARK  status: ('A' for Active; 'I' for Inactive)
REMARK    1  A    between atoms: C_1  and  C_2 
REMARK    2  A    between atoms: C_2  and  C_3 
REMARK    3  A    between atoms: C_2  and  C_4 
REMARK    4  A    between atoms: C_4  and  C_6 
REMARK    5  A    between atoms: C_4  and  N_38 
REMARK       I    between atoms: C_6  and  N_8 
REMARK    6  A    between atoms: C_12  and  C_14 
REMARK       I    between atoms: C_14  and  N_16 
REMARK    7  A    between atoms: N_16  and  C_17 
REMARK    8  A    between atoms: C_17  and  C_19 
REMARK    9  A    between atoms: C_17  and  C_26 
REMARK   10  A    between atoms: C_19  and  C_20 
REMARK       I    between atoms: C_26  and  N_28 
REMARK   11  A    between atoms: N_28  and  C_29 
REMARK   12  A    between atoms: C_32  and  N_35 
REMARK       I    between atoms: N_38  and  C_39 
REMARK   13  A    between atoms: C_39  and  C_41 
REMARK   14  A    between atoms: C_41  and  C_42 
REMARK   15  A    between atoms: C_42  and  C_43 
ROOT
ATOM      1  C   LIG d   1       5.666  -0.354  -8.503  0.00  0.00     0.237 C 
ATOM      2  O   LIG d   1       5.581  -1.527  -8.207  0.00  0.00    -0.274 OA
ATOM      3  N   LIG d   1       6.821   0.311  -8.299  0.00  0.00    -0.288 N 
ATOM      4  C   LIG d   1       7.085   1.710  -8.683  0.00  0.00     0.016 C 
ATOM      5  C   LIG d   1       8.216   2.175  -7.731  0.00  0.00    -0.035 C 
ATOM      6  C   LIG d   1       9.078   0.889  -7.621  0.00  0.00    -0.024 C 
ATOM      7  C   LIG d   1       8.022  -0.236  -7.653  0.00  0.00     0.102 C 
ATOM      8  H   LIG d   1       8.401  -1.080  -8.229  0.00  0.00     0.060 H 
ATOM      9  H   LIG d   1       7.416   1.763  -9.720  0.00  0.00     0.046 H 
ATOM     10  H   LIG d   1       6.192   2.318  -8.537  0.00  0.00     0.046 H 
ATOM     11  H   LIG d   1       8.787   2.992  -8.172  0.00  0.00     0.028 H 
ATOM     12  H   LIG d   1       7.815   2.462  -6.758  0.00  0.00     0.028 H 
ATOM     13  H   LIG d   1       9.759   0.808  -8.466  0.00  0.00     0.029 H 
ATOM     14  H   LIG d   1       9.626   0.872  -6.679  0.00  0.00     0.029 H 
ENDROOT
BRANCH   7  15
ATOM     15  C   LIG d   1       7.694  -0.675  -6.249  0.00  0.00     0.234 C 
ATOM     16  O   LIG d   1       7.436   0.151  -5.400  0.00  0.00    -0.274 OA
ATOM     17  N   LIG d   1       7.688  -1.986  -5.938  0.00  0.00    -0.302 N 
ATOM     18  H   LIG d   1       7.977  -2.641  -6.592  0.00  0.00     0.149 HD
BRANCH  17  19
ATOM     19  C   LIG d   1       7.244  -2.422  -4.611  0.00  0.00     0.104 C 
ATOM     20  H   LIG d   1       7.367  -1.605  -3.900  0.00  0.00     0.060 H 
BRANCH  19  21
ATOM     21  C   LIG d   1       5.770  -2.826  -4.673  0.00  0.00    -0.001 C 
ATOM     22  H   LIG d   1       5.451  -2.879  -5.715  0.00  0.00     0.034 H 
ATOM     23  H   LIG d   1       5.640  -3.800  -4.203  0.00  0.00     0.034 H 
BRANCH  21  24
ATOM     24  C   LIG d   1       4.937  -1.801  -3.946  0.00  0.00    -0.045 A 
ATOM     25  C   LIG d   1       5.020  -1.694  -2.570  0.00  0.00    -0.059 A 
ATOM     26  C   LIG d   1       4.258  -0.752  -1.904  0.00  0.00    -0.061 A 
ATOM     27  H   LIG d   1       5.681  -2.343  -2.017  0.00  0.00     0.062 H 
ATOM     28  C   LIG d   1       3.408   0.076  -2.613  0.00  0.00    -0.062 A 
ATOM     29  H   LIG d   1       4.327  -0.664  -0.829  0.00  0.00     0.062 H 
ATOM     30  C   LIG d   1       3.321  -0.035  -3.987  0.00  0.00    -0.061 A 
ATOM     31  H   LIG d   1       2.811   0.811  -2.091  0.00  0.00     0.062 H 
ATOM     32  C   LIG d   1       4.086  -0.974  -4.654  0.00  0.00    -0.059 A 
ATOM     33  H   LIG d   1       2.656   0.611  -4.540  0.00  0.00     0.062 H 
ATOM     34  H   LIG d   1       4.018  -1.061  -5.728  0.00  0.00     0.062 H 
ENDBRANCH  21  24
ENDBRANCH  19  21
BRANCH  19  35
ATOM     35  C   LIG d   1       8.070  -3.603  -4.168  0.00  0.00     0.238 C 
ATOM     36  O   LIG d   1       7.881  -4.694  -4.663  0.00  0.00    -0.273 OA
ATOM     37  N   LIG d   1       9.018  -3.445  -3.224  0.00  0.00    -0.284 N 
ATOM     38  H   LIG d   1       9.114  -2.593  -2.770  0.00  0.00     0.155 HD
BRANCH  37  39
ATOM     39  C   LIG d   1       9.863  -4.512  -2.897  0.00  0.00     0.034 A 
ATOM     40  C   LIG d   1      11.059  -4.687  -3.582  0.00  0.00    -0.034 A 
ATOM     41  C   LIG d   1      11.894  -5.737  -3.253  0.00  0.00     0.017 A 
ATOM     42  H   LIG d   1      11.337  -4.001  -4.369  0.00  0.00     0.064 H 
ATOM     43  C   LIG d   1      11.536  -6.618  -2.250  0.00  0.00     0.273 A 
ATOM     44  H   LIG d   1      12.826  -5.871  -3.782  0.00  0.00     0.069 H 
ATOM     45  C   LIG d   1      10.344  -6.450  -1.570  0.00  0.00     0.017 A 
ATOM     46  C   LIG d   1       9.507  -5.399  -1.890  0.00  0.00    -0.034 A 
ATOM     47  H   LIG d   1      10.067  -7.140  -0.786  0.00  0.00     0.069 H 
ATOM     48  H   LIG d   1       8.576  -5.267  -1.358  0.00  0.00     0.064 H 
BRANCH  43  49
ATOM     49  N   LIG d   1      12.430  -7.746  -1.904  0.00  0.00     0.080 N 
ATOM     50  O   LIG d   1      12.016  -8.882  -1.947  0.00  0.00     0.041 OA
ATOM     51  O   LIG d   1      13.574  -7.532  -1.578  0.00  0.00    -0.576 OA
ENDBRANCH  43  49
ENDBRANCH  37  39
ENDBRANCH  19  35
ENDBRANCH  17  19
ENDBRANCH   7  15
BRANCH   1  52
ATOM     52  C   LIG d   1       4.479   0.360  -9.097  0.00  0.00     0.102 C 
ATOM     53  H   LIG d   1       4.822   1.227  -9.661  0.00  0.00     0.060 H 
BRANCH  52  54
ATOM     54  C   LIG d   1       3.546   0.818  -7.975  0.00  0.00    -0.020 C 
ATOM     55  H   LIG d   1       4.112   0.915  -7.049  0.00  0.00     0.032 H 
BRANCH  54  56
ATOM     56  C   LIG d   1       2.930   2.169  -8.342  0.00  0.00    -0.060 C 
ATOM     57  H   LIG d   1       2.522   2.639  -7.446  0.00  0.00     0.023 H 
ATOM     58  H   LIG d   1       3.697   2.813  -8.772  0.00  0.00     0.023 H 
ATOM     59  H   LIG d   1       2.132   2.020  -9.069  0.00  0.00     0.023 H 
ENDBRANCH  54  56
BRANCH  54  60
ATOM     60  C   LIG d   1       2.433  -0.215  -7.785  0.00  0.00    -0.060 C 
ATOM     61  H   LIG d   1       1.809  -0.246  -8.678  0.00  0.00     0.023 H 
ATOM     62  H   LIG d   1       2.874  -1.197  -7.615  0.00  0.00     0.023 H 
ATOM     63  H   LIG d   1       1.823   0.062  -6.925  0.00  0.00     0.023 H 
ENDBRANCH  54  60
ENDBRANCH  52  54
BRANCH  52  64
ATOM     64  N   LIG d   1       3.759  -0.551  -9.990  0.00  0.00    -0.304 N 
ATOM     65  C   LIG d   1       3.540  -0.204 -11.273  0.00  0.00     0.214 C 
ATOM     66  O   LIG d   1       3.938   0.863 -11.689  0.00  0.00    -0.276 OA
ATOM     67  H   LIG d   1       3.440  -1.404  -9.657  0.00  0.00     0.149 HD
BRANCH  65  68
ATOM     68  C   LIG d   1       2.798  -1.141 -12.191  0.00  0.00     0.029 C 
ATOM     69  H   LIG d   1       2.811  -0.742 -13.206  0.00  0.00     0.036 H 
ATOM     70  H   LIG d   1       3.279  -2.119 -12.179  0.00  0.00     0.036 H 
BRANCH  68  71
ATOM     71  C   LIG d   1       1.350  -1.279 -11.718  0.00  0.00    -0.005 C 
ATOM     72  H   LIG d   1       1.133  -0.505 -10.981  0.00  0.00     0.033 H 
ATOM     73  H   LIG d   1       0.677  -1.168 -12.568  0.00  0.00     0.033 H 
BRANCH  71  74
ATOM     74  C   LIG d   1       1.151  -2.636 -11.094  0.00  0.00     0.042 C 
ATOM     75  O   LIG d   1       0.439  -3.460 -11.642  0.00  0.00    -0.550 OA
ATOM     76  O   LIG d   1       1.703  -2.911 -10.042  0.00  0.00    -0.550 OA
ENDBRANCH  71  74
ENDBRANCH  68  71
ENDBRANCH  65  68
ENDBRANCH  52  64
ENDBRANCH   1  52
TORSDOF 15
ENDMDL
MODEL 2
REMARK VINA RESULT:      -6.5      7.269     11.123
REMARK  15 active torsions:
REMARK  status: ('A' for Active; 'I' for Inactive)
REMARK    1  A    between atoms: C_1  and  C_2 
REMARK    2  A    between atoms: C_2  and  C_3 
REMARK    3  A    between atoms: C_2  and  C_4 
REMARK    4  A    between atoms: C_4  and  C_6 
REMARK    5  A    between atoms: C_4  and  N_38 
REMARK       I    between atoms: C_6  and  N_8 
REMARK    6  A    between atoms: C_12  and  C_14 
REMARK       I    between atoms: C_14  and  N_16 
REMARK    7  A    between atoms: N_16  and  C_17 
REMARK    8  A    between atoms: C_17  and  C_19 
REMARK    9  A    between atoms: C_17  and  C_26 
REMARK   10  A    between atoms: C_19  and  C_20 
REMARK       I    between atoms: C_26  and  N_28 
REMARK   11  A    between atoms: N_28  and  C_29 
REMARK   12  A    between atoms: C_32  and  N_35 
REMARK       I    between atoms: N_38  and  C_39 
REMARK   13  A    between atoms: C_39  and  C_41 
REMARK   14  A    between atoms: C_41  and  C_42 
REMARK   15  A    between atoms: C_42  and  C_43 
ROOT
ATOM      1  C   LIG d   1       9.328   1.789  -3.953  0.00  0.00     0.237 C 
ATOM      2  O   LIG d   1       8.949   2.742  -3.305  0.00  0.00    -0.274 OA
ATOM      3  N   LIG d   1      10.647   1.540  -4.076  0.00  0.00    -0.288 N 
ATOM      4  C   LIG d   1      11.240   0.379  -4.764  0.00  0.00     0.016 C 
ATOM      5  C   LIG d   1      12.662   0.843  -5.170  0.00  0.00    -0.035 C 
ATOM      6  C   LIG d   1      13.064   1.716  -3.952  0.00  0.00    -0.024 C 
ATOM      7  C   LIG d   1      11.731   2.383  -3.552  0.00  0.00     0.102 C 
ATOM      8  H   LIG d   1      11.661   2.444  -2.466  0.00  0.00     0.060 H 
ATOM      9  H   LIG d   1      11.299  -0.474  -4.088  0.00  0.00     0.046 H 
ATOM     10  H   LIG d   1      10.657   0.123  -5.649  0.00  0.00     0.046 H 
ATOM     11  H   LIG d   1      13.334  -0.008  -5.281  0.00  0.00     0.028 H 
ATOM     12  H   LIG d   1      12.632   1.437  -6.084  0.00  0.00     0.028 H 
ATOM     13  H   LIG d   1      13.448   1.096  -3.143  0.00  0.00     0.029 H 
ATOM     14  H   LIG d   1      13.797   2.469  -4.243  0.00  0.00     0.029 H 
ENDROOT
BRANCH   7  15
ATOM     15  C   LIG d   1      11.644   3.762  -4.153  0.00  0.00     0.234 C 
ATOM     16  O   LIG d   1      12.053   3.961  -5.277  0.00  0.00    -0.274 OA
ATOM     17  N   LIG d   1      11.111   4.774  -3.441  0.00  0.00    -0.302 N 
ATOM     18  H   LIG d   1      10.862   4.637  -2.514  0.00  0.00     0.149 HD
BRANCH  17  19
ATOM     19  C   LIG d   1      10.906   6.083  -4.068  0.00  0.00     0.104 C 
ATOM     20  H   LIG d   1      11.609   6.204  -4.893  0.00  0.00     0.060 H 
BRANCH  19  21
ATOM     21  C   LIG d   1       9.475   6.176  -4.601  0.00  0.00    -0.001 C 
ATOM     22  H   LIG d   1       9.045   5.176  -4.664  0.00  0.00     0.034 H 
ATOM     23  H   LIG d   1       8.876   6.788  -3.928  0.00  0.00     0.034 H 
BRANCH  21  24
ATOM     24  C   LIG d   1       9.488   6.802  -5.972  0.00  0.00    -0.045 A 
ATOM     25  C   LIG d   1       9.781   6.031  -7.082  0.00  0.00    -0.059 A 
ATOM     26  C   LIG d   1       9.789   6.605  -8.338  0.00  0.00    -0.061 A 
ATOM     27  H   LIG d   1       9.999   4.981  -6.966  0.00  0.00     0.062 H 
ATOM     28  C   LIG d   1       9.514   7.952  -8.486  0.00  0.00    -0.062 A 
ATOM     29  H   LIG d   1      10.013   6.001  -9.206  0.00  0.00     0.062 H 
ATOM     30  C   LIG d   1       9.227   8.724  -7.376  0.00  0.00    -0.061 A 
ATOM     31  H   LIG d   1       9.522   8.401  -9.468  0.00  0.00     0.062 H 
ATOM     32  C   LIG d   1       9.214   8.149  -6.118  0.00  0.00    -0.059 A 
ATOM     33  H   LIG d   1       9.012   9.776  -7.490  0.00  0.00     0.062 H 
ATOM     34  H   LIG d   1       8.990   8.752  -5.252  0.00  0.00     0.062 H 
ENDBRANCH  21  24
ENDBRANCH  19  21
BRANCH  19  35
ATOM     35  C   LIG d   1      11.134   7.170  -3.049  0.00  0.00     0.238 C 
ATOM     36  O   LIG d   1      12.231   7.677  -2.939  0.00  0.00    -0.273 OA
ATOM     37  N   LIG d   1      10.120   7.578  -2.263  0.00  0.00    -0.284 N 
ATOM     38  H   LIG d   1       9.266   7.119  -2.293  0.00  0.00     0.155 HD
BRANCH  37  39
ATOM     39  C   LIG d   1      10.298   8.666  -1.400  0.00  0.00     0.034 A 
ATOM     40  C   LIG d   1      10.013   9.954  -1.835  0.00  0.00    -0.034 A 
ATOM     41  C   LIG d   1      10.184  11.024  -0.980  0.00  0.00     0.017 A 
ATOM     42  H   LIG d   1       9.655  10.117  -2.842  0.00  0.00     0.064 H 
ATOM     43  C   LIG d   1      10.648  10.816   0.305  0.00  0.00     0.273 A 
ATOM     44  H   LIG d   1       9.958  12.025  -1.317  0.00  0.00     0.069 H 
ATOM     45  C   LIG d   1      10.938   9.536   0.740  0.00  0.00     0.017 A 
ATOM     46  C   LIG d   1      10.764   8.461  -0.108  0.00  0.00    -0.034 A 
ATOM     47  H   LIG d   1      11.300   9.377   1.746  0.00  0.00     0.069 H 
ATOM     48  H   LIG d   1      10.990   7.461   0.232  0.00  0.00     0.064 H 
BRANCH  43  49
ATOM     49  N   LIG d   1      10.837  11.967   1.218  0.00  0.00     0.080 N 
ATOM     50  O   LIG d   1      11.747  11.964   2.014  0.00  0.00     0.041 OA
ATOM     51  O   LIG d   1      10.080  12.908   1.167  0.00  0.00    -0.576 OA
ENDBRANCH  43  49
ENDBRANCH  37  39
ENDBRANCH  19  35
ENDBRANCH  17  19
ENDBRANCH   7  15
BRANCH   1  52
ATOM     52  C   LIG d   1       8.324   0.884  -4.620  0.00  0.00     0.102 C 
ATOM     53  H   LIG d   1       8.541  -0.152  -4.363  0.00  0.00     0.060 H 
BRANCH  52  54
ATOM     54  C   LIG d   1       8.407   1.062  -6.137  0.00  0.00    -0.020 C 
ATOM     55  H   LIG d   1       9.278   0.528  -6.518  0.00  0.00     0.032 H 
BRANCH  54  56
ATOM     56  C   LIG d   1       7.141   0.504  -6.787  0.00  0.00    -0.060 C 
ATOM     57  H   LIG d   1       6.394   1.296  -6.868  0.00  0.00     0.023 H 
ATOM     58  H   LIG d   1       7.378   0.126  -7.782  0.00  0.00     0.023 H 
ATOM     59  H   LIG d   1       6.745  -0.307  -6.177  0.00  0.00     0.023 H 
ENDBRANCH  54  56
BRANCH  54  60
ATOM     60  C   LIG d   1       8.538   2.550  -6.470  0.00  0.00    -0.060 C 
ATOM     61  H   LIG d   1       8.973   3.075  -5.620  0.00  0.00     0.023 H 
ATOM     62  H   LIG d   1       9.182   2.672  -7.341  0.00  0.00     0.023 H 
ATOM     63  H   LIG d   1       7.553   2.962  -6.687  0.00  0.00     0.023 H 
ENDBRANCH  54  60
ENDBRANCH  52  54
BRANCH  52  64
ATOM     64  N   LIG d   1       6.976   1.230  -4.162  0.00  0.00    -0.304 N 
ATOM     65  C   LIG d   1       6.306   0.393  -3.347  0.00  0.00     0.214 C 
ATOM     66  O   LIG d   1       6.818  -0.648  -2.993  0.00  0.00    -0.276 OA
ATOM     67  H   LIG d   1       6.567   2.063  -4.446  0.00  0.00     0.149 HD
BRANCH  65  68
ATOM     68  C   LIG d   1       4.919   0.749  -2.876  0.00  0.00     0.029 C 
ATOM     69  H   LIG d   1       4.945   1.709  -2.361  0.00  0.00     0.036 H 
ATOM     70  H   LIG d   1       4.249   0.814  -3.733  0.00  0.00     0.036 H 
BRANCH  68  71
ATOM     71  C   LIG d   1       4.414  -0.330  -1.916  0.00  0.00    -0.005 C 
ATOM     72  H   LIG d   1       5.260  -0.904  -1.537  0.00  0.00     0.033 H 
ATOM     73  H   LIG d   1       3.893   0.140  -1.082  0.00  0.00     0.033 H 
BRANCH  71  74
ATOM     74  C   LIG d   1       3.469  -1.250  -2.644  0.00  0.00     0.042 C 
ATOM     75  O   LIG d   1       2.494  -0.793  -3.216  0.00  0.00    -0.550 OA
ATOM     76  O   LIG d   1       3.678  -2.451  -2.662  0.00  0.00    -0.550 OA
ENDBRANCH  71  74
ENDBRANCH  68  71
ENDBRANCH  65  68
ENDBRANCH  52  64
ENDBRANCH   1  52
TORSDOF 15
ENDMDL
MODEL 3
REMARK VINA RESULT:      -6.2      4.589      7.981
REMARK  15 active torsions:
REMARK  status: ('A' for Active; 'I' for Inactive)
REMARK    1  A    between atoms: C_1  and  C_2 
REMARK    2  A    between atoms: C_2  and  C_3 
REMARK    3  A    between atoms: C_2  and  C_4 
REMARK    4  A    between atoms: C_4  and  C_6 
REMARK    5  A    between atoms: C_4  and  N_38 
REMARK       I    between atoms: C_6  and  N_8 
REMARK    6  A    between atoms: C_12  and  C_14 
REMARK       I    between atoms: C_14  and  N_16 
REMARK    7  A    between atoms: N_16  and  C_17 
REMARK    8  A    between atoms: C_17  and  C_19 
REMARK    9  A    between atoms: C_17  and  C_26 
REMARK   10  A    between atoms: C_19  and  C_20 
REMARK       I    between atoms: C_26  and  N_28 
REMARK   11  A    between atoms: N_28  and  C_29 
REMARK   12  A    between atoms: C_32  and  N_35 
REMARK       I    between atoms: N_38  and  C_39 
REMARK   13  A    between atoms: C_39  and  C_41 
REMARK   14  A    between atoms: C_41  and  C_42 
REMARK   15  A    between atoms: C_42  and  C_43 
ROOT
ATOM      1  C   LIG d   1       4.888  -0.477  -5.548  0.00  0.00     0.237 C 
ATOM      2  O   LIG d   1       5.616   0.291  -6.142  0.00  0.00    -0.274 OA
ATOM      3  N   LIG d   1       4.667  -0.312  -4.230  0.00  0.00    -0.288 N 
ATOM      4  C   LIG d   1       3.750  -1.120  -3.406  0.00  0.00     0.016 C 
ATOM      5  C   LIG d   1       4.293  -0.986  -1.960  0.00  0.00    -0.035 C 
ATOM      6  C   LIG d   1       4.766   0.491  -1.942  0.00  0.00    -0.024 C 
ATOM      7  C   LIG d   1       5.305   0.698  -3.373  0.00  0.00     0.102 C 
ATOM      8  H   LIG d   1       5.047   1.697  -3.723  0.00  0.00     0.060 H 
ATOM      9  H   LIG d   1       2.736  -0.725  -3.468  0.00  0.00     0.046 H 
ATOM     10  H   LIG d   1       3.772  -2.163  -3.724  0.00  0.00     0.046 H 
ATOM     11  H   LIG d   1       3.502  -1.153  -1.229  0.00  0.00     0.028 H 
ATOM     12  H   LIG d   1       5.128  -1.667  -1.792  0.00  0.00     0.028 H 
ATOM     13  H   LIG d   1       3.931   1.162  -1.740  0.00  0.00     0.029 H 
ATOM     14  H   LIG d   1       5.561   0.633  -1.209  0.00  0.00     0.029 H 
ENDROOT
BRANCH   7  15
ATOM     15  C   LIG d   1       6.801   0.514  -3.391  0.00  0.00     0.234 C 
ATOM     16  O   LIG d   1       7.287  -0.537  -3.034  0.00  0.00    -0.274 OA
ATOM     17  N   LIG d   1       7.597   1.519  -3.805  0.00  0.00    -0.302 N 
ATOM     18  H   LIG d   1       7.216   2.387  -4.009  0.00  0.00     0.149 HD
BRANCH  17  19
ATOM     19  C   LIG d   1       9.039   1.301  -3.947  0.00  0.00     0.104 C 
ATOM     20  H   LIG d   1       9.337   0.439  -3.349  0.00  0.00     0.060 H 
BRANCH  19  21
ATOM     21  C   LIG d   1       9.374   1.040  -5.417  0.00  0.00    -0.001 C 
ATOM     22  H   LIG d   1       8.522   1.319  -6.038  0.00  0.00     0.034 H 
ATOM     23  H   LIG d   1      10.242   1.634  -5.702  0.00  0.00     0.034 H 
BRANCH  21  24
ATOM     24  C   LIG d   1       9.679  -0.423  -5.612  0.00  0.00    -0.045 A 
ATOM     25  C   LIG d   1      10.896  -0.936  -5.204  0.00  0.00    -0.059 A 
ATOM     26  C   LIG d   1      11.173  -2.278  -5.380  0.00  0.00    -0.061 A 
ATOM     27  H   LIG d   1      11.628  -0.289  -4.745  0.00  0.00     0.062 H 
ATOM     28  C   LIG d   1      10.237  -3.106  -5.972  0.00  0.00    -0.062 A 
ATOM     29  H   LIG d   1      12.123  -2.680  -5.056  0.00  0.00     0.062 H 
ATOM     30  C   LIG d   1       9.023  -2.592  -6.384  0.00  0.00    -0.061 A 
ATOM     31  H   LIG d   1      10.455  -4.155  -6.110  0.00  0.00     0.062 H 
ATOM     32  C   LIG d   1       8.743  -1.250  -6.204  0.00  0.00    -0.059 A 
ATOM     33  H   LIG d   1       8.292  -3.238  -6.847  0.00  0.00     0.062 H 
ATOM     34  H   LIG d   1       7.794  -0.849  -6.527  0.00  0.00     0.062 H 
ENDBRANCH  21  24
ENDBRANCH  19  21
BRANCH  19  35
ATOM     35  C   LIG d   1       9.782   2.523  -3.471  0.00  0.00     0.238 C 
ATOM     36  O   LIG d   1      10.885   2.409  -2.979  0.00  0.00    -0.273 OA
ATOM     37  N   LIG d   1       9.222   3.741  -3.595  0.00  0.00    -0.284 N 
ATOM     38  H   LIG d   1       8.309   3.826  -3.912  0.00  0.00     0.155 HD
BRANCH  37  39
ATOM     39  C   LIG d   1       9.956   4.886  -3.264  0.00  0.00     0.034 A 
ATOM     40  C   LIG d   1      10.689   5.549  -4.240  0.00  0.00    -0.034 A 
ATOM     41  C   LIG d   1      11.408   6.681  -3.912  0.00  0.00     0.017 A 
ATOM     42  H   LIG d   1      10.694   5.180  -5.256  0.00  0.00     0.064 H 
ATOM     43  C   LIG d   1      11.407   7.149  -2.612  0.00  0.00     0.273 A 
ATOM     44  H   LIG d   1      11.975   7.200  -4.672  0.00  0.00     0.069 H 
ATOM     45  C   LIG d   1      10.683   6.489  -1.637  0.00  0.00     0.017 A 
ATOM     46  C   LIG d   1       9.958   5.359  -1.958  0.00  0.00    -0.034 A 
ATOM     47  H   LIG d   1      10.684   6.858  -0.621  0.00  0.00     0.069 H 
ATOM     48  H   LIG d   1       9.392   4.844  -1.196  0.00  0.00     0.064 H 
BRANCH  43  49
ATOM     49  N   LIG d   1      12.185   8.360  -2.262  0.00  0.00     0.080 N 
ATOM     50  O   LIG d   1      12.129   9.339  -2.970  0.00  0.00     0.041 OA
ATOM     51  O   LIG d   1      12.876   8.369  -1.271  0.00  0.00    -0.576 OA
ENDBRANCH  43  49
ENDBRANCH  37  39
ENDBRANCH  19  35
ENDBRANCH  17  19
ENDBRANCH   7  15
BRANCH   1  52
ATOM     52  C   LIG d   1       4.232  -1.615  -6.287  0.00  0.00     0.102 C 
ATOM     53  H   LIG d   1       3.373  -1.970  -5.719  0.00  0.00     0.060 H 
BRANCH  52  54
ATOM     54  C   LIG d   1       5.237  -2.756  -6.461  0.00  0.00    -0.020 C 
ATOM     55  H   LIG d   1       6.218  -2.432  -6.114  0.00  0.00     0.032 H 
BRANCH  54  56
ATOM     56  C   LIG d   1       4.781  -3.966  -5.645  0.00  0.00    -0.060 C 
ATOM     57  H   LIG d   1       4.525  -3.648  -4.634  0.00  0.00     0.023 H 
ATOM     58  H   LIG d   1       3.906  -4.414  -6.117  0.00  0.00     0.023 H 
ATOM     59  H   LIG d   1       5.585  -4.700  -5.602  0.00  0.00     0.023 H 
ENDBRANCH  54  56
BRANCH  54  60
ATOM     60  C   LIG d   1       5.321  -3.140  -7.940  0.00  0.00    -0.060 C 
ATOM     61  H   LIG d   1       6.060  -2.511  -8.437  0.00  0.00     0.023 H 
ATOM     62  H   LIG d   1       5.615  -4.186  -8.028  0.00  0.00     0.023 H 
ATOM     63  H   LIG d   1       4.347  -2.997  -8.408  0.00  0.00     0.023 H 
ENDBRANCH  54  60
ENDBRANCH  52  54
BRANCH  52  64
ATOM     64  N   LIG d   1       3.789  -1.151  -7.604  0.00  0.00    -0.304 N 
ATOM     65  C   LIG d   1       2.788  -0.254  -7.701  0.00  0.00     0.214 C 
ATOM     66  O   LIG d   1       2.254   0.168  -6.697  0.00  0.00    -0.276 OA
ATOM     67  H   LIG d   1       4.216  -1.490  -8.407  0.00  0.00     0.149 HD
BRANCH  65  68
ATOM     68  C   LIG d   1       2.331   0.223  -9.056  0.00  0.00     0.029 C 
ATOM     69  H   LIG d   1       2.804  -0.381  -9.831  0.00  0.00     0.036 H 
ATOM     70  H   LIG d   1       1.249   0.127  -9.130  0.00  0.00     0.036 H 
BRANCH  68  71
ATOM     71  C   LIG d   1       2.727   1.689  -9.240  0.00  0.00    -0.005 C 
ATOM     72  H   LIG d   1       1.926   2.219  -9.756  0.00  0.00     0.033 H 
ATOM     73  H   LIG d   1       2.896   2.146  -8.265  0.00  0.00     0.033 H 
BRANCH  71  74
ATOM     74  C   LIG d   1       3.990   1.770 -10.057  0.00  0.00     0.042 C 
ATOM     75  O   LIG d   1       4.975   2.328  -9.603  0.00  0.00    -0.550 OA
ATOM     76  O   LIG d   1       4.029   1.277 -11.172  0.00  0.00    -0.550 OA
ENDBRANCH  71  74
ENDBRANCH  68  71
ENDBRANCH  65  68
ENDBRANCH  52  64
ENDBRANCH   1  52
TORSDOF 15
ENDMDL
MODEL 4
REMARK VINA RESULT:      -6.2      4.990      7.828
REMARK  15 active torsions:
REMARK  status: ('A' for Active; 'I' for Inactive)
REMARK    1  A    between atoms: C_1  and  C_2 
REMARK    2  A    between atoms: C_2  and  C_3 
REMARK    3  A    between atoms: C_2  and  C_4 
REMARK    4  A    between atoms: C_4  and  C_6 
REMARK    5  A    between atoms: C_4  and  N_38 
REMARK       I    between atoms: C_6  and  N_8 
REMARK    6  A    between atoms: C_12  and  C_14 
REMARK       I    between atoms: C_14  and  N_16 
REMARK    7  A    between atoms: N_16  and  C_17 
REMARK    8  A    between atoms: C_17  and  C_19 
REMARK    9  A    between atoms: C_17  and  C_26 
REMARK   10  A    between atoms: C_19  and  C_20 
REMARK       I    between atoms: C_26  and  N_28 
REMARK   11  A    between atoms: N_28  and  C_29 
REMARK   12  A    between atoms: C_32  and  N_35 
REMARK       I    between atoms: N_38  and  C_39 
REMARK   13  A    between atoms: C_39  and  C_41 
REMARK   14  A    between atoms: C_41  and  C_42 
REMARK   15  A    between atoms: C_42  and  C_43 
ROOT
ATOM      1  C   LIG d   1       4.188  -4.516  -6.476  0.00  0.00     0.237 C 
ATOM      2  O   LIG d   1       3.535  -5.408  -5.976  0.00  0.00    -0.274 OA
ATOM      3  N   LIG d   1       3.987  -4.173  -7.763  0.00  0.00    -0.288 N 
ATOM      4  C   LIG d   1       4.651  -3.062  -8.469  0.00  0.00     0.016 C 
ATOM      5  C   LIG d   1       4.589  -3.452  -9.968  0.00  0.00    -0.035 C 
ATOM      6  C   LIG d   1       3.195  -4.126 -10.057  0.00  0.00    -0.024 C 
ATOM      7  C   LIG d   1       3.075  -4.848  -8.698  0.00  0.00     0.102 C 
ATOM      8  H   LIG d   1       2.051  -4.777  -8.332  0.00  0.00     0.060 H 
ATOM      9  H   LIG d   1       4.115  -2.128  -8.298  0.00  0.00     0.046 H 
ATOM     10  H   LIG d   1       5.687  -2.971  -8.143  0.00  0.00     0.046 H 
ATOM     11  H   LIG d   1       4.637  -2.567 -10.604  0.00  0.00     0.028 H 
ATOM     12  H   LIG d   1       5.382  -4.156 -10.221  0.00  0.00     0.028 H 
ATOM     13  H   LIG d   1       2.411  -3.378 -10.171  0.00  0.00     0.029 H 
ATOM     14  H   LIG d   1       3.165  -4.845 -10.875  0.00  0.00     0.029 H 
ENDROOT
BRANCH   7  15
ATOM     15  C   LIG d   1       3.470  -6.294  -8.846  0.00  0.00     0.234 C 
ATOM     16  O   LIG d   1       2.643  -7.119  -9.170  0.00  0.00    -0.274 OA
ATOM     17  N   LIG d   1       4.744  -6.671  -8.617  0.00  0.00    -0.302 N 
ATOM     18  H   LIG d   1       5.385  -6.029  -8.275  0.00  0.00     0.149 HD
BRANCH  17  19
ATOM     19  C   LIG d   1       5.159  -8.050  -8.885  0.00  0.00     0.104 C 
ATOM     20  H   LIG d   1       4.371  -8.568  -9.432  0.00  0.00     0.060 H 
BRANCH  19  21
ATOM     21  C   LIG d   1       6.440  -8.044  -9.723  0.00  0.00    -0.001 C 
ATOM     22  H   LIG d   1       7.263  -7.652  -9.125  0.00  0.00     0.034 H 
ATOM     23  H   LIG d   1       6.672  -9.061 -10.039  0.00  0.00     0.034 H 
BRANCH  21  24
ATOM     24  C   LIG d   1       6.243  -7.172 -10.937  0.00  0.00    -0.045 A 
ATOM     25  C   LIG d   1       5.252  -7.476 -11.852  0.00  0.00    -0.059 A 
ATOM     26  C   LIG d   1       5.069  -6.674 -12.963  0.00  0.00    -0.061 A 
ATOM     27  H   LIG d   1       4.620  -8.337 -11.697  0.00  0.00     0.062 H 
ATOM     28  C   LIG d   1       5.883  -5.574 -13.163  0.00  0.00    -0.062 A 
ATOM     29  H   LIG d   1       4.291  -6.909 -13.676  0.00  0.00     0.062 H 
ATOM     30  C   LIG d   1       6.876  -5.274 -12.251  0.00  0.00    -0.061 A 
ATOM     31  H   LIG d   1       5.741  -4.949 -14.033  0.00  0.00     0.062 H 
ATOM     32  C   LIG d   1       7.056  -6.074 -11.137  0.00  0.00    -0.059 A 
ATOM     33  H   LIG d   1       7.512  -4.416 -12.408  0.00  0.00     0.062 H 
ATOM     34  H   LIG d   1       7.833  -5.839 -10.425  0.00  0.00     0.062 H 
ENDBRANCH  21  24
ENDBRANCH  19  21
BRANCH  19  35
ATOM     35  C   LIG d   1       5.416  -8.760  -7.581  0.00  0.00     0.238 C 
ATOM     36  O   LIG d   1       5.958  -9.846  -7.578  0.00  0.00    -0.273 OA
ATOM     37  N   LIG d   1       5.046  -8.188  -6.419  0.00  0.00    -0.284 N 
ATOM     38  H   LIG d   1       4.540  -7.361  -6.425  0.00  0.00     0.155 HD
BRANCH  37  39
ATOM     39  C   LIG d   1       5.389  -8.790  -5.202  0.00  0.00     0.034 A 
ATOM     40  C   LIG d   1       6.662  -8.617  -4.675  0.00  0.00    -0.034 A 
ATOM     41  C   LIG d   1       6.996  -9.207  -3.472  0.00  0.00     0.017 A 
ATOM     42  H   LIG d   1       7.390  -8.019  -5.205  0.00  0.00     0.064 H 
ATOM     43  C   LIG d   1       6.067  -9.977  -2.798  0.00  0.00     0.273 A 
ATOM     44  H   LIG d   1       7.985  -9.069  -3.060  0.00  0.00     0.069 H 
ATOM     45  C   LIG d   1       4.801 -10.155  -3.321  0.00  0.00     0.017 A 
ATOM     46  C   LIG d   1       4.458  -9.564  -4.521  0.00  0.00    -0.034 A 
ATOM     47  H   LIG d   1       4.077 -10.757  -2.791  0.00  0.00     0.069 H 
ATOM     48  H   LIG d   1       3.468  -9.703  -4.931  0.00  0.00     0.064 H 
BRANCH  43  49
ATOM     49  N   LIG d   1       6.431 -10.613  -1.511  0.00  0.00     0.080 N 
ATOM     50  O   LIG d   1       5.973 -11.694  -1.221  0.00  0.00     0.041 OA
ATOM     51  O   LIG d   1       7.183 -10.051  -0.750  0.00  0.00    -0.576 OA
ENDBRANCH  43  49
ENDBRANCH  37  39
ENDBRANCH  19  35
ENDBRANCH  17  19
ENDBRANCH   7  15
BRANCH   1  52
ATOM     52  C   LIG d   1       5.224  -3.792  -5.655  0.00  0.00     0.102 C 
ATOM     53  H   LIG d   1       5.558  -2.905  -6.192  0.00  0.00     0.060 H 
BRANCH  52  54
ATOM     54  C   LIG d   1       6.416  -4.718  -5.407  0.00  0.00    -0.020 C 
ATOM     55  H   LIG d   1       6.081  -5.606  -4.872  0.00  0.00     0.032 H 
BRANCH  54  56
ATOM     56  C   LIG d   1       7.030  -5.128  -6.747  0.00  0.00    -0.060 C 
ATOM     57  H   LIG d   1       8.119  -5.104  -6.671  0.00  0.00     0.023 H 
ATOM     58  H   LIG d   1       6.707  -6.138  -7.000  0.00  0.00     0.023 H 
ATOM     59  H   LIG d   1       6.705  -4.438  -7.523  0.00  0.00     0.023 H 
ENDBRANCH  54  56
BRANCH  54  60
ATOM     60  C   LIG d   1       7.466  -3.984  -4.568  0.00  0.00    -0.060 C 
ATOM     61  H   LIG d   1       7.230  -4.099  -3.511  0.00  0.00     0.023 H 
ATOM     62  H   LIG d   1       8.451  -4.406  -4.770  0.00  0.00     0.023 H 
ATOM     63  H   LIG d   1       7.464  -2.926  -4.829  0.00  0.00     0.023 H 
ENDBRANCH  54  60
ENDBRANCH  52  54
BRANCH  52  64
ATOM     64  N   LIG d   1       4.640  -3.395  -4.371  0.00  0.00    -0.304 N 
ATOM     65  C   LIG d   1       4.288  -2.112  -4.159  0.00  0.00     0.214 C 
ATOM     66  O   LIG d   1       4.455  -1.286  -5.030  0.00  0.00    -0.276 OA
ATOM     67  H   LIG d   1       4.507  -4.057  -3.674  0.00  0.00     0.149 HD
BRANCH  65  68
ATOM     68  C   LIG d   1       3.687  -1.704  -2.838  0.00  0.00     0.029 C 
ATOM     69  H   LIG d   1       3.098  -2.530  -2.436  0.00  0.00     0.036 H 
ATOM     70  H   LIG d   1       4.483  -1.452  -2.138  0.00  0.00     0.036 H 
BRANCH  68  71
ATOM     71  C   LIG d   1       2.783  -0.487  -3.043  0.00  0.00    -0.005 C 
ATOM     72  H   LIG d   1       2.490  -0.425  -4.091  0.00  0.00     0.033 H 
ATOM     73  H   LIG d   1       1.893  -0.587  -2.422  0.00  0.00     0.033 H 
BRANCH  71  74
ATOM     74  C   LIG d   1       3.528   0.763  -2.655  0.00  0.00     0.042 C 
ATOM     75  O   LIG d   1       4.101   0.823  -1.580  0.00  0.00    -0.550 OA
ATOM     76  O   LIG d   1       3.560   1.716  -3.415  0.00  0.00    -0.550 OA
ENDBRANCH  71  74
ENDBRANCH  68  71
ENDBRANCH  65  68
ENDBRANCH  52  64
ENDBRANCH   1  52
TORSDOF 15
ENDMDL
MODEL 5
REMARK VINA RESULT:      -6.2      4.477      7.900
REMARK  15 active torsions:
REMARK  status: ('A' for Active; 'I' for Inactive)
REMARK    1  A    between atoms: C_1  and  C_2 
REMARK    2  A    between atoms: C_2  and  C_3 
REMARK    3  A    between atoms: C_2  and  C_4 
REMARK    4  A    between atoms: C_4  and  C_6 
REMARK    5  A    between atoms: C_4  and  N_38 
REMARK       I    between atoms: C_6  and  N_8 
REMARK    6  A    between atoms: C_12  and  C_14 
REMARK       I    between atoms: C_14  and  N_16 
REMARK    7  A    between atoms: N_16  and  C_17 
REMARK    8  A    between atoms: C_17  and  C_19 
REMARK    9  A    between atoms: C_17  and  C_26 
REMARK   10  A    between atoms: C_19  and  C_20 
REMARK       I    between atoms: C_26  and  N_28 
REMARK   11  A    between atoms: N_28  and  C_29 
REMARK   12  A    between atoms: C_32  and  N_35 
REMARK       I    between atoms: N_38  and  C_39 
REMARK   13  A    between atoms: C_39  and  C_41 
REMARK   14  A    between atoms: C_41  and  C_42 
REMARK   15  A    between atoms: C_42  and  C_43 
ROOT
ATOM      1  C   LIG d   1       7.289  -0.338  -4.240  0.00  0.00     0.237 C 
ATOM      2  O   LIG d   1       7.632  -1.446  -4.596  0.00  0.00    -0.274 OA
ATOM      3  N   LIG d   1       6.277  -0.197  -3.361  0.00  0.00    -0.288 N 
ATOM      4  C   LIG d   1       5.811   1.079  -2.787  0.00  0.00     0.016 C 
ATOM      5  C   LIG d   1       4.338   0.817  -2.382  0.00  0.00    -0.035 C 
ATOM      6  C   LIG d   1       4.411  -0.649  -1.877  0.00  0.00    -0.024 C 
ATOM      7  C   LIG d   1       5.452  -1.286  -2.821  0.00  0.00     0.102 C 
ATOM      8  H   LIG d   1       6.078  -1.983  -2.263  0.00  0.00     0.060 H 
ATOM      9  H   LIG d   1       6.404   1.341  -1.911  0.00  0.00     0.046 H 
ATOM     10  H   LIG d   1       5.863   1.872  -3.533  0.00  0.00     0.046 H 
ATOM     11  H   LIG d   1       4.027   1.491  -1.584  0.00  0.00     0.028 H 
ATOM     12  H   LIG d   1       3.675   0.901  -3.244  0.00  0.00     0.028 H 
ATOM     13  H   LIG d   1       4.751  -0.683  -0.842  0.00  0.00     0.029 H 
ATOM     14  H   LIG d   1       3.445  -1.142  -1.983  0.00  0.00     0.029 H 
ENDROOT
BRANCH   7  15
ATOM     15  C   LIG d   1       4.755  -2.007  -3.945  0.00  0.00     0.234 C 
ATOM     16  O   LIG d   1       3.692  -1.597  -4.361  0.00  0.00    -0.274 OA
ATOM     17  N   LIG d   1       5.312  -3.107  -4.488  0.00  0.00    -0.302 N 
ATOM     18  H   LIG d   1       6.116  -3.485  -4.100  0.00  0.00     0.149 HD
BRANCH  17  19
ATOM     19  C   LIG d   1       4.701  -3.734  -5.664  0.00  0.00     0.104 C 
ATOM     20  H   LIG d   1       3.673  -3.387  -5.768  0.00  0.00     0.060 H 
BRANCH  19  21
ATOM     21  C   LIG d   1       5.496  -3.352  -6.915  0.00  0.00    -0.001 C 
ATOM     22  H   LIG d   1       6.508  -3.063  -6.629  0.00  0.00     0.034 H 
ATOM     23  H   LIG d   1       5.539  -4.205  -7.592  0.00  0.00     0.034 H 
BRANCH  21  24
ATOM     24  C   LIG d   1       4.821  -2.195  -7.606  0.00  0.00    -0.045 A 
ATOM     25  C   LIG d   1       3.665  -2.405  -8.336  0.00  0.00    -0.059 A 
ATOM     26  C   LIG d   1       3.044  -1.343  -8.966  0.00  0.00    -0.061 A 
ATOM     27  H   LIG d   1       3.246  -3.397  -8.409  0.00  0.00     0.062 H 
ATOM     28  C   LIG d   1       3.584  -0.073  -8.875  0.00  0.00    -0.062 A 
ATOM     29  H   LIG d   1       2.138  -1.507  -9.532  0.00  0.00     0.062 H 
ATOM     30  C   LIG d   1       4.742   0.135  -8.151  0.00  0.00    -0.061 A 
ATOM     31  H   LIG d   1       3.099   0.756  -9.370  0.00  0.00     0.062 H 
ATOM     32  C   LIG d   1       5.361  -0.926  -7.516  0.00  0.00    -0.059 A 
ATOM     33  H   LIG d   1       5.164   1.126  -8.080  0.00  0.00     0.062 H 
ATOM     34  H   LIG d   1       6.266  -0.763  -6.950  0.00  0.00     0.062 H 
ENDBRANCH  21  24
ENDBRANCH  19  21
BRANCH  19  35
ATOM     35  C   LIG d   1       4.714  -5.232  -5.499  0.00  0.00     0.238 C 
ATOM     36  O   LIG d   1       3.881  -5.771  -4.801  0.00  0.00    -0.273 OA
ATOM     37  N   LIG d   1       5.648  -5.970  -6.129  0.00  0.00    -0.284 N 
ATOM     38  H   LIG d   1       6.361  -5.535  -6.620  0.00  0.00     0.155 HD
BRANCH  37  39
ATOM     39  C   LIG d   1       5.589  -7.368  -6.072  0.00  0.00     0.034 A 
ATOM     40  C   LIG d   1       6.336  -8.058  -5.126  0.00  0.00    -0.034 A 
ATOM     41  C   LIG d   1       6.272  -9.436  -5.069  0.00  0.00     0.017 A 
ATOM     42  H   LIG d   1       6.964  -7.516  -4.433  0.00  0.00     0.064 H 
ATOM     43  C   LIG d   1       5.473 -10.129  -5.959  0.00  0.00     0.273 A 
ATOM     44  H   LIG d   1       6.849  -9.973  -4.330  0.00  0.00     0.069 H 
ATOM     45  C   LIG d   1       4.733  -9.446  -6.905  0.00  0.00     0.017 A 
ATOM     46  C   LIG d   1       4.788  -8.068  -6.965  0.00  0.00    -0.034 A 
ATOM     47  H   LIG d   1       4.109  -9.991  -7.599  0.00  0.00     0.069 H 
ATOM     48  H   LIG d   1       4.209  -7.534  -7.704  0.00  0.00     0.064 H 
BRANCH  43  49
ATOM     49  N   LIG d   1       5.412 -11.608  -5.899  0.00  0.00     0.080 N 
ATOM     50  O   LIG d   1       6.208 -12.272  -6.523  0.00  0.00     0.041 OA
ATOM     51  O   LIG d   1       4.565 -12.151  -5.228  0.00  0.00    -0.576 OA
ENDBRANCH  43  49
ENDBRANCH  37  39
ENDBRANCH  19  35
ENDBRANCH  17  19
ENDBRANCH   7  15
BRANCH   1  52
ATOM     52  C   LIG d   1       7.993   0.879  -4.783  0.00  0.00     0.102 C 
ATOM     53  H   LIG d   1       7.308   1.726  -4.780  0.00  0.00     0.060 H 
BRANCH  52  54
ATOM     54  C   LIG d   1       8.459   0.603  -6.213  0.00  0.00    -0.020 C 
ATOM     55  H   LIG d   1       7.991  -0.312  -6.577  0.00  0.00     0.032 H 
BRANCH  54  56
ATOM     56  C   LIG d   1       8.063   1.773  -7.114  0.00  0.00    -0.060 C 
ATOM     57  H   LIG d   1       7.611   2.561  -6.509  0.00  0.00     0.023 H 
ATOM     58  H   LIG d   1       8.950   2.164  -7.613  0.00  0.00     0.023 H 
ATOM     59  H   LIG d   1       7.347   1.432  -7.861  0.00  0.00     0.023 H 
ENDBRANCH  54  56
BRANCH  54  60
ATOM     60  C   LIG d   1       9.980   0.437  -6.230  0.00  0.00    -0.060 C 
ATOM     61  H   LIG d   1      10.333   0.424  -7.261  0.00  0.00     0.023 H 
ATOM     62  H   LIG d   1      10.443   1.269  -5.698  0.00  0.00     0.023 H 
ATOM     63  H   LIG d   1      10.249  -0.500  -5.742  0.00  0.00     0.023 H 
ENDBRANCH  54  60
ENDBRANCH  52  54
BRANCH  52  64
ATOM     64  N   LIG d   1       9.153   1.186  -3.943  0.00  0.00    -0.304 N 
ATOM     65  C   LIG d   1       9.433   2.464  -3.621  0.00  0.00     0.214 C 
ATOM     66  O   LIG d   1       8.725   3.361  -4.029  0.00  0.00    -0.276 OA
ATOM     67  H   LIG d   1       9.719   0.469  -3.617  0.00  0.00     0.149 HD
BRANCH  65  68
ATOM     68  C   LIG d   1      10.627   2.780  -2.757  0.00  0.00     0.029 C 
ATOM     69  H   LIG d   1      10.353   2.677  -1.707  0.00  0.00     0.036 H 
ATOM     70  H   LIG d   1      11.438   2.091  -2.991  0.00  0.00     0.036 H 
BRANCH  68  71
ATOM     71  C   LIG d   1      11.084   4.216  -3.025  0.00  0.00    -0.005 C 
ATOM     72  H   LIG d   1      12.151   4.221  -3.248  0.00  0.00     0.033 H 
ATOM     73  H   LIG d   1      10.533   4.621  -3.874  0.00  0.00     0.033 H 
BRANCH  71  74
ATOM     74  C   LIG d   1      10.822   5.062  -1.806  0.00  0.00     0.042 C 
ATOM     75  O   LIG d   1      11.535   4.952  -0.823  0.00  0.00    -0.550 OA
ATOM     76  O   LIG d   1       9.898   5.858  -1.803  0.00  0.00    -0.550 OA
ENDBRANCH  71  74
ENDBRANCH  68  71
ENDBRANCH  65  68
ENDBRANCH  52  64
ENDBRANCH   1  52
TORSDOF 15
ENDMDL
MODEL 6
REMARK VINA RESULT:      -6.1      4.392      6.262
REMARK  15 active torsions:
REMARK  status: ('A' for Active; 'I' for Inactive)
REMARK    1  A    between atoms: C_1  and  C_2 
REMARK    2  A    between atoms: C_2  and  C_3 
REMARK    3  A    between atoms: C_2  and  C_4 
REMARK    4  A    between atoms: C_4  and  C_6 
REMARK    5  A    between atoms: C_4  and  N_38 
REMARK       I    between atoms: C_6  and  N_8 
REMARK    6  A    between atoms: C_12  and  C_14 
REMARK       I    between atoms: C_14  and  N_16 
REMARK    7  A    between atoms: N_16  and  C_17 
REMARK    8  A    between atoms: C_17  and  C_19 
REMARK    9  A    between atoms: C_17  and  C_26 
REMARK   10  A    between atoms: C_19  and  C_20 
REMARK       I    between atoms: C_26  and  N_28 
REMARK   11  A    between atoms: N_28  and  C_29 
REMARK   12  A    between atoms: C_32  and  N_35 
REMARK       I    between atoms: N_38  and  C_39 
REMARK   13  A    between atoms: C_39  and  C_41 
REMARK   14  A    between atoms: C_41  and  C_42 
REMARK   15  A    between atoms: C_42  and  C_43 
ROOT
ATOM      1  C   LIG d   1       5.136  -2.272  -7.323  0.00  0.00     0.237 C 
ATOM      2  O   LIG d   1       5.306  -2.383  -6.127  0.00  0.00    -0.274 OA
ATOM      3  N   LIG d   1       6.116  -1.771  -8.100  0.00  0.00    -0.288 N 
ATOM      4  C   LIG d   1       6.072  -1.654  -9.569  0.00  0.00     0.016 C 
ATOM      5  C   LIG d   1       7.068  -0.515  -9.906  0.00  0.00    -0.035 C 
ATOM      6  C   LIG d   1       8.188  -0.762  -8.861  0.00  0.00    -0.024 C 
ATOM      7  C   LIG d   1       7.403  -1.244  -7.623  0.00  0.00     0.102 C 
ATOM      8  H   LIG d   1       7.960  -2.033  -7.117  0.00  0.00     0.060 H 
ATOM      9  H   LIG d   1       6.392  -2.587 -10.034  0.00  0.00     0.046 H 
ATOM     10  H   LIG d   1       5.068  -1.389  -9.899  0.00  0.00     0.046 H 
ATOM     11  H   LIG d   1       7.451  -0.619 -10.921  0.00  0.00     0.028 H 
ATOM     12  H   LIG d   1       6.607   0.462  -9.761  0.00  0.00     0.028 H 
ATOM     13  H   LIG d   1       8.878  -1.531  -9.208  0.00  0.00     0.029 H 
ATOM     14  H   LIG d   1       8.721   0.163  -8.640  0.00  0.00     0.029 H 
ENDROOT
BRANCH   7  15
ATOM     15  C   LIG d   1       7.168  -0.092  -6.681  0.00  0.00     0.234 C 
ATOM     16  O   LIG d   1       6.610   0.909  -7.075  0.00  0.00    -0.274 OA
ATOM     17  N   LIG d   1       7.579  -0.175  -5.400  0.00  0.00    -0.302 N 
ATOM     18  H   LIG d   1       8.101  -0.938  -5.107  0.00  0.00     0.149 HD
BRANCH  17  19
ATOM     19  C   LIG d   1       7.238   0.888  -4.451  0.00  0.00     0.104 C 
ATOM     20  H   LIG d   1       6.339   1.402  -4.789  0.00  0.00     0.060 H 
BRANCH  19  21
ATOM     21  C   LIG d   1       6.987   0.278  -3.070  0.00  0.00    -0.001 C 
ATOM     22  H   LIG d   1       7.618  -0.602  -2.942  0.00  0.00     0.034 H 
ATOM     23  H   LIG d   1       7.226   1.012  -2.300  0.00  0.00     0.034 H 
BRANCH  21  24
ATOM     24  C   LIG d   1       5.539  -0.122  -2.952  0.00  0.00    -0.045 A 
ATOM     25  C   LIG d   1       4.548   0.839  -3.033  0.00  0.00    -0.059 A 
ATOM     26  C   LIG d   1       3.220   0.470  -2.929  0.00  0.00    -0.061 A 
ATOM     27  H   LIG d   1       4.811   1.875  -3.181  0.00  0.00     0.062 H 
ATOM     28  C   LIG d   1       2.883  -0.857  -2.735  0.00  0.00    -0.062 A 
ATOM     29  H   LIG d   1       2.445   1.220  -2.997  0.00  0.00     0.062 H 
ATOM     30  C   LIG d   1       3.874  -1.816  -2.649  0.00  0.00    -0.061 A 
ATOM     31  H   LIG d   1       1.845  -1.144  -2.652  0.00  0.00     0.062 H 
ATOM     32  C   LIG d   1       5.203  -1.448  -2.758  0.00  0.00    -0.059 A 
ATOM     33  H   LIG d   1       3.611  -2.851  -2.497  0.00  0.00     0.062 H 
ATOM     34  H   LIG d   1       5.977  -2.198  -2.690  0.00  0.00     0.062 H 
ENDBRANCH  21  24
ENDBRANCH  19  21
BRANCH  19  35
ATOM     35  C   LIG d   1       8.378   1.871  -4.366  0.00  0.00     0.238 C 
ATOM     36  O   LIG d   1       8.412   2.825  -5.115  0.00  0.00    -0.273 OA
ATOM     37  N   LIG d   1       9.356   1.690  -3.458  0.00  0.00    -0.284 N 
ATOM     38  H   LIG d   1       9.373   0.886  -2.916  0.00  0.00     0.155 HD
BRANCH  37  39
ATOM     39  C   LIG d   1      10.350   2.663  -3.298  0.00  0.00     0.034 A 
ATOM     40  C   LIG d   1      11.648   2.408  -3.723  0.00  0.00    -0.034 A 
ATOM     41  C   LIG d   1      12.625   3.371  -3.570  0.00  0.00     0.017 A 
ATOM     42  H   LIG d   1      11.891   1.458  -4.177  0.00  0.00     0.064 H 
ATOM     43  C   LIG d   1      12.315   4.584  -2.983  0.00  0.00     0.273 A 
ATOM     44  H   LIG d   1      13.633   3.176  -3.905  0.00  0.00     0.069 H 
ATOM     45  C   LIG d   1      11.026   4.839  -2.554  0.00  0.00     0.017 A 
ATOM     46  C   LIG d   1      10.043   3.883  -2.709  0.00  0.00    -0.034 A 
ATOM     47  H   LIG d   1      10.787   5.789  -2.097  0.00  0.00     0.069 H 
ATOM     48  H   LIG d   1       9.035   4.082  -2.374  0.00  0.00     0.064 H 
BRANCH  43  49
ATOM     49  N   LIG d   1      13.367   5.613  -2.814  0.00  0.00     0.080 N 
ATOM     50  O   LIG d   1      14.410   5.327  -2.273  0.00  0.00     0.041 OA
ATOM     51  O   LIG d   1      13.182   6.738  -3.215  0.00  0.00    -0.576 OA
ENDBRANCH  43  49
ENDBRANCH  37  39
ENDBRANCH  19  35
ENDBRANCH  17  19
ENDBRANCH   7  15
BRANCH   1  52
ATOM     52  C   LIG d   1       3.826  -2.693  -7.939  0.00  0.00     0.102 C 
ATOM     53  H   LIG d   1       3.070  -2.782  -7.160  0.00  0.00     0.060 H 
BRANCH  52  54
ATOM     54  C   LIG d   1       4.002  -4.043  -8.637  0.00  0.00    -0.020 C 
ATOM     55  H   LIG d   1       5.018  -4.124  -9.021  0.00  0.00     0.032 H 
BRANCH  54  56
ATOM     56  C   LIG d   1       3.742  -5.172  -7.638  0.00  0.00    -0.060 C 
ATOM     57  H   LIG d   1       4.584  -5.866  -7.646  0.00  0.00     0.023 H 
ATOM     58  H   LIG d   1       3.628  -4.753  -6.638  0.00  0.00     0.023 H 
ATOM     59  H   LIG d   1       2.832  -5.701  -7.915  0.00  0.00     0.023 H 
ENDBRANCH  54  56
BRANCH  54  60
ATOM     60  C   LIG d   1       3.009  -4.151  -9.797  0.00  0.00    -0.060 C 
ATOM     61  H   LIG d   1       3.180  -3.334 -10.498  0.00  0.00     0.023 H 
ATOM     62  H   LIG d   1       3.148  -5.104 -10.307  0.00  0.00     0.023 H 
ATOM     63  H   LIG d   1       1.992  -4.091  -9.410  0.00  0.00     0.023 H 
ENDBRANCH  54  60
ENDBRANCH  52  54
BRANCH  52  64
ATOM     64  N   LIG d   1       3.402  -1.690  -8.919  0.00  0.00    -0.304 N 
ATOM     65  C   LIG d   1       2.791  -0.562  -8.507  0.00  0.00     0.214 C 
ATOM     66  O   LIG d   1       2.590  -0.379  -7.325  0.00  0.00    -0.276 OA
ATOM     67  H   LIG d   1       3.563  -1.837  -9.864  0.00  0.00     0.149 HD
BRANCH  65  68
ATOM     68  C   LIG d   1       2.354   0.470  -9.515  0.00  0.00     0.029 C 
ATOM     69  H   LIG d   1       1.747  -0.008 -10.285  0.00  0.00     0.036 H 
ATOM     70  H   LIG d   1       1.767   1.241  -9.016  0.00  0.00     0.036 H 
BRANCH  68  71
ATOM     71  C   LIG d   1       3.587   1.105 -10.161  0.00  0.00    -0.005 C 
ATOM     72  H   LIG d   1       4.370   0.354 -10.266  0.00  0.00     0.033 H 
ATOM     73  H   LIG d   1       3.323   1.494 -11.144  0.00  0.00     0.033 H 
BRANCH  71  74
ATOM     74  C   LIG d   1       4.085   2.232  -9.293  0.00  0.00     0.042 C 
ATOM     75  O   LIG d   1       3.351   2.725  -8.454  0.00  0.00    -0.550 OA
ATOM     76  O   LIG d   1       5.222   2.651  -9.429  0.00  0.00    -0.550 OA
ENDBRANCH  71  74
ENDBRANCH  68  71
ENDBRANCH  65  68
ENDBRANCH  52  64
ENDBRANCH   1  52
TORSDOF 15
ENDMDL
MODEL 7
REMARK VINA RESULT:      -6.1      4.279      9.417
REMARK  15 active torsions:
REMARK  status: ('A' for Active; 'I' for Inactive)
REMARK    1  A    between atoms: C_1  and  C_2 
REMARK    2  A    between atoms: C_2  and  C_3 
REMARK    3  A    between atoms: C_2  and  C_4 
REMARK    4  A    between atoms: C_4  and  C_6 
REMARK    5  A    between atoms: C_4  and  N_38 
REMARK       I    between atoms: C_6  and  N_8 
REMARK    6  A    between atoms: C_12  and  C_14 
REMARK       I    between atoms: C_14  and  N_16 
REMARK    7  A    between atoms: N_16  and  C_17 
REMARK    8  A    between atoms: C_17  and  C_19 
REMARK    9  A    between atoms: C_17  and  C_26 
REMARK   10  A    between atoms: C_19  and  C_20 
REMARK       I    between atoms: C_26  and  N_28 
REMARK   11  A    between atoms: N_28  and  C_29 
REMARK   12  A    between atoms: C_32  and  N_35 
REMARK       I    between atoms: N_38  and  C_39 
REMARK   13  A    between atoms: C_39  and  C_41 
REMARK   14  A    between atoms: C_41  and  C_42 
REMARK   15  A    between atoms: C_42  and  C_43 
ROOT
ATOM      1  C   LIG d   1       5.198  -6.645  -5.886  0.00  0.00     0.237 C 
ATOM      2  O   LIG d   1       4.252  -6.468  -5.147  0.00  0.00    -0.274 OA
ATOM      3  N   LIG d   1       6.304  -5.887  -5.757  0.00  0.00    -0.288 N 
ATOM      4  C   LIG d   1       7.549  -6.046  -6.532  0.00  0.00     0.016 C 
ATOM      5  C   LIG d   1       8.223  -4.652  -6.489  0.00  0.00    -0.035 C 
ATOM      6  C   LIG d   1       7.884  -4.186  -5.048  0.00  0.00    -0.024 C 
ATOM      7  C   LIG d   1       6.470  -4.763  -4.825  0.00  0.00     0.102 C 
ATOM      8  H   LIG d   1       6.373  -5.116  -3.798  0.00  0.00     0.060 H 
ATOM      9  H   LIG d   1       8.192  -6.793  -6.068  0.00  0.00     0.046 H 
ATOM     10  H   LIG d   1       7.322  -6.326  -7.561  0.00  0.00     0.046 H 
ATOM     11  H   LIG d   1       9.301  -4.735  -6.629  0.00  0.00     0.028 H 
ATOM     12  H   LIG d   1       7.785  -3.983  -7.230  0.00  0.00     0.028 H 
ATOM     13  H   LIG d   1       8.591  -4.602  -4.331  0.00  0.00     0.029 H 
ATOM     14  H   LIG d   1       7.867  -3.098  -4.988  0.00  0.00     0.029 H 
ENDROOT
BRANCH   7  15
ATOM     15  C   LIG d   1       5.433  -3.707  -5.107  0.00  0.00     0.234 C 
ATOM     16  O   LIG d   1       4.493  -3.564  -4.354  0.00  0.00    -0.274 OA
ATOM     17  N   LIG d   1       5.549  -2.922  -6.196  0.00  0.00    -0.302 N 
ATOM     18  H   LIG d   1       6.252  -3.091  -6.843  0.00  0.00     0.149 HD
BRANCH  17  19
ATOM     19  C   LIG d   1       4.615  -1.812  -6.403  0.00  0.00     0.104 C 
ATOM     20  H   LIG d   1       3.725  -1.968  -5.793  0.00  0.00     0.060 H 
BRANCH  19  21
ATOM     21  C   LIG d   1       5.286  -0.498  -5.997  0.00  0.00    -0.001 C 
ATOM     22  H   LIG d   1       6.369  -0.625  -6.004  0.00  0.00     0.034 H 
ATOM     23  H   LIG d   1       5.008   0.285  -6.702  0.00  0.00     0.034 H 
BRANCH  21  24
ATOM     24  C   LIG d   1       4.837  -0.110  -4.611  0.00  0.00    -0.045 A 
ATOM     25  C   LIG d   1       3.500  -0.196  -4.269  0.00  0.00    -0.059 A 
ATOM     26  C   LIG d   1       3.089   0.156  -2.997  0.00  0.00    -0.061 A 
ATOM     27  H   LIG d   1       2.779  -0.542  -4.994  0.00  0.00     0.062 H 
ATOM     28  C   LIG d   1       4.013   0.603  -2.071  0.00  0.00    -0.062 A 
ATOM     29  H   LIG d   1       2.045   0.083  -2.728  0.00  0.00     0.062 H 
ATOM     30  C   LIG d   1       5.348   0.695  -2.415  0.00  0.00    -0.061 A 
ATOM     31  H   LIG d   1       3.691   0.880  -1.078  0.00  0.00     0.062 H 
ATOM     32  C   LIG d   1       5.761   0.338  -3.686  0.00  0.00    -0.059 A 
ATOM     33  H   LIG d   1       6.069   1.044  -1.692  0.00  0.00     0.062 H 
ATOM     34  H   LIG d   1       6.804   0.410  -3.955  0.00  0.00     0.062 H 
ENDBRANCH  21  24
ENDBRANCH  19  21
BRANCH  19  35
ATOM     35  C   LIG d   1       4.225  -1.748  -7.857  0.00  0.00     0.238 C 
ATOM     36  O   LIG d   1       5.073  -1.569  -8.705  0.00  0.00    -0.273 OA
ATOM     37  N   LIG d   1       2.934  -1.891  -8.214  0.00  0.00    -0.284 N 
ATOM     38  H   LIG d   1       2.246  -1.952  -7.533  0.00  0.00     0.155 HD
BRANCH  37  39
ATOM     39  C   LIG d   1       2.585  -1.950  -9.568  0.00  0.00     0.034 A 
ATOM     40  C   LIG d   1       2.606  -3.166 -10.240  0.00  0.00    -0.034 A 
ATOM     41  C   LIG d   1       2.256  -3.223 -11.574  0.00  0.00     0.017 A 
ATOM     42  H   LIG d   1       2.893  -4.067  -9.717  0.00  0.00     0.064 H 
ATOM     43  C   LIG d   1       1.895  -2.069 -12.245  0.00  0.00     0.273 A 
ATOM     44  H   LIG d   1       2.268  -4.168 -12.096  0.00  0.00     0.069 H 
ATOM     45  C   LIG d   1       1.878  -0.856 -11.581  0.00  0.00     0.017 A 
ATOM     46  C   LIG d   1       2.221  -0.793 -10.245  0.00  0.00    -0.034 A 
ATOM     47  H   LIG d   1       1.594   0.044 -12.107  0.00  0.00     0.069 H 
ATOM     48  H   LIG d   1       2.208   0.154  -9.726  0.00  0.00     0.064 H 
BRANCH  43  49
ATOM     49  N   LIG d   1       1.526  -2.132 -13.677  0.00  0.00     0.080 N 
ATOM     50  O   LIG d   1       0.386  -2.377 -13.998  0.00  0.00     0.041 OA
ATOM     51  O   LIG d   1       2.365  -1.940 -14.526  0.00  0.00    -0.576 OA
ENDBRANCH  43  49
ENDBRANCH  37  39
ENDBRANCH  19  35
ENDBRANCH  17  19
ENDBRANCH   7  15
BRANCH   1  52
ATOM     52  C   LIG d   1       5.133  -7.711  -6.950  0.00  0.00     0.102 C 
ATOM     53  H   LIG d   1       6.124  -7.857  -7.378  0.00  0.00     0.060 H 
BRANCH  52  54
ATOM     54  C   LIG d   1       4.161  -7.276  -8.048  0.00  0.00    -0.020 C 
ATOM     55  H   LIG d   1       3.268  -6.847  -7.594  0.00  0.00     0.032 H 
BRANCH  54  56
ATOM     56  C   LIG d   1       4.833  -6.233  -8.941  0.00  0.00    -0.060 C 
ATOM     57  H   LIG d   1       4.732  -5.246  -8.486  0.00  0.00     0.023 H 
ATOM     58  H   LIG d   1       5.890  -6.475  -9.051  0.00  0.00     0.023 H 
ATOM     59  H   LIG d   1       4.357  -6.231  -9.921  0.00  0.00     0.023 H 
ENDBRANCH  54  56
BRANCH  54  60
ATOM     60  C   LIG d   1       3.768  -8.492  -8.891  0.00  0.00    -0.060 C 
ATOM     61  H   LIG d   1       3.386  -9.278  -8.240  0.00  0.00     0.023 H 
ATOM     62  H   LIG d   1       2.997  -8.205  -9.606  0.00  0.00     0.023 H 
ATOM     63  H   LIG d   1       4.643  -8.858  -9.429  0.00  0.00     0.023 H 
ENDBRANCH  54  60
ENDBRANCH  52  54
BRANCH  52  64
ATOM     64  N   LIG d   1       4.667  -8.966  -6.355  0.00  0.00    -0.304 N 
ATOM     65  C   LIG d   1       5.555  -9.836  -5.836  0.00  0.00     0.214 C 
ATOM     66  O   LIG d   1       6.740  -9.581  -5.863  0.00  0.00    -0.276 OA
ATOM     67  H   LIG d   1       3.719  -9.170  -6.334  0.00  0.00     0.149 HD
BRANCH  65  68
ATOM     68  C   LIG d   1       5.076 -11.128  -5.224  0.00  0.00     0.029 C 
ATOM     69  H   LIG d   1       4.214 -11.496  -5.782  0.00  0.00     0.036 H 
ATOM     70  H   LIG d   1       5.875 -11.867  -5.261  0.00  0.00     0.036 H 
BRANCH  68  71
ATOM     71  C   LIG d   1       4.673 -10.884  -3.769  0.00  0.00    -0.005 C 
ATOM     72  H   LIG d   1       4.930 -11.758  -3.170  0.00  0.00     0.033 H 
ATOM     73  H   LIG d   1       5.205 -10.012  -3.385  0.00  0.00     0.033 H 
BRANCH  71  74
ATOM     74  C   LIG d   1       3.189 -10.641  -3.691  0.00  0.00     0.042 C 
ATOM     75  O   LIG d   1       2.758  -9.699  -3.048  0.00  0.00    -0.550 OA
ATOM     76  O   LIG d   1       2.417 -11.385  -4.273  0.00  0.00    -0.550 OA
ENDBRANCH  71  74
ENDBRANCH  68  71
ENDBRANCH  65  68
ENDBRANCH  52  64
ENDBRANCH   1  52
TORSDOF 15
ENDMDL
MODEL 8
REMARK VINA RESULT:      -6.1      4.223      6.577
REMARK  15 active torsions:
REMARK  status: ('A' for Active; 'I' for Inactive)
REMARK    1  A    between atoms: C_1  and  C_2 
REMARK    2  A    between atoms: C_2  and  C_3 
REMARK    3  A    between atoms: C_2  and  C_4 
REMARK    4  A    between atoms: C_4  and  C_6 
REMARK    5  A    between atoms: C_4  and  N_38 
REMARK       I    between atoms: C_6  and  N_8 
REMARK    6  A    between atoms: C_12  and  C_14 
REMARK       I    between atoms: C_14  and  N_16 
REMARK    7  A    between atoms: N_16  and  C_17 
REMARK    8  A    between atoms: C_17  and  C_19 
REMARK    9  A    between atoms: C_17  and  C_26 
REMARK   10  A    between atoms: C_19  and  C_20 
REMARK       I    between atoms: C_26  and  N_28 
REMARK   11  A    between atoms: N_28  and  C_29 
REMARK   12  A    between atoms: C_32  and  N_35 
REMARK       I    between atoms: N_38  and  C_39 
REMARK   13  A    between atoms: C_39  and  C_41 
REMARK   14  A    between atoms: C_41  and  C_42 
REMARK   15  A    between atoms: C_42  and  C_43 
ROOT
ATOM      1  C   LIG d   1       5.020  -1.560  -7.980  0.00  0.00     0.237 C 
ATOM      2  O   LIG d   1       5.013  -1.852  -6.802  0.00  0.00    -0.274 OA
ATOM      3  N   LIG d   1       6.158  -1.133  -8.562  0.00  0.00    -0.288 N 
ATOM      4  C   LIG d   1       6.325  -0.821  -9.993  0.00  0.00     0.016 C 
ATOM      5  C   LIG d   1       7.516   0.170 -10.046  0.00  0.00    -0.035 C 
ATOM      6  C   LIG d   1       8.439  -0.395  -8.934  0.00  0.00    -0.024 C 
ATOM      7  C   LIG d   1       7.436  -0.896  -7.875  0.00  0.00     0.102 C 
ATOM      8  H   LIG d   1       7.797  -1.825  -7.435  0.00  0.00     0.060 H 
ATOM      9  H   LIG d   1       6.559  -1.725 -10.555  0.00  0.00     0.046 H 
ATOM     10  H   LIG d   1       5.423  -0.351 -10.387  0.00  0.00     0.046 H 
ATOM     11  H   LIG d   1       8.009   0.136 -11.018  0.00  0.00     0.028 H 
ATOM     12  H   LIG d   1       7.192   1.183  -9.808  0.00  0.00     0.028 H 
ATOM     13  H   LIG d   1       9.045  -1.216  -9.316  0.00  0.00     0.029 H 
ATOM     14  H   LIG d   1       9.071   0.392  -8.521  0.00  0.00     0.029 H 
ENDROOT
BRANCH   7  15
ATOM     15  C   LIG d   1       7.255   0.147  -6.802  0.00  0.00     0.234 C 
ATOM     16  O   LIG d   1       6.922   1.273  -7.102  0.00  0.00    -0.274 OA
ATOM     17  N   LIG d   1       7.463  -0.173  -5.510  0.00  0.00    -0.302 N 
ATOM     18  H   LIG d   1       7.812  -1.047  -5.277  0.00  0.00     0.149 HD
BRANCH  17  19
ATOM     19  C   LIG d   1       7.164   0.801  -4.457  0.00  0.00     0.104 C 
ATOM     20  H   LIG d   1       6.248   1.336  -4.706  0.00  0.00     0.060 H 
BRANCH  19  21
ATOM     21  C   LIG d   1       6.980   0.071  -3.124  0.00  0.00    -0.001 C 
ATOM     22  H   LIG d   1       7.594  -0.831  -3.117  0.00  0.00     0.034 H 
ATOM     23  H   LIG d   1       7.284   0.725  -2.307  0.00  0.00     0.034 H 
BRANCH  21  24
ATOM     24  C   LIG d   1       5.531  -0.307  -2.953  0.00  0.00    -0.045 A 
ATOM     25  C   LIG d   1       4.560   0.676  -2.916  0.00  0.00    -0.059 A 
ATOM     26  C   LIG d   1       3.232   0.329  -2.763  0.00  0.00    -0.061 A 
ATOM     27  H   LIG d   1       4.840   1.714  -3.009  0.00  0.00     0.062 H 
ATOM     28  C   LIG d   1       2.874  -1.001  -2.638  0.00  0.00    -0.062 A 
ATOM     29  H   LIG d   1       2.472   1.097  -2.739  0.00  0.00     0.062 H 
ATOM     30  C   LIG d   1       3.846  -1.984  -2.670  0.00  0.00    -0.061 A 
ATOM     31  H   LIG d   1       1.836  -1.272  -2.517  0.00  0.00     0.062 H 
ATOM     32  C   LIG d   1       5.175  -1.637  -2.828  0.00  0.00    -0.059 A 
ATOM     33  H   LIG d   1       3.567  -3.022  -2.573  0.00  0.00     0.062 H 
ATOM     34  H   LIG d   1       5.934  -2.404  -2.853  0.00  0.00     0.062 H 
ENDBRANCH  21  24
ENDBRANCH  19  21
BRANCH  19  35
ATOM     35  C   LIG d   1       8.303   1.781  -4.339  0.00  0.00     0.238 C 
ATOM     36  O   LIG d   1       9.374   1.416  -3.901  0.00  0.00    -0.273 OA
ATOM     37  N   LIG d   1       8.132   3.061  -4.723  0.00  0.00    -0.284 N 
ATOM     38  H   LIG d   1       7.255   3.373  -4.996  0.00  0.00     0.155 HD
BRANCH  37  39
ATOM     39  C   LIG d   1       9.219   3.942  -4.726  0.00  0.00     0.034 A 
ATOM     40  C   LIG d   1       9.916   4.184  -5.903  0.00  0.00    -0.034 A 
ATOM     41  C   LIG d   1      10.985   5.058  -5.904  0.00  0.00     0.017 A 
ATOM     42  H   LIG d   1       9.618   3.692  -6.818  0.00  0.00     0.064 H 
ATOM     43  C   LIG d   1      11.369   5.683  -4.733  0.00  0.00     0.273 A 
ATOM     44  H   LIG d   1      11.523   5.251  -6.820  0.00  0.00     0.069 H 
ATOM     45  C   LIG d   1      10.682   5.440  -3.558  0.00  0.00     0.017 A 
ATOM     46  C   LIG d   1       9.608   4.572  -3.551  0.00  0.00    -0.034 A 
ATOM     47  H   LIG d   1      10.984   5.931  -2.644  0.00  0.00     0.069 H 
ATOM     48  H   LIG d   1       9.072   4.382  -2.633  0.00  0.00     0.064 H 
BRANCH  43  49
ATOM     49  N   LIG d   1      12.520   6.615  -4.736  0.00  0.00     0.080 N 
ATOM     50  O   LIG d   1      13.250   6.670  -5.699  0.00  0.00     0.041 OA
ATOM     51  O   LIG d   1      12.730   7.319  -3.777  0.00  0.00    -0.576 OA
ENDBRANCH  43  49
ENDBRANCH  37  39
ENDBRANCH  19  35
ENDBRANCH  17  19
ENDBRANCH   7  15
BRANCH   1  52
ATOM     52  C   LIG d   1       3.754  -1.673  -8.791  0.00  0.00     0.102 C 
ATOM     53  H   LIG d   1       3.986  -1.541  -9.847  0.00  0.00     0.060 H 
BRANCH  52  54
ATOM     54  C   LIG d   1       2.766  -0.592  -8.347  0.00  0.00    -0.020 C 
ATOM     55  H   LIG d   1       2.387  -0.833  -7.354  0.00  0.00     0.032 H 
BRANCH  54  56
ATOM     56  C   LIG d   1       3.475   0.762  -8.308  0.00  0.00    -0.060 C 
ATOM     57  H   LIG d   1       3.553   1.103  -7.275  0.00  0.00     0.023 H 
ATOM     58  H   LIG d   1       4.474   0.662  -8.734  0.00  0.00     0.023 H 
ATOM     59  H   LIG d   1       2.905   1.488  -8.887  0.00  0.00     0.023 H 
ENDBRANCH  54  56
BRANCH  54  60
ATOM     60  C   LIG d   1       1.600  -0.530  -9.336  0.00  0.00    -0.060 C 
ATOM     61  H   LIG d   1       1.212  -1.535  -9.503  0.00  0.00     0.023 H 
ATOM     62  H   LIG d   1       0.811   0.102  -8.928  0.00  0.00     0.023 H 
ATOM     63  H   LIG d   1       1.947  -0.113 -10.281  0.00  0.00     0.023 H 
ENDBRANCH  54  60
ENDBRANCH  52  54
BRANCH  52  64
ATOM     64  N   LIG d   1       3.158  -2.994  -8.582  0.00  0.00    -0.304 N 
ATOM     65  C   LIG d   1       3.354  -3.973  -9.486  0.00  0.00     0.214 C 
ATOM     66  O   LIG d   1       4.025  -3.760 -10.474  0.00  0.00    -0.276 OA
ATOM     67  H   LIG d   1       2.621  -3.165  -7.792  0.00  0.00     0.149 HD
BRANCH  65  68
ATOM     68  C   LIG d   1       2.740  -5.333  -9.272  0.00  0.00     0.029 C 
ATOM     69  H   LIG d   1       1.828  -5.230  -8.683  0.00  0.00     0.036 H 
ATOM     70  H   LIG d   1       2.502  -5.781 -10.236  0.00  0.00     0.036 H 
BRANCH  68  71
ATOM     71  C   LIG d   1       3.730  -6.228  -8.525  0.00  0.00    -0.005 C 
ATOM     72  H   LIG d   1       3.257  -7.183  -8.298  0.00  0.00     0.033 H 
ATOM     73  H   LIG d   1       4.610  -6.396  -9.147  0.00  0.00     0.033 H 
BRANCH  71  74
ATOM     74  C   LIG d   1       4.145  -5.556  -7.241  0.00  0.00     0.042 C 
ATOM     75  O   LIG d   1       3.331  -5.393  -6.348  0.00  0.00    -0.550 OA
ATOM     76  O   LIG d   1       5.295  -5.177  -7.094  0.00  0.00    -0.550 OA
ENDBRANCH  71  74
ENDBRANCH  68  71
ENDBRANCH  65  68
ENDBRANCH  52  64
ENDBRANCH   1  52
TORSDOF 15
ENDMDL
MODEL 9
REMARK VINA RESULT:      -6.1      4.202      5.563
REMARK  15 active torsions:
REMARK  status: ('A' for Active; 'I' for Inactive)
REMARK    1  A    between atoms: C_1  and  C_2 
REMARK    2  A    between atoms: C_2  and  C_3 
REMARK    3  A    between atoms: C_2  and  C_4 
REMARK    4  A    between atoms: C_4  and  C_6 
REMARK    5  A    between atoms: C_4  and  N_38 
REMARK       I    between atoms: C_6  and  N_8 
REMARK    6  A    between atoms: C_12  and  C_14 
REMARK       I    between atoms: C_14  and  N_16 
REMARK    7  A    between atoms: N_16  and  C_17 
REMARK    8  A    between atoms: C_17  and  C_19 
REMARK    9  A    between atoms: C_17  and  C_26 
REMARK   10  A    between atoms: C_19  and  C_20 
REMARK       I    between atoms: C_26  and  N_28 
REMARK   11  A    between atoms: N_28  and  C_29 
REMARK   12  A    between atoms: C_32  and  N_35 
REMARK       I    between atoms: N_38  and  C_39 
REMARK   13  A    between atoms: C_39  and  C_41 
REMARK   14  A    between atoms: C_41  and  C_42 
REMARK   15  A    between atoms: C_42  and  C_43 
ROOT
ATOM      1  C   LIG d   1       5.515  -0.575 -10.819  0.00  0.00     0.237 C 
ATOM      2  O   LIG d   1       6.591  -0.948 -10.401  0.00  0.00    -0.274 OA
ATOM      3  N   LIG d   1       4.993   0.591 -10.389  0.00  0.00    -0.288 N 
ATOM      4  C   LIG d   1       3.738   1.198 -10.870  0.00  0.00     0.016 C 
ATOM      5  C   LIG d   1       3.271   2.113  -9.709  0.00  0.00    -0.035 C 
ATOM      6  C   LIG d   1       4.623   2.665  -9.184  0.00  0.00    -0.024 C 
ATOM      7  C   LIG d   1       5.576   1.464  -9.360  0.00  0.00     0.102 C 
ATOM      8  H   LIG d   1       6.555   1.815  -9.684  0.00  0.00     0.060 H 
ATOM      9  H   LIG d   1       3.922   1.789 -11.767  0.00  0.00     0.046 H 
ATOM     10  H   LIG d   1       2.994   0.427 -11.068  0.00  0.00     0.046 H 
ATOM     11  H   LIG d   1       2.637   2.919 -10.078  0.00  0.00     0.028 H 
ATOM     12  H   LIG d   1       2.758   1.536  -8.939  0.00  0.00     0.028 H 
ATOM     13  H   LIG d   1       4.952   3.513  -9.783  0.00  0.00     0.029 H 
ATOM     14  H   LIG d   1       4.545   2.940  -8.133  0.00  0.00     0.029 H 
ENDROOT
BRANCH   7  15
ATOM     15  C   LIG d   1       5.702   0.711  -8.061  0.00  0.00     0.234 C 
ATOM     16  O   LIG d   1       6.597   0.980  -7.289  0.00  0.00    -0.274 OA
ATOM     17  N   LIG d   1       4.819  -0.261  -7.757  0.00  0.00    -0.302 N 
ATOM     18  H   LIG d   1       4.156  -0.534  -8.410  0.00  0.00     0.149 HD
BRANCH  17  19
ATOM     19  C   LIG d   1       4.861  -0.904  -6.441  0.00  0.00     0.104 C 
ATOM     20  H   LIG d   1       5.681  -0.485  -5.858  0.00  0.00     0.060 H 
BRANCH  19  21
ATOM     21  C   LIG d   1       3.539  -0.659  -5.711  0.00  0.00    -0.001 C 
ATOM     22  H   LIG d   1       3.033   0.200  -6.153  0.00  0.00     0.034 H 
ATOM     23  H   LIG d   1       2.905  -1.541  -5.802  0.00  0.00     0.034 H 
BRANCH  21  24
ATOM     24  C   LIG d   1       3.812  -0.385  -4.254  0.00  0.00    -0.045 A 
ATOM     25  C   LIG d   1       4.148  -1.424  -3.406  0.00  0.00    -0.059 A 
ATOM     26  C   LIG d   1       4.402  -1.171  -2.072  0.00  0.00    -0.061 A 
ATOM     27  H   LIG d   1       4.215  -2.431  -3.788  0.00  0.00     0.062 H 
ATOM     28  C   LIG d   1       4.312   0.119  -1.582  0.00  0.00    -0.062 A 
ATOM     29  H   LIG d   1       4.670  -1.983  -1.410  0.00  0.00     0.062 H 
ATOM     30  C   LIG d   1       3.971   1.157  -2.429  0.00  0.00    -0.061 A 
ATOM     31  H   LIG d   1       4.509   0.316  -0.539  0.00  0.00     0.062 H 
ATOM     32  C   LIG d   1       3.721   0.905  -3.765  0.00  0.00    -0.059 A 
ATOM     33  H   LIG d   1       3.900   2.164  -2.047  0.00  0.00     0.062 H 
ATOM     34  H   LIG d   1       3.454   1.716  -4.427  0.00  0.00     0.062 H 
ENDBRANCH  21  24
ENDBRANCH  19  21
BRANCH  19  35
ATOM     35  C   LIG d   1       5.073  -2.386  -6.613  0.00  0.00     0.238 C 
ATOM     36  O   LIG d   1       6.183  -2.818  -6.840  0.00  0.00    -0.273 OA
ATOM     37  N   LIG d   1       4.028  -3.231  -6.512  0.00  0.00    -0.284 N 
ATOM     38  H   LIG d   1       3.129  -2.882  -6.412  0.00  0.00     0.155 HD
BRANCH  37  39
ATOM     39  C   LIG d   1       4.241  -4.614  -6.553  0.00  0.00     0.034 A 
ATOM     40  C   LIG d   1       4.006  -5.320  -7.726  0.00  0.00    -0.034 A 
ATOM     41  C   LIG d   1       4.222  -6.683  -7.766  0.00  0.00     0.017 A 
ATOM     42  H   LIG d   1       3.657  -4.802  -8.608  0.00  0.00     0.064 H 
ATOM     43  C   LIG d   1       4.662  -7.347  -6.636  0.00  0.00     0.273 A 
ATOM     44  H   LIG d   1       4.043  -7.232  -8.679  0.00  0.00     0.069 H 
ATOM     45  C   LIG d   1       4.893  -6.649  -5.466  0.00  0.00     0.017 A 
ATOM     46  C   LIG d   1       4.684  -5.285  -5.420  0.00  0.00    -0.034 A 
ATOM     47  H   LIG d   1       5.238  -7.171  -4.585  0.00  0.00     0.069 H 
ATOM     48  H   LIG d   1       4.864  -4.739  -4.506  0.00  0.00     0.064 H 
BRANCH  43  49
ATOM     49  N   LIG d   1       4.887  -8.810  -6.680  0.00  0.00     0.080 N 
ATOM     50  O   LIG d   1       4.139  -9.518  -7.314  0.00  0.00     0.041 OA
ATOM     51  O   LIG d   1       5.817  -9.297  -6.081  0.00  0.00    -0.576 OA
ENDBRANCH  43  49
ENDBRANCH  37  39
ENDBRANCH  19  35
ENDBRANCH  17  19
ENDBRANCH   7  15
BRANCH   1  52
ATOM     52  C   LIG d   1       4.761  -1.417 -11.817  0.00  0.00     0.102 C 
ATOM     53  H   LIG d   1       3.835  -0.914 -12.090  0.00  0.00     0.060 H 
BRANCH  52  54
ATOM     54  C   LIG d   1       4.441  -2.778 -11.197  0.00  0.00    -0.020 C 
ATOM     55  H   LIG d   1       5.346  -3.201 -10.761  0.00  0.00     0.032 H 
BRANCH  54  56
ATOM     56  C   LIG d   1       3.381  -2.606 -10.109  0.00  0.00    -0.060 C 
ATOM     57  H   LIG d   1       3.562  -1.676  -9.568  0.00  0.00     0.023 H 
ATOM     58  H   LIG d   1       2.392  -2.572 -10.567  0.00  0.00     0.023 H 
ATOM     59  H   LIG d   1       3.431  -3.445  -9.416  0.00  0.00     0.023 H 
ENDBRANCH  54  56
BRANCH  54  60
ATOM     60  C   LIG d   1       3.911  -3.719 -12.282  0.00  0.00    -0.060 C 
ATOM     61  H   LIG d   1       4.520  -3.618 -13.180  0.00  0.00     0.023 H 
ATOM     62  H   LIG d   1       3.958  -4.748 -11.924  0.00  0.00     0.023 H 
ATOM     63  H   LIG d   1       2.877  -3.462 -12.512  0.00  0.00     0.023 H 
ENDBRANCH  54  60
ENDBRANCH  52  54
BRANCH  52  64
ATOM     64  N   LIG d   1       5.585  -1.607 -13.014  0.00  0.00    -0.304 N 
ATOM     65  C   LIG d   1       5.280  -0.956 -14.153  0.00  0.00     0.214 C 
ATOM     66  O   LIG d   1       4.322  -0.212 -14.187  0.00  0.00    -0.276 OA
ATOM     67  H   LIG d   1       6.350  -2.203 -12.986  0.00  0.00     0.149 HD
BRANCH  65  68
ATOM     68  C   LIG d   1       6.126  -1.152 -15.384  0.00  0.00     0.029 C 
ATOM     69  H   LIG d   1       7.180  -1.161 -15.103  0.00  0.00     0.036 H 
ATOM     70  H   LIG d   1       5.869  -2.100 -15.856  0.00  0.00     0.036 H 
BRANCH  68  71
ATOM     71  C   LIG d   1       5.871  -0.008 -16.367  0.00  0.00    -0.005 C 
ATOM     72  H   LIG d   1       5.261  -0.369 -17.195  0.00  0.00     0.033 H 
ATOM     73  H   LIG d   1       5.348   0.801 -15.856  0.00  0.00     0.033 H 
BRANCH  71  74
ATOM     74  C   LIG d   1       7.186   0.502 -16.897  0.00  0.00     0.042 C 
ATOM     75  O   LIG d   1       7.883  -0.218 -17.591  0.00  0.00    -0.550 OA
ATOM     76  O   LIG d   1       7.553   1.635 -16.634  0.00  0.00    -0.550 OA
ENDBRANCH  71  74
ENDBRANCH  68  71
ENDBRANCH  65  68
ENDBRANCH  52  64
ENDBRANCH   1  52
TORSDOF 15
ENDMDL
MODEL 10
REMARK VINA RESULT:      -6.0      4.389      8.787
REMARK  15 active torsions:
REMARK  status: ('A' for Active; 'I' for Inactive)
REMARK    1  A    between atoms: C_1  and  C_2 
REMARK    2  A    between atoms: C_2  and  C_3 
REMARK    3  A    between atoms: C_2  and  C_4 
REMARK    4  A    between atoms: C_4  and  C_6 
REMARK    5  A    between atoms: C_4  and  N_38 
REMARK       I    between atoms: C_6  and  N_8 
REMARK    6  A    between atoms: C_12  and  C_14 
REMARK       I    between atoms: C_14  and  N_16 
REMARK    7  A    between atoms: N_16  and  C_17 
REMARK    8  A    between atoms: C_17  and  C_19 
REMARK    9  A    between atoms: C_17  and  C_26 
REMARK   10  A    between atoms: C_19  and  C_20 
REMARK       I    between atoms: C_26  and  N_28 
REMARK   11  A    between atoms: N_28  and  C_29 
REMARK   12  A    between atoms: C_32  and  N_35 
REMARK       I    between atoms: N_38  and  C_39 
REMARK   13  A    between atoms: C_39  and  C_41 
REMARK   14  A    between atoms: C_41  and  C_42 
REMARK   15  A    between atoms: C_42  and  C_43 
ROOT
ATOM      1  C   LIG d   1       6.833  -1.246  -5.808  0.00  0.00     0.237 C 
ATOM      2  O   LIG d   1       7.203  -0.264  -5.198  0.00  0.00    -0.274 OA
ATOM      3  N   LIG d   1       7.739  -2.108  -6.308  0.00  0.00    -0.288 N 
ATOM      4  C   LIG d   1       7.429  -3.375  -6.998  0.00  0.00     0.016 C 
ATOM      5  C   LIG d   1       8.666  -3.655  -7.887  0.00  0.00    -0.035 C 
ATOM      6  C   LIG d   1       9.822  -3.159  -6.977  0.00  0.00    -0.024 C 
ATOM      7  C   LIG d   1       9.199  -1.941  -6.264  0.00  0.00     0.102 C 
ATOM      8  H   LIG d   1       9.536  -1.909  -5.228  0.00  0.00     0.060 H 
ATOM      9  H   LIG d   1       7.292  -4.178  -6.274  0.00  0.00     0.046 H 
ATOM     10  H   LIG d   1       6.536  -3.262  -7.614  0.00  0.00     0.046 H 
ATOM     11  H   LIG d   1       8.764  -4.720  -8.097  0.00  0.00     0.028 H 
ATOM     12  H   LIG d   1       8.622  -3.079  -8.812  0.00  0.00     0.028 H 
ATOM     13  H   LIG d   1      10.105  -3.928  -6.259  0.00  0.00     0.029 H 
ATOM     14  H   LIG d   1      10.680  -2.854  -7.576  0.00  0.00     0.029 H 
ENDROOT
BRANCH   7  15
ATOM     15  C   LIG d   1       9.591  -0.672  -6.974  0.00  0.00     0.234 C 
ATOM     16  O   LIG d   1       9.827  -0.690  -8.163  0.00  0.00    -0.274 OA
ATOM     17  N   LIG d   1       9.680   0.484  -6.287  0.00  0.00    -0.302 N 
ATOM     18  H   LIG d   1       9.575   0.485  -5.323  0.00  0.00     0.149 HD
BRANCH  17  19
ATOM     19  C   LIG d   1       9.934   1.741  -6.997  0.00  0.00     0.104 C 
ATOM     20  H   LIG d   1      10.797   1.621  -7.651  0.00  0.00     0.060 H 
BRANCH  19  21
ATOM     21  C   LIG d   1       8.708   2.110  -7.835  0.00  0.00    -0.001 C 
ATOM     22  H   LIG d   1       8.255   1.203  -8.235  0.00  0.00     0.034 H 
ATOM     23  H   LIG d   1       7.984   2.633  -7.210  0.00  0.00     0.034 H 
BRANCH  21  24
ATOM     24  C   LIG d   1       9.128   3.005  -8.973  0.00  0.00    -0.045 A 
ATOM     25  C   LIG d   1       8.800   4.348  -8.954  0.00  0.00    -0.059 A 
ATOM     26  C   LIG d   1       9.188   5.169  -9.995  0.00  0.00    -0.061 A 
ATOM     27  H   LIG d   1       8.244   4.756  -8.123  0.00  0.00     0.062 H 
ATOM     28  C   LIG d   1       9.897   4.645 -11.061  0.00  0.00    -0.062 A 
ATOM     29  H   LIG d   1       8.936   6.220  -9.978  0.00  0.00     0.062 H 
ATOM     30  C   LIG d   1      10.220   3.302 -11.083  0.00  0.00    -0.061 A 
ATOM     31  H   LIG d   1      10.199   5.287 -11.876  0.00  0.00     0.062 H 
ATOM     32  C   LIG d   1       9.835   2.481 -10.038  0.00  0.00    -0.059 A 
ATOM     33  H   LIG d   1      10.772   2.893 -11.915  0.00  0.00     0.062 H 
ATOM     34  H   LIG d   1      10.087   1.432 -10.056  0.00  0.00     0.062 H 
ENDBRANCH  21  24
ENDBRANCH  19  21
BRANCH  19  35
ATOM     35  C   LIG d   1      10.207   2.836  -5.998  0.00  0.00     0.238 C 
ATOM     36  O   LIG d   1      11.260   3.439  -6.033  0.00  0.00    -0.273 OA
ATOM     37  N   LIG d   1       9.283   3.146  -5.069  0.00  0.00    -0.284 N 
ATOM     38  H   LIG d   1       8.478   2.611  -4.988  0.00  0.00     0.155 HD
BRANCH  37  39
ATOM     39  C   LIG d   1       9.485   4.238  -4.218  0.00  0.00     0.034 A 
ATOM     40  C   LIG d   1       9.228   5.527  -4.666  0.00  0.00    -0.034 A 
ATOM     41  C   LIG d   1       9.422   6.603  -3.823  0.00  0.00     0.017 A 
ATOM     42  H   LIG d   1       8.871   5.688  -5.674  0.00  0.00     0.064 H 
ATOM     43  C   LIG d   1       9.884   6.399  -2.536  0.00  0.00     0.273 A 
ATOM     44  H   LIG d   1       9.218   7.605  -4.170  0.00  0.00     0.069 H 
ATOM     45  C   LIG d   1      10.147   5.118  -2.087  0.00  0.00     0.017 A 
ATOM     46  C   LIG d   1       9.949   4.037  -2.924  0.00  0.00    -0.034 A 
ATOM     47  H   LIG d   1      10.506   4.961  -1.081  0.00  0.00     0.069 H 
ATOM     48  H   LIG d   1      10.154   3.036  -2.573  0.00  0.00     0.064 H 
BRANCH  43  49
ATOM     49  N   LIG d   1      10.098   7.555  -1.636  0.00  0.00     0.080 N 
ATOM     50  O   LIG d   1      10.607   8.566  -2.062  0.00  0.00     0.041 OA
ATOM     51  O   LIG d   1       9.766   7.488  -0.476  0.00  0.00    -0.576 OA
ENDBRANCH  43  49
ENDBRANCH  37  39
ENDBRANCH  19  35
ENDBRANCH  17  19
ENDBRANCH   7  15
BRANCH   1  52
ATOM     52  C   LIG d   1       5.360  -1.499  -6.005  0.00  0.00     0.102 C 
ATOM     53  H   LIG d   1       5.194  -2.562  -6.174  0.00  0.00     0.060 H 
BRANCH  52  54
ATOM     54  C   LIG d   1       4.865  -0.706  -7.216  0.00  0.00    -0.020 C 
ATOM     55  H   LIG d   1       5.623   0.021  -7.509  0.00  0.00     0.032 H 
BRANCH  54  56
ATOM     56  C   LIG d   1       4.597  -1.663  -8.378  0.00  0.00    -0.060 C 
ATOM     57  H   LIG d   1       4.512  -1.094  -9.306  0.00  0.00     0.023 H 
ATOM     58  H   LIG d   1       5.421  -2.372  -8.462  0.00  0.00     0.023 H 
ATOM     59  H   LIG d   1       3.669  -2.204  -8.198  0.00  0.00     0.023 H 
ENDBRANCH  54  56
BRANCH  54  60
ATOM     60  C   LIG d   1       3.572   0.028  -6.851  0.00  0.00    -0.060 C 
ATOM     61  H   LIG d   1       3.464   0.056  -5.767  0.00  0.00     0.023 H 
ATOM     62  H   LIG d   1       3.609   1.045  -7.240  0.00  0.00     0.023 H 
ATOM     63  H   LIG d   1       2.722  -0.496  -7.287  0.00  0.00     0.023 H 
ENDBRANCH  54  60
ENDBRANCH  52  54
BRANCH  52  64
ATOM     64  N   LIG d   1       4.628  -1.073  -4.811  0.00  0.00    -0.304 N 
ATOM     65  C   LIG d   1       4.204  -1.988  -3.918  0.00  0.00     0.214 C 
ATOM     66  O   LIG d   1       4.428  -3.166  -4.104  0.00  0.00    -0.276 OA
ATOM     67  H   LIG d   1       4.448  -0.131  -4.662  0.00  0.00     0.149 HD
BRANCH  65  68
ATOM     68  C   LIG d   1       3.449  -1.550  -2.689  0.00  0.00     0.029 C 
ATOM     69  H   LIG d   1       2.657  -0.859  -2.976  0.00  0.00     0.036 H 
ATOM     70  H   LIG d   1       3.012  -2.421  -2.200  0.00  0.00     0.036 H 
BRANCH  68  71
ATOM     71  C   LIG d   1       4.409  -0.852  -1.724  0.00  0.00    -0.005 C 
ATOM     72  H   LIG d   1       4.053  -0.979  -0.701  0.00  0.00     0.033 H 
ATOM     73  H   LIG d   1       5.403  -1.288  -1.819  0.00  0.00     0.033 H 
BRANCH  71  74
ATOM     74  C   LIG d   1       4.472   0.617  -2.053  0.00  0.00     0.042 C 
ATOM     75  O   LIG d   1       3.472   1.307  -1.958  0.00  0.00    -0.550 OA
ATOM     76  O   LIG d   1       5.524   1.117  -2.415  0.00  0.00    -0.550 OA
ENDBRANCH  71  74
ENDBRANCH  68  71
ENDBRANCH  65  68
ENDBRANCH  52  64
ENDBRANCH   1  52
TORSDOF 15
ENDMDL
