MODEL 1
REMARK VINA RESULT:      -7.1      0.000      0.000
REMARK  1 active torsions:
REMARK  status: ('A' for Active; 'I' for Inactive)
REMARK    1  A    between atoms: C_18  and  N_19 
ROOT
ATOM      1  C   LIG d   1       9.049  -3.620  -5.650  0.00  0.00    -0.061 A 
ATOM      2  C   LIG d   1       8.150  -4.676  -5.667  0.00  0.00    -0.061 A 
ATOM      3  C   LIG d   1       6.866  -4.509  -5.197  0.00  0.00    -0.050 A 
ATOM      4  C   LIG d   1       6.459  -3.266  -4.707  0.00  0.00     0.030 A 
ATOM      5  C   LIG d   1       7.371  -2.191  -4.694  0.00  0.00    -0.004 A 
ATOM      6  C   LIG d   1       8.668  -2.384  -5.170  0.00  0.00    -0.053 A 
ATOM      7  C   LIG d   1       6.949  -0.879  -4.180  0.00  0.00     0.018 A 
ATOM      8  C   LIG d   1       5.582  -0.690  -3.683  0.00  0.00     0.019 A 
ATOM      9  C   LIG d   1       4.668  -1.763  -3.695  0.00  0.00     0.032 A 
ATOM     10  C   LIG d   1       3.373  -1.563  -3.219  0.00  0.00    -0.050 A 
ATOM     11  C   LIG d   1       2.996  -0.322  -2.741  0.00  0.00    -0.059 A 
ATOM     12  C   LIG d   1       3.886   0.734  -2.727  0.00  0.00    -0.038 A 
ATOM     13  C   LIG d   1       5.187   0.564  -3.196  0.00  0.00     0.051 A 
ATOM     14  N   LIG d   1       6.079   1.618  -3.183  0.00  0.00    -0.321 N 
ATOM     15  H   LIG d   1       5.779   2.505  -2.831  0.00  0.00     0.169 HD
ATOM     16  C   LIG d   1       7.339   1.484  -3.629  0.00  0.00     0.271 A 
ATOM     17  O   LIG d   1       8.093   2.440  -3.598  0.00  0.00    -0.266 OA
ATOM     18  C   LIG d   1       7.821   0.198  -4.154  0.00  0.00     0.098 A 
ATOM     19  C   LIG d   1       5.087  -3.076  -4.208  0.00  0.00     0.194 A 
ATOM     20  O   LIG d   1       4.301  -4.005  -4.220  0.00  0.00    -0.287 OA
ATOM     21  H   LIG d   1      10.053  -3.765  -6.017  0.00  0.00     0.062 H 
ATOM     22  H   LIG d   1       8.461  -5.637  -6.050  0.00  0.00     0.062 H 
ATOM     23  H   LIG d   1       6.173  -5.337  -5.210  0.00  0.00     0.062 H 
ATOM     24  H   LIG d   1       9.373  -1.566  -5.163  0.00  0.00     0.062 H 
ATOM     25  H   LIG d   1       2.665  -2.379  -3.224  0.00  0.00     0.062 H 
ATOM     26  H   LIG d   1       1.991  -0.176  -2.374  0.00  0.00     0.062 H 
ATOM     27  H   LIG d   1       3.572   1.696  -2.350  0.00  0.00     0.064 H 
ENDROOT
BRANCH  18  28
ATOM     28  N   LIG d   1       9.120   0.065  -4.613  0.00  0.00    -0.353 N 
ATOM     29  H   LIG d   1       9.862   0.137  -3.993  0.00  0.00     0.142 HD
ATOM     30  H   LIG d   1       9.287  -0.098  -5.554  0.00  0.00     0.142 HD
ENDBRANCH  18  28
TORSDOF 1
ENDMDL
MODEL 2
REMARK VINA RESULT:      -6.9      1.800      4.062
REMARK  1 active torsions:
REMARK  status: ('A' for Active; 'I' for Inactive)
REMARK    1  A    between atoms: C_18  and  N_19 
ROOT
ATOM      1  C   LIG d   1       9.887  -1.423  -6.053  0.00  0.00    -0.061 A 
ATOM      2  C   LIG d   1      10.275  -0.146  -5.675  0.00  0.00    -0.061 A 
ATOM      3  C   LIG d   1       9.429   0.652  -4.936  0.00  0.00    -0.050 A 
ATOM      4  C   LIG d   1       8.173   0.171  -4.556  0.00  0.00     0.030 A 
ATOM      5  C   LIG d   1       7.781  -1.127  -4.937  0.00  0.00    -0.004 A 
ATOM      6  C   LIG d   1       8.652  -1.916  -5.689  0.00  0.00    -0.053 A 
ATOM      7  C   LIG d   1       6.460  -1.640  -4.540  0.00  0.00     0.018 A 
ATOM      8  C   LIG d   1       5.555  -0.799  -3.749  0.00  0.00     0.019 A 
ATOM      9  C   LIG d   1       5.944   0.500  -3.367  0.00  0.00     0.032 A 
ATOM     10  C   LIG d   1       5.070   1.283  -2.614  0.00  0.00    -0.050 A 
ATOM     11  C   LIG d   1       3.834   0.783  -2.250  0.00  0.00    -0.059 A 
ATOM     12  C   LIG d   1       3.445  -0.489  -2.620  0.00  0.00    -0.038 A 
ATOM     13  C   LIG d   1       4.298  -1.295  -3.372  0.00  0.00     0.051 A 
ATOM     14  N   LIG d   1       3.912  -2.567  -3.744  0.00  0.00    -0.321 N 
ATOM     15  H   LIG d   1       3.012  -2.903  -3.467  0.00  0.00     0.169 HD
ATOM     16  C   LIG d   1       4.713  -3.367  -4.469  0.00  0.00     0.271 A 
ATOM     17  O   LIG d   1       4.332  -4.482  -4.775  0.00  0.00    -0.266 OA
ATOM     18  C   LIG d   1       6.044  -2.912  -4.897  0.00  0.00     0.098 A 
ATOM     19  C   LIG d   1       7.265   1.015  -3.763  0.00  0.00     0.194 A 
ATOM     20  O   LIG d   1       7.605   2.137  -3.435  0.00  0.00    -0.287 OA
ATOM     21  H   LIG d   1      10.558  -2.036  -6.635  0.00  0.00     0.062 H 
ATOM     22  H   LIG d   1      11.247   0.225  -5.963  0.00  0.00     0.062 H 
ATOM     23  H   LIG d   1       9.737   1.646  -4.649  0.00  0.00     0.062 H 
ATOM     24  H   LIG d   1       8.358  -2.913  -5.985  0.00  0.00     0.062 H 
ATOM     25  H   LIG d   1       5.359   2.280  -2.316  0.00  0.00     0.062 H 
ATOM     26  H   LIG d   1       3.163   1.396  -1.667  0.00  0.00     0.062 H 
ATOM     27  H   LIG d   1       2.476  -0.862  -2.326  0.00  0.00     0.064 H 
ENDROOT
BRANCH  18  28
ATOM     28  N   LIG d   1       6.866  -3.739  -5.643  0.00  0.00    -0.353 N 
ATOM     29  H   LIG d   1       7.129  -4.604  -5.293  0.00  0.00     0.142 HD
ATOM     30  H   LIG d   1       7.179  -3.453  -6.515  0.00  0.00     0.142 HD
ENDBRANCH  18  28
TORSDOF 1
ENDMDL
MODEL 3
REMARK VINA RESULT:      -6.8      3.961      5.652
REMARK  1 active torsions:
REMARK  status: ('A' for Active; 'I' for Inactive)
REMARK    1  A    between atoms: C_18  and  N_19 
ROOT
ATOM      1  C   LIG d   1       4.555  -1.887  -2.271  0.00  0.00    -0.061 A 
ATOM      2  C   LIG d   1       3.939  -0.684  -1.963  0.00  0.00    -0.061 A 
ATOM      3  C   LIG d   1       3.461   0.135  -2.963  0.00  0.00    -0.050 A 
ATOM      4  C   LIG d   1       3.588  -0.252  -4.299  0.00  0.00     0.030 A 
ATOM      5  C   LIG d   1       4.210  -1.477  -4.613  0.00  0.00    -0.004 A 
ATOM      6  C   LIG d   1       4.691  -2.287  -3.584  0.00  0.00    -0.053 A 
ATOM      7  C   LIG d   1       4.347  -1.891  -6.018  0.00  0.00     0.018 A 
ATOM      8  C   LIG d   1       3.837  -1.028  -7.090  0.00  0.00     0.019 A 
ATOM      9  C   LIG d   1       3.215   0.197  -6.779  0.00  0.00     0.032 A 
ATOM     10  C   LIG d   1       2.735   1.002  -7.812  0.00  0.00    -0.050 A 
ATOM     11  C   LIG d   1       2.873   0.595  -9.126  0.00  0.00    -0.059 A 
ATOM     12  C   LIG d   1       3.481  -0.604  -9.438  0.00  0.00    -0.038 A 
ATOM     13  C   LIG d   1       3.970  -1.430  -8.427  0.00  0.00     0.051 A 
ATOM     14  N   LIG d   1       4.579  -2.630  -8.736  0.00  0.00    -0.321 N 
ATOM     15  H   LIG d   1       4.664  -2.899  -9.695  0.00  0.00     0.169 HD
ATOM     16  C   LIG d   1       5.059  -3.446  -7.783  0.00  0.00     0.271 A 
ATOM     17  O   LIG d   1       5.589  -4.495  -8.101  0.00  0.00    -0.266 OA
ATOM     18  C   LIG d   1       4.953  -3.089  -6.361  0.00  0.00     0.098 A 
ATOM     19  C   LIG d   1       3.076   0.613  -5.375  0.00  0.00     0.194 A 
ATOM     20  O   LIG d   1       2.540   1.671  -5.103  0.00  0.00    -0.287 OA
ATOM     21  H   LIG d   1       4.928  -2.517  -1.478  0.00  0.00     0.062 H 
ATOM     22  H   LIG d   1       3.835  -0.385  -0.930  0.00  0.00     0.062 H 
ATOM     23  H   LIG d   1       2.986   1.072  -2.715  0.00  0.00     0.062 H 
ATOM     24  H   LIG d   1       5.169  -3.228  -3.816  0.00  0.00     0.062 H 
ATOM     25  H   LIG d   1       2.257   1.944  -7.585  0.00  0.00     0.062 H 
ATOM     26  H   LIG d   1       2.499   1.225  -9.920  0.00  0.00     0.062 H 
ATOM     27  H   LIG d   1       3.578  -0.905 -10.470  0.00  0.00     0.064 H 
ENDROOT
BRANCH  18  28
ATOM     28  N   LIG d   1       5.449  -3.933  -5.382  0.00  0.00    -0.353 N 
ATOM     29  H   LIG d   1       6.112  -3.610  -4.754  0.00  0.00     0.142 HD
ATOM     30  H   LIG d   1       5.133  -4.848  -5.327  0.00  0.00     0.142 HD
ENDBRANCH  18  28
TORSDOF 1
ENDMDL
MODEL 4
REMARK VINA RESULT:      -6.8      0.965      4.403
REMARK  1 active torsions:
REMARK  status: ('A' for Active; 'I' for Inactive)
REMARK    1  A    between atoms: C_18  and  N_19 
ROOT
ATOM      1  C   LIG d   1       4.033   1.280  -2.475  0.00  0.00    -0.061 A 
ATOM      2  C   LIG d   1       3.140   0.226  -2.349  0.00  0.00    -0.061 A 
ATOM      3  C   LIG d   1       3.466  -1.027  -2.819  0.00  0.00    -0.050 A 
ATOM      4  C   LIG d   1       4.708  -1.244  -3.420  0.00  0.00     0.030 A 
ATOM      5  C   LIG d   1       5.618  -0.175  -3.544  0.00  0.00    -0.004 A 
ATOM      6  C   LIG d   1       5.264   1.087  -3.065  0.00  0.00    -0.053 A 
ATOM      7  C   LIG d   1       6.928  -0.396  -4.175  0.00  0.00     0.018 A 
ATOM      8  C   LIG d   1       7.286  -1.729  -4.674  0.00  0.00     0.019 A 
ATOM      9  C   LIG d   1       6.379  -2.800  -4.552  0.00  0.00     0.032 A 
ATOM     10  C   LIG d   1       6.738  -4.059  -5.031  0.00  0.00    -0.050 A 
ATOM     11  C   LIG d   1       7.975  -4.246  -5.620  0.00  0.00    -0.059 A 
ATOM     12  C   LIG d   1       8.869  -3.202  -5.742  0.00  0.00    -0.038 A 
ATOM     13  C   LIG d   1       8.538  -1.933  -5.273  0.00  0.00     0.051 A 
ATOM     14  N   LIG d   1       9.430  -0.886  -5.394  0.00  0.00    -0.321 N 
ATOM     15  H   LIG d   1      10.317  -1.051  -5.825  0.00  0.00     0.169 HD
ATOM     16  C   LIG d   1       9.138   0.348  -4.950  0.00  0.00     0.271 A 
ATOM     17  O   LIG d   1       9.955   1.242  -5.078  0.00  0.00    -0.266 OA
ATOM     18  C   LIG d   1       7.845   0.633  -4.311  0.00  0.00     0.098 A 
ATOM     19  C   LIG d   1       5.068  -2.581  -3.921  0.00  0.00     0.194 A 
ATOM     20  O   LIG d   1       4.281  -3.504  -3.814  0.00  0.00    -0.287 OA
ATOM     21  H   LIG d   1       3.764   2.257  -2.105  0.00  0.00     0.062 H 
ATOM     22  H   LIG d   1       2.181   0.391  -1.881  0.00  0.00     0.062 H 
ATOM     23  H   LIG d   1       2.764  -1.842  -2.722  0.00  0.00     0.062 H 
ATOM     24  H   LIG d   1       5.956   1.912  -3.156  0.00  0.00     0.062 H 
ATOM     25  H   LIG d   1       6.050  -4.887  -4.943  0.00  0.00     0.062 H 
ATOM     26  H   LIG d   1       8.245  -5.225  -5.989  0.00  0.00     0.062 H 
ATOM     27  H   LIG d   1       9.830  -3.369  -6.205  0.00  0.00     0.064 H 
ENDROOT
BRANCH  18  28
ATOM     28  N   LIG d   1       7.549   1.906  -3.855  0.00  0.00    -0.353 N 
ATOM     29  H   LIG d   1       7.062   2.523  -4.422  0.00  0.00     0.142 HD
ATOM     30  H   LIG d   1       7.830   2.181  -2.968  0.00  0.00     0.142 HD
ENDBRANCH  18  28
TORSDOF 1
ENDMDL
MODEL 5
REMARK VINA RESULT:      -6.5      3.169      5.517
REMARK  1 active torsions:
REMARK  status: ('A' for Active; 'I' for Inactive)
REMARK    1  A    between atoms: C_18  and  N_19 
ROOT
ATOM      1  C   LIG d   1       3.592   1.408  -2.480  0.00  0.00    -0.061 A 
ATOM      2  C   LIG d   1       4.492   0.773  -1.637  0.00  0.00    -0.061 A 
ATOM      3  C   LIG d   1       5.242  -0.291  -2.088  0.00  0.00    -0.050 A 
ATOM      4  C   LIG d   1       5.102  -0.733  -3.406  0.00  0.00     0.030 A 
ATOM      5  C   LIG d   1       4.191  -0.086  -4.264  0.00  0.00    -0.004 A 
ATOM      6  C   LIG d   1       3.439   0.987  -3.784  0.00  0.00    -0.053 A 
ATOM      7  C   LIG d   1       4.039  -0.544  -5.653  0.00  0.00     0.018 A 
ATOM      8  C   LIG d   1       4.837  -1.674  -6.143  0.00  0.00     0.019 A 
ATOM      9  C   LIG d   1       5.749  -2.323  -5.288  0.00  0.00     0.032 A 
ATOM     10  C   LIG d   1       6.498  -3.394  -5.773  0.00  0.00    -0.050 A 
ATOM     11  C   LIG d   1       6.342  -3.810  -7.083  0.00  0.00    -0.059 A 
ATOM     12  C   LIG d   1       5.451  -3.178  -7.927  0.00  0.00    -0.038 A 
ATOM     13  C   LIG d   1       4.688  -2.105  -7.470  0.00  0.00     0.051 A 
ATOM     14  N   LIG d   1       3.795  -1.472  -8.311  0.00  0.00    -0.321 N 
ATOM     15  H   LIG d   1       3.703  -1.794  -9.254  0.00  0.00     0.169 HD
ATOM     16  C   LIG d   1       3.048  -0.434  -7.899  0.00  0.00     0.271 A 
ATOM     17  O   LIG d   1       2.273   0.095  -8.675  0.00  0.00    -0.266 OA
ATOM     18  C   LIG d   1       3.152   0.070  -6.522  0.00  0.00     0.098 A 
ATOM     19  C   LIG d   1       5.902  -1.866  -3.898  0.00  0.00     0.194 A 
ATOM     20  O   LIG d   1       6.689  -2.425  -3.156  0.00  0.00    -0.287 OA
ATOM     21  H   LIG d   1       3.009   2.238  -2.113  0.00  0.00     0.062 H 
ATOM     22  H   LIG d   1       4.605   1.116  -0.619  0.00  0.00     0.062 H 
ATOM     23  H   LIG d   1       5.938  -0.783  -1.424  0.00  0.00     0.062 H 
ATOM     24  H   LIG d   1       2.737   1.489  -4.435  0.00  0.00     0.062 H 
ATOM     25  H   LIG d   1       7.200  -3.899  -5.126  0.00  0.00     0.062 H 
ATOM     26  H   LIG d   1       6.926  -4.640  -7.451  0.00  0.00     0.062 H 
ATOM     27  H   LIG d   1       5.343  -3.517  -8.946  0.00  0.00     0.064 H 
ENDROOT
BRANCH  18  28
ATOM     28  N   LIG d   1       2.380   1.139  -6.102  0.00  0.00    -0.353 N 
ATOM     29  H   LIG d   1       2.446   1.993  -6.556  0.00  0.00     0.142 HD
ATOM     30  H   LIG d   1       1.773   1.034  -5.353  0.00  0.00     0.142 HD
ENDBRANCH  18  28
TORSDOF 1
ENDMDL
MODEL 6
REMARK VINA RESULT:      -6.2      6.538      8.956
REMARK  1 active torsions:
REMARK  status: ('A' for Active; 'I' for Inactive)
REMARK    1  A    between atoms: C_18  and  N_19 
ROOT
ATOM      1  C   LIG d   1       9.219   8.913  -6.690  0.00  0.00    -0.061 A 
ATOM      2  C   LIG d   1       9.293   8.182  -7.866  0.00  0.00    -0.061 A 
ATOM      3  C   LIG d   1       9.559   6.831  -7.836  0.00  0.00    -0.050 A 
ATOM      4  C   LIG d   1       9.746   6.185  -6.611  0.00  0.00     0.030 A 
ATOM      5  C   LIG d   1       9.666   6.926  -5.415  0.00  0.00    -0.004 A 
ATOM      6  C   LIG d   1       9.401   8.295  -5.470  0.00  0.00    -0.053 A 
ATOM      7  C   LIG d   1       9.860   6.253  -4.122  0.00  0.00     0.018 A 
ATOM      8  C   LIG d   1      10.138   4.813  -4.079  0.00  0.00     0.019 A 
ATOM      9  C   LIG d   1      10.220   4.070  -5.273  0.00  0.00     0.032 A 
ATOM     10  C   LIG d   1      10.484   2.702  -5.211  0.00  0.00    -0.050 A 
ATOM     11  C   LIG d   1      10.663   2.088  -3.985  0.00  0.00    -0.059 A 
ATOM     12  C   LIG d   1      10.584   2.809  -2.811  0.00  0.00    -0.038 A 
ATOM     13  C   LIG d   1      10.322   4.178  -2.842  0.00  0.00     0.051 A 
ATOM     14  N   LIG d   1      10.243   4.902  -1.669  0.00  0.00    -0.321 N 
ATOM     15  H   LIG d   1      10.377   4.431  -0.797  0.00  0.00     0.169 HD
ATOM     16  C   LIG d   1       9.991   6.222  -1.667  0.00  0.00     0.271 A 
ATOM     17  O   LIG d   1       9.930   6.821  -0.610  0.00  0.00    -0.266 OA
ATOM     18  C   LIG d   1       9.788   6.952  -2.927  0.00  0.00     0.098 A 
ATOM     19  C   LIG d   1      10.025   4.740  -6.568  0.00  0.00     0.194 A 
ATOM     20  O   LIG d   1      10.094   4.102  -7.601  0.00  0.00    -0.287 OA
ATOM     21  H   LIG d   1       9.014   9.971  -6.728  0.00  0.00     0.062 H 
ATOM     22  H   LIG d   1       9.145   8.679  -8.815  0.00  0.00     0.062 H 
ATOM     23  H   LIG d   1       9.620   6.270  -8.757  0.00  0.00     0.062 H 
ATOM     24  H   LIG d   1       9.338   8.870  -4.558  0.00  0.00     0.062 H 
ATOM     25  H   LIG d   1      10.548   2.123  -6.121  0.00  0.00     0.062 H 
ATOM     26  H   LIG d   1      10.867   1.028  -3.946  0.00  0.00     0.062 H 
ATOM     27  H   LIG d   1      10.727   2.312  -1.864  0.00  0.00     0.064 H 
ENDROOT
BRANCH  18  28
ATOM     28  N   LIG d   1       9.528   8.311  -2.921  0.00  0.00    -0.353 N 
ATOM     29  H   LIG d   1       9.524   8.808  -3.753  0.00  0.00     0.142 HD
ATOM     30  H   LIG d   1       9.351   8.767  -2.083  0.00  0.00     0.142 HD
ENDBRANCH  18  28
TORSDOF 1
ENDMDL
MODEL 7
REMARK VINA RESULT:      -6.2      7.598     10.534
REMARK  1 active torsions:
REMARK  status: ('A' for Active; 'I' for Inactive)
REMARK    1  A    between atoms: C_18  and  N_19 
ROOT
ATOM      1  C   LIG d   1       9.490   8.230  -6.119  0.00  0.00    -0.061 A 
ATOM      2  C   LIG d   1       9.492   9.546  -5.683  0.00  0.00    -0.061 A 
ATOM      3  C   LIG d   1       9.770   9.848  -4.368  0.00  0.00    -0.050 A 
ATOM      4  C   LIG d   1      10.063   8.822  -3.465  0.00  0.00     0.030 A 
ATOM      5  C   LIG d   1      10.065   7.485  -3.908  0.00  0.00    -0.004 A 
ATOM      6  C   LIG d   1       9.775   7.203  -5.243  0.00  0.00    -0.053 A 
ATOM      7  C   LIG d   1      10.373   6.400  -2.964  0.00  0.00     0.018 A 
ATOM      8  C   LIG d   1      10.676   6.712  -1.562  0.00  0.00     0.019 A 
ATOM      9  C   LIG d   1      10.674   8.048  -1.116  0.00  0.00     0.032 A 
ATOM     10  C   LIG d   1      10.966   8.324   0.219  0.00  0.00    -0.050 A 
ATOM     11  C   LIG d   1      11.253   7.290   1.091  0.00  0.00    -0.059 A 
ATOM     12  C   LIG d   1      11.257   5.979   0.661  0.00  0.00    -0.038 A 
ATOM     13  C   LIG d   1      10.969   5.673  -0.668  0.00  0.00     0.051 A 
ATOM     14  N   LIG d   1      10.972   4.362  -1.100  0.00  0.00    -0.321 N 
ATOM     15  H   LIG d   1      11.184   3.634  -0.448  0.00  0.00     0.169 HD
ATOM     16  C   LIG d   1      10.699   4.036  -2.375  0.00  0.00     0.271 A 
ATOM     17  O   LIG d   1      10.713   2.867  -2.714  0.00  0.00    -0.266 OA
ATOM     18  C   LIG d   1      10.384   5.075  -3.367  0.00  0.00     0.098 A 
ATOM     19  C   LIG d   1      10.367   9.135  -2.059  0.00  0.00     0.194 A 
ATOM     20  O   LIG d   1      10.364  10.291  -1.678  0.00  0.00    -0.287 OA
ATOM     21  H   LIG d   1       9.266   8.007  -7.151  0.00  0.00     0.062 H 
ATOM     22  H   LIG d   1       9.271  10.341  -6.381  0.00  0.00     0.062 H 
ATOM     23  H   LIG d   1       9.766  10.875  -4.035  0.00  0.00     0.062 H 
ATOM     24  H   LIG d   1       9.774   6.179  -5.592  0.00  0.00     0.062 H 
ATOM     25  H   LIG d   1      10.967   9.345   0.571  0.00  0.00     0.062 H 
ATOM     26  H   LIG d   1      11.478   7.513   2.124  0.00  0.00     0.062 H 
ATOM     27  H   LIG d   1      11.484   5.186   1.357  0.00  0.00     0.064 H 
ENDROOT
BRANCH  18  28
ATOM     28  N   LIG d   1      10.103   4.735  -4.679  0.00  0.00    -0.353 N 
ATOM     29  H   LIG d   1       9.281   5.038  -5.093  0.00  0.00     0.142 HD
ATOM     30  H   LIG d   1      10.729   4.193  -5.184  0.00  0.00     0.142 HD
ENDBRANCH  18  28
TORSDOF 1
ENDMDL
MODEL 8
REMARK VINA RESULT:      -6.0      7.488     10.733
REMARK  1 active torsions:
REMARK  status: ('A' for Active; 'I' for Inactive)
REMARK    1  A    between atoms: C_18  and  N_19 
ROOT
ATOM      1  C   LIG d   1      11.436   8.065   1.279  0.00  0.00    -0.061 A 
ATOM      2  C   LIG d   1      11.234   9.396   0.947  0.00  0.00    -0.061 A 
ATOM      3  C   LIG d   1      10.855   9.750  -0.329  0.00  0.00    -0.050 A 
ATOM      4  C   LIG d   1      10.662   8.761  -1.297  0.00  0.00     0.030 A 
ATOM      5  C   LIG d   1      10.861   7.408  -0.959  0.00  0.00    -0.004 A 
ATOM      6  C   LIG d   1      11.250   7.073   0.338  0.00  0.00    -0.053 A 
ATOM      7  C   LIG d   1      10.659   6.361  -1.973  0.00  0.00     0.018 A 
ATOM      8  C   LIG d   1      10.250   6.728  -3.333  0.00  0.00     0.019 A 
ATOM      9  C   LIG d   1      10.049   8.080  -3.675  0.00  0.00     0.032 A 
ATOM     10  C   LIG d   1       9.659   8.408  -4.972  0.00  0.00    -0.050 A 
ATOM     11  C   LIG d   1       9.473   7.410  -5.910  0.00  0.00    -0.059 A 
ATOM     12  C   LIG d   1       9.667   6.083  -5.584  0.00  0.00    -0.038 A 
ATOM     13  C   LIG d   1      10.057   5.725  -4.295  0.00  0.00     0.051 A 
ATOM     14  N   LIG d   1      10.252   4.398  -3.965  0.00  0.00    -0.321 N 
ATOM     15  H   LIG d   1      10.110   3.697  -4.664  0.00  0.00     0.169 HD
ATOM     16  C   LIG d   1      10.627   4.023  -2.730  0.00  0.00     0.271 A 
ATOM     17  O   LIG d   1      10.788   2.842  -2.483  0.00  0.00    -0.266 OA
ATOM     18  C   LIG d   1      10.846   5.022  -1.673  0.00  0.00     0.098 A 
ATOM     19  C   LIG d   1      10.251   9.129  -2.662  0.00  0.00     0.194 A 
ATOM     20  O   LIG d   1      10.079  10.298  -2.953  0.00  0.00    -0.287 OA
ATOM     21  H   LIG d   1      11.736   7.802   2.282  0.00  0.00     0.062 H 
ATOM     22  H   LIG d   1      11.379  10.162   1.696  0.00  0.00     0.062 H 
ATOM     23  H   LIG d   1      10.704  10.789  -0.581  0.00  0.00     0.062 H 
ATOM     24  H   LIG d   1      11.406   6.038   0.606  0.00  0.00     0.062 H 
ATOM     25  H   LIG d   1       9.503   9.442  -5.244  0.00  0.00     0.062 H 
ATOM     26  H   LIG d   1       9.171   7.672  -6.914  0.00  0.00     0.062 H 
ATOM     27  H   LIG d   1       9.516   5.318  -6.330  0.00  0.00     0.064 H 
ENDROOT
BRANCH  18  28
ATOM     28  N   LIG d   1      11.233   4.631  -0.403  0.00  0.00    -0.353 N 
ATOM     29  H   LIG d   1      10.563   4.468   0.279  0.00  0.00     0.142 HD
ATOM     30  H   LIG d   1      12.173   4.521  -0.194  0.00  0.00     0.142 HD
ENDBRANCH  18  28
TORSDOF 1
ENDMDL
MODEL 9
REMARK VINA RESULT:      -5.9      2.847      3.403
REMARK  1 active torsions:
REMARK  status: ('A' for Active; 'I' for Inactive)
REMARK    1  A    between atoms: C_18  and  N_19 
ROOT
ATOM      1  C   LIG d   1       7.254  -4.003  -7.077  0.00  0.00    -0.061 A 
ATOM      2  C   LIG d   1       7.991  -4.257  -5.929  0.00  0.00    -0.061 A 
ATOM      3  C   LIG d   1       7.729  -3.571  -4.763  0.00  0.00    -0.050 A 
ATOM      4  C   LIG d   1       6.708  -2.618  -4.731  0.00  0.00     0.030 A 
ATOM      5  C   LIG d   1       5.956  -2.364  -5.895  0.00  0.00    -0.004 A 
ATOM      6  C   LIG d   1       6.242  -3.067  -7.065  0.00  0.00    -0.053 A 
ATOM      7  C   LIG d   1       4.878  -1.363  -5.867  0.00  0.00     0.018 A 
ATOM      8  C   LIG d   1       4.588  -0.631  -4.629  0.00  0.00     0.019 A 
ATOM      9  C   LIG d   1       5.338  -0.883  -3.463  0.00  0.00     0.032 A 
ATOM     10  C   LIG d   1       5.047  -0.178  -2.296  0.00  0.00    -0.050 A 
ATOM     11  C   LIG d   1       4.030   0.758  -2.291  0.00  0.00    -0.059 A 
ATOM     12  C   LIG d   1       3.290   1.009  -3.428  0.00  0.00    -0.038 A 
ATOM     13  C   LIG d   1       3.558   0.321  -4.610  0.00  0.00     0.051 A 
ATOM     14  N   LIG d   1       2.821   0.571  -5.749  0.00  0.00    -0.321 N 
ATOM     15  H   LIG d   1       2.091   1.253  -5.716  0.00  0.00     0.169 HD
ATOM     16  C   LIG d   1       3.056  -0.078  -6.902  0.00  0.00     0.271 A 
ATOM     17  O   LIG d   1       2.381   0.174  -7.883  0.00  0.00    -0.266 OA
ATOM     18  C   LIG d   1       4.120  -1.089  -6.994  0.00  0.00     0.098 A 
ATOM     19  C   LIG d   1       6.417  -1.884  -3.488  0.00  0.00     0.194 A 
ATOM     20  O   LIG d   1       7.067  -2.104  -2.483  0.00  0.00    -0.287 OA
ATOM     21  H   LIG d   1       7.473  -4.545  -7.984  0.00  0.00     0.062 H 
ATOM     22  H   LIG d   1       8.779  -4.996  -5.951  0.00  0.00     0.062 H 
ATOM     23  H   LIG d   1       8.310  -3.771  -3.875  0.00  0.00     0.062 H 
ATOM     24  H   LIG d   1       5.670  -2.878  -7.963  0.00  0.00     0.062 H 
ATOM     25  H   LIG d   1       5.616  -0.364  -1.397  0.00  0.00     0.062 H 
ATOM     26  H   LIG d   1       3.810   1.300  -1.382  0.00  0.00     0.062 H 
ATOM     27  H   LIG d   1       2.499   1.744  -3.404  0.00  0.00     0.064 H 
ENDROOT
BRANCH  18  28
ATOM     28  N   LIG d   1       4.359  -1.756  -8.184  0.00  0.00    -0.353 N 
ATOM     29  H   LIG d   1       4.177  -2.705  -8.252  0.00  0.00     0.142 HD
ATOM     30  H   LIG d   1       4.709  -1.272  -8.948  0.00  0.00     0.142 HD
ENDBRANCH  18  28
TORSDOF 1
ENDMDL
MODEL 10
REMARK VINA RESULT:      -5.9      7.455     10.690
REMARK  1 active torsions:
REMARK  status: ('A' for Active; 'I' for Inactive)
REMARK    1  A    between atoms: C_18  and  N_19 
ROOT
ATOM      1  C   LIG d   1       9.977  11.430  -3.202  0.00  0.00    -0.061 A 
ATOM      2  C   LIG d   1       9.708  11.416  -4.562  0.00  0.00    -0.061 A 
ATOM      3  C   LIG d   1       9.571  10.223  -5.237  0.00  0.00    -0.050 A 
ATOM      4  C   LIG d   1       9.694   9.015  -4.547  0.00  0.00     0.030 A 
ATOM      5  C   LIG d   1       9.963   9.028  -3.164  0.00  0.00    -0.004 A 
ATOM      6  C   LIG d   1      10.103  10.248  -2.502  0.00  0.00    -0.053 A 
ATOM      7  C   LIG d   1      10.093   7.759  -2.430  0.00  0.00     0.018 A 
ATOM      8  C   LIG d   1       9.943   6.483  -3.139  0.00  0.00     0.019 A 
ATOM      9  C   LIG d   1       9.675   6.467  -4.522  0.00  0.00     0.032 A 
ATOM     10  C   LIG d   1       9.535   5.245  -5.178  0.00  0.00    -0.050 A 
ATOM     11  C   LIG d   1       9.660   4.063  -4.470  0.00  0.00    -0.059 A 
ATOM     12  C   LIG d   1       9.922   4.071  -3.115  0.00  0.00    -0.038 A 
ATOM     13  C   LIG d   1      10.067   5.278  -2.433  0.00  0.00     0.051 A 
ATOM     14  N   LIG d   1      10.331   5.289  -1.078  0.00  0.00    -0.321 N 
ATOM     15  H   LIG d   1      10.416   4.419  -0.592  0.00  0.00     0.169 HD
ATOM     16  C   LIG d   1      10.475   6.437  -0.394  0.00  0.00     0.271 A 
ATOM     17  O   LIG d   1      10.707   6.400   0.801  0.00  0.00    -0.266 OA
ATOM     18  C   LIG d   1      10.357   7.737  -1.070  0.00  0.00     0.098 A 
ATOM     19  C   LIG d   1       9.544   7.735  -5.258  0.00  0.00     0.194 A 
ATOM     20  O   LIG d   1       9.312   7.725  -6.453  0.00  0.00    -0.287 OA
ATOM     21  H   LIG d   1      10.086  12.372  -2.686  0.00  0.00     0.062 H 
ATOM     22  H   LIG d   1       9.608  12.350  -5.097  0.00  0.00     0.062 H 
ATOM     23  H   LIG d   1       9.366  10.221  -6.297  0.00  0.00     0.062 H 
ATOM     24  H   LIG d   1      10.310  10.267  -1.441  0.00  0.00     0.062 H 
ATOM     25  H   LIG d   1       9.329   5.221  -6.238  0.00  0.00     0.062 H 
ATOM     26  H   LIG d   1       9.550   3.121  -4.986  0.00  0.00     0.062 H 
ATOM     27  H   LIG d   1      10.016   3.138  -2.580  0.00  0.00     0.064 H 
ENDROOT
BRANCH  18  28
ATOM     28  N   LIG d   1      10.506   8.917  -0.362  0.00  0.00    -0.353 N 
ATOM     29  H   LIG d   1      10.076   9.021   0.501  0.00  0.00     0.142 HD
ATOM     30  H   LIG d   1      11.040   9.638  -0.729  0.00  0.00     0.142 HD
ENDBRANCH  18  28
TORSDOF 1
ENDMDL
