MODEL 1
REMARK VINA RESULT:      -5.5      0.000      0.000
REMARK  9 active torsions:
REMARK  status: ('A' for Active; 'I' for Inactive)
REMARK    1  A    between atoms: C_1  and  C_2 
REMARK    2  A    between atoms: C_3  and  O_19 
REMARK    3  A    between atoms: C_9  and  O_13 
REMARK    4  A    between atoms: O_13  and  C_14 
REMARK       I    between atoms: C_14  and  N_16 
REMARK    5  A    between atoms: N_16  and  C_17 
REMARK    6  A    between atoms: N_16  and  C_18 
REMARK    7  A    between atoms: O_19  and  C_20 
REMARK    8  A    between atoms: C_23  and  O_26 
REMARK    9  A    between atoms: O_26  and  C_27 
ROOT
ATOM      1  C   LIG d   1       6.273   0.300  -3.692  0.00  0.00     0.148 A 
ATOM      2  C   LIG d   1       6.333  -0.239  -4.926  0.00  0.00     0.213 A 
ATOM      3  C   LIG d   1       7.252   0.287  -5.878  0.00  0.00     0.235 A 
ATOM      4  O   LIG d   1       7.334  -0.175  -7.004  0.00  0.00    -0.283 OA
ATOM      5  C   LIG d   1       8.101   1.411  -5.446  0.00  0.00     0.068 A 
ATOM      6  C   LIG d   1       9.030   1.993  -6.309  0.00  0.00    -0.044 A 
ATOM      7  C   LIG d   1       9.799   3.035  -5.873  0.00  0.00    -0.018 A 
ATOM      8  C   LIG d   1       9.659   3.518  -4.574  0.00  0.00     0.137 A 
ATOM      9  C   LIG d   1       8.741   2.952  -3.706  0.00  0.00     0.024 A 
ATOM     10  C   LIG d   1       7.952   1.892  -4.134  0.00  0.00     0.142 A 
ATOM     11  O   LIG d   1       7.047   1.326  -3.311  0.00  0.00    -0.456 OA
ATOM     12  H   LIG d   1       9.143   1.621  -7.317  0.00  0.00     0.063 H 
ATOM     13  H   LIG d   1      10.519   3.485  -6.539  0.00  0.00     0.065 H 
ATOM     14  H   LIG d   1       8.639   3.332  -2.702  0.00  0.00     0.069 H 
ENDROOT
BRANCH   2  15
ATOM     15  O   LIG d   1       5.520  -1.279  -5.259  0.00  0.00    -0.449 OA
BRANCH  15  16
ATOM     16  C   LIG d   1       4.590  -1.077  -6.230  0.00  0.00     0.129 A 
ATOM     17  C   LIG d   1       3.703  -0.017  -6.131  0.00  0.00    -0.016 A 
ATOM     18  C   LIG d   1       2.763   0.192  -7.121  0.00  0.00    -0.017 A 
ATOM     19  H   LIG d   1       3.750   0.650  -5.283  0.00  0.00     0.066 H 
ATOM     20  C   LIG d   1       2.697  -0.668  -8.208  0.00  0.00     0.120 A 
ATOM     21  H   LIG d   1       2.075   1.022  -7.046  0.00  0.00     0.066 H 
ATOM     22  C   LIG d   1       3.582  -1.732  -8.304  0.00  0.00    -0.017 A 
ATOM     23  C   LIG d   1       4.526  -1.937  -7.317  0.00  0.00    -0.016 A 
ATOM     24  H   LIG d   1       3.531  -2.401  -9.151  0.00  0.00     0.066 H 
ATOM     25  H   LIG d   1       5.214  -2.766  -7.392  0.00  0.00     0.066 H 
BRANCH  20  26
ATOM     26  O   LIG d   1       1.769  -0.466  -9.181  0.00  0.00    -0.495 OA
BRANCH  26  27
ATOM     27  C   LIG d   1       1.556  -1.535 -10.105  0.00  0.00     0.079 C 
ATOM     28  H   LIG d   1       1.034  -2.350  -9.605  0.00  0.00     0.066 H 
ATOM     29  H   LIG d   1       0.955  -1.177 -10.942  0.00  0.00     0.066 H 
ATOM     30  H   LIG d   1       2.517  -1.893 -10.475  0.00  0.00     0.066 H 
ENDBRANCH  26  27
ENDBRANCH  20  26
ENDBRANCH  15  16
ENDBRANCH   2  15
BRANCH   1  31
ATOM     31  C   LIG d   1       5.293  -0.271  -2.700  0.00  0.00    -0.003 C 
ATOM     32  H   LIG d   1       4.878   0.533  -2.094  0.00  0.00     0.031 H 
ATOM     33  H   LIG d   1       4.489  -0.775  -3.235  0.00  0.00     0.031 H 
ATOM     34  H   LIG d   1       5.804  -0.986  -2.055  0.00  0.00     0.031 H 
ENDBRANCH   1  31
BRANCH   8  35
ATOM     35  O   LIG d   1      10.430   4.555  -4.155  0.00  0.00    -0.411 OA
BRANCH  35  36
ATOM     36  C   LIG d   1       9.813   5.631  -3.631  0.00  0.00     0.408 C 
ATOM     37  O   LIG d   1       9.058   6.293  -4.316  0.00  0.00    -0.226 OA
ATOM     38  N   LIG d   1      10.032   5.974  -2.346  0.00  0.00    -0.273 N 
BRANCH  38  39
ATOM     39  C   LIG d   1       9.359   7.145  -1.776  0.00  0.00     0.006 C 
ATOM     40  H   LIG d   1       8.299   6.927  -1.645  0.00  0.00     0.043 H 
ATOM     41  H   LIG d   1       9.803   7.384  -0.809  0.00  0.00     0.043 H 
ATOM     42  H   LIG d   1       9.476   7.994  -2.449  0.00  0.00     0.043 H 
ENDBRANCH  38  39
BRANCH  38  43
ATOM     43  C   LIG d   1      10.940   5.177  -1.519  0.00  0.00     0.006 C 
ATOM     44  H   LIG d   1      10.726   5.359  -0.465  0.00  0.00     0.043 H 
ATOM     45  H   LIG d   1      10.801   4.119  -1.741  0.00  0.00     0.043 H 
ATOM     46  H   LIG d   1      11.970   5.461  -1.734  0.00  0.00     0.043 H 
ENDBRANCH  38  43
ENDBRANCH  35  36
ENDBRANCH   8  35
TORSDOF 9
ENDMDL
MODEL 2
REMARK VINA RESULT:      -5.4      3.100      8.338
REMARK  9 active torsions:
REMARK  status: ('A' for Active; 'I' for Inactive)
REMARK    1  A    between atoms: C_1  and  C_2 
REMARK    2  A    between atoms: C_3  and  O_19 
REMARK    3  A    between atoms: C_9  and  O_13 
REMARK    4  A    between atoms: O_13  and  C_14 
REMARK       I    between atoms: C_14  and  N_16 
REMARK    5  A    between atoms: N_16  and  C_17 
REMARK    6  A    between atoms: N_16  and  C_18 
REMARK    7  A    between atoms: O_19  and  C_20 
REMARK    8  A    between atoms: C_23  and  O_26 
REMARK    9  A    between atoms: O_26  and  C_27 
ROOT
ATOM      1  C   LIG d   1       9.761   3.822  -3.448  0.00  0.00     0.148 A 
ATOM      2  C   LIG d   1      10.189   4.086  -4.698  0.00  0.00     0.213 A 
ATOM      3  C   LIG d   1       9.698   3.310  -5.787  0.00  0.00     0.235 A 
ATOM      4  O   LIG d   1      10.063   3.520  -6.932  0.00  0.00    -0.283 OA
ATOM      5  C   LIG d   1       8.731   2.244  -5.473  0.00  0.00     0.068 A 
ATOM      6  C   LIG d   1       8.196   1.431  -6.473  0.00  0.00    -0.044 A 
ATOM      7  C   LIG d   1       7.302   0.452  -6.143  0.00  0.00    -0.018 A 
ATOM      8  C   LIG d   1       6.925   0.261  -4.816  0.00  0.00     0.137 A 
ATOM      9  C   LIG d   1       7.447   1.058  -3.812  0.00  0.00     0.024 A 
ATOM     10  C   LIG d   1       8.356   2.059  -4.132  0.00  0.00     0.142 A 
ATOM     11  O   LIG d   1       8.884   2.846  -3.173  0.00  0.00    -0.456 OA
ATOM     12  H   LIG d   1       8.486   1.576  -7.504  0.00  0.00     0.063 H 
ATOM     13  H   LIG d   1       6.886  -0.177  -6.916  0.00  0.00     0.065 H 
ATOM     14  H   LIG d   1       7.149   0.904  -2.787  0.00  0.00     0.069 H 
ENDROOT
BRANCH   2  15
ATOM     15  O   LIG d   1      11.083   5.088  -4.919  0.00  0.00    -0.449 OA
BRANCH  15  16
ATOM     16  C   LIG d   1      10.609   6.358  -5.017  0.00  0.00     0.129 A 
ATOM     17  C   LIG d   1       9.655   6.670  -5.974  0.00  0.00    -0.016 A 
ATOM     18  C   LIG d   1       9.168   7.959  -6.069  0.00  0.00    -0.017 A 
ATOM     19  H   LIG d   1       9.288   5.904  -6.641  0.00  0.00     0.066 H 
ATOM     20  C   LIG d   1       9.643   8.945  -5.216  0.00  0.00     0.120 A 
ATOM     21  H   LIG d   1       8.421   8.201  -6.811  0.00  0.00     0.066 H 
ATOM     22  C   LIG d   1      10.602   8.634  -4.262  0.00  0.00    -0.017 A 
ATOM     23  C   LIG d   1      11.084   7.343  -4.164  0.00  0.00    -0.016 A 
ATOM     24  H   LIG d   1      10.971   9.401  -3.599  0.00  0.00     0.066 H 
ATOM     25  H   LIG d   1      11.831   7.101  -3.421  0.00  0.00     0.066 H 
BRANCH  20  26
ATOM     26  O   LIG d   1       9.168  10.215  -5.312  0.00  0.00    -0.495 OA
BRANCH  26  27
ATOM     27  C   LIG d   1       9.275  11.037  -4.148  0.00  0.00     0.079 C 
ATOM     28  H   LIG d   1       8.670  11.934  -4.279  0.00  0.00     0.066 H 
ATOM     29  H   LIG d   1       8.921  10.483  -3.277  0.00  0.00     0.066 H 
ATOM     30  H   LIG d   1      10.317  11.322  -3.998  0.00  0.00     0.066 H 
ENDBRANCH  26  27
ENDBRANCH  20  26
ENDBRANCH  15  16
ENDBRANCH   2  15
BRANCH   1  31
ATOM     31  C   LIG d   1      10.293   4.655  -2.311  0.00  0.00    -0.003 C 
ATOM     32  H   LIG d   1      10.067   4.166  -1.364  0.00  0.00     0.031 H 
ATOM     33  H   LIG d   1      11.373   4.763  -2.415  0.00  0.00     0.031 H 
ATOM     34  H   LIG d   1       9.826   5.640  -2.331  0.00  0.00     0.031 H 
ENDBRANCH   1  31
BRANCH   8  35
ATOM     35  O   LIG d   1       6.035  -0.717  -4.503  0.00  0.00    -0.411 OA
BRANCH  35  36
ATOM     36  C   LIG d   1       4.737  -0.378  -4.389  0.00  0.00     0.408 C 
ATOM     37  O   LIG d   1       4.204   0.290  -5.253  0.00  0.00    -0.226 OA
ATOM     38  N   LIG d   1       4.027  -0.780  -3.315  0.00  0.00    -0.273 N 
BRANCH  38  39
ATOM     39  C   LIG d   1       2.614  -0.412  -3.192  0.00  0.00     0.006 C 
ATOM     40  H   LIG d   1       2.515   0.673  -3.244  0.00  0.00     0.043 H 
ATOM     41  H   LIG d   1       2.048  -0.867  -4.004  0.00  0.00     0.043 H 
ATOM     42  H   LIG d   1       2.229  -0.767  -2.236  0.00  0.00     0.043 H 
ENDBRANCH  38  39
BRANCH  38  43
ATOM     43  C   LIG d   1       4.668  -1.585  -2.273  0.00  0.00     0.006 C 
ATOM     44  H   LIG d   1       5.341  -0.956  -1.689  0.00  0.00     0.043 H 
ATOM     45  H   LIG d   1       3.905  -2.007  -1.619  0.00  0.00     0.043 H 
ATOM     46  H   LIG d   1       5.236  -2.392  -2.736  0.00  0.00     0.043 H 
ENDBRANCH  38  43
ENDBRANCH  35  36
ENDBRANCH   8  35
TORSDOF 9
ENDMDL
MODEL 3
REMARK VINA RESULT:      -5.1      5.994     10.107
REMARK  9 active torsions:
REMARK  status: ('A' for Active; 'I' for Inactive)
REMARK    1  A    between atoms: C_1  and  C_2 
REMARK    2  A    between atoms: C_3  and  O_19 
REMARK    3  A    between atoms: C_9  and  O_13 
REMARK    4  A    between atoms: O_13  and  C_14 
REMARK       I    between atoms: C_14  and  N_16 
REMARK    5  A    between atoms: N_16  and  C_17 
REMARK    6  A    between atoms: N_16  and  C_18 
REMARK    7  A    between atoms: O_19  and  C_20 
REMARK    8  A    between atoms: C_23  and  O_26 
REMARK    9  A    between atoms: O_26  and  C_27 
ROOT
ATOM      1  C   LIG d   1       4.480   1.267  -9.753  0.00  0.00     0.148 A 
ATOM      2  C   LIG d   1       3.393   0.852  -9.074  0.00  0.00     0.213 A 
ATOM      3  C   LIG d   1       2.488  -0.062  -9.686  0.00  0.00     0.235 A 
ATOM      4  O   LIG d   1       1.494  -0.459  -9.102  0.00  0.00    -0.283 OA
ATOM      5  C   LIG d   1       2.804  -0.509 -11.054  0.00  0.00     0.068 A 
ATOM      6  C   LIG d   1       1.978  -1.402 -11.736  0.00  0.00    -0.044 A 
ATOM      7  C   LIG d   1       2.304  -1.793 -13.004  0.00  0.00    -0.018 A 
ATOM      8  C   LIG d   1       3.454  -1.304 -13.618  0.00  0.00     0.137 A 
ATOM      9  C   LIG d   1       4.284  -0.416 -12.955  0.00  0.00     0.024 A 
ATOM     10  C   LIG d   1       3.967  -0.010 -11.666  0.00  0.00     0.142 A 
ATOM     11  O   LIG d   1       4.755   0.858 -11.000  0.00  0.00    -0.456 OA
ATOM     12  H   LIG d   1       1.084  -1.785 -11.264  0.00  0.00     0.063 H 
ATOM     13  H   LIG d   1       1.665  -2.485 -13.532  0.00  0.00     0.065 H 
ATOM     14  H   LIG d   1       5.174  -0.043 -13.438  0.00  0.00     0.069 H 
ENDROOT
BRANCH   2  15
ATOM     15  O   LIG d   1       3.160   1.303  -7.811  0.00  0.00    -0.449 OA
BRANCH  15  16
ATOM     16  C   LIG d   1       3.422   0.463  -6.774  0.00  0.00     0.129 A 
ATOM     17  C   LIG d   1       4.469  -0.441  -6.862  0.00  0.00    -0.016 A 
ATOM     18  C   LIG d   1       4.740  -1.288  -5.805  0.00  0.00    -0.017 A 
ATOM     19  H   LIG d   1       5.078  -0.478  -7.753  0.00  0.00     0.066 H 
ATOM     20  C   LIG d   1       3.955  -1.245  -4.662  0.00  0.00     0.120 A 
ATOM     21  H   LIG d   1       5.559  -1.989  -5.872  0.00  0.00     0.066 H 
ATOM     22  C   LIG d   1       2.903  -0.344  -4.577  0.00  0.00    -0.017 A 
ATOM     23  C   LIG d   1       2.637   0.508  -5.631  0.00  0.00    -0.016 A 
ATOM     24  H   LIG d   1       2.292  -0.311  -3.687  0.00  0.00     0.066 H 
ATOM     25  H   LIG d   1       1.818   1.209  -5.565  0.00  0.00     0.066 H 
BRANCH  20  26
ATOM     26  O   LIG d   1       4.217  -2.083  -3.624  0.00  0.00    -0.495 OA
BRANCH  26  27
ATOM     27  C   LIG d   1       4.091  -1.543  -2.307  0.00  0.00     0.079 C 
ATOM     28  H   LIG d   1       3.152  -1.876  -1.866  0.00  0.00     0.066 H 
ATOM     29  H   LIG d   1       4.924  -1.886  -1.692  0.00  0.00     0.066 H 
ATOM     30  H   LIG d   1       4.102  -0.454  -2.358  0.00  0.00     0.066 H 
ENDBRANCH  26  27
ENDBRANCH  20  26
ENDBRANCH  15  16
ENDBRANCH   2  15
BRANCH   1  31
ATOM     31  C   LIG d   1       5.423   2.234  -9.087  0.00  0.00    -0.003 C 
ATOM     32  H   LIG d   1       6.135   2.612  -9.820  0.00  0.00     0.031 H 
ATOM     33  H   LIG d   1       4.855   3.065  -8.670  0.00  0.00     0.031 H 
ATOM     34  H   LIG d   1       5.961   1.725  -8.287  0.00  0.00     0.031 H 
ENDBRANCH   1  31
BRANCH   8  35
ATOM     35  O   LIG d   1       3.765  -1.701 -14.879  0.00  0.00    -0.411 OA
BRANCH  35  36
ATOM     36  C   LIG d   1       3.359  -0.928 -15.904  0.00  0.00     0.408 C 
ATOM     37  O   LIG d   1       3.847   0.174 -16.065  0.00  0.00    -0.226 OA
ATOM     38  N   LIG d   1       2.412  -1.375 -16.752  0.00  0.00    -0.273 N 
BRANCH  38  39
ATOM     39  C   LIG d   1       1.971  -0.534 -17.868  0.00  0.00     0.006 C 
ATOM     40  H   LIG d   1       2.065  -1.089 -18.802  0.00  0.00     0.043 H 
ATOM     41  H   LIG d   1       0.930  -0.249 -17.719  0.00  0.00     0.043 H 
ATOM     42  H   LIG d   1       2.590   0.362 -17.914  0.00  0.00     0.043 H 
ENDBRANCH  38  39
BRANCH  38  43
ATOM     43  C   LIG d   1       1.824  -2.703 -16.560  0.00  0.00     0.006 C 
ATOM     44  H   LIG d   1       2.268  -3.173 -15.682  0.00  0.00     0.043 H 
ATOM     45  H   LIG d   1       0.747  -2.607 -16.416  0.00  0.00     0.043 H 
ATOM     46  H   LIG d   1       2.019  -3.317 -17.438  0.00  0.00     0.043 H 
ENDBRANCH  38  43
ENDBRANCH  35  36
ENDBRANCH   8  35
TORSDOF 9
ENDMDL
MODEL 4
REMARK VINA RESULT:      -5.0      4.643      7.791
REMARK  9 active torsions:
REMARK  status: ('A' for Active; 'I' for Inactive)
REMARK    1  A    between atoms: C_1  and  C_2 
REMARK    2  A    between atoms: C_3  and  O_19 
REMARK    3  A    between atoms: C_9  and  O_13 
REMARK    4  A    between atoms: O_13  and  C_14 
REMARK       I    between atoms: C_14  and  N_16 
REMARK    5  A    between atoms: N_16  and  C_17 
REMARK    6  A    between atoms: N_16  and  C_18 
REMARK    7  A    between atoms: O_19  and  C_20 
REMARK    8  A    between atoms: C_23  and  O_26 
REMARK    9  A    between atoms: O_26  and  C_27 
ROOT
ATOM      1  C   LIG d   1       3.030  -3.866  -9.810  0.00  0.00     0.148 A 
ATOM      2  C   LIG d   1       2.187  -3.141 -10.571  0.00  0.00     0.213 A 
ATOM      3  C   LIG d   1       1.918  -1.785 -10.226  0.00  0.00     0.235 A 
ATOM      4  O   LIG d   1       1.161  -1.098 -10.891  0.00  0.00    -0.283 OA
ATOM      5  C   LIG d   1       2.595  -1.247  -9.033  0.00  0.00     0.068 A 
ATOM      6  C   LIG d   1       2.394   0.069  -8.615  0.00  0.00    -0.044 A 
ATOM      7  C   LIG d   1       3.038   0.531  -7.503  0.00  0.00    -0.018 A 
ATOM      8  C   LIG d   1       3.891  -0.303  -6.785  0.00  0.00     0.137 A 
ATOM      9  C   LIG d   1       4.101  -1.611  -7.185  0.00  0.00     0.024 A 
ATOM     10  C   LIG d   1       3.454  -2.096  -8.314  0.00  0.00     0.142 A 
ATOM     11  O   LIG d   1       3.636  -3.368  -8.724  0.00  0.00    -0.456 OA
ATOM     12  H   LIG d   1       1.733   0.719  -9.169  0.00  0.00     0.063 H 
ATOM     13  H   LIG d   1       2.884   1.550  -7.179  0.00  0.00     0.065 H 
ATOM     14  H   LIG d   1       4.764  -2.250  -6.624  0.00  0.00     0.069 H 
ENDROOT
BRANCH   2  15
ATOM     15  O   LIG d   1       1.596  -3.699 -11.663  0.00  0.00    -0.449 OA
BRANCH  15  16
ATOM     16  C   LIG d   1       0.275  -4.010 -11.586  0.00  0.00     0.129 A 
ATOM     17  C   LIG d   1      -0.585  -3.643 -12.610  0.00  0.00    -0.016 A 
ATOM     18  C   LIG d   1      -1.926  -3.966 -12.535  0.00  0.00    -0.017 A 
ATOM     19  H   LIG d   1      -0.205  -3.111 -13.470  0.00  0.00     0.066 H 
ATOM     20  C   LIG d   1      -2.415  -4.645 -11.428  0.00  0.00     0.120 A 
ATOM     21  H   LIG d   1      -2.594  -3.684 -13.335  0.00  0.00     0.066 H 
ATOM     22  C   LIG d   1      -1.556  -5.007 -10.401  0.00  0.00    -0.017 A 
ATOM     23  C   LIG d   1      -0.214  -4.690 -10.480  0.00  0.00    -0.016 A 
ATOM     24  H   LIG d   1      -1.937  -5.535  -9.540  0.00  0.00     0.066 H 
ATOM     25  H   LIG d   1       0.455  -4.972  -9.680  0.00  0.00     0.066 H 
BRANCH  20  26
ATOM     26  O   LIG d   1      -3.736  -4.958 -11.351  0.00  0.00    -0.495 OA
BRANCH  26  27
ATOM     27  C   LIG d   1      -4.547  -4.631 -12.482  0.00  0.00     0.079 C 
ATOM     28  H   LIG d   1      -5.523  -5.104 -12.378  0.00  0.00     0.066 H 
ATOM     29  H   LIG d   1      -4.670  -3.549 -12.540  0.00  0.00     0.066 H 
ATOM     30  H   LIG d   1      -4.064  -4.991 -13.391  0.00  0.00     0.066 H 
ENDBRANCH  26  27
ENDBRANCH  20  26
ENDBRANCH  15  16
ENDBRANCH   2  15
BRANCH   1  31
ATOM     31  C   LIG d   1       3.300  -5.298 -10.194  0.00  0.00    -0.003 C 
ATOM     32  H   LIG d   1       3.858  -5.789  -9.398  0.00  0.00     0.031 H 
ATOM     33  H   LIG d   1       2.353  -5.816 -10.347  0.00  0.00     0.031 H 
ATOM     34  H   LIG d   1       3.881  -5.324 -11.115  0.00  0.00     0.031 H 
ENDBRANCH   1  31
BRANCH   8  35
ATOM     35  O   LIG d   1       4.525   0.172  -5.680  0.00  0.00    -0.411 OA
BRANCH  35  36
ATOM     36  C   LIG d   1       4.094  -0.247  -4.475  0.00  0.00     0.408 C 
ATOM     37  O   LIG d   1       2.948  -0.037  -4.132  0.00  0.00    -0.226 OA
ATOM     38  N   LIG d   1       4.935  -0.901  -3.650  0.00  0.00    -0.273 N 
BRANCH  38  39
ATOM     39  C   LIG d   1       4.466  -1.358  -2.339  0.00  0.00     0.006 C 
ATOM     40  H   LIG d   1       5.299  -1.792  -1.785  0.00  0.00     0.043 H 
ATOM     41  H   LIG d   1       4.062  -0.513  -1.782  0.00  0.00     0.043 H 
ATOM     42  H   LIG d   1       3.689  -2.110  -2.473  0.00  0.00     0.043 H 
ENDBRANCH  38  39
BRANCH  38  43
ATOM     43  C   LIG d   1       6.317  -1.157  -4.062  0.00  0.00     0.006 C 
ATOM     44  H   LIG d   1       6.381  -2.140  -4.530  0.00  0.00     0.043 H 
ATOM     45  H   LIG d   1       6.631  -0.393  -4.775  0.00  0.00     0.043 H 
ATOM     46  H   LIG d   1       6.968  -1.128  -3.189  0.00  0.00     0.043 H 
ENDBRANCH  38  43
ENDBRANCH  35  36
ENDBRANCH   8  35
TORSDOF 9
ENDMDL
MODEL 5
REMARK VINA RESULT:      -5.0      3.418      4.739
REMARK  9 active torsions:
REMARK  status: ('A' for Active; 'I' for Inactive)
REMARK    1  A    between atoms: C_1  and  C_2 
REMARK    2  A    between atoms: C_3  and  O_19 
REMARK    3  A    between atoms: C_9  and  O_13 
REMARK    4  A    between atoms: O_13  and  C_14 
REMARK       I    between atoms: C_14  and  N_16 
REMARK    5  A    between atoms: N_16  and  C_17 
REMARK    6  A    between atoms: N_16  and  C_18 
REMARK    7  A    between atoms: O_19  and  C_20 
REMARK    8  A    between atoms: C_23  and  O_26 
REMARK    9  A    between atoms: O_26  and  C_27 
ROOT
ATOM      1  C   LIG d   1       8.804   2.222  -6.145  0.00  0.00     0.148 A 
ATOM      2  C   LIG d   1       9.112   1.777  -4.911  0.00  0.00     0.213 A 
ATOM      3  C   LIG d   1       9.770   2.647  -3.995  0.00  0.00     0.235 A 
ATOM      4  O   LIG d   1      10.065   2.279  -2.870  0.00  0.00    -0.283 OA
ATOM      5  C   LIG d   1      10.079   4.009  -4.463  0.00  0.00     0.068 A 
ATOM      6  C   LIG d   1      10.723   4.932  -3.638  0.00  0.00    -0.044 A 
ATOM      7  C   LIG d   1      10.994   6.186  -4.108  0.00  0.00    -0.018 A 
ATOM      8  C   LIG d   1      10.632   6.547  -5.404  0.00  0.00     0.137 A 
ATOM      9  C   LIG d   1       9.993   5.643  -6.235  0.00  0.00     0.024 A 
ATOM     10  C   LIG d   1       9.711   4.364  -5.772  0.00  0.00     0.142 A 
ATOM     11  O   LIG d   1       9.094   3.462  -6.562  0.00  0.00    -0.456 OA
ATOM     12  H   LIG d   1      11.006   4.657  -2.632  0.00  0.00     0.063 H 
ATOM     13  H   LIG d   1      11.492   6.902  -3.470  0.00  0.00     0.065 H 
ATOM     14  H   LIG d   1       9.716   5.930  -7.237  0.00  0.00     0.069 H 
ENDROOT
BRANCH   2  15
ATOM     15  O   LIG d   1       8.796   0.506  -4.542  0.00  0.00    -0.449 OA
BRANCH  15  16
ATOM     16  C   LIG d   1       7.591   0.293  -3.949  0.00  0.00     0.129 A 
ATOM     17  C   LIG d   1       7.127  -1.001  -3.766  0.00  0.00    -0.016 A 
ATOM     18  C   LIG d   1       5.906  -1.216  -3.157  0.00  0.00    -0.017 A 
ATOM     19  H   LIG d   1       7.722  -1.840  -4.094  0.00  0.00     0.066 H 
ATOM     20  C   LIG d   1       5.138  -0.139  -2.742  0.00  0.00     0.120 A 
ATOM     21  H   LIG d   1       5.547  -2.225  -3.010  0.00  0.00     0.066 H 
ATOM     22  C   LIG d   1       5.600   1.156  -2.930  0.00  0.00    -0.017 A 
ATOM     23  C   LIG d   1       6.824   1.371  -3.533  0.00  0.00    -0.016 A 
ATOM     24  H   LIG d   1       5.001   1.994  -2.606  0.00  0.00     0.066 H 
ATOM     25  H   LIG d   1       7.183   2.380  -3.679  0.00  0.00     0.066 H 
BRANCH  20  26
ATOM     26  O   LIG d   1       3.933  -0.351  -2.147  0.00  0.00    -0.495 OA
BRANCH  26  27
ATOM     27  C   LIG d   1       2.827  -0.634  -3.007  0.00  0.00     0.079 C 
ATOM     28  H   LIG d   1       3.007  -1.569  -3.535  0.00  0.00     0.066 H 
ATOM     29  H   LIG d   1       1.917  -0.721  -2.412  0.00  0.00     0.066 H 
ATOM     30  H   LIG d   1       2.712   0.175  -3.730  0.00  0.00     0.066 H 
ENDBRANCH  26  27
ENDBRANCH  20  26
ENDBRANCH  15  16
ENDBRANCH   2  15
BRANCH   1  31
ATOM     31  C   LIG d   1       8.107   1.285  -7.098  0.00  0.00    -0.003 C 
ATOM     32  H   LIG d   1       7.068   1.591  -7.215  0.00  0.00     0.031 H 
ATOM     33  H   LIG d   1       8.606   1.317  -8.067  0.00  0.00     0.031 H 
ATOM     34  H   LIG d   1       8.145   0.270  -6.703  0.00  0.00     0.031 H 
ENDBRANCH   1  31
BRANCH   8  35
ATOM     35  O   LIG d   1      10.908   7.797  -5.856  0.00  0.00    -0.411 OA
BRANCH  35  36
ATOM     36  C   LIG d   1       9.987   8.759  -5.659  0.00  0.00     0.408 C 
ATOM     37  O   LIG d   1       8.907   8.689  -6.211  0.00  0.00    -0.226 OA
ATOM     38  N   LIG d   1      10.262   9.800  -4.848  0.00  0.00    -0.273 N 
BRANCH  38  39
ATOM     39  C   LIG d   1       9.259  10.846  -4.633  0.00  0.00     0.006 C 
ATOM     40  H   LIG d   1       9.284  11.551  -5.464  0.00  0.00     0.043 H 
ATOM     41  H   LIG d   1       8.270  10.393  -4.570  0.00  0.00     0.043 H 
ATOM     42  H   LIG d   1       9.477  11.372  -3.703  0.00  0.00     0.043 H 
ENDBRANCH  38  39
BRANCH  38  43
ATOM     43  C   LIG d   1      11.564   9.885  -4.181  0.00  0.00     0.006 C 
ATOM     44  H   LIG d   1      11.775   8.942  -3.675  0.00  0.00     0.043 H 
ATOM     45  H   LIG d   1      12.340  10.083  -4.921  0.00  0.00     0.043 H 
ATOM     46  H   LIG d   1      11.544  10.693  -3.450  0.00  0.00     0.043 H 
ENDBRANCH  38  43
ENDBRANCH  35  36
ENDBRANCH   8  35
TORSDOF 9
ENDMDL
MODEL 6
REMARK VINA RESULT:      -4.9      2.715      8.549
REMARK  9 active torsions:
REMARK  status: ('A' for Active; 'I' for Inactive)
REMARK    1  A    between atoms: C_1  and  C_2 
REMARK    2  A    between atoms: C_3  and  O_19 
REMARK    3  A    between atoms: C_9  and  O_13 
REMARK    4  A    between atoms: O_13  and  C_14 
REMARK       I    between atoms: C_14  and  N_16 
REMARK    5  A    between atoms: N_16  and  C_17 
REMARK    6  A    between atoms: N_16  and  C_18 
REMARK    7  A    between atoms: O_19  and  C_20 
REMARK    8  A    between atoms: C_23  and  O_26 
REMARK    9  A    between atoms: O_26  and  C_27 
ROOT
ATOM      1  C   LIG d   1       9.768   2.402  -6.504  0.00  0.00     0.148 A 
ATOM      2  C   LIG d   1       9.964   2.911  -5.271  0.00  0.00     0.213 A 
ATOM      3  C   LIG d   1       9.087   2.542  -4.211  0.00  0.00     0.235 A 
ATOM      4  O   LIG d   1       9.233   2.982  -3.083  0.00  0.00    -0.283 OA
ATOM      5  C   LIG d   1       7.997   1.605  -4.534  0.00  0.00     0.068 A 
ATOM      6  C   LIG d   1       7.088   1.185  -3.562  0.00  0.00    -0.044 A 
ATOM      7  C   LIG d   1       6.089   0.317  -3.900  0.00  0.00    -0.018 A 
ATOM      8  C   LIG d   1       5.975  -0.152  -5.207  0.00  0.00     0.137 A 
ATOM      9  C   LIG d   1       6.868   0.255  -6.183  0.00  0.00     0.024 A 
ATOM     10  C   LIG d   1       7.889   1.138  -5.855  0.00  0.00     0.142 A 
ATOM     11  O   LIG d   1       8.770   1.554  -6.787  0.00  0.00    -0.456 OA
ATOM     12  H   LIG d   1       7.173   1.546  -2.547  0.00  0.00     0.063 H 
ATOM     13  H   LIG d   1       5.385  -0.009  -3.149  0.00  0.00     0.065 H 
ATOM     14  H   LIG d   1       6.773  -0.113  -7.192  0.00  0.00     0.069 H 
ENDROOT
BRANCH   2  15
ATOM     15  O   LIG d   1      10.993   3.772  -5.040  0.00  0.00    -0.449 OA
BRANCH  15  16
ATOM     16  C   LIG d   1      10.697   5.083  -4.839  0.00  0.00     0.129 A 
ATOM     17  C   LIG d   1      11.330   5.790  -3.828  0.00  0.00    -0.016 A 
ATOM     18  C   LIG d   1      11.034   7.124  -3.629  0.00  0.00    -0.017 A 
ATOM     19  H   LIG d   1      12.060   5.299  -3.201  0.00  0.00     0.066 H 
ATOM     20  C   LIG d   1      10.093   7.753  -4.430  0.00  0.00     0.120 A 
ATOM     21  H   LIG d   1      11.532   7.676  -2.844  0.00  0.00     0.066 H 
ATOM     22  C   LIG d   1       9.455   7.045  -5.437  0.00  0.00    -0.017 A 
ATOM     23  C   LIG d   1       9.756   5.712  -5.641  0.00  0.00    -0.016 A 
ATOM     24  H   LIG d   1       8.722   7.535  -6.061  0.00  0.00     0.066 H 
ATOM     25  H   LIG d   1       9.259   5.160  -6.426  0.00  0.00     0.066 H 
BRANCH  20  26
ATOM     26  O   LIG d   1       9.797   9.065  -4.230  0.00  0.00    -0.495 OA
BRANCH  26  27
ATOM     27  C   LIG d   1       9.581   9.866  -5.394  0.00  0.00     0.079 C 
ATOM     28  H   LIG d   1       8.516   9.895  -5.623  0.00  0.00     0.066 H 
ATOM     29  H   LIG d   1       9.942  10.879  -5.212  0.00  0.00     0.066 H 
ATOM     30  H   LIG d   1      10.121   9.434  -6.238  0.00  0.00     0.066 H 
ENDBRANCH  26  27
ENDBRANCH  20  26
ENDBRANCH  15  16
ENDBRANCH   2  15
BRANCH   1  31
ATOM     31  C   LIG d   1      10.708   2.806  -7.610  0.00  0.00    -0.003 C 
ATOM     32  H   LIG d   1      10.721   2.033  -8.377  0.00  0.00     0.031 H 
ATOM     33  H   LIG d   1      10.369   3.746  -8.047  0.00  0.00     0.031 H 
ATOM     34  H   LIG d   1      11.712   2.935  -7.206  0.00  0.00     0.031 H 
ENDBRANCH   1  31
BRANCH   8  35
ATOM     35  O   LIG d   1       4.976  -1.015  -5.527  0.00  0.00    -0.411 OA
BRANCH  35  36
ATOM     36  C   LIG d   1       3.998  -0.577  -6.342  0.00  0.00     0.408 C 
ATOM     37  O   LIG d   1       3.319   0.377  -6.019  0.00  0.00    -0.226 OA
ATOM     38  N   LIG d   1       3.772  -1.197  -7.518  0.00  0.00    -0.273 N 
BRANCH  38  39
ATOM     39  C   LIG d   1       2.708  -0.719  -8.405  0.00  0.00     0.006 C 
ATOM     40  H   LIG d   1       3.151  -0.257  -9.288  0.00  0.00     0.043 H 
ATOM     41  H   LIG d   1       2.084  -1.559  -8.710  0.00  0.00     0.043 H 
ATOM     42  H   LIG d   1       2.098   0.015  -7.878  0.00  0.00     0.043 H 
ENDBRANCH  38  39
BRANCH  38  43
ATOM     43  C   LIG d   1       4.591  -2.346  -7.910  0.00  0.00     0.006 C 
ATOM     44  H   LIG d   1       4.865  -2.256  -8.961  0.00  0.00     0.043 H 
ATOM     45  H   LIG d   1       5.494  -2.375  -7.299  0.00  0.00     0.043 H 
ATOM     46  H   LIG d   1       4.022  -3.264  -7.761  0.00  0.00     0.043 H 
ENDBRANCH  38  43
ENDBRANCH  35  36
ENDBRANCH   8  35
TORSDOF 9
ENDMDL
MODEL 7
REMARK VINA RESULT:      -4.9     10.791     14.455
REMARK  9 active torsions:
REMARK  status: ('A' for Active; 'I' for Inactive)
REMARK    1  A    between atoms: C_1  and  C_2 
REMARK    2  A    between atoms: C_3  and  O_19 
REMARK    3  A    between atoms: C_9  and  O_13 
REMARK    4  A    between atoms: O_13  and  C_14 
REMARK       I    between atoms: C_14  and  N_16 
REMARK    5  A    between atoms: N_16  and  C_17 
REMARK    6  A    between atoms: N_16  and  C_18 
REMARK    7  A    between atoms: O_19  and  C_20 
REMARK    8  A    between atoms: C_23  and  O_26 
REMARK    9  A    between atoms: O_26  and  C_27 
ROOT
ATOM      1  C   LIG d   1       9.710 -10.220  -2.748  0.00  0.00     0.148 A 
ATOM      2  C   LIG d   1       9.391 -10.886  -1.622  0.00  0.00     0.213 A 
ATOM      3  C   LIG d   1       8.021 -11.097  -1.294  0.00  0.00     0.235 A 
ATOM      4  O   LIG d   1       7.694 -11.695  -0.283  0.00  0.00    -0.283 OA
ATOM      5  C   LIG d   1       7.015 -10.562  -2.228  0.00  0.00     0.068 A 
ATOM      6  C   LIG d   1       5.648 -10.717  -1.992  0.00  0.00    -0.044 A 
ATOM      7  C   LIG d   1       4.745 -10.206  -2.881  0.00  0.00    -0.018 A 
ATOM      8  C   LIG d   1       5.181  -9.532  -4.019  0.00  0.00     0.137 A 
ATOM      9  C   LIG d   1       6.533  -9.368  -4.267  0.00  0.00     0.024 A 
ATOM     10  C   LIG d   1       7.463  -9.883  -3.374  0.00  0.00     0.142 A 
ATOM     11  O   LIG d   1       8.786  -9.733  -3.589  0.00  0.00    -0.456 OA
ATOM     12  H   LIG d   1       5.305 -11.240  -1.111  0.00  0.00     0.063 H 
ATOM     13  H   LIG d   1       3.688 -10.327  -2.699  0.00  0.00     0.065 H 
ATOM     14  H   LIG d   1       6.862  -8.845  -5.151  0.00  0.00     0.069 H 
ENDROOT
BRANCH   2  15
ATOM     15  O   LIG d   1      10.371 -11.356  -0.802  0.00  0.00    -0.449 OA
BRANCH  15  16
ATOM     16  C   LIG d   1      10.628 -10.672   0.344  0.00  0.00     0.129 A 
ATOM     17  C   LIG d   1      10.683 -11.345   1.555  0.00  0.00    -0.016 A 
ATOM     18  C   LIG d   1      10.952 -10.650   2.719  0.00  0.00    -0.017 A 
ATOM     19  H   LIG d   1      10.522 -12.412   1.589  0.00  0.00     0.066 H 
ATOM     20  C   LIG d   1      11.153  -9.279   2.677  0.00  0.00     0.120 A 
ATOM     21  H   LIG d   1      11.000 -11.175   3.662  0.00  0.00     0.066 H 
ATOM     22  C   LIG d   1      11.092  -8.605   1.466  0.00  0.00    -0.017 A 
ATOM     23  C   LIG d   1      10.830  -9.301   0.302  0.00  0.00    -0.016 A 
ATOM     24  H   LIG d   1      11.249  -7.537   1.434  0.00  0.00     0.066 H 
ATOM     25  H   LIG d   1      10.783  -8.776  -0.641  0.00  0.00     0.066 H 
BRANCH  20  26
ATOM     26  O   LIG d   1      11.412  -8.594   3.823  0.00  0.00    -0.495 OA
BRANCH  26  27
ATOM     27  C   LIG d   1      12.773  -8.228   4.066  0.00  0.00     0.079 C 
ATOM     28  H   LIG d   1      12.881  -7.149   3.971  0.00  0.00     0.066 H 
ATOM     29  H   LIG d   1      13.057  -8.535   5.074  0.00  0.00     0.066 H 
ATOM     30  H   LIG d   1      13.418  -8.724   3.340  0.00  0.00     0.066 H 
ENDBRANCH  26  27
ENDBRANCH  20  26
ENDBRANCH  15  16
ENDBRANCH   2  15
BRANCH   1  31
ATOM     31  C   LIG d   1      11.165 -10.009  -3.076  0.00  0.00    -0.003 C 
ATOM     32  H   LIG d   1      11.690 -10.963  -3.034  0.00  0.00     0.031 H 
ATOM     33  H   LIG d   1      11.254  -9.589  -4.077  0.00  0.00     0.031 H 
ATOM     34  H   LIG d   1      11.605  -9.321  -2.353  0.00  0.00     0.031 H 
ENDBRANCH   1  31
BRANCH   8  35
ATOM     35  O   LIG d   1       4.271  -9.029  -4.893  0.00  0.00    -0.411 OA
BRANCH  35  36
ATOM     36  C   LIG d   1       4.342  -9.427  -6.178  0.00  0.00     0.408 C 
ATOM     37  O   LIG d   1       4.209 -10.602  -6.459  0.00  0.00    -0.226 OA
ATOM     38  N   LIG d   1       4.559  -8.522  -7.153  0.00  0.00    -0.273 N 
BRANCH  38  39
ATOM     39  C   LIG d   1       4.635  -8.955  -8.551  0.00  0.00     0.006 C 
ATOM     40  H   LIG d   1       3.734  -8.640  -9.078  0.00  0.00     0.043 H 
ATOM     41  H   LIG d   1       5.508  -8.507  -9.023  0.00  0.00     0.043 H 
ATOM     42  H   LIG d   1       4.718 -10.041  -8.590  0.00  0.00     0.043 H 
ENDBRANCH  38  39
BRANCH  38  43
ATOM     43  C   LIG d   1       4.718  -7.106  -6.816  0.00  0.00     0.006 C 
ATOM     44  H   LIG d   1       3.967  -6.821  -6.079  0.00  0.00     0.043 H 
ATOM     45  H   LIG d   1       5.714  -6.939  -6.403  0.00  0.00     0.043 H 
ATOM     46  H   LIG d   1       4.592  -6.503  -7.714  0.00  0.00     0.043 H 
ENDBRANCH  38  43
ENDBRANCH  35  36
ENDBRANCH   8  35
TORSDOF 9
ENDMDL
MODEL 8
REMARK VINA RESULT:      -4.9      3.083      8.527
REMARK  9 active torsions:
REMARK  status: ('A' for Active; 'I' for Inactive)
REMARK    1  A    between atoms: C_1  and  C_2 
REMARK    2  A    between atoms: C_3  and  O_19 
REMARK    3  A    between atoms: C_9  and  O_13 
REMARK    4  A    between atoms: O_13  and  C_14 
REMARK       I    between atoms: C_14  and  N_16 
REMARK    5  A    between atoms: N_16  and  C_17 
REMARK    6  A    between atoms: N_16  and  C_18 
REMARK    7  A    between atoms: O_19  and  C_20 
REMARK    8  A    between atoms: C_23  and  O_26 
REMARK    9  A    between atoms: O_26  and  C_27 
ROOT
ATOM      1  C   LIG d   1       9.960   3.088  -6.944  0.00  0.00     0.148 A 
ATOM      2  C   LIG d   1      10.298   3.611  -5.749  0.00  0.00     0.213 A 
ATOM      3  C   LIG d   1       9.623   3.173  -4.574  0.00  0.00     0.235 A 
ATOM      4  O   LIG d   1       9.902   3.623  -3.475  0.00  0.00    -0.283 OA
ATOM      5  C   LIG d   1       8.574   2.152  -4.741  0.00  0.00     0.068 A 
ATOM      6  C   LIG d   1       7.857   1.661  -3.649  0.00  0.00    -0.044 A 
ATOM      7  C   LIG d   1       6.891   0.715  -3.843  0.00  0.00    -0.018 A 
ATOM      8  C   LIG d   1       6.618   0.240  -5.124  0.00  0.00     0.137 A 
ATOM      9  C   LIG d   1       7.320   0.716  -6.217  0.00  0.00     0.024 A 
ATOM     10  C   LIG d   1       8.306   1.677  -6.036  0.00  0.00     0.142 A 
ATOM     11  O   LIG d   1       9.001   2.163  -7.085  0.00  0.00    -0.456 OA
ATOM     12  H   LIG d   1       8.065   2.027  -2.654  0.00  0.00     0.063 H 
ATOM     13  H   LIG d   1       6.336   0.335  -2.999  0.00  0.00     0.065 H 
ATOM     14  H   LIG d   1       7.103   0.342  -7.206  0.00  0.00     0.069 H 
ENDROOT
BRANCH   2  15
ATOM     15  O   LIG d   1      11.279   4.551  -5.665  0.00  0.00    -0.449 OA
BRANCH  15  16
ATOM     16  C   LIG d   1      10.927   5.810  -5.292  0.00  0.00     0.129 A 
ATOM     17  C   LIG d   1      11.666   6.480  -4.328  0.00  0.00    -0.016 A 
ATOM     18  C   LIG d   1      11.313   7.762  -3.956  0.00  0.00    -0.017 A 
ATOM     19  H   LIG d   1      12.521   6.002  -3.874  0.00  0.00     0.066 H 
ATOM     20  C   LIG d   1      10.211   8.374  -4.535  0.00  0.00     0.120 A 
ATOM     21  H   LIG d   1      11.891   8.286  -3.209  0.00  0.00     0.066 H 
ATOM     22  C   LIG d   1       9.469   7.702  -5.495  0.00  0.00    -0.017 A 
ATOM     23  C   LIG d   1       9.826   6.422  -5.872  0.00  0.00    -0.016 A 
ATOM     24  H   LIG d   1       8.611   8.179  -5.945  0.00  0.00     0.066 H 
ATOM     25  H   LIG d   1       9.248   5.898  -6.619  0.00  0.00     0.066 H 
BRANCH  20  26
ATOM     26  O   LIG d   1       9.859   9.634  -4.164  0.00  0.00    -0.495 OA
BRANCH  26  27
ATOM     27  C   LIG d   1       9.353  10.494  -5.188  0.00  0.00     0.079 C 
ATOM     28  H   LIG d   1       8.359  10.161  -5.483  0.00  0.00     0.066 H 
ATOM     29  H   LIG d   1       9.298  11.516  -4.811  0.00  0.00     0.066 H 
ATOM     30  H   LIG d   1      10.018  10.461  -6.052  0.00  0.00     0.066 H 
ENDBRANCH  26  27
ENDBRANCH  20  26
ENDBRANCH  15  16
ENDBRANCH   2  15
BRANCH   1  31
ATOM     31  C   LIG d   1      10.688   3.566  -8.174  0.00  0.00    -0.003 C 
ATOM     32  H   LIG d   1      10.647   2.796  -8.943  0.00  0.00     0.031 H 
ATOM     33  H   LIG d   1      10.214   4.475  -8.544  0.00  0.00     0.031 H 
ATOM     34  H   LIG d   1      11.728   3.774  -7.923  0.00  0.00     0.031 H 
ENDBRANCH   1  31
BRANCH   8  35
ATOM     35  O   LIG d   1       5.654  -0.701  -5.301  0.00  0.00    -0.411 OA
BRANCH  35  36
ATOM     36  C   LIG d   1       4.419  -0.437  -4.835  0.00  0.00     0.408 C 
ATOM     37  O   LIG d   1       3.759   0.454  -5.333  0.00  0.00    -0.226 OA
ATOM     38  N   LIG d   1       3.914  -1.161  -3.816  0.00  0.00    -0.273 N 
BRANCH  38  39
ATOM     39  C   LIG d   1       2.569  -0.873  -3.310  0.00  0.00     0.006 C 
ATOM     40  H   LIG d   1       1.896  -1.687  -3.582  0.00  0.00     0.043 H 
ATOM     41  H   LIG d   1       2.602  -0.778  -2.225  0.00  0.00     0.043 H 
ATOM     42  H   LIG d   1       2.208   0.058  -3.746  0.00  0.00     0.043 H 
ENDBRANCH  38  39
BRANCH  38  43
ATOM     43  C   LIG d   1       4.708  -2.235  -3.216  0.00  0.00     0.006 C 
ATOM     44  H   LIG d   1       4.144  -3.168  -3.254  0.00  0.00     0.043 H 
ATOM     45  H   LIG d   1       5.641  -2.351  -3.769  0.00  0.00     0.043 H 
ATOM     46  H   LIG d   1       4.929  -1.987  -2.179  0.00  0.00     0.043 H 
ENDBRANCH  38  43
ENDBRANCH  35  36
ENDBRANCH   8  35
TORSDOF 9
ENDMDL
MODEL 9
REMARK VINA RESULT:      -4.8      3.603      5.139
REMARK  9 active torsions:
REMARK  status: ('A' for Active; 'I' for Inactive)
REMARK    1  A    between atoms: C_1  and  C_2 
REMARK    2  A    between atoms: C_3  and  O_19 
REMARK    3  A    between atoms: C_9  and  O_13 
REMARK    4  A    between atoms: O_13  and  C_14 
REMARK       I    between atoms: C_14  and  N_16 
REMARK    5  A    between atoms: N_16  and  C_17 
REMARK    6  A    between atoms: N_16  and  C_18 
REMARK    7  A    between atoms: O_19  and  C_20 
REMARK    8  A    between atoms: C_23  and  O_26 
REMARK    9  A    between atoms: O_26  and  C_27 
ROOT
ATOM      1  C   LIG d   1       9.680   2.516  -4.658  0.00  0.00     0.148 A 
ATOM      2  C   LIG d   1       9.007   1.462  -5.162  0.00  0.00     0.213 A 
ATOM      3  C   LIG d   1       8.545   1.502  -6.508  0.00  0.00     0.235 A 
ATOM      4  O   LIG d   1       7.932   0.568  -6.997  0.00  0.00    -0.283 OA
ATOM      5  C   LIG d   1       8.838   2.719  -7.285  0.00  0.00     0.068 A 
ATOM      6  C   LIG d   1       8.425   2.851  -8.611  0.00  0.00    -0.044 A 
ATOM      7  C   LIG d   1       8.714   3.996  -9.300  0.00  0.00    -0.018 A 
ATOM      8  C   LIG d   1       9.417   5.029  -8.685  0.00  0.00     0.137 A 
ATOM      9  C   LIG d   1       9.833   4.914  -7.370  0.00  0.00     0.024 A 
ATOM     10  C   LIG d   1       9.548   3.757  -6.657  0.00  0.00     0.142 A 
ATOM     11  O   LIG d   1       9.937   3.620  -5.373  0.00  0.00    -0.456 OA
ATOM     12  H   LIG d   1       7.879   2.053  -9.093  0.00  0.00     0.063 H 
ATOM     13  H   LIG d   1       8.395   4.098 -10.326  0.00  0.00     0.065 H 
ATOM     14  H   LIG d   1      10.378   5.718  -6.901  0.00  0.00     0.069 H 
ENDROOT
BRANCH   2  15
ATOM     15  O   LIG d   1       8.772   0.367  -4.389  0.00  0.00    -0.449 OA
BRANCH  15  16
ATOM     16  C   LIG d   1       7.530   0.216  -3.855  0.00  0.00     0.129 A 
ATOM     17  C   LIG d   1       6.794   1.331  -3.487  0.00  0.00    -0.016 A 
ATOM     18  C   LIG d   1       5.530   1.178  -2.952  0.00  0.00    -0.017 A 
ATOM     19  H   LIG d   1       7.205   2.321  -3.625  0.00  0.00     0.066 H 
ATOM     20  C   LIG d   1       5.003  -0.092  -2.770  0.00  0.00     0.120 A 
ATOM     21  H   LIG d   1       4.954   2.047  -2.670  0.00  0.00     0.066 H 
ATOM     22  C   LIG d   1       5.742  -1.208  -3.133  0.00  0.00    -0.017 A 
ATOM     23  C   LIG d   1       7.004  -1.054  -3.674  0.00  0.00    -0.016 A 
ATOM     24  H   LIG d   1       5.332  -2.197  -2.991  0.00  0.00     0.066 H 
ATOM     25  H   LIG d   1       7.580  -1.924  -3.956  0.00  0.00     0.066 H 
BRANCH  20  26
ATOM     26  O   LIG d   1       3.761  -0.244  -2.238  0.00  0.00    -0.495 OA
BRANCH  26  27
ATOM     27  C   LIG d   1       2.746  -0.766  -3.099  0.00  0.00     0.079 C 
ATOM     28  H   LIG d   1       2.475  -1.770  -2.774  0.00  0.00     0.066 H 
ATOM     29  H   LIG d   1       1.868  -0.121  -3.058  0.00  0.00     0.066 H 
ATOM     30  H   LIG d   1       3.122  -0.804  -4.122  0.00  0.00     0.066 H 
ENDBRANCH  26  27
ENDBRANCH  20  26
ENDBRANCH  15  16
ENDBRANCH   2  15
BRANCH   1  31
ATOM     31  C   LIG d   1      10.160   2.452  -3.232  0.00  0.00    -0.003 C 
ATOM     32  H   LIG d   1      10.258   3.463  -2.835  0.00  0.00     0.031 H 
ATOM     33  H   LIG d   1       9.441   1.895  -2.632  0.00  0.00     0.031 H 
ATOM     34  H   LIG d   1      11.128   1.953  -3.195  0.00  0.00     0.031 H 
ENDBRANCH   1  31
BRANCH   8  35
ATOM     35  O   LIG d   1       9.697   6.160  -9.382  0.00  0.00    -0.411 OA
BRANCH  35  36
ATOM     36  C   LIG d   1      10.991   6.473  -9.587  0.00  0.00     0.408 C 
ATOM     37  O   LIG d   1      11.719   5.697 -10.174  0.00  0.00    -0.226 OA
ATOM     38  N   LIG d   1      11.479   7.648  -9.140  0.00  0.00    -0.273 N 
BRANCH  38  39
ATOM     39  C   LIG d   1      12.887   7.988  -9.364  0.00  0.00     0.006 C 
ATOM     40  H   LIG d   1      13.028   9.060  -9.227  0.00  0.00     0.043 H 
ATOM     41  H   LIG d   1      13.509   7.446  -8.653  0.00  0.00     0.043 H 
ATOM     42  H   LIG d   1      13.170   7.711 -10.379  0.00  0.00     0.043 H 
ENDBRANCH  38  39
BRANCH  38  43
ATOM     43  C   LIG d   1      10.603   8.584  -8.433  0.00  0.00     0.006 C 
ATOM     44  H   LIG d   1      11.127   9.528  -8.280  0.00  0.00     0.043 H 
ATOM     45  H   LIG d   1       9.704   8.759  -9.024  0.00  0.00     0.043 H 
ATOM     46  H   LIG d   1      10.326   8.162  -7.467  0.00  0.00     0.043 H 
ENDBRANCH  38  43
ENDBRANCH  35  36
ENDBRANCH   8  35
TORSDOF 9
ENDMDL
