MODEL 1
REMARK VINA RESULT:      -6.8      0.000      0.000
REMARK  2 active torsions:
REMARK  status: ('A' for Active; 'I' for Inactive)
REMARK    1  A    between atoms: C_1  and  C_2 
REMARK    2  A    between atoms: C_17  and  C_27 
ROOT
ATOM      1  C   LIG d   1       5.610  -1.196  -3.840  0.00  0.00    -0.008 C 
ATOM      2  C   LIG d   1       4.948  -1.622  -2.538  0.00  0.00    -0.042 C 
ATOM      3  C   LIG d   1       3.431  -1.493  -2.633  0.00  0.00    -0.036 C 
ATOM      4  C   LIG d   1       2.984  -0.150  -3.194  0.00  0.00     0.038 C 
ATOM      5  H   LIG d   1       1.886  -0.121  -3.206  0.00  0.00     0.047 H 
ATOM      6  C   LIG d   1       3.495   0.043  -4.625  0.00  0.00    -0.015 C 
ATOM      7  C   LIG d   1       4.536  -1.031  -4.893  0.00  0.00    -0.066 C 
ATOM      8  C   LIG d   1       4.450  -1.749  -5.969  0.00  0.00    -0.084 C 
ATOM      9  C   LIG d   1       5.358  -2.916  -6.269  0.00  0.00    -0.031 C 
ATOM     10  C   LIG d   1       5.945  -3.387  -4.941  0.00  0.00    -0.030 C 
ATOM     11  H   LIG d   1       5.099  -3.654  -4.277  0.00  0.00     0.031 H 
ATOM     12  C   LIG d   1       6.666  -2.181  -4.312  0.00  0.00    -0.029 C 
ATOM     13  H   LIG d   1       7.258  -1.670  -5.074  0.00  0.00     0.031 H 
ATOM     14  C   LIG d   1       7.581  -2.668  -3.199  0.00  0.00    -0.049 C 
ATOM     15  C   LIG d   1       8.762  -3.462  -3.783  0.00  0.00    -0.042 C 
ATOM     16  C   LIG d   1       8.357  -4.157  -5.062  0.00  0.00     0.025 C 
ATOM     17  C   LIG d   1       6.869  -4.557  -5.028  0.00  0.00    -0.027 C 
ATOM     18  H   LIG d   1       6.703  -5.200  -4.135  0.00  0.00     0.031 H 
ATOM     19  C   LIG d   1       6.748  -5.462  -6.264  0.00  0.00    -0.044 C 
ATOM     20  C   LIG d   1       8.056  -6.303  -6.194  0.00  0.00     0.002 C 
ATOM     21  C   LIG d   1       9.026  -5.523  -5.285  0.00  0.00     0.176 C 
ATOM     22  O   LIG d   1      10.293  -5.366  -5.922  0.00  0.00    -0.346 OA
ATOM     23  C   LIG d   1      11.209  -6.275  -5.283  0.00  0.00     0.074 C 
ATOM     24  C   LIG d   1      10.333  -7.097  -4.311  0.00  0.00     0.074 C 
ATOM     25  O   LIG d   1       9.221  -6.209  -4.046  0.00  0.00    -0.346 OA
ATOM     26 CL   LIG d   1       3.581   1.186  -2.142  0.00  0.00    -0.121 Cl
ATOM     27  H   LIG d   1       5.204  -2.662  -2.321  0.00  0.00     0.027 H 
ATOM     28  H   LIG d   1       5.314  -0.994  -1.722  0.00  0.00     0.027 H 
ATOM     29  H   LIG d   1       3.045  -2.292  -3.272  0.00  0.00     0.028 H 
ATOM     30  H   LIG d   1       3.005  -1.621  -1.633  0.00  0.00     0.028 H 
ATOM     31  H   LIG d   1       2.665  -0.071  -5.330  0.00  0.00     0.032 H 
ATOM     32  H   LIG d   1       3.929   1.035  -4.743  0.00  0.00     0.032 H 
ATOM     33  H   LIG d   1       3.665  -1.527  -6.673  0.00  0.00     0.057 H 
ATOM     34  H   LIG d   1       4.777  -3.714  -6.728  0.00  0.00     0.031 H 
ATOM     35  H   LIG d   1       6.142  -2.590  -6.945  0.00  0.00     0.031 H 
ATOM     36  H   LIG d   1       7.019  -3.315  -2.518  0.00  0.00     0.027 H 
ATOM     37  H   LIG d   1       7.967  -1.820  -2.629  0.00  0.00     0.027 H 
ATOM     38  H   LIG d   1       9.095  -4.205  -3.048  0.00  0.00     0.027 H 
ATOM     39  H   LIG d   1       9.596  -2.780  -3.980  0.00  0.00     0.027 H 
ATOM     40  H   LIG d   1       5.876  -6.112  -6.175  0.00  0.00     0.027 H 
ATOM     41  H   LIG d   1       6.701  -4.886  -7.182  0.00  0.00     0.027 H 
ATOM     42  H   LIG d   1       8.480  -6.419  -7.191  0.00  0.00     0.032 H 
ATOM     43  H   LIG d   1       7.843  -7.281  -5.762  0.00  0.00     0.032 H 
ATOM     44  H   LIG d   1      11.674  -6.929  -6.020  0.00  0.00     0.058 H 
ATOM     45  H   LIG d   1      11.971  -5.723  -4.732  0.00  0.00     0.058 H 
ATOM     46  H   LIG d   1       9.992  -8.017  -4.784  0.00  0.00     0.058 H 
ATOM     47  H   LIG d   1      10.879  -7.317  -3.394  0.00  0.00     0.058 H 
ENDROOT
BRANCH  16  48
ATOM     48  C   LIG d   1       8.708  -3.294  -6.277  0.00  0.00    -0.054 C 
ATOM     49  H   LIG d   1       9.258  -2.413  -5.950  0.00  0.00     0.024 H 
ATOM     50  H   LIG d   1       9.323  -3.872  -6.966  0.00  0.00     0.024 H 
ATOM     51  H   LIG d   1       7.791  -2.985  -6.780  0.00  0.00     0.024 H 
ENDBRANCH  16  48
BRANCH   1  52
ATOM     52  C   LIG d   1       6.294   0.161  -3.633  0.00  0.00    -0.056 C 
ATOM     53  H   LIG d   1       7.196   0.210  -4.243  0.00  0.00     0.024 H 
ATOM     54  H   LIG d   1       5.613   0.961  -3.927  0.00  0.00     0.024 H 
ATOM     55  H   LIG d   1       6.560   0.278  -2.582  0.00  0.00     0.024 H 
ENDBRANCH   1  52
TORSDOF 2
ENDMDL
MODEL 2
REMARK VINA RESULT:      -6.2      4.690      6.782
REMARK  2 active torsions:
REMARK  status: ('A' for Active; 'I' for Inactive)
REMARK    1  A    between atoms: C_1  and  C_2 
REMARK    2  A    between atoms: C_17  and  C_27 
ROOT
ATOM      1  C   LIG d   1       5.218  -0.873  -6.044  0.00  0.00    -0.008 C 
ATOM      2  C   LIG d   1       5.353  -2.342  -5.671  0.00  0.00    -0.042 C 
ATOM      3  C   LIG d   1       4.546  -2.659  -4.417  0.00  0.00    -0.036 C 
ATOM      4  C   LIG d   1       4.787  -1.666  -3.289  0.00  0.00     0.038 C 
ATOM      5  H   LIG d   1       4.198  -1.972  -2.415  0.00  0.00     0.047 H 
ATOM      6  C   LIG d   1       4.355  -0.255  -3.700  0.00  0.00    -0.015 C 
ATOM      7  C   LIG d   1       4.120  -0.263  -5.201  0.00  0.00    -0.066 C 
ATOM      8  C   LIG d   1       3.016   0.221  -5.678  0.00  0.00    -0.084 C 
ATOM      9  C   LIG d   1       2.633   0.153  -7.135  0.00  0.00    -0.031 C 
ATOM     10  C   LIG d   1       3.440  -0.982  -7.762  0.00  0.00    -0.030 C 
ATOM     11  H   LIG d   1       3.201  -1.910  -7.206  0.00  0.00     0.031 H 
ATOM     12  C   LIG d   1       4.927  -0.668  -7.521  0.00  0.00    -0.029 C 
ATOM     13  H   LIG d   1       5.118   0.386  -7.738  0.00  0.00     0.031 H 
ATOM     14  C   LIG d   1       5.779  -1.537  -8.434  0.00  0.00    -0.049 C 
ATOM     15  C   LIG d   1       5.606  -1.106  -9.900  0.00  0.00    -0.042 C 
ATOM     16  C   LIG d   1       4.224  -0.541 -10.132  0.00  0.00     0.025 C 
ATOM     17  C   LIG d   1       3.188  -1.220  -9.215  0.00  0.00    -0.027 C 
ATOM     18  H   LIG d   1       3.226  -2.317  -9.400  0.00  0.00     0.031 H 
ATOM     19  C   LIG d   1       1.859  -0.711  -9.795  0.00  0.00    -0.044 C 
ATOM     20  C   LIG d   1       2.107  -0.795 -11.329  0.00  0.00     0.002 C 
ATOM     21  C   LIG d   1       3.636  -0.845 -11.520  0.00  0.00     0.176 C 
ATOM     22  O   LIG d   1       4.055   0.133 -12.470  0.00  0.00    -0.346 OA
ATOM     23  C   LIG d   1       4.377  -0.565 -13.689  0.00  0.00     0.074 C 
ATOM     24  C   LIG d   1       3.964  -2.030 -13.424  0.00  0.00     0.074 C 
ATOM     25  O   LIG d   1       4.046  -2.135 -11.982  0.00  0.00    -0.346 OA
ATOM     26 CL   LIG d   1       6.531  -1.665  -2.832  0.00  0.00    -0.121 Cl
ATOM     27  H   LIG d   1       4.990  -2.963  -6.494  0.00  0.00     0.027 H 
ATOM     28  H   LIG d   1       6.405  -2.577  -5.493  0.00  0.00     0.027 H 
ATOM     29  H   LIG d   1       3.482  -2.660  -4.668  0.00  0.00     0.028 H 
ATOM     30  H   LIG d   1       4.815  -3.662  -4.070  0.00  0.00     0.028 H 
ATOM     31  H   LIG d   1       3.423   0.008  -3.187  0.00  0.00     0.032 H 
ATOM     32  H   LIG d   1       5.123   0.471  -3.437  0.00  0.00     0.032 H 
ATOM     33  H   LIG d   1       2.312   0.666  -4.993  0.00  0.00     0.057 H 
ATOM     34  H   LIG d   1       1.568  -0.053  -7.218  0.00  0.00     0.031 H 
ATOM     35  H   LIG d   1       2.868   1.101  -7.609  0.00  0.00     0.031 H 
ATOM     36  H   LIG d   1       5.474  -2.583  -8.332  0.00  0.00     0.027 H 
ATOM     37  H   LIG d   1       6.832  -1.455  -8.159  0.00  0.00     0.027 H 
ATOM     38  H   LIG d   1       5.765  -1.973 -10.552  0.00  0.00     0.027 H 
ATOM     39  H   LIG d   1       6.361  -0.351 -10.148  0.00  0.00     0.027 H 
ATOM     40  H   LIG d   1       1.041  -1.374  -9.507  0.00  0.00     0.027 H 
ATOM     41  H   LIG d   1       1.649   0.307  -9.487  0.00  0.00     0.027 H 
ATOM     42  H   LIG d   1       1.691   0.082 -11.823  0.00  0.00     0.032 H 
ATOM     43  H   LIG d   1       1.650  -1.701 -11.727  0.00  0.00     0.032 H 
ATOM     44  H   LIG d   1       3.809  -0.156 -14.523  0.00  0.00     0.058 H 
ATOM     45  H   LIG d   1       5.446  -0.503 -13.891  0.00  0.00     0.058 H 
ATOM     46  H   LIG d   1       2.947  -2.213 -13.769  0.00  0.00     0.058 H 
ATOM     47  H   LIG d   1       4.662  -2.718 -13.901  0.00  0.00     0.058 H 
ENDROOT
BRANCH  16  48
ATOM     48  C   LIG d   1       4.233   0.982  -9.985  0.00  0.00    -0.054 C 
ATOM     49  H   LIG d   1       4.444   1.246  -8.948  0.00  0.00     0.024 H 
ATOM     50  H   LIG d   1       5.002   1.405 -10.631  0.00  0.00     0.024 H 
ATOM     51  H   LIG d   1       3.259   1.381 -10.271  0.00  0.00     0.024 H 
ENDBRANCH  16  48
BRANCH   1  52
ATOM     52  C   LIG d   1       6.532  -0.152  -5.721  0.00  0.00    -0.056 C 
ATOM     53  H   LIG d   1       6.493   0.866  -6.108  0.00  0.00     0.024 H 
ATOM     54  H   LIG d   1       6.675  -0.124  -4.640  0.00  0.00     0.024 H 
ATOM     55  H   LIG d   1       7.363  -0.685  -6.183  0.00  0.00     0.024 H 
ENDBRANCH   1  52
TORSDOF 2
ENDMDL
MODEL 3
REMARK VINA RESULT:      -6.2      3.156      4.617
REMARK  2 active torsions:
REMARK  status: ('A' for Active; 'I' for Inactive)
REMARK    1  A    between atoms: C_1  and  C_2 
REMARK    2  A    between atoms: C_17  and  C_27 
ROOT
ATOM      1  C   LIG d   1       4.338  -0.786  -4.763  0.00  0.00    -0.008 C 
ATOM      2  C   LIG d   1       5.462   0.170  -4.390  0.00  0.00    -0.042 C 
ATOM      3  C   LIG d   1       5.921  -0.066  -2.955  0.00  0.00    -0.036 C 
ATOM      4  C   LIG d   1       4.765  -0.145  -1.968  0.00  0.00     0.038 C 
ATOM      5  H   LIG d   1       5.172  -0.288  -0.958  0.00  0.00     0.047 H 
ATOM      6  C   LIG d   1       3.844  -1.325  -2.296  0.00  0.00    -0.015 C 
ATOM      7  C   LIG d   1       4.219  -1.833  -3.678  0.00  0.00    -0.066 C 
ATOM      8  C   LIG d   1       4.432  -3.099  -3.857  0.00  0.00    -0.084 C 
ATOM      9  C   LIG d   1       4.924  -3.688  -5.156  0.00  0.00    -0.031 C 
ATOM     10  C   LIG d   1       5.598  -2.563  -5.937  0.00  0.00    -0.030 C 
ATOM     11  H   LIG d   1       6.414  -2.159  -5.306  0.00  0.00     0.031 H 
ATOM     12  C   LIG d   1       4.554  -1.446  -6.114  0.00  0.00    -0.029 C 
ATOM     13  H   LIG d   1       3.597  -1.883  -6.410  0.00  0.00     0.031 H 
ATOM     14  C   LIG d   1       5.027  -0.482  -7.191  0.00  0.00    -0.049 C 
ATOM     15  C   LIG d   1       4.990  -1.160  -8.572  0.00  0.00    -0.042 C 
ATOM     16  C   LIG d   1       5.232  -2.646  -8.444  0.00  0.00     0.025 C 
ATOM     17  C   LIG d   1       6.169  -2.955  -7.260  0.00  0.00    -0.027 C 
ATOM     18  H   LIG d   1       7.117  -2.391  -7.412  0.00  0.00     0.031 H 
ATOM     19  C   LIG d   1       6.490  -4.442  -7.480  0.00  0.00    -0.044 C 
ATOM     20  C   LIG d   1       6.695  -4.518  -9.020  0.00  0.00     0.002 C 
ATOM     21  C   LIG d   1       6.014  -3.268  -9.612  0.00  0.00     0.176 C 
ATOM     22  O   LIG d   1       5.132  -3.632 -10.673  0.00  0.00    -0.346 OA
ATOM     23  C   LIG d   1       5.772  -3.261 -11.908  0.00  0.00     0.074 C 
ATOM     24  C   LIG d   1       7.181  -2.782 -11.493  0.00  0.00     0.074 C 
ATOM     25  O   LIG d   1       6.988  -2.354 -10.123  0.00  0.00    -0.346 OA
ATOM     26 CL   LIG d   1       3.826   1.393  -1.995  0.00  0.00    -0.121 Cl
ATOM     27  H   LIG d   1       6.308   0.020  -5.064  0.00  0.00     0.027 H 
ATOM     28  H   LIG d   1       5.112   1.200  -4.493  0.00  0.00     0.027 H 
ATOM     29  H   LIG d   1       6.490  -0.999  -2.912  0.00  0.00     0.028 H 
ATOM     30  H   LIG d   1       6.585   0.752  -2.660  0.00  0.00     0.028 H 
ATOM     31  H   LIG d   1       3.995  -2.123  -1.561  0.00  0.00     0.032 H 
ATOM     32  H   LIG d   1       2.802  -1.013  -2.273  0.00  0.00     0.032 H 
ATOM     33  H   LIG d   1       4.286  -3.768  -3.024  0.00  0.00     0.057 H 
ATOM     34  H   LIG d   1       5.640  -4.480  -4.943  0.00  0.00     0.031 H 
ATOM     35  H   LIG d   1       4.078  -4.089  -5.707  0.00  0.00     0.031 H 
ATOM     36  H   LIG d   1       6.053  -0.167  -6.977  0.00  0.00     0.027 H 
ATOM     37  H   LIG d   1       4.390   0.404  -7.211  0.00  0.00     0.027 H 
ATOM     38  H   LIG d   1       5.761  -0.714  -9.212  0.00  0.00     0.027 H 
ATOM     39  H   LIG d   1       4.015  -0.982  -9.038  0.00  0.00     0.027 H 
ATOM     40  H   LIG d   1       7.411  -4.712  -6.961  0.00  0.00     0.027 H 
ATOM     41  H   LIG d   1       5.673  -5.081  -7.161  0.00  0.00     0.027 H 
ATOM     42  H   LIG d   1       6.236  -5.423  -9.415  0.00  0.00     0.032 H 
ATOM     43  H   LIG d   1       7.761  -4.508  -9.251  0.00  0.00     0.032 H 
ATOM     44  H   LIG d   1       5.844  -4.120 -12.573  0.00  0.00     0.058 H 
ATOM     45  H   LIG d   1       5.225  -2.451 -12.392  0.00  0.00     0.058 H 
ATOM     46  H   LIG d   1       7.898  -3.601 -11.547  0.00  0.00     0.058 H 
ATOM     47  H   LIG d   1       7.503  -1.948 -12.116  0.00  0.00     0.058 H 
ENDROOT
BRANCH  16  48
ATOM     48  C   LIG d   1       3.903  -3.401  -8.356  0.00  0.00    -0.054 C 
ATOM     49  H   LIG d   1       3.085  -2.688  -8.257  0.00  0.00     0.024 H 
ATOM     50  H   LIG d   1       3.762  -3.993  -9.260  0.00  0.00     0.024 H 
ATOM     51  H   LIG d   1       3.917  -4.062  -7.489  0.00  0.00     0.024 H 
ENDBRANCH  16  48
BRANCH   1  52
ATOM     52  C   LIG d   1       3.019  -0.007  -4.828  0.00  0.00    -0.056 C 
ATOM     53  H   LIG d   1       2.964   0.537  -5.770  0.00  0.00     0.024 H 
ATOM     54  H   LIG d   1       2.182  -0.703  -4.760  0.00  0.00     0.024 H 
ATOM     55  H   LIG d   1       2.972   0.699  -3.998  0.00  0.00     0.024 H 
ENDBRANCH   1  52
TORSDOF 2
ENDMDL
MODEL 4
REMARK VINA RESULT:      -5.8      4.738      7.213
REMARK  2 active torsions:
REMARK  status: ('A' for Active; 'I' for Inactive)
REMARK    1  A    between atoms: C_1  and  C_2 
REMARK    2  A    between atoms: C_17  and  C_27 
ROOT
ATOM      1  C   LIG d   1       3.089  -1.493 -10.100  0.00  0.00    -0.008 C 
ATOM      2  C   LIG d   1       1.668  -2.038 -10.084  0.00  0.00    -0.042 C 
ATOM      3  C   LIG d   1       1.578  -3.339 -10.873  0.00  0.00    -0.036 C 
ATOM      4  C   LIG d   1       2.236  -3.250 -12.243  0.00  0.00     0.038 C 
ATOM      5  H   LIG d   1       2.107  -4.210 -12.760  0.00  0.00     0.047 H 
ATOM      6  C   LIG d   1       3.735  -2.961 -12.112  0.00  0.00    -0.015 C 
ATOM      7  C   LIG d   1       4.003  -2.553 -10.674  0.00  0.00    -0.066 C 
ATOM      8  C   LIG d   1       4.961  -3.127 -10.015  0.00  0.00    -0.084 C 
ATOM      9  C   LIG d   1       5.232  -2.882  -8.551  0.00  0.00    -0.031 C 
ATOM     10  C   LIG d   1       3.945  -2.337  -7.937  0.00  0.00    -0.030 C 
ATOM     11  H   LIG d   1       3.147  -3.086  -8.112  0.00  0.00     0.031 H 
ATOM     12  C   LIG d   1       3.570  -1.068  -8.723  0.00  0.00    -0.029 C 
ATOM     13  H   LIG d   1       4.461  -0.455  -8.874  0.00  0.00     0.031 H 
ATOM     14  C   LIG d   1       2.536  -0.277  -7.937  0.00  0.00    -0.049 C 
ATOM     15  C   LIG d   1       3.168   0.322  -6.669  0.00  0.00    -0.042 C 
ATOM     16  C   LIG d   1       4.287  -0.559  -6.163  0.00  0.00     0.025 C 
ATOM     17  C   LIG d   1       4.008  -2.042  -6.474  0.00  0.00    -0.027 C 
ATOM     18  H   LIG d   1       3.028  -2.314  -6.021  0.00  0.00     0.031 H 
ATOM     19  C   LIG d   1       5.095  -2.755  -5.656  0.00  0.00    -0.044 C 
ATOM     20  C   LIG d   1       5.096  -1.952  -4.323  0.00  0.00     0.002 C 
ATOM     21  C   LIG d   1       4.426  -0.598  -4.632  0.00  0.00     0.176 C 
ATOM     22  O   LIG d   1       5.239   0.481  -4.172  0.00  0.00    -0.346 OA
ATOM     23  C   LIG d   1       4.619   1.007  -2.984  0.00  0.00     0.074 C 
ATOM     24  C   LIG d   1       3.445   0.044  -2.693  0.00  0.00     0.074 C 
ATOM     25  O   LIG d   1       3.148  -0.508  -3.998  0.00  0.00    -0.346 OA
ATOM     26 CL   LIG d   1       1.445  -1.960 -13.223  0.00  0.00    -0.121 Cl
ATOM     27  H   LIG d   1       1.360  -2.225  -9.053  0.00  0.00     0.027 H 
ATOM     28  H   LIG d   1       0.991  -1.301 -10.523  0.00  0.00     0.027 H 
ATOM     29  H   LIG d   1       2.056  -4.138 -10.300  0.00  0.00     0.028 H 
ATOM     30  H   LIG d   1       0.522  -3.599 -11.002  0.00  0.00     0.028 H 
ATOM     31  H   LIG d   1       4.304  -3.867 -12.346  0.00  0.00     0.032 H 
ATOM     32  H   LIG d   1       4.031  -2.168 -12.797  0.00  0.00     0.032 H 
ATOM     33  H   LIG d   1       5.577  -3.847 -10.528  0.00  0.00     0.057 H 
ATOM     34  H   LIG d   1       5.508  -3.821  -8.074  0.00  0.00     0.031 H 
ATOM     35  H   LIG d   1       6.040  -2.164  -8.455  0.00  0.00     0.031 H 
ATOM     36  H   LIG d   1       1.713  -0.937  -7.646  0.00  0.00     0.027 H 
ATOM     37  H   LIG d   1       2.132   0.530  -8.550  0.00  0.00     0.027 H 
ATOM     38  H   LIG d   1       2.398   0.421  -5.895  0.00  0.00     0.027 H 
ATOM     39  H   LIG d   1       3.556   1.321  -6.894  0.00  0.00     0.027 H 
ATOM     40  H   LIG d   1       4.813  -3.794  -5.471  0.00  0.00     0.027 H 
ATOM     41  H   LIG d   1       6.063  -2.706  -6.143  0.00  0.00     0.027 H 
ATOM     42  H   LIG d   1       6.117  -1.800  -3.978  0.00  0.00     0.032 H 
ATOM     43  H   LIG d   1       4.521  -2.489  -3.568  0.00  0.00     0.032 H 
ATOM     44  H   LIG d   1       5.324   1.007  -2.154  0.00  0.00     0.058 H 
ATOM     45  H   LIG d   1       4.245   2.015  -3.164  0.00  0.00     0.058 H 
ATOM     46  H   LIG d   1       3.752  -0.739  -2.000  0.00  0.00     0.058 H 
ATOM     47  H   LIG d   1       2.588   0.590  -2.300  0.00  0.00     0.058 H 
ENDROOT
BRANCH  16  48
ATOM     48  C   LIG d   1       5.635  -0.085  -6.713  0.00  0.00    -0.054 C 
ATOM     49  H   LIG d   1       6.436  -0.679  -6.273  0.00  0.00     0.024 H 
ATOM     50  H   LIG d   1       5.647  -0.205  -7.796  0.00  0.00     0.024 H 
ATOM     51  H   LIG d   1       5.781   0.966  -6.462  0.00  0.00     0.024 H 
ENDBRANCH  16  48
BRANCH   1  52
ATOM     52  C   LIG d   1       3.143  -0.264 -11.015  0.00  0.00    -0.056 C 
ATOM     53  H   LIG d   1       2.504   0.520 -10.610  0.00  0.00     0.024 H 
ATOM     54  H   LIG d   1       4.170   0.099 -11.076  0.00  0.00     0.024 H 
ATOM     55  H   LIG d   1       2.795  -0.537 -12.012  0.00  0.00     0.024 H 
ENDBRANCH   1  52
TORSDOF 2
ENDMDL
MODEL 5
REMARK VINA RESULT:      -5.7      4.339      6.617
REMARK  2 active torsions:
REMARK  status: ('A' for Active; 'I' for Inactive)
REMARK    1  A    between atoms: C_1  and  C_2 
REMARK    2  A    between atoms: C_17  and  C_27 
ROOT
ATOM      1  C   LIG d   1       9.680   1.859  -5.187  0.00  0.00    -0.008 C 
ATOM      2  C   LIG d   1       9.195   3.245  -5.587  0.00  0.00    -0.042 C 
ATOM      3  C   LIG d   1       9.812   3.675  -6.913  0.00  0.00    -0.036 C 
ATOM      4  C   LIG d   1      11.318   3.462  -6.963  0.00  0.00     0.038 C 
ATOM      5  H   LIG d   1      11.694   3.817  -7.931  0.00  0.00     0.047 H 
ATOM      6  C   LIG d   1      11.667   1.977  -6.819  0.00  0.00    -0.015 C 
ATOM      7  C   LIG d   1      10.413   1.251  -6.363  0.00  0.00    -0.066 C 
ATOM      8  C   LIG d   1      10.026   0.185  -6.993  0.00  0.00    -0.084 C 
ATOM      9  C   LIG d   1       8.737  -0.539  -6.698  0.00  0.00    -0.031 C 
ATOM     10  C   LIG d   1       7.811   0.452  -5.996  0.00  0.00    -0.030 C 
ATOM     11  H   LIG d   1       7.678   1.321  -6.669  0.00  0.00     0.031 H 
ATOM     12  C   LIG d   1       8.549   0.948  -4.740  0.00  0.00    -0.029 C 
ATOM     13  H   LIG d   1       9.010   0.100  -4.227  0.00  0.00     0.031 H 
ATOM     14  C   LIG d   1       7.556   1.627  -3.809  0.00  0.00    -0.049 C 
ATOM     15  C   LIG d   1       6.589   0.593  -3.209  0.00  0.00    -0.042 C 
ATOM     16  C   LIG d   1       6.372  -0.555  -4.168  0.00  0.00     0.025 C 
ATOM     17  C   LIG d   1       6.463  -0.078  -5.631  0.00  0.00    -0.027 C 
ATOM     18  H   LIG d   1       5.717   0.735  -5.779  0.00  0.00     0.031 H 
ATOM     19  C   LIG d   1       5.953  -1.304  -6.404  0.00  0.00    -0.044 C 
ATOM     20  C   LIG d   1       4.752  -1.775  -5.534  0.00  0.00     0.002 C 
ATOM     21  C   LIG d   1       4.955  -1.151  -4.139  0.00  0.00     0.176 C 
ATOM     22  O   LIG d   1       4.849  -2.148  -3.123  0.00  0.00    -0.346 OA
ATOM     23  C   LIG d   1       3.576  -1.964  -2.475  0.00  0.00     0.074 C 
ATOM     24  C   LIG d   1       2.870  -0.865  -3.299  0.00  0.00     0.074 C 
ATOM     25  O   LIG d   1       3.976  -0.140  -3.888  0.00  0.00    -0.346 OA
ATOM     26 CL   LIG d   1      12.118   4.410  -5.655  0.00  0.00    -0.121 Cl
ATOM     27  H   LIG d   1       8.107   3.237  -5.686  0.00  0.00     0.027 H 
ATOM     28  H   LIG d   1       9.469   3.964  -4.810  0.00  0.00     0.027 H 
ATOM     29  H   LIG d   1       9.345   3.108  -7.723  0.00  0.00     0.028 H 
ATOM     30  H   LIG d   1       9.598   4.736  -7.073  0.00  0.00     0.028 H 
ATOM     31  H   LIG d   1      11.986   1.579  -7.788  0.00  0.00     0.032 H 
ATOM     32  H   LIG d   1      12.470   1.843  -6.097  0.00  0.00     0.032 H 
ATOM     33  H   LIG d   1      10.640  -0.186  -7.797  0.00  0.00     0.057 H 
ATOM     34  H   LIG d   1       8.290  -0.872  -7.633  0.00  0.00     0.031 H 
ATOM     35  H   LIG d   1       8.946  -1.392  -6.060  0.00  0.00     0.031 H 
ATOM     36  H   LIG d   1       6.980   2.371  -4.367  0.00  0.00     0.027 H 
ATOM     37  H   LIG d   1       8.084   2.135  -2.999  0.00  0.00     0.027 H 
ATOM     38  H   LIG d   1       5.630   1.079  -2.992  0.00  0.00     0.027 H 
ATOM     39  H   LIG d   1       7.000   0.214  -2.266  0.00  0.00     0.027 H 
ATOM     40  H   LIG d   1       5.609  -1.011  -7.397  0.00  0.00     0.027 H 
ATOM     41  H   LIG d   1       6.710  -2.077  -6.477  0.00  0.00     0.027 H 
ATOM     42  H   LIG d   1       4.742  -2.862  -5.466  0.00  0.00     0.032 H 
ATOM     43  H   LIG d   1       3.818  -1.418  -5.971  0.00  0.00     0.032 H 
ATOM     44  H   LIG d   1       2.998  -2.888  -2.501  0.00  0.00     0.058 H 
ATOM     45  H   LIG d   1       3.717  -1.634  -1.446  0.00  0.00     0.058 H 
ATOM     46  H   LIG d   1       2.239  -1.306  -4.071  0.00  0.00     0.058 H 
ATOM     47  H   LIG d   1       2.284  -0.214  -2.650  0.00  0.00     0.058 H 
ENDROOT
BRANCH  16  48
ATOM     48  C   LIG d   1       7.336  -1.703  -3.861  0.00  0.00    -0.054 C 
ATOM     49  H   LIG d   1       8.086  -1.366  -3.146  0.00  0.00     0.024 H 
ATOM     50  H   LIG d   1       6.781  -2.540  -3.438  0.00  0.00     0.024 H 
ATOM     51  H   LIG d   1       7.828  -2.021  -4.781  0.00  0.00     0.024 H 
ENDBRANCH  16  48
BRANCH   1  52
ATOM     52  C   LIG d   1      10.666   1.991  -4.020  0.00  0.00    -0.056 C 
ATOM     53  H   LIG d   1      11.548   2.538  -4.350  0.00  0.00     0.024 H 
ATOM     54  H   LIG d   1      10.189   2.528  -3.200  0.00  0.00     0.024 H 
ATOM     55  H   LIG d   1      10.961   0.997  -3.680  0.00  0.00     0.024 H 
ENDBRANCH   1  52
TORSDOF 2
ENDMDL
MODEL 6
REMARK VINA RESULT:      -5.6      3.522      5.195
REMARK  2 active torsions:
REMARK  status: ('A' for Active; 'I' for Inactive)
REMARK    1  A    between atoms: C_1  and  C_2 
REMARK    2  A    between atoms: C_17  and  C_27 
ROOT
ATOM      1  C   LIG d   1       6.355  -0.912  -3.967  0.00  0.00    -0.008 C 
ATOM      2  C   LIG d   1       5.139  -1.273  -4.809  0.00  0.00    -0.042 C 
ATOM      3  C   LIG d   1       3.902  -0.526  -4.323  0.00  0.00    -0.036 C 
ATOM      4  C   LIG d   1       3.711  -0.612  -2.815  0.00  0.00     0.038 C 
ATOM      5  H   LIG d   1       2.791  -0.078  -2.544  0.00  0.00     0.047 H 
ATOM      6  C   LIG d   1       4.888   0.034  -2.076  0.00  0.00    -0.015 C 
ATOM      7  C   LIG d   1       5.996   0.266  -3.089  0.00  0.00    -0.066 C 
ATOM      8  C   LIG d   1       6.557   1.433  -3.166  0.00  0.00    -0.084 C 
ATOM      9  C   LIG d   1       7.579   1.802  -4.212  0.00  0.00    -0.031 C 
ATOM     10  C   LIG d   1       7.406   0.830  -5.377  0.00  0.00    -0.030 C 
ATOM     11  H   LIG d   1       6.363   0.921  -5.737  0.00  0.00     0.031 H 
ATOM     12  C   LIG d   1       7.578  -0.591  -4.810  0.00  0.00    -0.029 C 
ATOM     13  H   LIG d   1       8.440  -0.616  -4.140  0.00  0.00     0.031 H 
ATOM     14  C   LIG d   1       7.796  -1.566  -5.957  0.00  0.00    -0.049 C 
ATOM     15  C   LIG d   1       9.168  -1.327  -6.610  0.00  0.00    -0.042 C 
ATOM     16  C   LIG d   1       9.567   0.126  -6.500  0.00  0.00     0.025 C 
ATOM     17  C   LIG d   1       8.329   1.043  -6.532  0.00  0.00    -0.027 C 
ATOM     18  H   LIG d   1       7.767   0.836  -7.470  0.00  0.00     0.031 H 
ATOM     19  C   LIG d   1       8.961   2.436  -6.684  0.00  0.00    -0.044 C 
ATOM     20  C   LIG d   1      10.095   2.180  -7.717  0.00  0.00     0.002 C 
ATOM     21  C   LIG d   1      10.363   0.662  -7.701  0.00  0.00     0.176 C 
ATOM     22  O   LIG d   1      11.757   0.400  -7.539  0.00  0.00    -0.346 OA
ATOM     23  C   LIG d   1      12.264  -0.025  -8.818  0.00  0.00     0.074 C 
ATOM     24  C   LIG d   1      11.077   0.155  -9.791  0.00  0.00     0.074 C 
ATOM     25  O   LIG d   1       9.925   0.056  -8.920  0.00  0.00    -0.346 OA
ATOM     26 CL   LIG d   1       3.543  -2.335  -2.313  0.00  0.00    -0.121 Cl
ATOM     27  H   LIG d   1       5.326  -1.010  -5.853  0.00  0.00     0.027 H 
ATOM     28  H   LIG d   1       4.961  -2.349  -4.746  0.00  0.00     0.027 H 
ATOM     29  H   LIG d   1       3.983   0.525  -4.612  0.00  0.00     0.028 H 
ATOM     30  H   LIG d   1       3.021  -0.948  -4.817  0.00  0.00     0.028 H 
ATOM     31  H   LIG d   1       4.573   0.995  -1.655  0.00  0.00     0.032 H 
ATOM     32  H   LIG d   1       5.234  -0.612  -1.271  0.00  0.00     0.032 H 
ATOM     33  H   LIG d   1       6.252   2.197  -2.468  0.00  0.00     0.057 H 
ATOM     34  H   LIG d   1       7.401   2.823  -4.545  0.00  0.00     0.031 H 
ATOM     35  H   LIG d   1       8.573   1.718  -3.783  0.00  0.00     0.031 H 
ATOM     36  H   LIG d   1       7.015  -1.428  -6.710  0.00  0.00     0.027 H 
ATOM     37  H   LIG d   1       7.748  -2.594  -5.593  0.00  0.00     0.027 H 
ATOM     38  H   LIG d   1       9.120  -1.618  -7.666  0.00  0.00     0.027 H 
ATOM     39  H   LIG d   1       9.919  -1.955  -6.118  0.00  0.00     0.027 H 
ATOM     40  H   LIG d   1       8.232   3.141  -7.088  0.00  0.00     0.027 H 
ATOM     41  H   LIG d   1       9.362   2.800  -5.744  0.00  0.00     0.027 H 
ATOM     42  H   LIG d   1      10.992   2.727  -7.432  0.00  0.00     0.032 H 
ATOM     43  H   LIG d   1       9.767   2.491  -8.710  0.00  0.00     0.032 H 
ATOM     44  H   LIG d   1      13.102   0.600  -9.122  0.00  0.00     0.058 H 
ATOM     45  H   LIG d   1      12.566  -1.072  -8.779  0.00  0.00     0.058 H 
ATOM     46  H   LIG d   1      11.118   1.132 -10.272  0.00  0.00     0.058 H 
ATOM     47  H   LIG d   1      11.067  -0.640 -10.537  0.00  0.00     0.058 H 
ENDROOT
BRANCH  16  48
ATOM     48  C   LIG d   1      10.437   0.353  -5.261  0.00  0.00    -0.054 C 
ATOM     49  H   LIG d   1       9.798   0.519  -4.394  0.00  0.00     0.024 H 
ATOM     50  H   LIG d   1      11.061  -0.524  -5.091  0.00  0.00     0.024 H 
ATOM     51  H   LIG d   1      11.072   1.226  -5.418  0.00  0.00     0.024 H 
ENDBRANCH  16  48
BRANCH   1  52
ATOM     52  C   LIG d   1       6.708  -2.098  -3.062  0.00  0.00    -0.056 C 
ATOM     53  H   LIG d   1       5.792  -2.578  -2.718  0.00  0.00     0.024 H 
ATOM     54  H   LIG d   1       7.308  -2.817  -3.622  0.00  0.00     0.024 H 
ATOM     55  H   LIG d   1       7.277  -1.743  -2.202  0.00  0.00     0.024 H 
ENDBRANCH   1  52
TORSDOF 2
ENDMDL
MODEL 7
REMARK VINA RESULT:      -5.6      8.505     10.716
REMARK  2 active torsions:
REMARK  status: ('A' for Active; 'I' for Inactive)
REMARK    1  A    between atoms: C_1  and  C_2 
REMARK    2  A    between atoms: C_17  and  C_27 
ROOT
ATOM      1  C   LIG d   1      10.793   8.213  -1.556  0.00  0.00    -0.008 C 
ATOM      2  C   LIG d   1       9.477   8.422  -0.821  0.00  0.00    -0.042 C 
ATOM      3  C   LIG d   1       8.938   9.827  -1.064  0.00  0.00    -0.036 C 
ATOM      4  C   LIG d   1       9.989  10.910  -0.861  0.00  0.00     0.038 C 
ATOM      5  H   LIG d   1       9.523  11.890  -1.025  0.00  0.00     0.047 H 
ATOM      6  C   LIG d   1      11.145  10.744  -1.853  0.00  0.00    -0.015 C 
ATOM      7  C   LIG d   1      11.006   9.377  -2.499  0.00  0.00    -0.066 C 
ATOM      8  C   LIG d   1      11.057   9.272  -3.791  0.00  0.00    -0.084 C 
ATOM      9  C   LIG d   1      10.812   7.983  -4.535  0.00  0.00    -0.031 C 
ATOM     10  C   LIG d   1      10.012   7.070  -3.608  0.00  0.00    -0.030 C 
ATOM     11  H   LIG d   1       9.078   7.601  -3.339  0.00  0.00     0.031 H 
ATOM     12  C   LIG d   1      10.836   6.899  -2.320  0.00  0.00    -0.029 C 
ATOM     13  H   LIG d   1      11.882   6.716  -2.575  0.00  0.00     0.031 H 
ATOM     14  C   LIG d   1      10.292   5.720  -1.528  0.00  0.00    -0.049 C 
ATOM     15  C   LIG d   1      10.587   4.400  -2.259  0.00  0.00    -0.042 C 
ATOM     16  C   LIG d   1      10.623   4.614  -3.754  0.00  0.00     0.025 C 
ATOM     17  C   LIG d   1       9.654   5.736  -4.176  0.00  0.00    -0.027 C 
ATOM     18  H   LIG d   1       8.635   5.467  -3.819  0.00  0.00     0.031 H 
ATOM     19  C   LIG d   1       9.645   5.599  -5.707  0.00  0.00    -0.044 C 
ATOM     20  C   LIG d   1       9.605   4.056  -5.907  0.00  0.00     0.002 C 
ATOM     21  C   LIG d   1      10.088   3.434  -4.581  0.00  0.00     0.176 C 
ATOM     22  O   LIG d   1      11.120   2.478  -4.823  0.00  0.00    -0.346 OA
ATOM     23  C   LIG d   1      10.540   1.171  -4.652  0.00  0.00     0.074 C 
ATOM     24  C   LIG d   1       9.033   1.433  -4.438  0.00  0.00     0.074 C 
ATOM     25  O   LIG d   1       9.010   2.780  -3.906  0.00  0.00    -0.346 OA
ATOM     26 CL   LIG d   1      10.616  10.849   0.828  0.00  0.00    -0.121 Cl
ATOM     27  H   LIG d   1       8.742   7.694  -1.172  0.00  0.00     0.027 H 
ATOM     28  H   LIG d   1       9.633   8.274   0.250  0.00  0.00     0.027 H 
ATOM     29  H   LIG d   1       8.556   9.891  -2.087  0.00  0.00     0.028 H 
ATOM     30  H   LIG d   1       8.105  10.008  -0.378  0.00  0.00     0.028 H 
ATOM     31  H   LIG d   1      11.080  11.520  -2.624  0.00  0.00     0.032 H 
ATOM     32  H   LIG d   1      12.102  10.831  -1.341  0.00  0.00     0.032 H 
ATOM     33  H   LIG d   1      11.248  10.160  -4.371  0.00  0.00     0.057 H 
ATOM     34  H   LIG d   1      10.242   8.193  -5.439  0.00  0.00     0.031 H 
ATOM     35  H   LIG d   1      11.766   7.534  -4.791  0.00  0.00     0.031 H 
ATOM     36  H   LIG d   1       9.209   5.827  -1.409  0.00  0.00     0.027 H 
ATOM     37  H   LIG d   1      10.747   5.689  -0.536  0.00  0.00     0.027 H 
ATOM     38  H   LIG d   1       9.810   3.668  -2.010  0.00  0.00     0.027 H 
ATOM     39  H   LIG d   1      11.550   4.004  -1.919  0.00  0.00     0.027 H 
ATOM     40  H   LIG d   1       8.748   6.058  -6.125  0.00  0.00     0.027 H 
ATOM     41  H   LIG d   1      10.535   6.028  -6.155  0.00  0.00     0.027 H 
ATOM     42  H   LIG d   1      10.263   3.767  -6.724  0.00  0.00     0.032 H 
ATOM     43  H   LIG d   1       8.584   3.739  -6.119  0.00  0.00     0.032 H 
ATOM     44  H   LIG d   1      10.697   0.565  -5.544  0.00  0.00     0.058 H 
ATOM     45  H   LIG d   1      10.966   0.677  -3.779  0.00  0.00     0.058 H 
ATOM     46  H   LIG d   1       8.494   1.379  -5.383  0.00  0.00     0.058 H 
ATOM     47  H   LIG d   1       8.618   0.727  -3.719  0.00  0.00     0.058 H 
ENDROOT
BRANCH  16  48
ATOM     48  C   LIG d   1      12.057   4.866  -4.228  0.00  0.00    -0.054 C 
ATOM     49  H   LIG d   1      12.062   5.673  -4.960  0.00  0.00     0.024 H 
ATOM     50  H   LIG d   1      12.677   5.143  -3.376  0.00  0.00     0.024 H 
ATOM     51  H   LIG d   1      12.453   3.958  -4.685  0.00  0.00     0.024 H 
ENDBRANCH  16  48
BRANCH   1  52
ATOM     52  C   LIG d   1      11.940   8.201  -0.538  0.00  0.00    -0.056 C 
ATOM     53  H   LIG d   1      11.615   7.692   0.369  0.00  0.00     0.024 H 
ATOM     54  H   LIG d   1      12.797   7.676  -0.962  0.00  0.00     0.024 H 
ATOM     55  H   LIG d   1      12.223   9.226  -0.299  0.00  0.00     0.024 H 
ENDBRANCH   1  52
TORSDOF 2
ENDMDL
MODEL 8
REMARK VINA RESULT:      -5.6      2.808      3.649
REMARK  2 active torsions:
REMARK  status: ('A' for Active; 'I' for Inactive)
REMARK    1  A    between atoms: C_1  and  C_2 
REMARK    2  A    between atoms: C_17  and  C_27 
ROOT
ATOM      1  C   LIG d   1       5.034  -0.824  -4.741  0.00  0.00    -0.008 C 
ATOM      2  C   LIG d   1       4.689  -1.817  -3.642  0.00  0.00    -0.042 C 
ATOM      3  C   LIG d   1       3.340  -1.485  -3.015  0.00  0.00    -0.036 C 
ATOM      4  C   LIG d   1       3.203  -0.015  -2.644  0.00  0.00     0.038 C 
ATOM      5  H   LIG d   1       2.223   0.142  -2.175  0.00  0.00     0.047 H 
ATOM      6  C   LIG d   1       3.299   0.874  -3.888  0.00  0.00    -0.015 C 
ATOM      7  C   LIG d   1       3.808   0.015  -5.032  0.00  0.00    -0.066 C 
ATOM      8  C   LIG d   1       3.180   0.022  -6.166  0.00  0.00    -0.084 C 
ATOM      9  C   LIG d   1       3.530  -0.881  -7.322  0.00  0.00    -0.031 C 
ATOM     10  C   LIG d   1       4.301  -2.069  -6.751  0.00  0.00    -0.030 C 
ATOM     11  H   LIG d   1       3.653  -2.558  -5.998  0.00  0.00     0.031 H 
ATOM     12  C   LIG d   1       5.525  -1.500  -6.011  0.00  0.00    -0.029 C 
ATOM     13  H   LIG d   1       5.995  -0.725  -6.621  0.00  0.00     0.031 H 
ATOM     14  C   LIG d   1       6.522  -2.620  -5.754  0.00  0.00    -0.049 C 
ATOM     15  C   LIG d   1       7.153  -3.090  -7.075  0.00  0.00    -0.042 C 
ATOM     16  C   LIG d   1       6.185  -2.914  -8.222  0.00  0.00     0.025 C 
ATOM     17  C   LIG d   1       4.729  -3.094  -7.749  0.00  0.00    -0.027 C 
ATOM     18  H   LIG d   1       4.638  -4.098  -7.278  0.00  0.00     0.031 H 
ATOM     19  C   LIG d   1       3.961  -3.149  -9.079  0.00  0.00    -0.044 C 
ATOM     20  C   LIG d   1       4.885  -4.032  -9.966  0.00  0.00     0.002 C 
ATOM     21  C   LIG d   1       6.280  -3.998  -9.309  0.00  0.00     0.176 C 
ATOM     22  O   LIG d   1       7.279  -3.662 -10.270  0.00  0.00    -0.346 OA
ATOM     23  C   LIG d   1       8.000  -4.871 -10.578  0.00  0.00     0.074 C 
ATOM     24  C   LIG d   1       7.237  -5.986  -9.827  0.00  0.00     0.074 C 
ATOM     25  O   LIG d   1       6.603  -5.270  -8.740  0.00  0.00    -0.346 OA
ATOM     26 CL   LIG d   1       4.484   0.443  -1.461  0.00  0.00    -0.121 Cl
ATOM     27  H   LIG d   1       4.649  -2.826  -4.060  0.00  0.00     0.027 H 
ATOM     28  H   LIG d   1       5.463  -1.789  -2.871  0.00  0.00     0.027 H 
ATOM     29  H   LIG d   1       2.545  -1.750  -3.717  0.00  0.00     0.028 H 
ATOM     30  H   LIG d   1       3.213  -2.092  -2.113  0.00  0.00     0.028 H 
ATOM     31  H   LIG d   1       2.306   1.263  -4.138  0.00  0.00     0.032 H 
ATOM     32  H   LIG d   1       3.973   1.710  -3.707  0.00  0.00     0.032 H 
ATOM     33  H   LIG d   1       2.336   0.683  -6.280  0.00  0.00     0.057 H 
ATOM     34  H   LIG d   1       2.614  -1.223  -7.802  0.00  0.00     0.031 H 
ATOM     35  H   LIG d   1       4.139  -0.329  -8.031  0.00  0.00     0.031 H 
ATOM     36  H   LIG d   1       6.010  -3.465  -5.283  0.00  0.00     0.027 H 
ATOM     37  H   LIG d   1       7.311  -2.276  -5.083  0.00  0.00     0.027 H 
ATOM     38  H   LIG d   1       7.432  -4.147  -6.986  0.00  0.00     0.027 H 
ATOM     39  H   LIG d   1       8.064  -2.513  -7.268  0.00  0.00     0.027 H 
ATOM     40  H   LIG d   1       2.994  -3.635  -8.940  0.00  0.00     0.027 H 
ATOM     41  H   LIG d   1       3.831  -2.162  -9.510  0.00  0.00     0.027 H 
ATOM     42  H   LIG d   1       4.932  -3.628 -10.976  0.00  0.00     0.032 H 
ATOM     43  H   LIG d   1       4.508  -5.055  -9.989  0.00  0.00     0.032 H 
ATOM     44  H   LIG d   1       7.987  -5.058 -11.650  0.00  0.00     0.058 H 
ATOM     45  H   LIG d   1       9.026  -4.805 -10.216  0.00  0.00     0.058 H 
ATOM     46  H   LIG d   1       6.493  -6.447 -10.475  0.00  0.00     0.058 H 
ATOM     47  H   LIG d   1       7.930  -6.734  -9.444  0.00  0.00     0.058 H 
ENDROOT
BRANCH  16  48
ATOM     48  C   LIG d   1       6.416  -1.572  -8.921  0.00  0.00    -0.054 C 
ATOM     49  H   LIG d   1       5.488  -1.239  -9.384  0.00  0.00     0.024 H 
ATOM     50  H   LIG d   1       6.742  -0.834  -8.189  0.00  0.00     0.024 H 
ATOM     51  H   LIG d   1       7.184  -1.689  -9.686  0.00  0.00     0.024 H 
ENDBRANCH  16  48
BRANCH   1  52
ATOM     52  C   LIG d   1       6.148   0.106  -4.245  0.00  0.00    -0.056 C 
ATOM     53  H   LIG d   1       5.739   0.808  -3.519  0.00  0.00     0.024 H 
ATOM     54  H   LIG d   1       6.934  -0.486  -3.777  0.00  0.00     0.024 H 
ATOM     55  H   LIG d   1       6.563   0.659  -5.089  0.00  0.00     0.024 H 
ENDBRANCH   1  52
TORSDOF 2
ENDMDL
MODEL 9
REMARK VINA RESULT:      -5.6      7.901     10.857
REMARK  2 active torsions:
REMARK  status: ('A' for Active; 'I' for Inactive)
REMARK    1  A    between atoms: C_1  and  C_2 
REMARK    2  A    between atoms: C_17  and  C_27 
ROOT
ATOM      1  C   LIG d   1       9.834   3.371  -4.945  0.00  0.00    -0.008 C 
ATOM      2  C   LIG d   1       8.369   2.971  -4.855  0.00  0.00    -0.042 C 
ATOM      3  C   LIG d   1       8.230   1.490  -4.522  0.00  0.00    -0.036 C 
ATOM      4  C   LIG d   1       9.106   0.601  -5.394  0.00  0.00     0.038 C 
ATOM      5  H   LIG d   1       8.932  -0.447  -5.117  0.00  0.00     0.047 H 
ATOM      6  C   LIG d   1      10.589   0.923  -5.188  0.00  0.00    -0.015 C 
ATOM      7  C   LIG d   1      10.676   2.229  -4.418  0.00  0.00    -0.066 C 
ATOM      8  C   LIG d   1      11.428   2.301  -3.364  0.00  0.00    -0.084 C 
ATOM      9  C   LIG d   1      11.492   3.509  -2.463  0.00  0.00    -0.031 C 
ATOM     10  C   LIG d   1      10.208   4.307  -2.684  0.00  0.00    -0.030 C 
ATOM     11  H   LIG d   1       9.355   3.638  -2.456  0.00  0.00     0.031 H 
ATOM     12  C   LIG d   1      10.141   4.649  -4.183  0.00  0.00    -0.029 C 
ATOM     13  H   LIG d   1      11.121   4.993  -4.524  0.00  0.00     0.031 H 
ATOM     14  C   LIG d   1       9.112   5.747  -4.402  0.00  0.00    -0.049 C 
ATOM     15  C   LIG d   1       9.607   7.075  -3.805  0.00  0.00    -0.042 C 
ATOM     16  C   LIG d   1      10.500   6.824  -2.612  0.00  0.00     0.025 C 
ATOM     17  C   LIG d   1      10.075   5.546  -1.862  0.00  0.00    -0.027 C 
ATOM     18  H   LIG d   1       9.008   5.656  -1.567  0.00  0.00     0.031 H 
ATOM     19  C   LIG d   1      10.910   5.633  -0.574  0.00  0.00    -0.044 C 
ATOM     20  C   LIG d   1      10.805   7.142  -0.206  0.00  0.00     0.002 C 
ATOM     21  C   LIG d   1      10.384   7.875  -1.496  0.00  0.00     0.176 C 
ATOM     22  O   LIG d   1      11.252   8.979  -1.751  0.00  0.00    -0.346 OA
ATOM     23  C   LIG d   1      10.526  10.178  -1.421  0.00  0.00     0.074 C 
ATOM     24  C   LIG d   1       9.202   9.679  -0.802  0.00  0.00     0.074 C 
ATOM     25  O   LIG d   1       9.045   8.364  -1.387  0.00  0.00    -0.346 OA
ATOM     26 CL   LIG d   1       8.666   0.815  -7.129  0.00  0.00    -0.121 Cl
ATOM     27  H   LIG d   1       7.876   3.559  -4.077  0.00  0.00     0.027 H 
ATOM     28  H   LIG d   1       7.878   3.175  -5.810  0.00  0.00     0.027 H 
ATOM     29  H   LIG d   1       8.497   1.333  -3.473  0.00  0.00     0.028 H 
ATOM     30  H   LIG d   1       7.184   1.197  -4.654  0.00  0.00     0.028 H 
ATOM     31  H   LIG d   1      11.060   0.124  -4.605  0.00  0.00     0.032 H 
ATOM     32  H   LIG d   1      11.097   1.010  -6.147  0.00  0.00     0.032 H 
ATOM     33  H   LIG d   1      12.015   1.438  -3.093  0.00  0.00     0.057 H 
ATOM     34  H   LIG d   1      11.557   3.181  -1.427  0.00  0.00     0.031 H 
ATOM     35  H   LIG d   1      12.364   4.100  -2.723  0.00  0.00     0.031 H 
ATOM     36  H   LIG d   1       8.170   5.468  -3.918  0.00  0.00     0.027 H 
ATOM     37  H   LIG d   1       8.925   5.883  -5.469  0.00  0.00     0.027 H 
ATOM     38  H   LIG d   1       8.744   7.677  -3.499  0.00  0.00     0.027 H 
ATOM     39  H   LIG d   1      10.159   7.634  -4.569  0.00  0.00     0.027 H 
ATOM     40  H   LIG d   1      10.462   5.021   0.210  0.00  0.00     0.027 H 
ATOM     41  H   LIG d   1      11.941   5.342  -0.743  0.00  0.00     0.027 H 
ATOM     42  H   LIG d   1      11.769   7.510   0.142  0.00  0.00     0.032 H 
ATOM     43  H   LIG d   1      10.049   7.281   0.567  0.00  0.00     0.032 H 
ATOM     44  H   LIG d   1      11.083  10.773  -0.699  0.00  0.00     0.058 H 
ATOM     45  H   LIG d   1      10.328  10.762  -2.321  0.00  0.00     0.058 H 
ATOM     46  H   LIG d   1       9.284   9.615   0.283  0.00  0.00     0.058 H 
ATOM     47  H   LIG d   1       8.375  10.329  -1.087  0.00  0.00     0.058 H 
ENDROOT
BRANCH  16  48
ATOM     48  C   LIG d   1      11.970   6.796  -3.036  0.00  0.00    -0.054 C 
ATOM     49  H   LIG d   1      12.282   7.797  -3.334  0.00  0.00     0.024 H 
ATOM     50  H   LIG d   1      12.583   6.459  -2.200  0.00  0.00     0.024 H 
ATOM     51  H   LIG d   1      12.094   6.112  -3.876  0.00  0.00     0.024 H 
ENDBRANCH  16  48
BRANCH   1  52
ATOM     52  C   LIG d   1      10.202   3.601  -6.415  0.00  0.00    -0.056 C 
ATOM     53  H   LIG d   1      11.245   3.911  -6.485  0.00  0.00     0.024 H 
ATOM     54  H   LIG d   1      10.059   2.677  -6.976  0.00  0.00     0.024 H 
ATOM     55  H   LIG d   1       9.563   4.381  -6.832  0.00  0.00     0.024 H 
ENDBRANCH   1  52
TORSDOF 2
ENDMDL
MODEL 10
REMARK VINA RESULT:      -5.5      3.652      5.511
REMARK  2 active torsions:
REMARK  status: ('A' for Active; 'I' for Inactive)
REMARK    1  A    between atoms: C_1  and  C_2 
REMARK    2  A    between atoms: C_17  and  C_27 
ROOT
ATOM      1  C   LIG d   1       3.635  -1.831  -9.095  0.00  0.00    -0.008 C 
ATOM      2  C   LIG d   1       4.420  -1.373 -10.315  0.00  0.00    -0.042 C 
ATOM      3  C   LIG d   1       3.770  -0.149 -10.951  0.00  0.00    -0.036 C 
ATOM      4  C   LIG d   1       2.270  -0.312 -11.153  0.00  0.00     0.038 C 
ATOM      5  H   LIG d   1       1.878   0.592 -11.638  0.00  0.00     0.047 H 
ATOM      6  C   LIG d   1       1.554  -0.498  -9.812  0.00  0.00    -0.015 C 
ATOM      7  C   LIG d   1       2.612  -0.768  -8.757  0.00  0.00    -0.066 C 
ATOM      8  C   LIG d   1       2.605  -0.085  -7.654  0.00  0.00    -0.084 C 
ATOM      9  C   LIG d   1       3.676  -0.191  -6.598  0.00  0.00    -0.031 C 
ATOM     10  C   LIG d   1       4.923  -0.760  -7.273  0.00  0.00    -0.030 C 
ATOM     11  H   LIG d   1       5.195  -0.078  -8.102  0.00  0.00     0.031 H 
ATOM     12  C   LIG d   1       4.524  -2.110  -7.895  0.00  0.00    -0.029 C 
ATOM     13  H   LIG d   1       3.924  -2.679  -7.182  0.00  0.00     0.031 H 
ATOM     14  C   LIG d   1       5.781  -2.894  -8.242  0.00  0.00    -0.049 C 
ATOM     15  C   LIG d   1       6.502  -3.346  -6.961  0.00  0.00    -0.042 C 
ATOM     16  C   LIG d   1       6.266  -2.361  -5.839  0.00  0.00     0.025 C 
ATOM     17  C   LIG d   1       6.111  -0.928  -6.385  0.00  0.00    -0.027 C 
ATOM     18  H   LIG d   1       7.024  -0.679  -6.972  0.00  0.00     0.031 H 
ATOM     19  C   LIG d   1       6.159  -0.085  -5.101  0.00  0.00    -0.044 C 
ATOM     20  C   LIG d   1       7.293  -0.774  -4.287  0.00  0.00     0.002 C 
ATOM     21  C   LIG d   1       7.458  -2.187  -4.883  0.00  0.00     0.176 C 
ATOM     22  O   LIG d   1       7.425  -3.173  -3.852  0.00  0.00    -0.346 OA
ATOM     23  C   LIG d   1       8.775  -3.635  -3.659  0.00  0.00     0.074 C 
ATOM     24  C   LIG d   1       9.636  -2.724  -4.562  0.00  0.00     0.074 C 
ATOM     25  O   LIG d   1       8.700  -2.300  -5.582  0.00  0.00    -0.346 OA
ATOM     26 CL   LIG d   1       1.943  -1.723 -12.225  0.00  0.00    -0.121 Cl
ATOM     27  H   LIG d   1       5.441  -1.120 -10.019  0.00  0.00     0.027 H 
ATOM     28  H   LIG d   1       4.460  -2.183 -11.047  0.00  0.00     0.027 H 
ATOM     29  H   LIG d   1       3.951   0.722 -10.315  0.00  0.00     0.028 H 
ATOM     30  H   LIG d   1       4.242   0.035 -11.921  0.00  0.00     0.028 H 
ATOM     31  H   LIG d   1       1.010   0.418  -9.557  0.00  0.00     0.032 H 
ATOM     32  H   LIG d   1       0.849  -1.326  -9.868  0.00  0.00     0.032 H 
ATOM     33  H   LIG d   1       1.810   0.626  -7.496  0.00  0.00     0.057 H 
ATOM     34  H   LIG d   1       3.885   0.799  -6.197  0.00  0.00     0.031 H 
ATOM     35  H   LIG d   1       3.331  -0.849  -5.807  0.00  0.00     0.031 H 
ATOM     36  H   LIG d   1       6.457  -2.263  -8.827  0.00  0.00     0.027 H 
ATOM     37  H   LIG d   1       5.526  -3.772  -8.837  0.00  0.00     0.027 H 
ATOM     38  H   LIG d   1       7.577  -3.427  -7.161  0.00  0.00     0.027 H 
ATOM     39  H   LIG d   1       6.135  -4.336  -6.667  0.00  0.00     0.027 H 
ATOM     40  H   LIG d   1       6.433   0.946  -5.333  0.00  0.00     0.027 H 
ATOM     41  H   LIG d   1       5.217  -0.116  -4.564  0.00  0.00     0.027 H 
ATOM     42  H   LIG d   1       7.016  -0.835  -3.236  0.00  0.00     0.032 H 
ATOM     43  H   LIG d   1       8.220  -0.211  -4.398  0.00  0.00     0.032 H 
ATOM     44  H   LIG d   1       9.070  -3.523  -2.616  0.00  0.00     0.058 H 
ATOM     45  H   LIG d   1       8.869  -4.675  -3.970  0.00  0.00     0.058 H 
ATOM     46  H   LIG d   1      10.012  -1.869  -4.001  0.00  0.00     0.058 H 
ATOM     47  H   LIG d   1      10.459  -3.286  -5.003  0.00  0.00     0.058 H 
ENDROOT
BRANCH  16  48
ATOM     48  C   LIG d   1       5.076  -2.797  -4.981  0.00  0.00    -0.054 C 
ATOM     49  H   LIG d   1       5.277  -2.562  -3.936  0.00  0.00     0.024 H 
ATOM     50  H   LIG d   1       4.181  -2.267  -5.307  0.00  0.00     0.024 H 
ATOM     51  H   LIG d   1       4.923  -3.871  -5.090  0.00  0.00     0.024 H 
ENDBRANCH  16  48
BRANCH   1  52
ATOM     52  C   LIG d   1       2.889  -3.126  -9.437  0.00  0.00    -0.056 C 
ATOM     53  H   LIG d   1       3.603  -3.944  -9.528  0.00  0.00     0.024 H 
ATOM     54  H   LIG d   1       2.174  -3.354  -8.646  0.00  0.00     0.024 H 
ATOM     55  H   LIG d   1       2.357  -3.001 -10.381  0.00  0.00     0.024 H 
ENDBRANCH   1  52
TORSDOF 2
ENDMDL
