MODEL 1
REMARK VINA RESULT:      -8.1      0.000      0.000
REMARK  8 active torsions:
REMARK  status: ('A' for Active; 'I' for Inactive)
REMARK    1  A    between atoms: C_4  and  N_7 
REMARK    2  A    between atoms: N_10  and  C_13 
REMARK    3  A    between atoms: C_13  and  C_14 
REMARK    4  A    between atoms: C_16  and  C_19 
REMARK    5  A    between atoms: C_19  and  C_20 
REMARK    6  A    between atoms: C_26  and  C_28 
REMARK    7  A    between atoms: C_28  and  C_29 
REMARK       I    between atoms: C_29  and  N_31 
REMARK    8  A    between atoms: C_34  and  C_37 
REMARK       I    between atoms: C_37  and  N_39 
ROOT
ATOM      1  C   LIG d   1       9.467   2.453  -5.911  0.00  0.00     0.008 C 
ATOM      2  H   LIG d   1       8.685   1.694  -5.860  0.00  0.00     0.036 H 
ATOM      3  C   LIG d   1      10.821   1.813  -5.600  0.00  0.00    -0.030 C 
ATOM      4  N   LIG d   1      10.794   1.232  -4.251  0.00  0.00     0.227 N 
ATOM      5  C   LIG d   1      10.591   2.292  -3.256  0.00  0.00    -0.033 C 
ATOM      6  C   LIG d   1       9.226   2.949  -3.477  0.00  0.00    -0.009 C 
ATOM      7  C   LIG d   1       9.179   3.552  -4.885  0.00  0.00    -0.020 C 
ATOM      8  H   LIG d   1       8.189   3.972  -5.068  0.00  0.00     0.031 H 
ATOM      9  H   LIG d   1      11.029   1.030  -6.328  0.00  0.00     0.082 H 
ATOM     10  H   LIG d   1      11.602   2.572  -5.651  0.00  0.00     0.082 H 
ATOM     11  H   LIG d   1      10.040   0.563  -4.190  0.00  0.00     0.201 HD
ATOM     12  H   LIG d   1      10.628   1.860  -2.256  0.00  0.00     0.081 H 
ATOM     13  H   LIG d   1      11.376   3.040  -3.358  0.00  0.00     0.081 H 
ATOM     14  H   LIG d   1       8.441   2.201  -3.376  0.00  0.00     0.032 H 
ATOM     15  H   LIG d   1       9.079   3.737  -2.739  0.00  0.00     0.032 H 
ATOM     16  H   LIG d   1      11.670   0.764  -4.071  0.00  0.00     0.201 HD
ENDROOT
BRANCH   1  17
ATOM     17  C   LIG d   1       9.498   3.059  -7.315  0.00  0.00     0.001 C 
ATOM     18  H   LIG d   1      10.494   2.938  -7.740  0.00  0.00     0.033 H 
ATOM     19  H   LIG d   1       9.254   4.120  -7.258  0.00  0.00     0.033 H 
BRANCH  17  20
ATOM     20  C   LIG d   1       8.491   2.357  -8.188  0.00  0.00     0.084 A 
ATOM     21  C   LIG d   1       8.225   0.976  -8.192  0.00  0.00     0.005 A 
ATOM     22  C   LIG d   1       7.263   0.738  -9.106  0.00  0.00     0.151 A 
ATOM     23  H   LIG d   1       8.705   0.235  -7.571  0.00  0.00     0.067 H 
ATOM     24  O   LIG d   1       6.929   1.908  -9.671  0.00  0.00    -0.358 OA
ATOM     25  N   LIG d   1       7.716   2.921  -9.069  0.00  0.00    -0.083 NA
BRANCH  22  26
ATOM     26  C   LIG d   1       6.673  -0.607  -9.442  0.00  0.00     0.060 C 
ATOM     27  H   LIG d   1       7.477  -1.328  -9.597  0.00  0.00     0.051 H 
ATOM     28  H   LIG d   1       6.078  -0.527 -10.351  0.00  0.00     0.051 H 
BRANCH  26  29
ATOM     29  N   LIG d   1       5.819  -1.057  -8.335  0.00  0.00    -0.292 N 
ATOM     30  C   LIG d   1       6.605  -1.774  -7.321  0.00  0.00     0.015 C 
ATOM     31  C   LIG d   1       5.658  -2.382  -6.281  0.00  0.00     0.025 C 
ATOM     32  H   LIG d   1       7.287  -1.079  -6.831  0.00  0.00     0.044 H 
ATOM     33  H   LIG d   1       7.177  -2.568  -7.800  0.00  0.00     0.044 H 
ATOM     34  N   LIG d   1       4.793  -1.313  -5.757  0.00  0.00    -0.328 N 
ATOM     35  H   LIG d   1       6.238  -2.815  -5.466  0.00  0.00     0.048 H 
ATOM     36  H   LIG d   1       5.045  -3.151  -6.749  0.00  0.00     0.048 H 
ATOM     37  C   LIG d   1       4.074  -0.465  -6.719  0.00  0.00     0.025 C 
ATOM     38  C   LIG d   1       5.088   0.071  -7.743  0.00  0.00     0.015 C 
ATOM     39  H   LIG d   1       3.311  -1.055  -7.228  0.00  0.00     0.048 H 
ATOM     40  H   LIG d   1       3.606   0.369  -6.195  0.00  0.00     0.048 H 
ATOM     41  H   LIG d   1       5.791   0.740  -7.246  0.00  0.00     0.044 H 
ATOM     42  H   LIG d   1       4.559   0.613  -8.526  0.00  0.00     0.044 H 
BRANCH  34  43
ATOM     43  C   LIG d   1       4.655  -1.113  -4.381  0.00  0.00     0.030 A 
ATOM     44  C   LIG d   1       4.151  -2.127  -3.576  0.00  0.00    -0.041 A 
ATOM     45  C   LIG d   1       4.017  -1.925  -2.217  0.00  0.00    -0.060 A 
ATOM     46  H   LIG d   1       3.863  -3.071  -4.013  0.00  0.00     0.064 H 
ATOM     47  C   LIG d   1       4.385  -0.715  -1.656  0.00  0.00    -0.062 A 
ATOM     48  H   LIG d   1       3.625  -2.713  -1.591  0.00  0.00     0.062 H 
ATOM     49  C   LIG d   1       4.888   0.296  -2.455  0.00  0.00    -0.060 A 
ATOM     50  H   LIG d   1       4.275  -0.559  -0.593  0.00  0.00     0.062 H 
ATOM     51  C   LIG d   1       5.024   0.101  -3.814  0.00  0.00    -0.041 A 
ATOM     52  H   LIG d   1       5.175   1.239  -2.012  0.00  0.00     0.062 H 
ATOM     53  H   LIG d   1       5.418   0.890  -4.438  0.00  0.00     0.064 H 
ENDBRANCH  34  43
ENDBRANCH  26  29
ENDBRANCH  22  26
ENDBRANCH  17  20
ENDBRANCH   1  17
BRANCH   7  54
ATOM     54  C   LIG d   1      10.234   4.653  -5.005  0.00  0.00     0.028 C 
ATOM     55  H   LIG d   1      11.170   4.309  -4.565  0.00  0.00     0.036 H 
ATOM     56  H   LIG d   1      10.392   4.892  -6.056  0.00  0.00     0.036 H 
BRANCH  54  57
ATOM     57  C   LIG d   1       9.759   5.884  -4.277  0.00  0.00     0.216 C 
ATOM     58  O   LIG d   1       8.747   6.448  -4.633  0.00  0.00    -0.276 OA
ATOM     59  N   LIG d   1      10.461   6.359  -3.228  0.00  0.00    -0.301 N 
ATOM     60  C   LIG d   1      10.012   7.558  -2.507  0.00  0.00     0.015 C 
ATOM     61  C   LIG d   1      11.693   5.691  -2.787  0.00  0.00     0.015 C 
ATOM     62  C   LIG d   1       9.911   7.221  -1.012  0.00  0.00    -0.026 C 
ATOM     63  H   LIG d   1      10.730   8.364  -2.656  0.00  0.00     0.046 H 
ATOM     64  H   LIG d   1       9.034   7.864  -2.881  0.00  0.00     0.046 H 
ATOM     65  C   LIG d   1      11.252   6.664  -0.529  0.00  0.00     0.038 C 
ATOM     66  H   LIG d   1       9.131   6.476  -0.856  0.00  0.00     0.029 H 
ATOM     67  H   LIG d   1       9.669   8.124  -0.452  0.00  0.00     0.029 H 
ATOM     68  C   LIG d   1      11.577   5.377  -1.292  0.00  0.00    -0.026 C 
ATOM     69  H   LIG d   1      12.037   7.400  -0.708  0.00  0.00     0.040 H 
ATOM     70  H   LIG d   1      10.781   4.649  -1.134  0.00  0.00     0.029 H 
ATOM     71  H   LIG d   1      12.520   4.968  -0.932  0.00  0.00     0.029 H 
ATOM     72  H   LIG d   1      11.826   4.763  -3.345  0.00  0.00     0.046 H 
ATOM     73  H   LIG d   1      12.546   6.347  -2.958  0.00  0.00     0.046 H 
BRANCH  65  74
ATOM     74  C   LIG d   1      11.170   6.366   0.945  0.00  0.00     0.214 C 
ATOM     75  O   LIG d   1      11.429   7.233   1.754  0.00  0.00    -0.276 OA
ATOM     76  N   LIG d   1      10.809   5.138   1.366  0.00  0.00    -0.329 N 
ATOM     77  H   LIG d   1      10.601   4.445   0.719  0.00  0.00     0.145 HD
ATOM     78  H   LIG d   1      10.757   4.946   2.316  0.00  0.00     0.145 HD
ENDBRANCH  65  74
ENDBRANCH  54  57
ENDBRANCH   7  54
TORSDOF 8
ENDMDL
MODEL 2
REMARK VINA RESULT:      -7.6      3.470      6.158
REMARK  8 active torsions:
REMARK  status: ('A' for Active; 'I' for Inactive)
REMARK    1  A    between atoms: C_4  and  N_7 
REMARK    2  A    between atoms: N_10  and  C_13 
REMARK    3  A    between atoms: C_13  and  C_14 
REMARK    4  A    between atoms: C_16  and  C_19 
REMARK    5  A    between atoms: C_19  and  C_20 
REMARK    6  A    between atoms: C_26  and  C_28 
REMARK    7  A    between atoms: C_28  and  C_29 
REMARK       I    between atoms: C_29  and  N_31 
REMARK    8  A    between atoms: C_34  and  C_37 
REMARK       I    between atoms: C_37  and  N_39 
ROOT
ATOM      1  C   LIG d   1       9.175   2.773  -3.496  0.00  0.00     0.008 C 
ATOM      2  H   LIG d   1       8.415   3.066  -2.770  0.00  0.00     0.036 H 
ATOM      3  C   LIG d   1      10.552   2.797  -2.830  0.00  0.00    -0.030 C 
ATOM      4  N   LIG d   1      10.841   4.152  -2.342  0.00  0.00     0.227 N 
ATOM      5  C   LIG d   1      10.904   5.085  -3.474  0.00  0.00    -0.033 C 
ATOM      6  C   LIG d   1       9.539   5.150  -4.163  0.00  0.00    -0.009 C 
ATOM      7  C   LIG d   1       9.164   3.754  -4.671  0.00  0.00    -0.020 C 
ATOM      8  H   LIG d   1       8.167   3.783  -5.113  0.00  0.00     0.031 H 
ATOM      9  H   LIG d   1      10.563   2.100  -1.992  0.00  0.00     0.082 H 
ATOM     10  H   LIG d   1      11.311   2.504  -3.556  0.00  0.00     0.082 H 
ATOM     11  H   LIG d   1      10.112   4.442  -1.707  0.00  0.00     0.201 HD
ATOM     12  H   LIG d   1      11.174   6.077  -3.110  0.00  0.00     0.081 H 
ATOM     13  H   LIG d   1      11.655   4.743  -4.185  0.00  0.00     0.081 H 
ATOM     14  H   LIG d   1       8.788   5.492  -3.452  0.00  0.00     0.032 H 
ATOM     15  H   LIG d   1       9.589   5.842  -5.004  0.00  0.00     0.032 H 
ATOM     16  H   LIG d   1      11.726   4.152  -1.857  0.00  0.00     0.201 HD
ENDROOT
BRANCH   1  17
ATOM     17  C   LIG d   1       8.877   1.361  -4.005  0.00  0.00     0.001 C 
ATOM     18  H   LIG d   1       9.417   0.636  -3.397  0.00  0.00     0.033 H 
ATOM     19  H   LIG d   1       9.196   1.275  -5.043  0.00  0.00     0.033 H 
BRANCH  17  20
ATOM     20  C   LIG d   1       7.397   1.094  -3.908  0.00  0.00     0.084 A 
ATOM     21  C   LIG d   1       6.701   0.065  -4.566  0.00  0.00     0.005 A 
ATOM     22  C   LIG d   1       5.400   0.156  -4.226  0.00  0.00     0.151 A 
ATOM     23  H   LIG d   1       7.132  -0.671  -5.227  0.00  0.00     0.067 H 
ATOM     24  O   LIG d   1       5.261   1.199  -3.394  0.00  0.00    -0.358 OA
ATOM     25  N   LIG d   1       6.541   1.775  -3.202  0.00  0.00    -0.083 NA
BRANCH  22  26
ATOM     26  C   LIG d   1       4.294  -0.749  -4.704  0.00  0.00     0.060 C 
ATOM     27  H   LIG d   1       3.356  -0.459  -4.228  0.00  0.00     0.051 H 
ATOM     28  H   LIG d   1       4.529  -1.780  -4.444  0.00  0.00     0.051 H 
BRANCH  26  29
ATOM     29  N   LIG d   1       4.159  -0.629  -6.162  0.00  0.00    -0.292 N 
ATOM     30  C   LIG d   1       4.397  -1.921  -6.821  0.00  0.00     0.015 C 
ATOM     31  C   LIG d   1       4.428  -1.718  -8.339  0.00  0.00     0.025 C 
ATOM     32  H   LIG d   1       3.596  -2.613  -6.562  0.00  0.00     0.044 H 
ATOM     33  H   LIG d   1       5.352  -2.327  -6.489  0.00  0.00     0.044 H 
ATOM     34  N   LIG d   1       3.192  -1.031  -8.744  0.00  0.00    -0.328 N 
ATOM     35  H   LIG d   1       4.489  -2.685  -8.837  0.00  0.00     0.048 H 
ATOM     36  H   LIG d   1       5.290  -1.108  -8.610  0.00  0.00     0.048 H 
ATOM     37  C   LIG d   1       2.817   0.204  -8.036  0.00  0.00     0.025 C 
ATOM     38  C   LIG d   1       2.847  -0.078  -6.526  0.00  0.00     0.015 C 
ATOM     39  H   LIG d   1       3.528   0.994  -8.279  0.00  0.00     0.048 H 
ATOM     40  H   LIG d   1       1.813   0.506  -8.335  0.00  0.00     0.048 H 
ATOM     41  H   LIG d   1       2.067  -0.797  -6.272  0.00  0.00     0.044 H 
ATOM     42  H   LIG d   1       2.678   0.850  -5.981  0.00  0.00     0.044 H 
BRANCH  34  43
ATOM     43  C   LIG d   1       2.396  -1.535  -9.776  0.00  0.00     0.030 A 
ATOM     44  C   LIG d   1       2.168  -2.902  -9.875  0.00  0.00    -0.041 A 
ATOM     45  C   LIG d   1       1.381  -3.397 -10.896  0.00  0.00    -0.060 A 
ATOM     46  H   LIG d   1       2.607  -3.577  -9.156  0.00  0.00     0.064 H 
ATOM     47  C   LIG d   1       0.818  -2.533 -11.819  0.00  0.00    -0.062 A 
ATOM     48  H   LIG d   1       1.204  -4.459 -10.973  0.00  0.00     0.062 H 
ATOM     49  C   LIG d   1       1.043  -1.172 -11.721  0.00  0.00    -0.060 A 
ATOM     50  H   LIG d   1       0.206  -2.923 -12.618  0.00  0.00     0.062 H 
ATOM     51  C   LIG d   1       1.829  -0.671 -10.704  0.00  0.00    -0.041 A 
ATOM     52  H   LIG d   1       0.601  -0.501 -12.444  0.00  0.00     0.062 H 
ATOM     53  H   LIG d   1       2.004   0.393 -10.628  0.00  0.00     0.064 H 
ENDBRANCH  34  43
ENDBRANCH  26  29
ENDBRANCH  22  26
ENDBRANCH  17  20
ENDBRANCH   1  17
BRANCH   7  54
ATOM     54  C   LIG d   1      10.179   3.303  -5.723  0.00  0.00     0.028 C 
ATOM     55  H   LIG d   1      11.089   3.895  -5.628  0.00  0.00     0.036 H 
ATOM     56  H   LIG d   1      10.413   2.249  -5.574  0.00  0.00     0.036 H 
BRANCH  54  57
ATOM     57  C   LIG d   1       9.596   3.498  -7.099  0.00  0.00     0.216 C 
ATOM     58  O   LIG d   1       8.722   2.759  -7.498  0.00  0.00    -0.276 OA
ATOM     59  N   LIG d   1      10.046   4.496  -7.886  0.00  0.00    -0.301 N 
ATOM     60  C   LIG d   1       9.487   4.700  -9.230  0.00  0.00     0.015 C 
ATOM     61  C   LIG d   1      11.107   5.397  -7.419  0.00  0.00     0.015 C 
ATOM     62  C   LIG d   1       9.018   6.157  -9.349  0.00  0.00    -0.026 C 
ATOM     63  H   LIG d   1      10.253   4.496  -9.978  0.00  0.00     0.046 H 
ATOM     64  H   LIG d   1       8.640   4.029  -9.379  0.00  0.00     0.046 H 
ATOM     65  C   LIG d   1      10.180   7.091  -9.004  0.00  0.00     0.038 C 
ATOM     66  H   LIG d   1       8.193   6.335  -8.659  0.00  0.00     0.029 H 
ATOM     67  H   LIG d   1       8.687   6.350 -10.369  0.00  0.00     0.029 H 
ATOM     68  C   LIG d   1      10.625   6.844  -7.560  0.00  0.00    -0.026 C 
ATOM     69  H   LIG d   1      11.015   6.896  -9.678  0.00  0.00     0.040 H 
ATOM     70  H   LIG d   1       9.785   7.014  -6.887  0.00  0.00     0.029 H 
ATOM     71  H   LIG d   1      11.437   7.524  -7.307  0.00  0.00     0.029 H 
ATOM     72  H   LIG d   1      11.332   5.187  -6.373  0.00  0.00     0.046 H 
ATOM     73  H   LIG d   1      12.003   5.250  -8.023  0.00  0.00     0.046 H 
BRANCH  65  74
ATOM     74  C   LIG d   1       9.737   8.523  -9.155  0.00  0.00     0.214 C 
ATOM     75  O   LIG d   1      10.447   9.320  -9.732  0.00  0.00    -0.276 OA
ATOM     76  N   LIG d   1       8.552   8.918  -8.650  0.00  0.00    -0.329 N 
ATOM     77  H   LIG d   1       7.984   8.280  -8.189  0.00  0.00     0.145 HD
ATOM     78  H   LIG d   1       8.267   9.840  -8.747  0.00  0.00     0.145 HD
ENDBRANCH  65  74
ENDBRANCH  54  57
ENDBRANCH   7  54
TORSDOF 8
ENDMDL
MODEL 3
REMARK VINA RESULT:      -7.5      2.841     10.552
REMARK  8 active torsions:
REMARK  status: ('A' for Active; 'I' for Inactive)
REMARK    1  A    between atoms: C_4  and  N_7 
REMARK    2  A    between atoms: N_10  and  C_13 
REMARK    3  A    between atoms: C_13  and  C_14 
REMARK    4  A    between atoms: C_16  and  C_19 
REMARK    5  A    between atoms: C_19  and  C_20 
REMARK    6  A    between atoms: C_26  and  C_28 
REMARK    7  A    between atoms: C_28  and  C_29 
REMARK       I    between atoms: C_29  and  N_31 
REMARK    8  A    between atoms: C_34  and  C_37 
REMARK       I    between atoms: C_37  and  N_39 
ROOT
ATOM      1  C   LIG d   1       6.379   0.470  -3.389  0.00  0.00     0.008 C 
ATOM      2  H   LIG d   1       7.186   0.352  -2.665  0.00  0.00     0.036 H 
ATOM      3  C   LIG d   1       5.281   1.350  -2.789  0.00  0.00    -0.030 C 
ATOM      4  N   LIG d   1       4.754   0.719  -1.572  0.00  0.00     0.227 N 
ATOM      5  C   LIG d   1       4.128  -0.565  -1.908  0.00  0.00    -0.033 C 
ATOM      6  C   LIG d   1       5.184  -1.519  -2.472  0.00  0.00    -0.009 C 
ATOM      7  C   LIG d   1       5.797  -0.903  -3.734  0.00  0.00    -0.020 C 
ATOM      8  H   LIG d   1       6.589  -1.552  -4.108  0.00  0.00     0.031 H 
ATOM      9  H   LIG d   1       5.692   2.328  -2.543  0.00  0.00     0.082 H 
ATOM     10  H   LIG d   1       4.474   1.468  -3.514  0.00  0.00     0.082 H 
ATOM     11  H   LIG d   1       5.509   0.566  -0.921  0.00  0.00     0.201 HD
ATOM     12  H   LIG d   1       3.690  -1.000  -1.009  0.00  0.00     0.081 H 
ATOM     13  H   LIG d   1       3.347  -0.406  -2.650  0.00  0.00     0.081 H 
ATOM     14  H   LIG d   1       5.965  -1.678  -1.730  0.00  0.00     0.032 H 
ATOM     15  H   LIG d   1       4.717  -2.471  -2.722  0.00  0.00     0.032 H 
ATOM     16  H   LIG d   1       4.067   1.328  -1.151  0.00  0.00     0.201 HD
ENDROOT
BRANCH   1  17
ATOM     17  C   LIG d   1       6.925   1.128  -4.658  0.00  0.00     0.001 C 
ATOM     18  H   LIG d   1       6.350   2.027  -4.876  0.00  0.00     0.033 H 
ATOM     19  H   LIG d   1       6.842   0.431  -5.493  0.00  0.00     0.033 H 
BRANCH  17  20
ATOM     20  C   LIG d   1       8.372   1.495  -4.452  0.00  0.00     0.084 A 
ATOM     21  C   LIG d   1       8.862   2.778  -4.147  0.00  0.00     0.005 A 
ATOM     22  C   LIG d   1      10.202   2.699  -4.039  0.00  0.00     0.151 A 
ATOM     23  H   LIG d   1       8.267   3.670  -4.020  0.00  0.00     0.067 H 
ATOM     24  O   LIG d   1      10.563   1.427  -4.270  0.00  0.00    -0.358 OA
ATOM     25  N   LIG d   1       9.386   0.681  -4.523  0.00  0.00    -0.083 NA
BRANCH  22  26
ATOM     26  C   LIG d   1      11.135   3.840  -3.723  0.00  0.00     0.060 C 
ATOM     27  H   LIG d   1      11.312   4.424  -4.626  0.00  0.00     0.051 H 
ATOM     28  H   LIG d   1      12.081   3.445  -3.354  0.00  0.00     0.051 H 
BRANCH  26  29
ATOM     29  N   LIG d   1      10.528   4.698  -2.696  0.00  0.00    -0.292 N 
ATOM     30  C   LIG d   1      11.429   4.862  -1.548  0.00  0.00     0.015 C 
ATOM     31  C   LIG d   1      10.694   5.607  -0.428  0.00  0.00     0.025 C 
ATOM     32  H   LIG d   1      12.305   5.436  -1.852  0.00  0.00     0.044 H 
ATOM     33  H   LIG d   1      11.742   3.882  -1.188  0.00  0.00     0.044 H 
ATOM     34  N   LIG d   1      10.151   6.859  -0.978  0.00  0.00    -0.328 N 
ATOM     35  H   LIG d   1      11.389   5.833   0.380  0.00  0.00     0.048 H 
ATOM     36  H   LIG d   1       9.879   4.990  -0.052  0.00  0.00     0.048 H 
ATOM     37  C   LIG d   1       9.345   6.788  -2.207  0.00  0.00     0.025 C 
ATOM     38  C   LIG d   1      10.138   5.997  -3.260  0.00  0.00     0.015 C 
ATOM     39  H   LIG d   1       8.403   6.281  -1.997  0.00  0.00     0.048 H 
ATOM     40  H   LIG d   1       9.149   7.795  -2.575  0.00  0.00     0.048 H 
ATOM     41  H   LIG d   1      11.032   6.555  -3.540  0.00  0.00     0.044 H 
ATOM     42  H   LIG d   1       9.516   5.840  -4.140  0.00  0.00     0.044 H 
BRANCH  34  43
ATOM     43  C   LIG d   1      10.391   8.082  -0.348  0.00  0.00     0.030 A 
ATOM     44  C   LIG d   1      11.309   8.161   0.693  0.00  0.00    -0.041 A 
ATOM     45  C   LIG d   1      11.544   9.373   1.312  0.00  0.00    -0.060 A 
ATOM     46  H   LIG d   1      11.836   7.277   1.017  0.00  0.00     0.064 H 
ATOM     47  C   LIG d   1      10.868  10.507   0.898  0.00  0.00    -0.062 A 
ATOM     48  H   LIG d   1      12.257   9.435   2.121  0.00  0.00     0.062 H 
ATOM     49  C   LIG d   1       9.955  10.431  -0.138  0.00  0.00    -0.060 A 
ATOM     50  H   LIG d   1      11.051  11.452   1.388  0.00  0.00     0.062 H 
ATOM     51  C   LIG d   1       9.715   9.223  -0.762  0.00  0.00    -0.041 A 
ATOM     52  H   LIG d   1       9.430  11.318  -0.459  0.00  0.00     0.062 H 
ATOM     53  H   LIG d   1       9.002   9.164  -1.571  0.00  0.00     0.064 H 
ENDBRANCH  34  43
ENDBRANCH  26  29
ENDBRANCH  22  26
ENDBRANCH  17  20
ENDBRANCH   1  17
BRANCH   7  54
ATOM     54  C   LIG d   1       4.714  -0.745  -4.803  0.00  0.00     0.028 C 
ATOM     55  H   LIG d   1       3.732  -0.844  -4.343  0.00  0.00     0.036 H 
ATOM     56  H   LIG d   1       4.802   0.237  -5.267  0.00  0.00     0.036 H 
BRANCH  54  57
ATOM     57  C   LIG d   1       4.887  -1.813  -5.853  0.00  0.00     0.216 C 
ATOM     58  O   LIG d   1       5.350  -2.892  -5.550  0.00  0.00    -0.276 OA
ATOM     59  N   LIG d   1       4.526  -1.568  -7.128  0.00  0.00    -0.301 N 
ATOM     60  C   LIG d   1       4.688  -2.599  -8.163  0.00  0.00     0.015 C 
ATOM     61  C   LIG d   1       3.969  -0.265  -7.512  0.00  0.00     0.015 C 
ATOM     62  C   LIG d   1       3.338  -2.801  -8.868  0.00  0.00    -0.026 C 
ATOM     63  H   LIG d   1       5.437  -2.277  -8.886  0.00  0.00     0.046 H 
ATOM     64  H   LIG d   1       5.003  -3.535  -7.701  0.00  0.00     0.046 H 
ATOM     65  C   LIG d   1       2.839  -1.454  -9.396  0.00  0.00     0.038 C 
ATOM     66  H   LIG d   1       2.612  -3.205  -8.163  0.00  0.00     0.029 H 
ATOM     67  H   LIG d   1       3.463  -3.493  -9.700  0.00  0.00     0.029 H 
ATOM     68  C   LIG d   1       2.632  -0.489  -8.225  0.00  0.00    -0.026 C 
ATOM     69  H   LIG d   1       3.577  -1.037 -10.083  0.00  0.00     0.040 H 
ATOM     70  H   LIG d   1       1.914  -0.916  -7.525  0.00  0.00     0.029 H 
ATOM     71  H   LIG d   1       2.255   0.462  -8.599  0.00  0.00     0.029 H 
ATOM     72  H   LIG d   1       3.810   0.342  -6.620  0.00  0.00     0.046 H 
ATOM     73  H   LIG d   1       4.661   0.245  -8.183  0.00  0.00     0.046 H 
BRANCH  65  74
ATOM     74  C   LIG d   1       1.533  -1.651 -10.121  0.00  0.00     0.214 C 
ATOM     75  O   LIG d   1       1.021  -0.722 -10.711  0.00  0.00    -0.276 OA
ATOM     76  N   LIG d   1       0.934  -2.858 -10.115  0.00  0.00    -0.329 N 
ATOM     77  H   LIG d   1       1.344  -3.600  -9.644  0.00  0.00     0.145 HD
ATOM     78  H   LIG d   1       0.093  -2.984 -10.582  0.00  0.00     0.145 HD
ENDBRANCH  65  74
ENDBRANCH  54  57
ENDBRANCH   7  54
TORSDOF 8
ENDMDL
MODEL 4
REMARK VINA RESULT:      -7.4      8.148     11.411
REMARK  8 active torsions:
REMARK  status: ('A' for Active; 'I' for Inactive)
REMARK    1  A    between atoms: C_4  and  N_7 
REMARK    2  A    between atoms: N_10  and  C_13 
REMARK    3  A    between atoms: C_13  and  C_14 
REMARK    4  A    between atoms: C_16  and  C_19 
REMARK    5  A    between atoms: C_19  and  C_20 
REMARK    6  A    between atoms: C_26  and  C_28 
REMARK    7  A    between atoms: C_28  and  C_29 
REMARK       I    between atoms: C_29  and  N_31 
REMARK    8  A    between atoms: C_34  and  C_37 
REMARK       I    between atoms: C_37  and  N_39 
ROOT
ATOM      1  C   LIG d   1       6.768  -9.530  -3.600  0.00  0.00     0.008 C 
ATOM      2  H   LIG d   1       5.708  -9.339  -3.425  0.00  0.00     0.036 H 
ATOM      3  C   LIG d   1       6.982 -11.023  -3.857  0.00  0.00    -0.030 C 
ATOM      4  N   LIG d   1       6.535 -11.793  -2.690  0.00  0.00     0.227 N 
ATOM      5  C   LIG d   1       7.353 -11.446  -1.521  0.00  0.00    -0.033 C 
ATOM      6  C   LIG d   1       7.151  -9.969  -1.174  0.00  0.00    -0.009 C 
ATOM      7  C   LIG d   1       7.573  -9.108  -2.368  0.00  0.00    -0.020 C 
ATOM      8  H   LIG d   1       7.378  -8.058  -2.147  0.00  0.00     0.031 H 
ATOM      9  H   LIG d   1       6.411 -11.327  -4.733  0.00  0.00     0.082 H 
ATOM     10  H   LIG d   1       8.042 -11.213  -4.032  0.00  0.00     0.082 H 
ATOM     11  H   LIG d   1       5.568 -11.581  -2.499  0.00  0.00     0.201 HD
ATOM     12  H   LIG d   1       7.053 -12.062  -0.674  0.00  0.00     0.081 H 
ATOM     13  H   LIG d   1       8.403 -11.627  -1.746  0.00  0.00     0.081 H 
ATOM     14  H   LIG d   1       6.101  -9.788  -0.949  0.00  0.00     0.032 H 
ATOM     15  H   LIG d   1       7.760  -9.713  -0.307  0.00  0.00     0.032 H 
ATOM     16  H   LIG d   1       6.629 -12.780  -2.884  0.00  0.00     0.201 HD
ENDROOT
BRANCH   1  17
ATOM     17  C   LIG d   1       7.236  -8.729  -4.817  0.00  0.00     0.001 C 
ATOM     18  H   LIG d   1       7.637  -9.411  -5.567  0.00  0.00     0.033 H 
ATOM     19  H   LIG d   1       8.013  -8.026  -4.512  0.00  0.00     0.033 H 
BRANCH  17  20
ATOM     20  C   LIG d   1       6.071  -7.971  -5.398  0.00  0.00     0.084 A 
ATOM     21  C   LIG d   1       6.132  -6.704  -6.005  0.00  0.00     0.005 A 
ATOM     22  C   LIG d   1       4.887  -6.367  -6.397  0.00  0.00     0.151 A 
ATOM     23  H   LIG d   1       7.021  -6.105  -6.136  0.00  0.00     0.067 H 
ATOM     24  O   LIG d   1       4.060  -7.366  -6.053  0.00  0.00    -0.358 OA
ATOM     25  N   LIG d   1       4.833  -8.374  -5.427  0.00  0.00    -0.083 NA
BRANCH  22  26
ATOM     26  C   LIG d   1       4.492  -5.090  -7.091  0.00  0.00     0.060 C 
ATOM     27  H   LIG d   1       3.405  -5.025  -7.142  0.00  0.00     0.051 H 
ATOM     28  H   LIG d   1       4.904  -5.081  -8.099  0.00  0.00     0.051 H 
BRANCH  26  29
ATOM     29  N   LIG d   1       5.015  -3.942  -6.337  0.00  0.00    -0.292 N 
ATOM     30  C   LIG d   1       4.463  -2.680  -6.850  0.00  0.00     0.015 C 
ATOM     31  C   LIG d   1       5.166  -1.504  -6.164  0.00  0.00     0.025 C 
ATOM     32  H   LIG d   1       3.394  -2.638  -6.639  0.00  0.00     0.044 H 
ATOM     33  H   LIG d   1       4.625  -2.624  -7.925  0.00  0.00     0.044 H 
ATOM     34  N   LIG d   1       5.063  -1.682  -4.708  0.00  0.00    -0.328 N 
ATOM     35  H   LIG d   1       4.683  -0.570  -6.453  0.00  0.00     0.048 H 
ATOM     36  H   LIG d   1       6.215  -1.484  -6.456  0.00  0.00     0.048 H 
ATOM     37  C   LIG d   1       5.474  -2.973  -4.133  0.00  0.00     0.025 C 
ATOM     38  C   LIG d   1       4.754  -4.093  -4.899  0.00  0.00     0.015 C 
ATOM     39  H   LIG d   1       6.553  -3.090  -4.235  0.00  0.00     0.048 H 
ATOM     40  H   LIG d   1       5.196  -3.010  -3.079  0.00  0.00     0.048 H 
ATOM     41  H   LIG d   1       3.681  -4.031  -4.716  0.00  0.00     0.044 H 
ATOM     42  H   LIG d   1       5.126  -5.060  -4.562  0.00  0.00     0.044 H 
BRANCH  34  43
ATOM     43  C   LIG d   1       4.590  -0.652  -3.891  0.00  0.00     0.030 A 
ATOM     44  C   LIG d   1       5.086  -0.503  -2.601  0.00  0.00    -0.041 A 
ATOM     45  C   LIG d   1       4.617   0.517  -1.797  0.00  0.00    -0.060 A 
ATOM     46  H   LIG d   1       5.835  -1.184  -2.228  0.00  0.00     0.064 H 
ATOM     47  C   LIG d   1       3.655   1.390  -2.274  0.00  0.00    -0.062 A 
ATOM     48  H   LIG d   1       5.001   0.634  -0.795  0.00  0.00     0.062 H 
ATOM     49  C   LIG d   1       3.161   1.244  -3.557  0.00  0.00    -0.060 A 
ATOM     50  H   LIG d   1       3.287   2.184  -1.641  0.00  0.00     0.062 H 
ATOM     51  C   LIG d   1       3.625   0.227  -4.366  0.00  0.00    -0.041 A 
ATOM     52  H   LIG d   1       2.411   1.929  -3.926  0.00  0.00     0.062 H 
ATOM     53  H   LIG d   1       3.239   0.114  -5.369  0.00  0.00     0.064 H 
ENDBRANCH  34  43
ENDBRANCH  26  29
ENDBRANCH  22  26
ENDBRANCH  17  20
ENDBRANCH   1  17
BRANCH   7  54
ATOM     54  C   LIG d   1       9.065  -9.307  -2.640  0.00  0.00     0.028 C 
ATOM     55  H   LIG d   1       9.345 -10.332  -2.400  0.00  0.00     0.036 H 
ATOM     56  H   LIG d   1       9.273  -9.110  -3.691  0.00  0.00     0.036 H 
BRANCH  54  57
ATOM     57  C   LIG d   1       9.862  -8.356  -1.784  0.00  0.00     0.216 C 
ATOM     58  O   LIG d   1       9.733  -7.159  -1.925  0.00  0.00    -0.276 OA
ATOM     59  N   LIG d   1      10.719  -8.837  -0.862  0.00  0.00    -0.301 N 
ATOM     60  C   LIG d   1      11.503  -7.923  -0.019  0.00  0.00     0.015 C 
ATOM     61  C   LIG d   1      10.891 -10.285  -0.682  0.00  0.00     0.015 C 
ATOM     62  C   LIG d   1      11.269  -8.294   1.454  0.00  0.00    -0.026 C 
ATOM     63  H   LIG d   1      12.561  -8.021  -0.260  0.00  0.00     0.046 H 
ATOM     64  H   LIG d   1      11.180  -6.896  -0.194  0.00  0.00     0.046 H 
ATOM     65  C   LIG d   1      11.598  -9.774   1.659  0.00  0.00     0.038 C 
ATOM     66  H   LIG d   1      10.228  -8.113   1.717  0.00  0.00     0.029 H 
ATOM     67  H   LIG d   1      11.915  -7.686   2.087  0.00  0.00     0.029 H 
ATOM     68  C   LIG d   1      10.669 -10.630   0.794  0.00  0.00    -0.026 C 
ATOM     69  H   LIG d   1      12.634  -9.960   1.372  0.00  0.00     0.040 H 
ATOM     70  H   LIG d   1       9.632 -10.426   1.062  0.00  0.00     0.029 H 
ATOM     71  H   LIG d   1      10.887 -11.684   0.958  0.00  0.00     0.029 H 
ATOM     72  H   LIG d   1      10.165 -10.818  -1.295  0.00  0.00     0.046 H 
ATOM     73  H   LIG d   1      11.901 -10.572  -0.977  0.00  0.00     0.046 H 
BRANCH  65  74
ATOM     74  C   LIG d   1      11.406 -10.134   3.109  0.00  0.00     0.214 C 
ATOM     75  O   LIG d   1      11.820  -9.394   3.978  0.00  0.00    -0.276 OA
ATOM     76  N   LIG d   1      10.775 -11.277   3.442  0.00  0.00    -0.329 N 
ATOM     77  H   LIG d   1      10.444 -11.868   2.748  0.00  0.00     0.145 HD
ATOM     78  H   LIG d   1      10.652 -11.509   4.376  0.00  0.00     0.145 HD
ENDBRANCH  65  74
ENDBRANCH  54  57
ENDBRANCH   7  54
TORSDOF 8
ENDMDL
MODEL 5
REMARK VINA RESULT:      -7.4      3.370      5.314
REMARK  8 active torsions:
REMARK  status: ('A' for Active; 'I' for Inactive)
REMARK    1  A    between atoms: C_4  and  N_7 
REMARK    2  A    between atoms: N_10  and  C_13 
REMARK    3  A    between atoms: C_13  and  C_14 
REMARK    4  A    between atoms: C_16  and  C_19 
REMARK    5  A    between atoms: C_19  and  C_20 
REMARK    6  A    between atoms: C_26  and  C_28 
REMARK    7  A    between atoms: C_28  and  C_29 
REMARK       I    between atoms: C_29  and  N_31 
REMARK    8  A    between atoms: C_34  and  C_37 
REMARK       I    between atoms: C_37  and  N_39 
ROOT
ATOM      1  C   LIG d   1      10.511   5.864  -3.419  0.00  0.00     0.008 C 
ATOM      2  H   LIG d   1       9.723   5.110  -3.459  0.00  0.00     0.036 H 
ATOM      3  C   LIG d   1      11.554   5.458  -2.377  0.00  0.00    -0.030 C 
ATOM      4  N   LIG d   1      10.918   5.349  -1.058  0.00  0.00     0.227 N 
ATOM      5  C   LIG d   1      10.399   6.659  -0.646  0.00  0.00    -0.033 C 
ATOM      6  C   LIG d   1       9.309   7.110  -1.622  0.00  0.00    -0.009 C 
ATOM      7  C   LIG d   1       9.905   7.214  -3.029  0.00  0.00    -0.020 C 
ATOM      8  H   LIG d   1       9.120   7.480  -3.738  0.00  0.00     0.031 H 
ATOM      9  H   LIG d   1      11.988   4.497  -2.651  0.00  0.00     0.082 H 
ATOM     10  H   LIG d   1      12.341   6.213  -2.338  0.00  0.00     0.082 H 
ATOM     11  H   LIG d   1      10.159   4.686  -1.106  0.00  0.00     0.201 HD
ATOM     12  H   LIG d   1       9.978   6.583   0.357  0.00  0.00     0.081 H 
ATOM     13  H   LIG d   1      11.210   7.387  -0.645  0.00  0.00     0.081 H 
ATOM     14  H   LIG d   1       8.499   6.382  -1.624  0.00  0.00     0.032 H 
ATOM     15  H   LIG d   1       8.927   8.083  -1.315  0.00  0.00     0.032 H 
ATOM     16  H   LIG d   1      11.598   5.030  -0.384  0.00  0.00     0.201 HD
ENDROOT
BRANCH   1  17
ATOM     17  C   LIG d   1      11.176   5.978  -4.792  0.00  0.00     0.001 C 
ATOM     18  H   LIG d   1      12.227   5.699  -4.710  0.00  0.00     0.033 H 
ATOM     19  H   LIG d   1      11.100   7.006  -5.148  0.00  0.00     0.033 H 
BRANCH  17  20
ATOM     20  C   LIG d   1      10.486   5.056  -5.763  0.00  0.00     0.084 A 
ATOM     21  C   LIG d   1      10.434   3.653  -5.673  0.00  0.00     0.005 A 
ATOM     22  C   LIG d   1       9.728   3.193  -6.725  0.00  0.00     0.151 A 
ATOM     23  H   LIG d   1      10.880   3.050  -4.897  0.00  0.00     0.067 H 
ATOM     24  O   LIG d   1       9.348   4.247  -7.463  0.00  0.00    -0.358 OA
ATOM     25  N   LIG d   1       9.835   5.417  -6.832  0.00  0.00    -0.083 NA
BRANCH  22  26
ATOM     26  C   LIG d   1       9.425   1.748  -7.024  0.00  0.00     0.060 C 
ATOM     27  H   LIG d   1      10.326   1.256  -7.391  0.00  0.00     0.051 H 
ATOM     28  H   LIG d   1       8.645   1.689  -7.782  0.00  0.00     0.051 H 
BRANCH  26  29
ATOM     29  N   LIG d   1       8.969   1.079  -5.798  0.00  0.00    -0.292 N 
ATOM     30  C   LIG d   1       7.928   1.868  -5.124  0.00  0.00     0.015 C 
ATOM     31  C   LIG d   1       7.611   1.233  -3.766  0.00  0.00     0.025 C 
ATOM     32  H   LIG d   1       7.028   1.882  -5.738  0.00  0.00     0.044 H 
ATOM     33  H   LIG d   1       8.284   2.886  -4.975  0.00  0.00     0.044 H 
ATOM     34  N   LIG d   1       7.278  -0.184  -3.978  0.00  0.00    -0.328 N 
ATOM     35  H   LIG d   1       6.762   1.745  -3.312  0.00  0.00     0.048 H 
ATOM     36  H   LIG d   1       8.480   1.310  -3.114  0.00  0.00     0.048 H 
ATOM     37  C   LIG d   1       8.212  -1.009  -4.760  0.00  0.00     0.025 C 
ATOM     38  C   LIG d   1       8.503  -0.285  -6.084  0.00  0.00     0.015 C 
ATOM     39  H   LIG d   1       9.138  -1.142  -4.201  0.00  0.00     0.048 H 
ATOM     40  H   LIG d   1       7.760  -1.980  -4.964  0.00  0.00     0.048 H 
ATOM     41  H   LIG d   1       7.594  -0.240  -6.685  0.00  0.00     0.044 H 
ATOM     42  H   LIG d   1       9.275  -0.825  -6.631  0.00  0.00     0.044 H 
BRANCH  34  43
ATOM     43  C   LIG d   1       6.108  -0.733  -3.448  0.00  0.00     0.030 A 
ATOM     44  C   LIG d   1       5.701  -2.005  -3.829  0.00  0.00    -0.041 A 
ATOM     45  C   LIG d   1       4.544  -2.545  -3.302  0.00  0.00    -0.060 A 
ATOM     46  H   LIG d   1       6.287  -2.571  -4.537  0.00  0.00     0.064 H 
ATOM     47  C   LIG d   1       3.790  -1.820  -2.396  0.00  0.00    -0.062 A 
ATOM     48  H   LIG d   1       4.227  -3.534  -3.598  0.00  0.00     0.062 H 
ATOM     49  C   LIG d   1       4.194  -0.554  -2.015  0.00  0.00    -0.060 A 
ATOM     50  H   LIG d   1       2.884  -2.243  -1.989  0.00  0.00     0.062 H 
ATOM     51  C   LIG d   1       5.349  -0.008  -2.538  0.00  0.00    -0.041 A 
ATOM     52  H   LIG d   1       3.603   0.009  -1.306  0.00  0.00     0.062 H 
ATOM     53  H   LIG d   1       5.664   0.981  -2.239  0.00  0.00     0.064 H 
ENDBRANCH  34  43
ENDBRANCH  26  29
ENDBRANCH  22  26
ENDBRANCH  17  20
ENDBRANCH   1  17
BRANCH   7  54
ATOM     54  C   LIG d   1      10.995   8.287  -3.045  0.00  0.00     0.028 C 
ATOM     55  H   LIG d   1      11.684   8.118  -2.218  0.00  0.00     0.036 H 
ATOM     56  H   LIG d   1      11.539   8.240  -3.988  0.00  0.00     0.036 H 
BRANCH  54  57
ATOM     57  C   LIG d   1      10.362   9.648  -2.899  0.00  0.00     0.216 C 
ATOM     58  O   LIG d   1      10.418  10.233  -1.839  0.00  0.00    -0.276 OA
ATOM     59  N   LIG d   1       9.735  10.214  -3.949  0.00  0.00    -0.301 N 
ATOM     60  C   LIG d   1       9.113  11.540  -3.824  0.00  0.00     0.015 C 
ATOM     61  C   LIG d   1       9.654   9.516  -5.240  0.00  0.00     0.015 C 
ATOM     62  C   LIG d   1       9.662  12.445  -4.937  0.00  0.00    -0.026 C 
ATOM     63  H   LIG d   1       8.032  11.447  -3.924  0.00  0.00     0.046 H 
ATOM     64  H   LIG d   1       9.357  11.967  -2.851  0.00  0.00     0.046 H 
ATOM     65  C   LIG d   1       9.436  11.771  -6.292  0.00  0.00     0.038 C 
ATOM     66  H   LIG d   1      10.729  12.607  -4.786  0.00  0.00     0.029 H 
ATOM     67  H   LIG d   1       9.142  13.403  -4.916  0.00  0.00     0.029 H 
ATOM     68  C   LIG d   1      10.192  10.441  -6.336  0.00  0.00    -0.026 C 
ATOM     69  H   LIG d   1       8.370  11.587  -6.433  0.00  0.00     0.040 H 
ATOM     70  H   LIG d   1      11.254  10.621  -6.171  0.00  0.00     0.029 H 
ATOM     71  H   LIG d   1      10.049   9.972  -7.309  0.00  0.00     0.029 H 
ATOM     72  H   LIG d   1      10.254   8.607  -5.202  0.00  0.00     0.046 H 
ATOM     73  H   LIG d   1       8.616   9.261  -5.453  0.00  0.00     0.046 H 
BRANCH  65  74
ATOM     74  C   LIG d   1       9.939  12.671  -7.391  0.00  0.00     0.214 C 
ATOM     75  O   LIG d   1       9.153  13.194  -8.154  0.00  0.00    -0.276 OA
ATOM     76  N   LIG d   1      11.260  12.897  -7.526  0.00  0.00    -0.329 N 
ATOM     77  H   LIG d   1      11.888  12.479  -6.915  0.00  0.00     0.145 HD
ATOM     78  H   LIG d   1      11.584  13.476  -8.233  0.00  0.00     0.145 HD
ENDBRANCH  65  74
ENDBRANCH  54  57
ENDBRANCH   7  54
TORSDOF 8
ENDMDL
MODEL 6
REMARK VINA RESULT:      -7.3      3.249      5.200
REMARK  8 active torsions:
REMARK  status: ('A' for Active; 'I' for Inactive)
REMARK    1  A    between atoms: C_4  and  N_7 
REMARK    2  A    between atoms: N_10  and  C_13 
REMARK    3  A    between atoms: C_13  and  C_14 
REMARK    4  A    between atoms: C_16  and  C_19 
REMARK    5  A    between atoms: C_19  and  C_20 
REMARK    6  A    between atoms: C_26  and  C_28 
REMARK    7  A    between atoms: C_28  and  C_29 
REMARK       I    between atoms: C_29  and  N_31 
REMARK    8  A    between atoms: C_34  and  C_37 
REMARK       I    between atoms: C_37  and  N_39 
ROOT
ATOM      1  C   LIG d   1       9.734   4.350  -3.089  0.00  0.00     0.008 C 
ATOM      2  H   LIG d   1       8.928   3.956  -2.469  0.00  0.00     0.036 H 
ATOM      3  C   LIG d   1      11.081   3.886  -2.531  0.00  0.00    -0.030 C 
ATOM      4  N   LIG d   1      11.241   4.378  -1.157  0.00  0.00     0.227 N 
ATOM      5  C   LIG d   1      11.266   5.845  -1.152  0.00  0.00    -0.033 C 
ATOM      6  C   LIG d   1       9.925   6.384  -1.656  0.00  0.00    -0.009 C 
ATOM      7  C   LIG d   1       9.683   5.880  -3.082  0.00  0.00    -0.020 C 
ATOM      8  H   LIG d   1       8.704   6.214  -3.425  0.00  0.00     0.031 H 
ATOM      9  H   LIG d   1      11.121   2.798  -2.535  0.00  0.00     0.082 H 
ATOM     10  H   LIG d   1      11.887   4.281  -3.153  0.00  0.00     0.082 H 
ATOM     11  H   LIG d   1      10.470   4.052  -0.593  0.00  0.00     0.201 HD
ATOM     12  H   LIG d   1      11.442   6.201  -0.137  0.00  0.00     0.081 H 
ATOM     13  H   LIG d   1      12.067   6.197  -1.802  0.00  0.00     0.081 H 
ATOM     14  H   LIG d   1       9.125   6.032  -1.006  0.00  0.00     0.032 H 
ATOM     15  H   LIG d   1       9.947   7.473  -1.654  0.00  0.00     0.032 H 
ATOM     16  H   LIG d   1      12.106   4.025  -0.774  0.00  0.00     0.201 HD
ENDROOT
BRANCH   1  17
ATOM     17  C   LIG d   1       9.571   3.839  -4.522  0.00  0.00     0.001 C 
ATOM     18  H   LIG d   1      10.551   3.603  -4.937  0.00  0.00     0.033 H 
ATOM     19  H   LIG d   1       9.094   4.608  -5.130  0.00  0.00     0.033 H 
BRANCH  17  20
ATOM     20  C   LIG d   1       8.716   2.599  -4.519  0.00  0.00     0.084 A 
ATOM     21  C   LIG d   1       8.473   1.761  -5.623  0.00  0.00     0.005 A 
ATOM     22  C   LIG d   1       7.664   0.762  -5.219  0.00  0.00     0.151 A 
ATOM     23  H   LIG d   1       8.866   1.895  -6.619  0.00  0.00     0.067 H 
ATOM     24  O   LIG d   1       7.392   0.947  -3.919  0.00  0.00    -0.358 OA
ATOM     25  N   LIG d   1       8.074   2.114  -3.495  0.00  0.00    -0.083 NA
BRANCH  22  26
ATOM     26  C   LIG d   1       7.149  -0.363  -6.080  0.00  0.00     0.060 C 
ATOM     27  H   LIG d   1       6.791  -1.173  -5.444  0.00  0.00     0.051 H 
ATOM     28  H   LIG d   1       7.952  -0.730  -6.718  0.00  0.00     0.051 H 
BRANCH  26  29
ATOM     29  N   LIG d   1       6.044   0.127  -6.915  0.00  0.00    -0.292 N 
ATOM     30  C   LIG d   1       6.429   0.159  -8.332  0.00  0.00     0.015 C 
ATOM     31  C   LIG d   1       5.322   0.842  -9.143  0.00  0.00     0.025 C 
ATOM     32  H   LIG d   1       6.568  -0.860  -8.694  0.00  0.00     0.044 H 
ATOM     33  H   LIG d   1       7.358   0.716  -8.444  0.00  0.00     0.044 H 
ATOM     34  N   LIG d   1       4.048   0.164  -8.859  0.00  0.00    -0.328 N 
ATOM     35  H   LIG d   1       5.548   0.766 -10.207  0.00  0.00     0.048 H 
ATOM     36  H   LIG d   1       5.251   1.890  -8.854  0.00  0.00     0.048 H 
ATOM     37  C   LIG d   1       3.657  -0.022  -7.453  0.00  0.00     0.025 C 
ATOM     38  C   LIG d   1       4.832  -0.677  -6.708  0.00  0.00     0.015 C 
ATOM     39  H   LIG d   1       3.429   0.945  -7.006  0.00  0.00     0.048 H 
ATOM     40  H   LIG d   1       2.781  -0.670  -7.399  0.00  0.00     0.048 H 
ATOM     41  H   LIG d   1       4.994  -1.684  -7.093  0.00  0.00     0.044 H 
ATOM     42  H   LIG d   1       4.604  -0.725  -5.644  0.00  0.00     0.044 H 
BRANCH  34  43
ATOM     43  C   LIG d   1       3.229  -0.286  -9.897  0.00  0.00     0.030 A 
ATOM     44  C   LIG d   1       1.879  -0.522  -9.666  0.00  0.00    -0.041 A 
ATOM     45  C   LIG d   1       1.072  -0.966 -10.695  0.00  0.00    -0.060 A 
ATOM     46  H   LIG d   1       1.462  -0.358  -8.685  0.00  0.00     0.064 H 
ATOM     47  C   LIG d   1       1.606  -1.177 -11.954  0.00  0.00    -0.062 A 
ATOM     48  H   LIG d   1       0.023  -1.150 -10.517  0.00  0.00     0.062 H 
ATOM     49  C   LIG d   1       2.949  -0.943 -12.186  0.00  0.00    -0.060 A 
ATOM     50  H   LIG d   1       0.973  -1.529 -12.755  0.00  0.00     0.062 H 
ATOM     51  C   LIG d   1       3.761  -0.498 -11.163  0.00  0.00    -0.041 A 
ATOM     52  H   LIG d   1       3.362  -1.108 -13.171  0.00  0.00     0.062 H 
ATOM     53  H   LIG d   1       4.810  -0.315 -11.344  0.00  0.00     0.064 H 
ENDBRANCH  34  43
ENDBRANCH  26  29
ENDBRANCH  22  26
ENDBRANCH  17  20
ENDBRANCH   1  17
BRANCH   7  54
ATOM     54  C   LIG d   1      10.767   6.432  -4.010  0.00  0.00     0.028 C 
ATOM     55  H   LIG d   1      11.560   6.884  -3.415  0.00  0.00     0.036 H 
ATOM     56  H   LIG d   1      11.180   5.621  -4.610  0.00  0.00     0.036 H 
BRANCH  54  57
ATOM     57  C   LIG d   1      10.167   7.473  -4.919  0.00  0.00     0.216 C 
ATOM     58  O   LIG d   1       9.457   7.137  -5.843  0.00  0.00    -0.276 OA
ATOM     59  N   LIG d   1      10.418   8.780  -4.705  0.00  0.00    -0.301 N 
ATOM     60  C   LIG d   1       9.840   9.808  -5.582  0.00  0.00     0.015 C 
ATOM     61  C   LIG d   1      11.280   9.205  -3.593  0.00  0.00     0.015 C 
ATOM     62  C   LIG d   1       9.095  10.832  -4.711  0.00  0.00    -0.026 C 
ATOM     63  H   LIG d   1      10.636  10.305  -6.136  0.00  0.00     0.046 H 
ATOM     64  H   LIG d   1       9.142   9.343  -6.279  0.00  0.00     0.046 H 
ATOM     65  C   LIG d   1      10.050  11.378  -3.648  0.00  0.00     0.038 C 
ATOM     66  H   LIG d   1       8.247  10.351  -4.225  0.00  0.00     0.029 H 
ATOM     67  H   LIG d   1       8.741  11.650  -5.337  0.00  0.00     0.029 H 
ATOM     68  C   LIG d   1      10.524  10.235  -2.748  0.00  0.00    -0.026 C 
ATOM     69  H   LIG d   1      10.912  11.837  -4.135  0.00  0.00     0.040 H 
ATOM     70  H   LIG d   1       9.662   9.759  -2.280  0.00  0.00     0.029 H 
ATOM     71  H   LIG d   1      11.186  10.628  -1.977  0.00  0.00     0.029 H 
ATOM     72  H   LIG d   1      11.533   8.342  -2.977  0.00  0.00     0.046 H 
ATOM     73  H   LIG d   1      12.191   9.653  -3.988  0.00  0.00     0.046 H 
BRANCH  65  74
ATOM     74  C   LIG d   1       9.336  12.410  -2.815  0.00  0.00     0.214 C 
ATOM     75  O   LIG d   1       9.961  13.100  -2.036  0.00  0.00    -0.276 OA
ATOM     76  N   LIG d   1       8.003  12.569  -2.934  0.00  0.00    -0.329 N 
ATOM     77  H   LIG d   1       7.504  12.018  -3.557  0.00  0.00     0.145 HD
ATOM     78  H   LIG d   1       7.543  13.233  -2.397  0.00  0.00     0.145 HD
ENDBRANCH  65  74
ENDBRANCH  54  57
ENDBRANCH   7  54
TORSDOF 8
ENDMDL
MODEL 7
REMARK VINA RESULT:      -7.2      2.971      4.196
REMARK  8 active torsions:
REMARK  status: ('A' for Active; 'I' for Inactive)
REMARK    1  A    between atoms: C_4  and  N_7 
REMARK    2  A    between atoms: N_10  and  C_13 
REMARK    3  A    between atoms: C_13  and  C_14 
REMARK    4  A    between atoms: C_16  and  C_19 
REMARK    5  A    between atoms: C_19  and  C_20 
REMARK    6  A    between atoms: C_26  and  C_28 
REMARK    7  A    between atoms: C_28  and  C_29 
REMARK       I    between atoms: C_29  and  N_31 
REMARK    8  A    between atoms: C_34  and  C_37 
REMARK       I    between atoms: C_37  and  N_39 
ROOT
ATOM      1  C   LIG d   1      10.787   4.615  -2.016  0.00  0.00     0.008 C 
ATOM      2  H   LIG d   1      10.734   3.687  -1.446  0.00  0.00     0.036 H 
ATOM      3  C   LIG d   1      12.236   4.876  -2.432  0.00  0.00    -0.030 C 
ATOM      4  N   LIG d   1      13.080   4.991  -1.236  0.00  0.00     0.227 N 
ATOM      5  C   LIG d   1      12.657   6.147  -0.437  0.00  0.00    -0.033 C 
ATOM      6  C   LIG d   1      11.224   5.934   0.057  0.00  0.00    -0.009 C 
ATOM      7  C   LIG d   1      10.293   5.776  -1.150  0.00  0.00    -0.020 C 
ATOM      8  H   LIG d   1       9.280   5.567  -0.803  0.00  0.00     0.031 H 
ATOM      9  H   LIG d   1      12.592   4.051  -3.049  0.00  0.00     0.082 H 
ATOM     10  H   LIG d   1      12.289   5.804  -3.003  0.00  0.00     0.082 H 
ATOM     11  H   LIG d   1      12.994   4.150  -0.683  0.00  0.00     0.201 HD
ATOM     12  H   LIG d   1      13.323   6.259   0.419  0.00  0.00     0.081 H 
ATOM     13  H   LIG d   1      12.700   7.047  -1.050  0.00  0.00     0.081 H 
ATOM     14  H   LIG d   1      11.180   5.034   0.669  0.00  0.00     0.032 H 
ATOM     15  H   LIG d   1      10.911   6.795   0.648  0.00  0.00     0.032 H 
ATOM     16  H   LIG d   1      14.043   5.109  -1.515  0.00  0.00     0.201 HD
ENDROOT
BRANCH   1  17
ATOM     17  C   LIG d   1       9.910   4.498  -3.264  0.00  0.00     0.001 C 
ATOM     18  H   LIG d   1      10.179   5.283  -3.971  0.00  0.00     0.033 H 
ATOM     19  H   LIG d   1       8.862   4.605  -2.983  0.00  0.00     0.033 H 
BRANCH  17  20
ATOM     20  C   LIG d   1      10.125   3.151  -3.904  0.00  0.00     0.084 A 
ATOM     21  C   LIG d   1       9.618   2.740  -5.151  0.00  0.00     0.005 A 
ATOM     22  C   LIG d   1      10.027   1.476  -5.372  0.00  0.00     0.151 A 
ATOM     23  H   LIG d   1       9.008   3.334  -5.815  0.00  0.00     0.067 H 
ATOM     24  O   LIG d   1      10.758   1.085  -4.317  0.00  0.00    -0.358 OA
ATOM     25  N   LIG d   1      10.811   2.165  -3.402  0.00  0.00    -0.083 NA
BRANCH  22  26
ATOM     26  C   LIG d   1       9.712   0.643  -6.588  0.00  0.00     0.060 C 
ATOM     27  H   LIG d   1      10.562   0.000  -6.819  0.00  0.00     0.051 H 
ATOM     28  H   LIG d   1       9.511   1.297  -7.435  0.00  0.00     0.051 H 
BRANCH  26  29
ATOM     29  N   LIG d   1       8.530  -0.188  -6.319  0.00  0.00    -0.292 N 
ATOM     30  C   LIG d   1       8.541  -0.686  -4.937  0.00  0.00     0.015 C 
ATOM     31  C   LIG d   1       7.397  -1.689  -4.751  0.00  0.00     0.025 C 
ATOM     32  H   LIG d   1       8.409   0.148  -4.248  0.00  0.00     0.044 H 
ATOM     33  H   LIG d   1       9.492  -1.178  -4.736  0.00  0.00     0.044 H 
ATOM     34  N   LIG d   1       6.141  -1.049  -5.173  0.00  0.00    -0.328 N 
ATOM     35  H   LIG d   1       7.327  -1.975  -3.702  0.00  0.00     0.048 H 
ATOM     36  H   LIG d   1       7.580  -2.571  -5.363  0.00  0.00     0.048 H 
ATOM     37  C   LIG d   1       6.096  -0.409  -6.497  0.00  0.00     0.025 C 
ATOM     38  C   LIG d   1       7.293   0.548  -6.612  0.00  0.00     0.015 C 
ATOM     39  H   LIG d   1       6.157  -1.173  -7.273  0.00  0.00     0.048 H 
ATOM     40  H   LIG d   1       5.166   0.150  -6.602  0.00  0.00     0.048 H 
ATOM     41  H   LIG d   1       7.178   1.365  -5.899  0.00  0.00     0.044 H 
ATOM     42  H   LIG d   1       7.339   0.950  -7.623  0.00  0.00     0.044 H 
BRANCH  34  43
ATOM     43  C   LIG d   1       5.020  -1.051  -4.339  0.00  0.00     0.030 A 
ATOM     44  C   LIG d   1       5.028  -1.793  -3.164  0.00  0.00    -0.041 A 
ATOM     45  C   LIG d   1       3.918  -1.792  -2.342  0.00  0.00    -0.060 A 
ATOM     46  H   LIG d   1       5.899  -2.370  -2.895  0.00  0.00     0.064 H 
ATOM     47  C   LIG d   1       2.800  -1.054  -2.687  0.00  0.00    -0.062 A 
ATOM     48  H   LIG d   1       3.923  -2.368  -1.429  0.00  0.00     0.062 H 
ATOM     49  C   LIG d   1       2.790  -0.314  -3.856  0.00  0.00    -0.060 A 
ATOM     50  H   LIG d   1       1.932  -1.058  -2.045  0.00  0.00     0.062 H 
ATOM     51  C   LIG d   1       3.896  -0.311  -4.682  0.00  0.00    -0.041 A 
ATOM     52  H   LIG d   1       1.916   0.262  -4.121  0.00  0.00     0.062 H 
ATOM     53  H   LIG d   1       3.888   0.268  -5.594  0.00  0.00     0.064 H 
ENDBRANCH  34  43
ENDBRANCH  26  29
ENDBRANCH  22  26
ENDBRANCH  17  20
ENDBRANCH   1  17
BRANCH   7  54
ATOM     54  C   LIG d   1      10.298   7.066  -1.972  0.00  0.00     0.028 C 
ATOM     55  H   LIG d   1      11.326   7.391  -2.132  0.00  0.00     0.036 H 
ATOM     56  H   LIG d   1       9.820   6.886  -2.934  0.00  0.00     0.036 H 
BRANCH  54  57
ATOM     57  C   LIG d   1       9.543   8.138  -1.229  0.00  0.00     0.216 C 
ATOM     58  O   LIG d   1       8.427   7.916  -0.812  0.00  0.00    -0.276 OA
ATOM     59  N   LIG d   1      10.111   9.344  -1.026  0.00  0.00    -0.301 N 
ATOM     60  C   LIG d   1       9.388  10.400  -0.303  0.00  0.00     0.015 C 
ATOM     61  C   LIG d   1      11.461   9.631  -1.529  0.00  0.00     0.015 C 
ATOM     62  C   LIG d   1      10.274  10.899   0.849  0.00  0.00    -0.026 C 
ATOM     63  H   LIG d   1       9.169  11.223  -0.982  0.00  0.00     0.046 H 
ATOM     64  H   LIG d   1       8.458   9.997   0.098  0.00  0.00     0.046 H 
ATOM     65  C   LIG d   1      11.629  11.336   0.289  0.00  0.00     0.038 C 
ATOM     66  H   LIG d   1      10.421  10.097   1.572  0.00  0.00     0.029 H 
ATOM     67  H   LIG d   1       9.792  11.745   1.337  0.00  0.00     0.029 H 
ATOM     68  C   LIG d   1      12.322  10.140  -0.368  0.00  0.00    -0.026 C 
ATOM     69  H   LIG d   1      11.480  12.121  -0.453  0.00  0.00     0.040 H 
ATOM     70  H   LIG d   1      12.450   9.344   0.366  0.00  0.00     0.029 H 
ATOM     71  H   LIG d   1      13.297  10.446  -0.747  0.00  0.00     0.029 H 
ATOM     72  H   LIG d   1      11.900   8.720  -1.937  0.00  0.00     0.046 H 
ATOM     73  H   LIG d   1      11.407  10.393  -2.306  0.00  0.00     0.046 H 
BRANCH  65  74
ATOM     74  C   LIG d   1      12.490  11.861   1.409  0.00  0.00     0.214 C 
ATOM     75  O   LIG d   1      12.168  11.666   2.563  0.00  0.00    -0.276 OA
ATOM     76  N   LIG d   1      13.616  12.546   1.130  0.00  0.00    -0.329 N 
ATOM     77  H   LIG d   1      13.873  12.701   0.208  0.00  0.00     0.145 HD
ATOM     78  H   LIG d   1      14.169  12.884   1.851  0.00  0.00     0.145 HD
ENDBRANCH  65  74
ENDBRANCH  54  57
ENDBRANCH   7  54
TORSDOF 8
ENDMDL
MODEL 8
REMARK VINA RESULT:      -7.2      3.084      6.039
REMARK  8 active torsions:
REMARK  status: ('A' for Active; 'I' for Inactive)
REMARK    1  A    between atoms: C_4  and  N_7 
REMARK    2  A    between atoms: N_10  and  C_13 
REMARK    3  A    between atoms: C_13  and  C_14 
REMARK    4  A    between atoms: C_16  and  C_19 
REMARK    5  A    between atoms: C_19  and  C_20 
REMARK    6  A    between atoms: C_26  and  C_28 
REMARK    7  A    between atoms: C_28  and  C_29 
REMARK       I    between atoms: C_29  and  N_31 
REMARK    8  A    between atoms: C_34  and  C_37 
REMARK       I    between atoms: C_37  and  N_39 
ROOT
ATOM      1  C   LIG d   1      10.217   4.673  -2.683  0.00  0.00     0.008 C 
ATOM      2  H   LIG d   1       9.345   4.124  -2.326  0.00  0.00     0.036 H 
ATOM      3  C   LIG d   1      11.238   4.800  -1.551  0.00  0.00    -0.030 C 
ATOM      4  N   LIG d   1      10.637   5.522  -0.422  0.00  0.00     0.227 N 
ATOM      5  C   LIG d   1      10.291   6.889  -0.833  0.00  0.00    -0.033 C 
ATOM      6  C   LIG d   1       9.232   6.841  -1.937  0.00  0.00    -0.009 C 
ATOM      7  C   LIG d   1       9.790   6.071  -3.138  0.00  0.00    -0.020 C 
ATOM      8  H   LIG d   1       9.020   5.985  -3.905  0.00  0.00     0.031 H 
ATOM      9  H   LIG d   1      11.545   3.807  -1.224  0.00  0.00     0.082 H 
ATOM     10  H   LIG d   1      12.111   5.350  -1.908  0.00  0.00     0.082 H 
ATOM     11  H   LIG d   1       9.802   5.040  -0.123  0.00  0.00     0.201 HD
ATOM     12  H   LIG d   1       9.897   7.435   0.024  0.00  0.00     0.081 H 
ATOM     13  H   LIG d   1      11.183   7.392  -1.205  0.00  0.00     0.081 H 
ATOM     14  H   LIG d   1       8.341   6.337  -1.565  0.00  0.00     0.032 H 
ATOM     15  H   LIG d   1       8.978   7.856  -2.242  0.00  0.00     0.032 H 
ATOM     16  H   LIG d   1      11.295   5.557   0.342  0.00  0.00     0.201 HD
ENDROOT
BRANCH   1  17
ATOM     17  C   LIG d   1      10.848   3.922  -3.858  0.00  0.00     0.001 C 
ATOM     18  H   LIG d   1      11.583   3.212  -3.481  0.00  0.00     0.033 H 
ATOM     19  H   LIG d   1      11.337   4.634  -4.523  0.00  0.00     0.033 H 
BRANCH  17  20
ATOM     20  C   LIG d   1       9.775   3.181  -4.613  0.00  0.00     0.084 A 
ATOM     21  C   LIG d   1       9.879   2.698  -5.930  0.00  0.00     0.005 A 
ATOM     22  C   LIG d   1       8.717   2.094  -6.247  0.00  0.00     0.151 A 
ATOM     23  H   LIG d   1      10.740   2.792  -6.575  0.00  0.00     0.067 H 
ATOM     24  O   LIG d   1       7.898   2.189  -5.188  0.00  0.00    -0.358 OA
ATOM     25  N   LIG d   1       8.592   2.876  -4.163  0.00  0.00    -0.083 NA
BRANCH  22  26
ATOM     26  C   LIG d   1       8.390   1.435  -7.562  0.00  0.00     0.060 C 
ATOM     27  H   LIG d   1       8.789   0.421  -7.570  0.00  0.00     0.051 H 
ATOM     28  H   LIG d   1       8.835   2.007  -8.376  0.00  0.00     0.051 H 
BRANCH  26  29
ATOM     29  N   LIG d   1       6.931   1.388  -7.736  0.00  0.00    -0.292 N 
ATOM     30  C   LIG d   1       6.537   1.961  -9.030  0.00  0.00     0.015 C 
ATOM     31  C   LIG d   1       5.009   2.060  -9.097  0.00  0.00     0.025 C 
ATOM     32  H   LIG d   1       6.895   1.320  -9.836  0.00  0.00     0.044 H 
ATOM     33  H   LIG d   1       6.971   2.955  -9.135  0.00  0.00     0.044 H 
ATOM     34  N   LIG d   1       4.442   0.735  -8.804  0.00  0.00    -0.328 N 
ATOM     35  H   LIG d   1       4.705   2.376 -10.095  0.00  0.00     0.048 H 
ATOM     36  H   LIG d   1       4.657   2.780  -8.358  0.00  0.00     0.048 H 
ATOM     37  C   LIG d   1       4.891   0.038  -7.588  0.00  0.00     0.025 C 
ATOM     38  C   LIG d   1       6.428   0.017  -7.584  0.00  0.00     0.015 C 
ATOM     39  H   LIG d   1       4.526   0.568  -6.708  0.00  0.00     0.048 H 
ATOM     40  H   LIG d   1       4.509  -0.983  -7.589  0.00  0.00     0.048 H 
ATOM     41  H   LIG d   1       6.787  -0.597  -8.411  0.00  0.00     0.044 H 
ATOM     42  H   LIG d   1       6.782  -0.398  -6.641  0.00  0.00     0.044 H 
BRANCH  34  43
ATOM     43  C   LIG d   1       3.499   0.154  -9.655  0.00  0.00     0.030 A 
ATOM     44  C   LIG d   1       3.808  -0.061 -10.993  0.00  0.00    -0.041 A 
ATOM     45  C   LIG d   1       2.873  -0.636 -11.831  0.00  0.00    -0.060 A 
ATOM     46  H   LIG d   1       4.776   0.221 -11.376  0.00  0.00     0.064 H 
ATOM     47  C   LIG d   1       1.631  -0.997 -11.342  0.00  0.00    -0.062 A 
ATOM     48  H   LIG d   1       3.112  -0.804 -12.871  0.00  0.00     0.062 H 
ATOM     49  C   LIG d   1       1.321  -0.785 -10.010  0.00  0.00    -0.060 A 
ATOM     50  H   LIG d   1       0.900  -1.443 -12.000  0.00  0.00     0.062 H 
ATOM     51  C   LIG d   1       2.251  -0.210  -9.167  0.00  0.00    -0.041 A 
ATOM     52  H   LIG d   1       0.351  -1.069  -9.631  0.00  0.00     0.062 H 
ATOM     53  H   LIG d   1       2.009  -0.045  -8.127  0.00  0.00     0.064 H 
ENDBRANCH  34  43
ENDBRANCH  26  29
ENDBRANCH  22  26
ENDBRANCH  17  20
ENDBRANCH   1  17
BRANCH   7  54
ATOM     54  C   LIG d   1      10.999   6.816  -3.706  0.00  0.00     0.028 C 
ATOM     55  H   LIG d   1      11.655   7.119  -2.891  0.00  0.00     0.036 H 
ATOM     56  H   LIG d   1      11.543   6.161  -4.386  0.00  0.00     0.036 H 
BRANCH  54  57
ATOM     57  C   LIG d   1      10.530   8.037  -4.454  0.00  0.00     0.216 C 
ATOM     58  O   LIG d   1      10.747   9.143  -4.007  0.00  0.00    -0.276 OA
ATOM     59  N   LIG d   1       9.869   7.900  -5.621  0.00  0.00    -0.301 N 
ATOM     60  C   LIG d   1       9.406   9.081  -6.362  0.00  0.00     0.015 C 
ATOM     61  C   LIG d   1       9.594   6.567  -6.174  0.00  0.00     0.015 C 
ATOM     62  C   LIG d   1       9.940   8.997  -7.800  0.00  0.00    -0.026 C 
ATOM     63  H   LIG d   1       8.316   9.100  -6.374  0.00  0.00     0.046 H 
ATOM     64  H   LIG d   1       9.784   9.985  -5.883  0.00  0.00     0.046 H 
ATOM     65  C   LIG d   1       9.516   7.662  -8.417  0.00  0.00     0.038 C 
ATOM     66  H   LIG d   1      11.027   9.065  -7.792  0.00  0.00     0.029 H 
ATOM     67  H   LIG d   1       9.528   9.816  -8.389  0.00  0.00     0.029 H 
ATOM     68  C   LIG d   1      10.121   6.510  -7.611  0.00  0.00    -0.026 C 
ATOM     69  H   LIG d   1       8.428   7.583  -8.403  0.00  0.00     0.040 H 
ATOM     70  H   LIG d   1      11.207   6.601  -7.604  0.00  0.00     0.029 H 
ATOM     71  H   LIG d   1       9.838   5.560  -8.064  0.00  0.00     0.029 H 
ATOM     72  H   LIG d   1      10.096   5.810  -5.570  0.00  0.00     0.046 H 
ATOM     73  H   LIG d   1       8.519   6.385  -6.170  0.00  0.00     0.046 H 
BRANCH  65  74
ATOM     74  C   LIG d   1      10.006   7.589  -9.841  0.00  0.00     0.214 C 
ATOM     75  O   LIG d   1      10.632   6.620 -10.218  0.00  0.00    -0.276 OA
ATOM     76  N   LIG d   1       9.747   8.599 -10.695  0.00  0.00    -0.329 N 
ATOM     77  H   LIG d   1       9.246   9.373 -10.393  0.00  0.00     0.145 HD
ATOM     78  H   LIG d   1      10.063   8.552 -11.611  0.00  0.00     0.145 HD
ENDBRANCH  65  74
ENDBRANCH  54  57
ENDBRANCH   7  54
TORSDOF 8
ENDMDL
MODEL 9
REMARK VINA RESULT:      -7.1      6.071     10.518
REMARK  8 active torsions:
REMARK  status: ('A' for Active; 'I' for Inactive)
REMARK    1  A    between atoms: C_4  and  N_7 
REMARK    2  A    between atoms: N_10  and  C_13 
REMARK    3  A    between atoms: C_13  and  C_14 
REMARK    4  A    between atoms: C_16  and  C_19 
REMARK    5  A    between atoms: C_19  and  C_20 
REMARK    6  A    between atoms: C_26  and  C_28 
REMARK    7  A    between atoms: C_28  and  C_29 
REMARK       I    between atoms: C_29  and  N_31 
REMARK    8  A    between atoms: C_34  and  C_37 
REMARK       I    between atoms: C_37  and  N_39 
ROOT
ATOM      1  C   LIG d   1       6.242  -1.524  -3.125  0.00  0.00     0.008 C 
ATOM      2  H   LIG d   1       6.558  -1.950  -2.172  0.00  0.00     0.036 H 
ATOM      3  C   LIG d   1       5.896  -0.047  -2.934  0.00  0.00    -0.030 C 
ATOM      4  N   LIG d   1       4.806   0.083  -1.958  0.00  0.00     0.227 N 
ATOM      5  C   LIG d   1       3.596  -0.570  -2.473  0.00  0.00    -0.033 C 
ATOM      6  C   LIG d   1       3.855  -2.069  -2.645  0.00  0.00    -0.009 C 
ATOM      7  C   LIG d   1       5.007  -2.272  -3.634  0.00  0.00    -0.020 C 
ATOM      8  H   LIG d   1       5.233  -3.335  -3.717  0.00  0.00     0.031 H 
ATOM      9  H   LIG d   1       6.773   0.489  -2.572  0.00  0.00     0.082 H 
ATOM     10  H   LIG d   1       5.580   0.379  -3.888  0.00  0.00     0.082 H 
ATOM     11  H   LIG d   1       5.081  -0.354  -1.091  0.00  0.00     0.201 HD
ATOM     12  H   LIG d   1       2.778  -0.421  -1.769  0.00  0.00     0.081 H 
ATOM     13  H   LIG d   1       3.330  -0.134  -3.435  0.00  0.00     0.081 H 
ATOM     14  H   LIG d   1       4.121  -2.505  -1.683  0.00  0.00     0.032 H 
ATOM     15  H   LIG d   1       2.956  -2.551  -3.029  0.00  0.00     0.032 H 
ATOM     16  H   LIG d   1       4.617   1.061  -1.795  0.00  0.00     0.201 HD
ENDROOT
BRANCH   1  17
ATOM     17  C   LIG d   1       7.376  -1.656  -4.145  0.00  0.00     0.001 C 
ATOM     18  H   LIG d   1       8.140  -0.909  -3.935  0.00  0.00     0.033 H 
ATOM     19  H   LIG d   1       6.981  -1.501  -5.149  0.00  0.00     0.033 H 
BRANCH  17  20
ATOM     20  C   LIG d   1       7.980  -3.033  -4.048  0.00  0.00     0.084 A 
ATOM     21  C   LIG d   1       7.777  -4.089  -4.955  0.00  0.00     0.005 A 
ATOM     22  C   LIG d   1       8.485  -5.151  -4.526  0.00  0.00     0.151 A 
ATOM     23  H   LIG d   1       7.161  -4.054  -5.841  0.00  0.00     0.067 H 
ATOM     24  O   LIG d   1       9.112  -4.802  -3.392  0.00  0.00    -0.358 OA
ATOM     25  N   LIG d   1       8.782  -3.454  -3.112  0.00  0.00    -0.083 NA
BRANCH  22  26
ATOM     26  C   LIG d   1       8.555  -6.499  -5.197  0.00  0.00     0.060 C 
ATOM     27  H   LIG d   1       9.386  -7.070  -4.781  0.00  0.00     0.051 H 
ATOM     28  H   LIG d   1       8.708  -6.365  -6.267  0.00  0.00     0.051 H 
BRANCH  26  29
ATOM     29  N   LIG d   1       7.299  -7.225  -4.967  0.00  0.00    -0.292 N 
ATOM     30  C   LIG d   1       6.463  -7.227  -6.176  0.00  0.00     0.015 C 
ATOM     31  C   LIG d   1       5.095  -7.831  -5.845  0.00  0.00     0.025 C 
ATOM     32  H   LIG d   1       6.946  -7.822  -6.951  0.00  0.00     0.044 H 
ATOM     33  H   LIG d   1       6.334  -6.205  -6.529  0.00  0.00     0.044 H 
ATOM     34  N   LIG d   1       5.303  -9.151  -5.230  0.00  0.00    -0.328 N 
ATOM     35  H   LIG d   1       4.512  -7.941  -6.759  0.00  0.00     0.048 H 
ATOM     36  H   LIG d   1       4.567  -7.182  -5.146  0.00  0.00     0.048 H 
ATOM     37  C   LIG d   1       6.232  -9.252  -4.094  0.00  0.00     0.025 C 
ATOM     38  C   LIG d   1       7.561  -8.592  -4.497  0.00  0.00     0.015 C 
ATOM     39  H   LIG d   1       5.810  -8.736  -3.231  0.00  0.00     0.048 H 
ATOM     40  H   LIG d   1       6.401 -10.301  -3.850  0.00  0.00     0.048 H 
ATOM     41  H   LIG d   1       8.028  -9.169  -5.296  0.00  0.00     0.044 H 
ATOM     42  H   LIG d   1       8.225  -8.560  -3.635  0.00  0.00     0.044 H 
BRANCH  34  43
ATOM     43  C   LIG d   1       4.633 -10.279  -5.710  0.00  0.00     0.030 A 
ATOM     44  C   LIG d   1       3.925 -11.094  -4.835  0.00  0.00    -0.041 A 
ATOM     45  C   LIG d   1       3.263 -12.208  -5.313  0.00  0.00    -0.060 A 
ATOM     46  H   LIG d   1       3.893 -10.857  -3.782  0.00  0.00     0.064 H 
ATOM     47  C   LIG d   1       3.304 -12.513  -6.662  0.00  0.00    -0.062 A 
ATOM     48  H   LIG d   1       2.713 -12.841  -4.633  0.00  0.00     0.062 H 
ATOM     49  C   LIG d   1       4.007 -11.703  -7.535  0.00  0.00    -0.060 A 
ATOM     50  H   LIG d   1       2.789 -13.387  -7.032  0.00  0.00     0.062 H 
ATOM     51  C   LIG d   1       4.671 -10.589  -7.064  0.00  0.00    -0.041 A 
ATOM     52  H   LIG d   1       4.036 -11.944  -8.588  0.00  0.00     0.062 H 
ATOM     53  H   LIG d   1       5.220  -9.956  -7.747  0.00  0.00     0.064 H 
ENDBRANCH  34  43
ENDBRANCH  26  29
ENDBRANCH  22  26
ENDBRANCH  17  20
ENDBRANCH   1  17
BRANCH   7  54
ATOM     54  C   LIG d   1       4.606  -1.724  -5.005  0.00  0.00     0.028 C 
ATOM     55  H   LIG d   1       3.667  -1.178  -4.918  0.00  0.00     0.036 H 
ATOM     56  H   LIG d   1       5.384  -1.054  -5.371  0.00  0.00     0.036 H 
BRANCH  54  57
ATOM     57  C   LIG d   1       4.433  -2.868  -5.971  0.00  0.00     0.216 C 
ATOM     58  O   LIG d   1       4.419  -4.010  -5.564  0.00  0.00    -0.276 OA
ATOM     59  N   LIG d   1       4.294  -2.621  -7.289  0.00  0.00    -0.301 N 
ATOM     60  C   LIG d   1       4.124  -3.725  -8.244  0.00  0.00     0.015 C 
ATOM     61  C   LIG d   1       4.314  -1.243  -7.799  0.00  0.00     0.015 C 
ATOM     62  C   LIG d   1       2.860  -3.462  -9.076  0.00  0.00    -0.026 C 
ATOM     63  H   LIG d   1       4.993  -3.777  -8.900  0.00  0.00     0.046 H 
ATOM     64  H   LIG d   1       4.018  -4.664  -7.701  0.00  0.00     0.046 H 
ATOM     65  C   LIG d   1       2.961  -2.080  -9.725  0.00  0.00     0.038 C 
ATOM     66  H   LIG d   1       1.983  -3.496  -8.430  0.00  0.00     0.029 H 
ATOM     67  H   LIG d   1       2.771  -4.223  -9.851  0.00  0.00     0.029 H 
ATOM     68  C   LIG d   1       3.053  -1.008  -8.636  0.00  0.00    -0.026 C 
ATOM     69  H   LIG d   1       3.853  -2.038 -10.352  0.00  0.00     0.040 H 
ATOM     70  H   LIG d   1       2.174  -1.066  -7.994  0.00  0.00     0.029 H 
ATOM     71  H   LIG d   1       3.102  -0.023  -9.099  0.00  0.00     0.029 H 
ATOM     72  H   LIG d   1       4.333  -0.544  -6.963  0.00  0.00     0.046 H 
ATOM     73  H   LIG d   1       5.198  -1.097  -8.420  0.00  0.00     0.046 H 
BRANCH  65  74
ATOM     74  C   LIG d   1       1.740  -1.833 -10.572  0.00  0.00     0.214 C 
ATOM     75  O   LIG d   1       1.675  -0.839 -11.266  0.00  0.00    -0.276 OA
ATOM     76  N   LIG d   1       0.722  -2.715 -10.561  0.00  0.00    -0.329 N 
ATOM     77  H   LIG d   1       0.775  -3.509 -10.007  0.00  0.00     0.145 HD
ATOM     78  H   LIG d   1      -0.065  -2.554 -11.106  0.00  0.00     0.145 HD
ENDBRANCH  65  74
ENDBRANCH  54  57
ENDBRANCH   7  54
TORSDOF 8
ENDMDL
