MODEL 1
REMARK VINA RESULT:      -7.2      0.000      0.000
REMARK  6 active torsions:
REMARK  status: ('A' for Active; 'I' for Inactive)
REMARK    1  A    between atoms: C_1  and  C_2 
REMARK    2  A    between atoms: C_9  and  C_26 
REMARK    3  A    between atoms: C_10  and  C_16 
REMARK    4  A    between atoms: C_16  and  C_17 
REMARK    5  A    between atoms: C_17  and  C_18 
REMARK       I    between atoms: C_18  and  N_20 
REMARK    6  A    between atoms: N_20  and  C_21 
ROOT
ATOM      1  C   LIG d   1      10.538   0.238  -5.892  0.00  0.00    -0.005 A 
ATOM      2  C   LIG d   1      11.188   1.397  -5.725  0.00  0.00     0.096 A 
ATOM      3  O   LIG d   1      10.481   2.217  -4.929  0.00  0.00    -0.463 OA
ATOM      4  C   LIG d   1       9.330   1.634  -4.534  0.00  0.00     0.139 A 
ATOM      5  C   LIG d   1       9.296   0.351  -5.117  0.00  0.00     0.024 A 
ATOM      6  C   LIG d   1       8.219  -0.496  -4.890  0.00  0.00    -0.040 A 
ATOM      7  C   LIG d   1       7.173  -0.067  -4.072  0.00  0.00     0.022 A 
ATOM      8  C   LIG d   1       6.019  -0.933  -3.814  0.00  0.00    -0.030 A 
ATOM      9  C   LIG d   1       5.028  -0.461  -3.016  0.00  0.00     0.041 A 
ATOM     10  C   LIG d   1       5.127   0.835  -2.465  0.00  0.00     0.341 A 
ATOM     11  O   LIG d   1       4.231   1.245  -1.750  0.00  0.00    -0.245 OA
ATOM     12  O   LIG d   1       6.184   1.625  -2.708  0.00  0.00    -0.422 OA
ATOM     13  C   LIG d   1       7.207   1.219  -3.494  0.00  0.00     0.143 A 
ATOM     14  C   LIG d   1       8.284   2.056  -3.728  0.00  0.00     0.024 A 
ATOM     15  H   LIG d   1      12.144   1.638  -6.167  0.00  0.00     0.103 H 
ATOM     16  H   LIG d   1       8.194  -1.479  -5.336  0.00  0.00     0.063 H 
ATOM     17  H   LIG d   1       8.310   3.039  -3.280  0.00  0.00     0.069 H 
ENDROOT
BRANCH   9  18
ATOM     18  C   LIG d   1       3.825  -1.319  -2.717  0.00  0.00    -0.012 C 
ATOM     19  H   LIG d   1       3.941  -2.288  -3.201  0.00  0.00     0.032 H 
ATOM     20  H   LIG d   1       3.738  -1.458  -1.640  0.00  0.00     0.032 H 
BRANCH  18  21
ATOM     21  C   LIG d   1       2.564  -0.633  -3.247  0.00  0.00     0.029 C 
ATOM     22  H   LIG d   1       1.762  -1.366  -3.335  0.00  0.00     0.036 H 
ATOM     23  H   LIG d   1       2.262   0.155  -2.557  0.00  0.00     0.036 H 
BRANCH  21  24
ATOM     24  C   LIG d   1       2.850  -0.034  -4.600  0.00  0.00     0.219 C 
ATOM     25  O   LIG d   1       2.704   1.156  -4.779  0.00  0.00    -0.275 OA
ATOM     26  N   LIG d   1       3.266  -0.822  -5.612  0.00  0.00    -0.265 N 
ATOM     27  H   LIG d   1       3.382  -1.775  -5.468  0.00  0.00     0.157 HD
BRANCH  26  28
ATOM     28  C   LIG d   1       3.528  -0.270  -6.860  0.00  0.00     0.164 A 
ATOM     29  S   LIG d   1       2.501  -0.196  -8.258  0.00  0.00    -0.060 SA
ATOM     30  C   LIG d   1       3.641   0.656  -9.339  0.00  0.00    -0.003 A 
ATOM     31  C   LIG d   1       4.708   0.802  -8.515  0.00  0.00     0.037 A 
ATOM     32  H   LIG d   1       3.514   0.968 -10.364  0.00  0.00     0.071 H 
ATOM     33  N   LIG d   1       4.621   0.335  -7.285  0.00  0.00    -0.233 NA
ATOM     34  H   LIG d   1       5.607   1.291  -8.858  0.00  0.00     0.084 H 
ENDBRANCH  26  28
ENDBRANCH  21  24
ENDBRANCH  18  21
ENDBRANCH   9  18
BRANCH   8  35
ATOM     35  C   LIG d   1       5.938  -2.313  -4.415  0.00  0.00    -0.039 C 
ATOM     36  H   LIG d   1       5.265  -2.297  -5.272  0.00  0.00     0.028 H 
ATOM     37  H   LIG d   1       6.930  -2.628  -4.737  0.00  0.00     0.028 H 
ATOM     38  H   LIG d   1       5.559  -3.012  -3.668  0.00  0.00     0.028 H 
ENDBRANCH   8  35
BRANCH   1  39
ATOM     39  C   LIG d   1      10.991  -0.944  -6.710  0.00  0.00    -0.036 C 
ATOM     40  H   LIG d   1      10.715  -1.866  -6.200  0.00  0.00     0.028 H 
ATOM     41  H   LIG d   1      10.513  -0.913  -7.689  0.00  0.00     0.028 H 
ATOM     42  H   LIG d   1      12.074  -0.906  -6.835  0.00  0.00     0.028 H 
ENDBRANCH   1  39
TORSDOF 6
ENDMDL
MODEL 2
REMARK VINA RESULT:      -6.8      4.832      8.750
REMARK  6 active torsions:
REMARK  status: ('A' for Active; 'I' for Inactive)
REMARK    1  A    between atoms: C_1  and  C_2 
REMARK    2  A    between atoms: C_9  and  C_26 
REMARK    3  A    between atoms: C_10  and  C_16 
REMARK    4  A    between atoms: C_16  and  C_17 
REMARK    5  A    between atoms: C_17  and  C_18 
REMARK       I    between atoms: C_18  and  N_20 
REMARK    6  A    between atoms: N_20  and  C_21 
ROOT
ATOM      1  C   LIG d   1       2.659  -2.945 -15.458  0.00  0.00    -0.005 A 
ATOM      2  C   LIG d   1       3.701  -2.987 -16.297  0.00  0.00     0.096 A 
ATOM      3  O   LIG d   1       4.721  -2.258 -15.810  0.00  0.00    -0.463 OA
ATOM      4  C   LIG d   1       4.395  -1.702 -14.626  0.00  0.00     0.139 A 
ATOM      5  C   LIG d   1       3.075  -2.100 -14.330  0.00  0.00     0.024 A 
ATOM      6  C   LIG d   1       2.458  -1.678 -13.160  0.00  0.00    -0.040 A 
ATOM      7  C   LIG d   1       3.160  -0.860 -12.275  0.00  0.00     0.022 A 
ATOM      8  C   LIG d   1       2.537  -0.392 -11.033  0.00  0.00    -0.030 A 
ATOM      9  C   LIG d   1       3.265   0.407 -10.212  0.00  0.00     0.041 A 
ATOM     10  C   LIG d   1       4.582   0.768 -10.569  0.00  0.00     0.341 A 
ATOM     11  O   LIG d   1       5.224   1.485  -9.823  0.00  0.00    -0.245 OA
ATOM     12  O   LIG d   1       5.146   0.340 -11.710  0.00  0.00    -0.422 OA
ATOM     13  C   LIG d   1       4.478  -0.457 -12.574  0.00  0.00     0.143 A 
ATOM     14  C   LIG d   1       5.083  -0.883 -13.743  0.00  0.00     0.024 A 
ATOM     15  H   LIG d   1       3.720  -3.529 -17.231  0.00  0.00     0.103 H 
ATOM     16  H   LIG d   1       1.447  -1.985 -12.935  0.00  0.00     0.063 H 
ATOM     17  H   LIG d   1       6.095  -0.577 -13.969  0.00  0.00     0.069 H 
ENDROOT
BRANCH   9  18
ATOM     18  C   LIG d   1       2.670   0.907  -8.920  0.00  0.00    -0.012 C 
ATOM     19  H   LIG d   1       3.340   1.639  -8.471  0.00  0.00     0.032 H 
ATOM     20  H   LIG d   1       1.705   1.372  -9.122  0.00  0.00     0.032 H 
BRANCH  18  21
ATOM     21  C   LIG d   1       2.479  -0.267  -7.958  0.00  0.00     0.029 C 
ATOM     22  H   LIG d   1       1.414  -0.424  -7.784  0.00  0.00     0.036 H 
ATOM     23  H   LIG d   1       2.913  -1.168  -8.393  0.00  0.00     0.036 H 
BRANCH  21  24
ATOM     24  C   LIG d   1       3.162   0.040  -6.651  0.00  0.00     0.219 C 
ATOM     25  O   LIG d   1       4.336   0.341  -6.636  0.00  0.00    -0.275 OA
ATOM     26  N   LIG d   1       2.468  -0.022  -5.497  0.00  0.00    -0.265 N 
ATOM     27  H   LIG d   1       1.528  -0.263  -5.509  0.00  0.00     0.157 HD
BRANCH  26  28
ATOM     28  C   LIG d   1       3.097   0.260  -4.290  0.00  0.00     0.164 A 
ATOM     29  S   LIG d   1       3.685  -0.841  -3.083  0.00  0.00    -0.060 SA
ATOM     30  C   LIG d   1       4.311   0.382  -1.939  0.00  0.00    -0.003 A 
ATOM     31  C   LIG d   1       4.004   1.526  -2.600  0.00  0.00     0.037 A 
ATOM     32  H   LIG d   1       4.798   0.247  -0.985  0.00  0.00     0.071 H 
ATOM     33  N   LIG d   1       3.405   1.433  -3.771  0.00  0.00    -0.233 NA
ATOM     34  H   LIG d   1       4.248   2.489  -2.179  0.00  0.00     0.084 H 
ENDBRANCH  26  28
ENDBRANCH  21  24
ENDBRANCH  18  21
ENDBRANCH   9  18
BRANCH   8  35
ATOM     35  C   LIG d   1       1.129  -0.792 -10.674  0.00  0.00    -0.039 C 
ATOM     36  H   LIG d   1       0.604   0.064 -10.252  0.00  0.00     0.028 H 
ATOM     37  H   LIG d   1       0.609  -1.133 -11.569  0.00  0.00     0.028 H 
ATOM     38  H   LIG d   1       1.157  -1.599  -9.941  0.00  0.00     0.028 H 
ENDBRANCH   8  35
BRANCH   1  39
ATOM     39  C   LIG d   1       1.326  -3.628 -15.634  0.00  0.00    -0.036 C 
ATOM     40  H   LIG d   1       0.527  -2.892 -15.549  0.00  0.00     0.028 H 
ATOM     41  H   LIG d   1       1.287  -4.096 -16.618  0.00  0.00     0.028 H 
ATOM     42  H   LIG d   1       1.204  -4.390 -14.865  0.00  0.00     0.028 H 
ENDBRANCH   1  39
TORSDOF 6
ENDMDL
MODEL 3
REMARK VINA RESULT:      -6.7      4.477      7.963
REMARK  6 active torsions:
REMARK  status: ('A' for Active; 'I' for Inactive)
REMARK    1  A    between atoms: C_1  and  C_2 
REMARK    2  A    between atoms: C_9  and  C_26 
REMARK    3  A    between atoms: C_10  and  C_16 
REMARK    4  A    between atoms: C_16  and  C_17 
REMARK    5  A    between atoms: C_17  and  C_18 
REMARK       I    between atoms: C_18  and  N_20 
REMARK    6  A    between atoms: N_20  and  C_21 
ROOT
ATOM      1  C   LIG d   1       4.012  -0.503  -2.791  0.00  0.00    -0.005 A 
ATOM      2  C   LIG d   1       3.589  -1.774  -2.783  0.00  0.00     0.096 A 
ATOM      3  O   LIG d   1       4.548  -2.587  -3.258  0.00  0.00    -0.463 OA
ATOM      4  C   LIG d   1       5.649  -1.887  -3.601  0.00  0.00     0.139 A 
ATOM      5  C   LIG d   1       5.379  -0.531  -3.328  0.00  0.00     0.024 A 
ATOM      6  C   LIG d   1       6.336   0.442  -3.581  0.00  0.00    -0.040 A 
ATOM      7  C   LIG d   1       7.573   0.064  -4.104  0.00  0.00     0.022 A 
ATOM      8  C   LIG d   1       8.605   1.065  -4.388  0.00  0.00    -0.030 A 
ATOM      9  C   LIG d   1       9.788   0.640  -4.902  0.00  0.00     0.041 A 
ATOM     10  C   LIG d   1       9.991  -0.735  -5.152  0.00  0.00     0.341 A 
ATOM     11  O   LIG d   1      11.056  -1.102  -5.612  0.00  0.00    -0.245 OA
ATOM     12  O   LIG d   1       9.041  -1.647  -4.894  0.00  0.00    -0.422 OA
ATOM     13  C   LIG d   1       7.840  -1.293  -4.382  0.00  0.00     0.143 A 
ATOM     14  C   LIG d   1       6.878  -2.255  -4.127  0.00  0.00     0.024 A 
ATOM     15  H   LIG d   1       2.616  -2.098  -2.443  0.00  0.00     0.103 H 
ATOM     16  H   LIG d   1       6.128   1.481  -3.371  0.00  0.00     0.063 H 
ATOM     17  H   LIG d   1       7.087  -3.294  -4.336  0.00  0.00     0.069 H 
ENDROOT
BRANCH   9  18
ATOM     18  C   LIG d   1      10.881   1.632  -5.204  0.00  0.00    -0.012 C 
ATOM     19  H   LIG d   1      11.455   1.289  -6.064  0.00  0.00     0.032 H 
ATOM     20  H   LIG d   1      10.438   2.604  -5.426  0.00  0.00     0.032 H 
BRANCH  18  21
ATOM     21  C   LIG d   1      11.805   1.758  -3.991  0.00  0.00     0.029 C 
ATOM     22  H   LIG d   1      11.510   1.031  -3.233  0.00  0.00     0.036 H 
ATOM     23  H   LIG d   1      12.834   1.565  -4.297  0.00  0.00     0.036 H 
BRANCH  21  24
ATOM     24  C   LIG d   1      11.701   3.148  -3.422  0.00  0.00     0.219 C 
ATOM     25  O   LIG d   1      12.126   4.094  -4.051  0.00  0.00    -0.275 OA
ATOM     26  N   LIG d   1      11.137   3.342  -2.213  0.00  0.00    -0.265 N 
ATOM     27  H   LIG d   1      10.798   2.584  -1.710  0.00  0.00     0.157 HD
BRANCH  26  28
ATOM     28  C   LIG d   1      11.041   4.625  -1.687  0.00  0.00     0.164 A 
ATOM     29  S   LIG d   1      12.183   5.489  -0.706  0.00  0.00    -0.060 SA
ATOM     30  C   LIG d   1      11.237   6.995  -0.520  0.00  0.00    -0.003 A 
ATOM     31  C   LIG d   1      10.128   6.684  -1.236  0.00  0.00     0.037 A 
ATOM     32  H   LIG d   1      11.481   7.900   0.013  0.00  0.00     0.071 H 
ATOM     33  N   LIG d   1      10.061   5.499  -1.810  0.00  0.00    -0.233 NA
ATOM     34  H   LIG d   1       9.319   7.393  -1.336  0.00  0.00     0.084 H 
ENDBRANCH  26  28
ENDBRANCH  21  24
ENDBRANCH  18  21
ENDBRANCH   9  18
BRANCH   8  35
ATOM     35  C   LIG d   1       8.362   2.526  -4.112  0.00  0.00    -0.039 C 
ATOM     36  H   LIG d   1       9.016   3.129  -4.742  0.00  0.00     0.028 H 
ATOM     37  H   LIG d   1       7.322   2.769  -4.329  0.00  0.00     0.028 H 
ATOM     38  H   LIG d   1       8.573   2.737  -3.063  0.00  0.00     0.028 H 
ENDBRANCH   8  35
BRANCH   1  39
ATOM     39  C   LIG d   1       3.240   0.710  -2.338  0.00  0.00    -0.036 C 
ATOM     40  H   LIG d   1       2.350   0.826  -2.956  0.00  0.00     0.028 H 
ATOM     41  H   LIG d   1       2.946   0.585  -1.296  0.00  0.00     0.028 H 
ATOM     42  H   LIG d   1       3.868   1.596  -2.434  0.00  0.00     0.028 H 
ENDBRANCH   1  39
TORSDOF 6
ENDMDL
MODEL 4
REMARK VINA RESULT:      -6.7      8.795     11.260
REMARK  6 active torsions:
REMARK  status: ('A' for Active; 'I' for Inactive)
REMARK    1  A    between atoms: C_1  and  C_2 
REMARK    2  A    between atoms: C_9  and  C_26 
REMARK    3  A    between atoms: C_10  and  C_16 
REMARK    4  A    between atoms: C_16  and  C_17 
REMARK    5  A    between atoms: C_17  and  C_18 
REMARK       I    between atoms: C_18  and  N_20 
REMARK    6  A    between atoms: N_20  and  C_21 
ROOT
ATOM      1  C   LIG d   1       9.486   7.031  -8.602  0.00  0.00    -0.005 A 
ATOM      2  C   LIG d   1       9.483   8.168  -9.310  0.00  0.00     0.096 A 
ATOM      3  O   LIG d   1       9.586   9.228  -8.488  0.00  0.00    -0.463 OA
ATOM      4  C   LIG d   1       9.662   8.835  -7.200  0.00  0.00     0.139 A 
ATOM      5  C   LIG d   1       9.604   7.427  -7.192  0.00  0.00     0.024 A 
ATOM      6  C   LIG d   1       9.661   6.726  -5.995  0.00  0.00    -0.040 A 
ATOM      7  C   LIG d   1       9.783   7.431  -4.797  0.00  0.00     0.022 A 
ATOM      8  C   LIG d   1       9.841   6.725  -3.514  0.00  0.00    -0.030 A 
ATOM      9  C   LIG d   1       9.953   7.462  -2.380  0.00  0.00     0.041 A 
ATOM     10  C   LIG d   1      10.006   8.870  -2.460  0.00  0.00     0.341 A 
ATOM     11  O   LIG d   1      10.107   9.519  -1.435  0.00  0.00    -0.245 OA
ATOM     12  O   LIG d   1       9.948   9.512  -3.637  0.00  0.00    -0.422 OA
ATOM     13  C   LIG d   1       9.835   8.841  -4.805  0.00  0.00     0.143 A 
ATOM     14  C   LIG d   1       9.777   9.528  -6.005  0.00  0.00     0.024 A 
ATOM     15  H   LIG d   1       9.408   8.226 -10.385  0.00  0.00     0.103 H 
ATOM     16  H   LIG d   1       9.617   5.648  -5.991  0.00  0.00     0.063 H 
ATOM     17  H   LIG d   1       9.822  10.608  -6.009  0.00  0.00     0.069 H 
ENDROOT
BRANCH   9  18
ATOM     18  C   LIG d   1      10.023   6.779  -1.038  0.00  0.00    -0.012 C 
ATOM     19  H   LIG d   1       9.657   7.456  -0.266  0.00  0.00     0.032 H 
ATOM     20  H   LIG d   1       9.406   5.880  -1.056  0.00  0.00     0.032 H 
BRANCH  18  21
ATOM     21  C   LIG d   1      11.473   6.397  -0.735  0.00  0.00     0.029 C 
ATOM     22  H   LIG d   1      11.503   5.392  -0.313  0.00  0.00     0.036 H 
ATOM     23  H   LIG d   1      12.055   6.421  -1.656  0.00  0.00     0.036 H 
BRANCH  21  24
ATOM     24  C   LIG d   1      12.053   7.374   0.254  0.00  0.00     0.219 C 
ATOM     25  O   LIG d   1      13.255   7.498   0.350  0.00  0.00    -0.275 OA
ATOM     26  N   LIG d   1      11.235   8.110   1.034  0.00  0.00    -0.265 N 
ATOM     27  H   LIG d   1      10.273   8.009   0.958  0.00  0.00     0.157 HD
BRANCH  26  28
ATOM     28  C   LIG d   1      11.770   9.010   1.948  0.00  0.00     0.164 A 
ATOM     29  S   LIG d   1      12.124  10.697   1.737  0.00  0.00    -0.060 SA
ATOM     30  C   LIG d   1      12.756  11.009   3.379  0.00  0.00    -0.003 A 
ATOM     31  C   LIG d   1      12.633   9.778   3.934  0.00  0.00     0.037 A 
ATOM     32  H   LIG d   1      13.131  11.924   3.810  0.00  0.00     0.071 H 
ATOM     33  N   LIG d   1      12.134   8.804   3.199  0.00  0.00    -0.233 NA
ATOM     34  H   LIG d   1      12.934   9.600   4.956  0.00  0.00     0.084 H 
ENDBRANCH  26  28
ENDBRANCH  21  24
ENDBRANCH  18  21
ENDBRANCH   9  18
BRANCH   8  35
ATOM     35  C   LIG d   1       9.783   5.220  -3.456  0.00  0.00    -0.039 C 
ATOM     36  H   LIG d   1       9.065   4.913  -2.696  0.00  0.00     0.028 H 
ATOM     37  H   LIG d   1       9.474   4.831  -4.426  0.00  0.00     0.028 H 
ATOM     38  H   LIG d   1      10.769   4.828  -3.204  0.00  0.00     0.028 H 
ENDBRANCH   8  35
BRANCH   1  39
ATOM     39  C   LIG d   1       9.390   5.628  -9.145  0.00  0.00    -0.036 C 
ATOM     40  H   LIG d   1       8.808   5.013  -8.459  0.00  0.00     0.028 H 
ATOM     41  H   LIG d   1       8.901   5.649 -10.119  0.00  0.00     0.028 H 
ATOM     42  H   LIG d   1      10.391   5.209  -9.250  0.00  0.00     0.028 H 
ENDBRANCH   1  39
TORSDOF 6
ENDMDL
MODEL 5
REMARK VINA RESULT:      -6.5      2.716      3.228
REMARK  6 active torsions:
REMARK  status: ('A' for Active; 'I' for Inactive)
REMARK    1  A    between atoms: C_1  and  C_2 
REMARK    2  A    between atoms: C_9  and  C_26 
REMARK    3  A    between atoms: C_10  and  C_16 
REMARK    4  A    between atoms: C_16  and  C_17 
REMARK    5  A    between atoms: C_17  and  C_18 
REMARK       I    between atoms: C_18  and  N_20 
REMARK    6  A    between atoms: N_20  and  C_21 
ROOT
ATOM      1  C   LIG d   1      11.207   0.978  -6.338  0.00  0.00    -0.005 A 
ATOM      2  C   LIG d   1      11.480   2.273  -6.541  0.00  0.00     0.096 A 
ATOM      3  O   LIG d   1      10.541   3.043  -5.963  0.00  0.00    -0.463 OA
ATOM      4  C   LIG d   1       9.605   2.287  -5.352  0.00  0.00     0.139 A 
ATOM      5  C   LIG d   1       9.968   0.939  -5.550  0.00  0.00     0.024 A 
ATOM      6  C   LIG d   1       9.186  -0.084  -5.031  0.00  0.00    -0.040 A 
ATOM      7  C   LIG d   1       8.039   0.235  -4.303  0.00  0.00     0.022 A 
ATOM      8  C   LIG d   1       7.188  -0.819  -3.744  0.00  0.00    -0.030 A 
ATOM      9  C   LIG d   1       6.081  -0.450  -3.050  0.00  0.00     0.041 A 
ATOM     10  C   LIG d   1       5.778   0.919  -2.889  0.00  0.00     0.341 A 
ATOM     11  O   LIG d   1       4.782   1.236  -2.263  0.00  0.00    -0.245 OA
ATOM     12  O   LIG d   1       6.558   1.880  -3.406  0.00  0.00    -0.422 OA
ATOM     13  C   LIG d   1       7.675   1.584  -4.109  0.00  0.00     0.143 A 
ATOM     14  C   LIG d   1       8.461   2.595  -4.632  0.00  0.00     0.024 A 
ATOM     15  H   LIG d   1      12.331   2.646  -7.090  0.00  0.00     0.103 H 
ATOM     16  H   LIG d   1       9.465  -1.116  -5.183  0.00  0.00     0.063 H 
ATOM     17  H   LIG d   1       8.182   3.628  -4.479  0.00  0.00     0.069 H 
ENDROOT
BRANCH   9  18
ATOM     18  C   LIG d   1       5.180  -1.499  -2.451  0.00  0.00    -0.012 C 
ATOM     19  H   LIG d   1       5.715  -2.447  -2.391  0.00  0.00     0.032 H 
ATOM     20  H   LIG d   1       4.877  -1.189  -1.450  0.00  0.00     0.032 H 
BRANCH  18  21
ATOM     21  C   LIG d   1       3.940  -1.669  -3.330  0.00  0.00     0.029 C 
ATOM     22  H   LIG d   1       3.131  -2.098  -2.737  0.00  0.00     0.036 H 
ATOM     23  H   LIG d   1       3.631  -0.697  -3.715  0.00  0.00     0.036 H 
BRANCH  21  24
ATOM     24  C   LIG d   1       4.262  -2.587  -4.480  0.00  0.00     0.219 C 
ATOM     25  O   LIG d   1       4.415  -2.134  -5.594  0.00  0.00    -0.275 OA
ATOM     26  N   LIG d   1       4.378  -3.914  -4.271  0.00  0.00    -0.265 N 
ATOM     27  H   LIG d   1       4.255  -4.277  -3.380  0.00  0.00     0.157 HD
BRANCH  26  28
ATOM     28  C   LIG d   1       4.674  -4.762  -5.332  0.00  0.00     0.164 A 
ATOM     29  S   LIG d   1       6.212  -5.091  -6.069  0.00  0.00    -0.060 SA
ATOM     30  C   LIG d   1       5.635  -6.253  -7.299  0.00  0.00    -0.003 A 
ATOM     31  C   LIG d   1       4.308  -6.276  -7.022  0.00  0.00     0.037 A 
ATOM     32  H   LIG d   1       6.191  -6.789  -8.053  0.00  0.00     0.071 H 
ATOM     33  N   LIG d   1       3.860  -5.527  -6.033  0.00  0.00    -0.233 NA
ATOM     34  H   LIG d   1       3.635  -6.895  -7.595  0.00  0.00     0.084 H 
ENDBRANCH  26  28
ENDBRANCH  21  24
ENDBRANCH  18  21
ENDBRANCH   9  18
BRANCH   8  35
ATOM     35  C   LIG d   1       7.535  -2.274  -3.930  0.00  0.00    -0.039 C 
ATOM     36  H   LIG d   1       6.786  -2.892  -3.438  0.00  0.00     0.028 H 
ATOM     37  H   LIG d   1       7.559  -2.508  -4.994  0.00  0.00     0.028 H 
ATOM     38  H   LIG d   1       8.514  -2.472  -3.492  0.00  0.00     0.028 H 
ENDBRANCH   8  35
BRANCH   1  39
ATOM     39  C   LIG d   1      12.012  -0.203  -6.820  0.00  0.00    -0.036 C 
ATOM     40  H   LIG d   1      11.826  -1.058  -6.172  0.00  0.00     0.028 H 
ATOM     41  H   LIG d   1      11.717  -0.449  -7.841  0.00  0.00     0.028 H 
ATOM     42  H   LIG d   1      13.072   0.048  -6.799  0.00  0.00     0.028 H 
ENDBRANCH   1  39
TORSDOF 6
ENDMDL
MODEL 6
REMARK VINA RESULT:      -6.5      1.951      2.856
REMARK  6 active torsions:
REMARK  status: ('A' for Active; 'I' for Inactive)
REMARK    1  A    between atoms: C_1  and  C_2 
REMARK    2  A    between atoms: C_9  and  C_26 
REMARK    3  A    between atoms: C_10  and  C_16 
REMARK    4  A    between atoms: C_16  and  C_17 
REMARK    5  A    between atoms: C_17  and  C_18 
REMARK       I    between atoms: C_18  and  N_20 
REMARK    6  A    between atoms: N_20  and  C_21 
ROOT
ATOM      1  C   LIG d   1       9.761   3.987  -5.096  0.00  0.00    -0.005 A 
ATOM      2  C   LIG d   1      10.875   3.768  -5.806  0.00  0.00     0.096 A 
ATOM      3  O   LIG d   1      11.036   2.451  -6.026  0.00  0.00    -0.463 OA
ATOM      4  C   LIG d   1      10.032   1.742  -5.469  0.00  0.00     0.139 A 
ATOM      5  C   LIG d   1       9.167   2.666  -4.849  0.00  0.00     0.024 A 
ATOM      6  C   LIG d   1       8.029   2.228  -4.184  0.00  0.00    -0.040 A 
ATOM      7  C   LIG d   1       7.746   0.863  -4.142  0.00  0.00     0.022 A 
ATOM      8  C   LIG d   1       6.557   0.365  -3.445  0.00  0.00    -0.030 A 
ATOM      9  C   LIG d   1       6.335  -0.974  -3.431  0.00  0.00     0.041 A 
ATOM     10  C   LIG d   1       7.243  -1.843  -4.073  0.00  0.00     0.341 A 
ATOM     11  O   LIG d   1       7.032  -3.042  -4.052  0.00  0.00    -0.245 OA
ATOM     12  O   LIG d   1       8.333  -1.383  -4.705  0.00  0.00    -0.422 OA
ATOM     13  C   LIG d   1       8.616  -0.061  -4.758  0.00  0.00     0.143 A 
ATOM     14  C   LIG d   1       9.747   0.386  -5.417  0.00  0.00     0.024 A 
ATOM     15  H   LIG d   1      11.547   4.539  -6.152  0.00  0.00     0.103 H 
ATOM     16  H   LIG d   1       7.367   2.937  -3.711  0.00  0.00     0.063 H 
ATOM     17  H   LIG d   1      10.410  -0.323  -5.893  0.00  0.00     0.069 H 
ENDROOT
BRANCH   9  18
ATOM     18  C   LIG d   1       5.121  -1.532  -2.733  0.00  0.00    -0.012 C 
ATOM     19  H   LIG d   1       5.436  -2.243  -1.969  0.00  0.00     0.032 H 
ATOM     20  H   LIG d   1       4.566  -0.718  -2.265  0.00  0.00     0.032 H 
BRANCH  18  21
ATOM     21  C   LIG d   1       4.227  -2.241  -3.751  0.00  0.00     0.029 C 
ATOM     22  H   LIG d   1       4.757  -3.101  -4.163  0.00  0.00     0.036 H 
ATOM     23  H   LIG d   1       3.314  -2.578  -3.261  0.00  0.00     0.036 H 
BRANCH  21  24
ATOM     24  C   LIG d   1       3.879  -1.286  -4.863  0.00  0.00     0.219 C 
ATOM     25  O   LIG d   1       3.303  -0.249  -4.614  0.00  0.00    -0.275 OA
ATOM     26  N   LIG d   1       4.206  -1.586  -6.137  0.00  0.00    -0.265 N 
ATOM     27  H   LIG d   1       4.666  -2.417  -6.336  0.00  0.00     0.157 HD
BRANCH  26  28
ATOM     28  C   LIG d   1       3.884  -0.707  -7.163  0.00  0.00     0.164 A 
ATOM     29  S   LIG d   1       4.922   0.376  -8.038  0.00  0.00    -0.060 SA
ATOM     30  C   LIG d   1       3.677   1.071  -9.116  0.00  0.00    -0.003 A 
ATOM     31  C   LIG d   1       2.577   0.399  -8.696  0.00  0.00     0.037 A 
ATOM     32  H   LIG d   1       3.775   1.818  -9.889  0.00  0.00     0.071 H 
ATOM     33  N   LIG d   1       2.711  -0.483  -7.726  0.00  0.00    -0.233 NA
ATOM     34  H   LIG d   1       1.613   0.581  -9.148  0.00  0.00     0.084 H 
ENDBRANCH  26  28
ENDBRANCH  21  24
ENDBRANCH  18  21
ENDBRANCH   9  18
BRANCH   8  35
ATOM     35  C   LIG d   1       5.602   1.315  -2.768  0.00  0.00    -0.039 C 
ATOM     36  H   LIG d   1       4.587   0.927  -2.846  0.00  0.00     0.028 H 
ATOM     37  H   LIG d   1       5.874   1.415  -1.717  0.00  0.00     0.028 H 
ATOM     38  H   LIG d   1       5.657   2.290  -3.252  0.00  0.00     0.028 H 
ENDBRANCH   8  35
BRANCH   1  39
ATOM     39  C   LIG d   1       9.224   5.321  -4.643  0.00  0.00    -0.036 C 
ATOM     40  H   LIG d   1       9.645   6.111  -5.263  0.00  0.00     0.028 H 
ATOM     41  H   LIG d   1       8.138   5.325  -4.736  0.00  0.00     0.028 H 
ATOM     42  H   LIG d   1       9.499   5.488  -3.601  0.00  0.00     0.028 H 
ENDBRANCH   1  39
TORSDOF 6
ENDMDL
MODEL 7
REMARK VINA RESULT:      -6.5     11.776     14.192
REMARK  6 active torsions:
REMARK  status: ('A' for Active; 'I' for Inactive)
REMARK    1  A    between atoms: C_1  and  C_2 
REMARK    2  A    between atoms: C_9  and  C_26 
REMARK    3  A    between atoms: C_10  and  C_16 
REMARK    4  A    between atoms: C_16  and  C_17 
REMARK    5  A    between atoms: C_17  and  C_18 
REMARK       I    between atoms: C_18  and  N_20 
REMARK    6  A    between atoms: N_20  and  C_21 
ROOT
ATOM      1  C   LIG d   1       5.157  -9.530  -4.080  0.00  0.00    -0.005 A 
ATOM      2  C   LIG d   1       4.236 -10.500  -4.014  0.00  0.00     0.096 A 
ATOM      3  O   LIG d   1       4.570 -11.397  -3.070  0.00  0.00    -0.463 OA
ATOM      4  C   LIG d   1       5.730 -11.058  -2.470  0.00  0.00     0.139 A 
ATOM      5  C   LIG d   1       6.171  -9.860  -3.069  0.00  0.00     0.024 A 
ATOM      6  C   LIG d   1       7.353  -9.260  -2.655  0.00  0.00    -0.040 A 
ATOM      7  C   LIG d   1       8.097  -9.850  -1.634  0.00  0.00     0.022 A 
ATOM      8  C   LIG d   1       9.352  -9.246  -1.175  0.00  0.00    -0.030 A 
ATOM      9  C   LIG d   1      10.038  -9.867  -0.183  0.00  0.00     0.041 A 
ATOM     10  C   LIG d   1       9.538 -11.065   0.373  0.00  0.00     0.341 A 
ATOM     11  O   LIG d   1      10.164 -11.611   1.263  0.00  0.00    -0.245 OA
ATOM     12  O   LIG d   1       8.392 -11.616  -0.054  0.00  0.00    -0.422 OA
ATOM     13  C   LIG d   1       7.658 -11.051  -1.039  0.00  0.00     0.143 A 
ATOM     14  C   LIG d   1       6.479 -11.641  -1.460  0.00  0.00     0.024 A 
ATOM     15  H   LIG d   1       3.351 -10.554  -4.631  0.00  0.00     0.103 H 
ATOM     16  H   LIG d   1       7.689  -8.342  -3.115  0.00  0.00     0.063 H 
ATOM     17  H   LIG d   1       6.142 -12.559  -0.999  0.00  0.00     0.069 H 
ENDROOT
BRANCH   9  18
ATOM     18  C   LIG d   1      11.329  -9.279   0.326  0.00  0.00    -0.012 C 
ATOM     19  H   LIG d   1      11.971 -10.079   0.697  0.00  0.00     0.032 H 
ATOM     20  H   LIG d   1      11.834  -8.755  -0.485  0.00  0.00     0.032 H 
BRANCH  18  21
ATOM     21  C   LIG d   1      11.031  -8.298   1.461  0.00  0.00     0.029 C 
ATOM     22  H   LIG d   1      11.500  -7.338   1.243  0.00  0.00     0.036 H 
ATOM     23  H   LIG d   1       9.953  -8.163   1.551  0.00  0.00     0.036 H 
BRANCH  21  24
ATOM     24  C   LIG d   1      11.580  -8.843   2.753  0.00  0.00     0.219 C 
ATOM     25  O   LIG d   1      11.423  -8.229   3.787  0.00  0.00    -0.275 OA
ATOM     26  N   LIG d   1      12.249 -10.015   2.761  0.00  0.00    -0.265 N 
ATOM     27  H   LIG d   1      12.375 -10.506   1.934  0.00  0.00     0.157 HD
BRANCH  26  28
ATOM     28  C   LIG d   1      12.756 -10.518   3.953  0.00  0.00     0.164 A 
ATOM     29  S   LIG d   1      14.295 -10.214   4.697  0.00  0.00    -0.060 SA
ATOM     30  C   LIG d   1      14.065 -11.250   6.136  0.00  0.00    -0.003 A 
ATOM     31  C   LIG d   1      12.820 -11.731   5.903  0.00  0.00     0.037 A 
ATOM     32  H   LIG d   1      14.733 -11.438   6.963  0.00  0.00     0.071 H 
ATOM     33  N   LIG d   1      12.191 -11.345   4.811  0.00  0.00    -0.233 NA
ATOM     34  H   LIG d   1      12.352 -12.413   6.598  0.00  0.00     0.084 H 
ENDBRANCH  26  28
ENDBRANCH  21  24
ENDBRANCH  18  21
ENDBRANCH   9  18
BRANCH   8  35
ATOM     35  C   LIG d   1       9.863  -7.966  -1.786  0.00  0.00    -0.039 C 
ATOM     36  H   LIG d   1       9.338  -7.774  -2.721  0.00  0.00     0.028 H 
ATOM     37  H   LIG d   1       9.691  -7.140  -1.096  0.00  0.00     0.028 H 
ATOM     38  H   LIG d   1      10.931  -8.059  -1.982  0.00  0.00     0.028 H 
ENDBRANCH   8  35
BRANCH   1  39
ATOM     39  C   LIG d   1       5.153  -8.340  -5.004  0.00  0.00    -0.036 C 
ATOM     40  H   LIG d   1       5.444  -8.656  -6.005  0.00  0.00     0.028 H 
ATOM     41  H   LIG d   1       4.152  -7.908  -5.035  0.00  0.00     0.028 H 
ATOM     42  H   LIG d   1       5.858  -7.593  -4.639  0.00  0.00     0.028 H 
ENDBRANCH   1  39
TORSDOF 6
ENDMDL
MODEL 8
REMARK VINA RESULT:      -6.4      5.175      9.057
REMARK  6 active torsions:
REMARK  status: ('A' for Active; 'I' for Inactive)
REMARK    1  A    between atoms: C_1  and  C_2 
REMARK    2  A    between atoms: C_9  and  C_26 
REMARK    3  A    between atoms: C_10  and  C_16 
REMARK    4  A    between atoms: C_16  and  C_17 
REMARK    5  A    between atoms: C_17  and  C_18 
REMARK       I    between atoms: C_18  and  N_20 
REMARK    6  A    between atoms: N_20  and  C_21 
ROOT
ATOM      1  C   LIG d   1       4.913  -0.702 -16.309  0.00  0.00    -0.005 A 
ATOM      2  C   LIG d   1       4.528  -1.629 -17.196  0.00  0.00     0.096 A 
ATOM      3  O   LIG d   1       3.647  -2.475 -16.633  0.00  0.00    -0.463 OA
ATOM      4  C   LIG d   1       3.412  -2.142 -15.347  0.00  0.00     0.139 A 
ATOM      5  C   LIG d   1       4.195  -1.004 -15.063  0.00  0.00     0.024 A 
ATOM      6  C   LIG d   1       4.164  -0.425 -13.802  0.00  0.00    -0.040 A 
ATOM      7  C   LIG d   1       3.343  -0.976 -12.818  0.00  0.00     0.022 A 
ATOM      8  C   LIG d   1       3.289  -0.392 -11.474  0.00  0.00    -0.030 A 
ATOM      9  C   LIG d   1       2.478  -0.974 -10.554  0.00  0.00     0.041 A 
ATOM     10  C   LIG d   1       1.721  -2.112 -10.905  0.00  0.00     0.341 A 
ATOM     11  O   LIG d   1       0.997  -2.624 -10.071  0.00  0.00    -0.245 OA
ATOM     12  O   LIG d   1       1.778  -2.645 -12.136  0.00  0.00    -0.422 OA
ATOM     13  C   LIG d   1       2.564  -2.117 -13.100  0.00  0.00     0.143 A 
ATOM     14  C   LIG d   1       2.604  -2.687 -14.360  0.00  0.00     0.024 A 
ATOM     15  H   LIG d   1       4.875  -1.688 -18.216  0.00  0.00     0.103 H 
ATOM     16  H   LIG d   1       4.764   0.447 -13.587  0.00  0.00     0.063 H 
ATOM     17  H   LIG d   1       2.003  -3.559 -14.577  0.00  0.00     0.069 H 
ENDROOT
BRANCH   9  18
ATOM     18  C   LIG d   1       2.384  -0.405  -9.161  0.00  0.00    -0.012 C 
ATOM     19  H   LIG d   1       2.612   0.660  -9.189  0.00  0.00     0.032 H 
ATOM     20  H   LIG d   1       1.374  -0.551  -8.777  0.00  0.00     0.032 H 
BRANCH  18  21
ATOM     21  C   LIG d   1       3.385  -1.117  -8.250  0.00  0.00     0.029 C 
ATOM     22  H   LIG d   1       3.042  -2.135  -8.060  0.00  0.00     0.036 H 
ATOM     23  H   LIG d   1       4.361  -1.148  -8.736  0.00  0.00     0.036 H 
BRANCH  21  24
ATOM     24  C   LIG d   1       3.496  -0.372  -6.946  0.00  0.00     0.219 C 
ATOM     25  O   LIG d   1       3.200   0.803  -6.892  0.00  0.00    -0.275 OA
ATOM     26  N   LIG d   1       3.924  -1.010  -5.838  0.00  0.00    -0.265 N 
ATOM     27  H   LIG d   1       4.162  -1.950  -5.882  0.00  0.00     0.157 HD
BRANCH  26  28
ATOM     28  C   LIG d   1       4.027  -0.322  -4.635  0.00  0.00     0.164 A 
ATOM     29  S   LIG d   1       2.872  -0.202  -3.345  0.00  0.00    -0.060 SA
ATOM     30  C   LIG d   1       3.839   0.843  -2.264  0.00  0.00    -0.003 A 
ATOM     31  C   LIG d   1       4.963   0.999  -3.005  0.00  0.00     0.037 A 
ATOM     32  H   LIG d   1       3.594   1.239  -1.290  0.00  0.00     0.071 H 
ATOM     33  N   LIG d   1       5.031   0.403  -4.179  0.00  0.00    -0.233 NA
ATOM     34  H   LIG d   1       5.786   1.595  -2.640  0.00  0.00     0.084 H 
ENDBRANCH  26  28
ENDBRANCH  21  24
ENDBRANCH  18  21
ENDBRANCH   9  18
BRANCH   8  35
ATOM     35  C   LIG d   1       4.107   0.824 -11.125  0.00  0.00    -0.039 C 
ATOM     36  H   LIG d   1       5.027   0.822 -11.708  0.00  0.00     0.028 H 
ATOM     37  H   LIG d   1       3.535   1.724 -11.350  0.00  0.00     0.028 H 
ATOM     38  H   LIG d   1       4.351   0.804 -10.062  0.00  0.00     0.028 H 
ENDBRANCH   8  35
BRANCH   1  39
ATOM     39  C   LIG d   1       5.886   0.425 -16.543  0.00  0.00    -0.036 C 
ATOM     40  H   LIG d   1       5.630   0.939 -17.469  0.00  0.00     0.028 H 
ATOM     41  H   LIG d   1       5.834   1.128 -15.711  0.00  0.00     0.028 H 
ATOM     42  H   LIG d   1       6.897   0.023 -16.616  0.00  0.00     0.028 H 
ENDBRANCH   1  39
TORSDOF 6
ENDMDL
MODEL 9
REMARK VINA RESULT:      -6.3      5.040      7.539
REMARK  6 active torsions:
REMARK  status: ('A' for Active; 'I' for Inactive)
REMARK    1  A    between atoms: C_1  and  C_2 
REMARK    2  A    between atoms: C_9  and  C_26 
REMARK    3  A    between atoms: C_10  and  C_16 
REMARK    4  A    between atoms: C_16  and  C_17 
REMARK    5  A    between atoms: C_17  and  C_18 
REMARK       I    between atoms: C_18  and  N_20 
REMARK    6  A    between atoms: N_20  and  C_21 
ROOT
ATOM      1  C   LIG d   1       3.956   0.789  -2.882  0.00  0.00    -0.005 A 
ATOM      2  C   LIG d   1       3.261   1.893  -3.186  0.00  0.00     0.096 A 
ATOM      3  O   LIG d   1       2.850   1.848  -4.465  0.00  0.00    -0.463 OA
ATOM      4  C   LIG d   1       3.259   0.710  -5.064  0.00  0.00     0.139 A 
ATOM      5  C   LIG d   1       3.980  -0.028  -4.103  0.00  0.00     0.024 A 
ATOM      6  C   LIG d   1       4.531  -1.260  -4.430  0.00  0.00    -0.040 A 
ATOM      7  C   LIG d   1       4.357  -1.765  -5.719  0.00  0.00     0.022 A 
ATOM      8  C   LIG d   1       4.929  -3.060  -6.100  0.00  0.00    -0.030 A 
ATOM      9  C   LIG d   1       4.734  -3.500  -7.369  0.00  0.00     0.041 A 
ATOM     10  C   LIG d   1       4.001  -2.709  -8.280  0.00  0.00     0.341 A 
ATOM     11  O   LIG d   1       3.833  -3.116  -9.416  0.00  0.00    -0.245 OA
ATOM     12  O   LIG d   1       3.483  -1.522  -7.928  0.00  0.00    -0.422 OA
ATOM     13  C   LIG d   1       3.640  -1.024  -6.681  0.00  0.00     0.143 A 
ATOM     14  C   LIG d   1       3.096   0.203  -6.345  0.00  0.00     0.024 A 
ATOM     15  H   LIG d   1       3.059   2.702  -2.500  0.00  0.00     0.103 H 
ATOM     16  H   LIG d   1       5.082  -1.824  -3.693  0.00  0.00     0.063 H 
ATOM     17  H   LIG d   1       2.543   0.767  -7.082  0.00  0.00     0.069 H 
ENDROOT
BRANCH   9  18
ATOM     18  C   LIG d   1       5.297  -4.828  -7.804  0.00  0.00    -0.012 C 
ATOM     19  H   LIG d   1       5.804  -4.712  -8.761  0.00  0.00     0.032 H 
ATOM     20  H   LIG d   1       6.007  -5.183  -7.057  0.00  0.00     0.032 H 
BRANCH  18  21
ATOM     21  C   LIG d   1       4.160  -5.842  -7.949  0.00  0.00     0.029 C 
ATOM     22  H   LIG d   1       3.239  -5.414  -7.551  0.00  0.00     0.036 H 
ATOM     23  H   LIG d   1       4.021  -6.083  -9.003  0.00  0.00     0.036 H 
BRANCH  21  24
ATOM     24  C   LIG d   1       4.503  -7.094  -7.186  0.00  0.00     0.219 C 
ATOM     25  O   LIG d   1       4.596  -8.153  -7.769  0.00  0.00    -0.275 OA
ATOM     26  N   LIG d   1       4.707  -7.038  -5.854  0.00  0.00    -0.265 N 
ATOM     27  H   LIG d   1       4.632  -6.190  -5.388  0.00  0.00     0.157 HD
BRANCH  26  28
ATOM     28  C   LIG d   1       5.023  -8.193  -5.150  0.00  0.00     0.164 A 
ATOM     29  S   LIG d   1       6.586  -8.843  -4.764  0.00  0.00    -0.060 SA
ATOM     30  C   LIG d   1       6.024 -10.289  -3.876  0.00  0.00    -0.003 A 
ATOM     31  C   LIG d   1       4.681 -10.131  -3.962  0.00  0.00     0.037 A 
ATOM     32  H   LIG d   1       6.597 -11.071  -3.401  0.00  0.00     0.071 H 
ATOM     33  N   LIG d   1       4.211  -9.075  -4.598  0.00  0.00    -0.233 NA
ATOM     34  H   LIG d   1       4.010 -10.851  -3.518  0.00  0.00     0.084 H 
ENDBRANCH  26  28
ENDBRANCH  21  24
ENDBRANCH  18  21
ENDBRANCH   9  18
BRANCH   8  35
ATOM     35  C   LIG d   1       5.707  -3.885  -5.106  0.00  0.00    -0.039 C 
ATOM     36  H   LIG d   1       6.737  -3.532  -5.070  0.00  0.00     0.028 H 
ATOM     37  H   LIG d   1       5.254  -3.788  -4.120  0.00  0.00     0.028 H 
ATOM     38  H   LIG d   1       5.692  -4.931  -5.413  0.00  0.00     0.028 H 
ENDBRANCH   8  35
BRANCH   1  39
ATOM     39  C   LIG d   1       4.586   0.453  -1.555  0.00  0.00    -0.036 C 
ATOM     40  H   LIG d   1       3.956   0.828  -0.749  0.00  0.00     0.028 H 
ATOM     41  H   LIG d   1       4.686  -0.629  -1.465  0.00  0.00     0.028 H 
ATOM     42  H   LIG d   1       5.571   0.914  -1.493  0.00  0.00     0.028 H 
ENDBRANCH   1  39
TORSDOF 6
ENDMDL
