MODEL 1
REMARK VINA RESULT:      -6.9      0.000      0.000
REMARK  8 active torsions:
REMARK  status: ('A' for Active; 'I' for Inactive)
REMARK    1  A    between atoms: C_1  and  C_2 
REMARK    2  A    between atoms: C_2  and  C_3 
REMARK    3  A    between atoms: C_3  and  C_4 
REMARK    4  A    between atoms: C_4  and  O_5 
REMARK    5  A    between atoms: O_5  and  C_6 
REMARK    6  A    between atoms: C_9  and  N_12 
REMARK       I    between atoms: N_12  and  C_13 
REMARK    7  A    between atoms: C_13  and  C_15 
REMARK    8  A    between atoms: N_21  and  C_22 
ROOT
ATOM      1  N   LIG d   1       4.858   0.145  -6.439  0.00  0.00    -0.284 N 
ATOM      2  C   LIG d   1       6.167  -0.173  -6.481  0.00  0.00     0.238 C 
ATOM      3  O   LIG d   1       6.619  -0.756  -7.444  0.00  0.00    -0.273 OA
ATOM      4  H   LIG d   1       4.512   0.678  -5.707  0.00  0.00     0.155 HD
ENDROOT
BRANCH   2   5
ATOM      5  C   LIG d   1       7.069   0.196  -5.331  0.00  0.00     0.106 C 
ATOM      6  H   LIG d   1       6.526   0.801  -4.605  0.00  0.00     0.060 H 
ATOM      7  N   LIG d   1       7.596  -1.015  -4.691  0.00  0.00    -0.251 N 
ATOM      8  C   LIG d   1       8.863  -1.255  -5.068  0.00  0.00     0.219 C 
ATOM      9  C   LIG d   1       9.333  -0.183  -6.026  0.00  0.00     0.026 C 
ATOM     10  O   LIG d   1       9.534  -2.193  -4.693  0.00  0.00    -0.276 OA
ATOM     11  C   LIG d   1       8.308   0.961  -5.848  0.00  0.00    -0.017 C 
ATOM     12  H   LIG d   1      10.333   0.157  -5.759  0.00  0.00     0.036 H 
ATOM     13  H   LIG d   1       9.318  -0.555  -7.052  0.00  0.00     0.036 H 
ATOM     14  H   LIG d   1       8.096   1.447  -6.800  0.00  0.00     0.029 H 
ATOM     15  H   LIG d   1       8.655   1.684  -5.111  0.00  0.00     0.029 H 
BRANCH   7  16
ATOM     16  C   LIG d   1       6.838  -1.855  -3.760  0.00  0.00     0.201 A 
ATOM     17  H   LIG d   1       7.476  -2.168  -2.935  0.00  0.00     0.101 H 
ATOM     18  O   LIG d   1       6.312  -3.020  -4.454  0.00  0.00    -0.435 OA
ATOM     19  C   LIG d   1       4.971  -3.005  -4.381  0.00  0.00     0.342 A 
ATOM     20  C   LIG d   1       4.515  -1.822  -3.628  0.00  0.00     0.067 A 
ATOM     21  O   LIG d   1       4.239  -3.846  -4.864  0.00  0.00    -0.245 OA
ATOM     22  C   LIG d   1       5.644  -1.098  -3.235  0.00  0.00     0.025 A 
ATOM     23  C   LIG d   1       3.245  -1.356  -3.279  0.00  0.00    -0.047 A 
ATOM     24  C   LIG d   1       5.506   0.064  -2.511  0.00  0.00    -0.053 A 
ATOM     25  C   LIG d   1       4.243   0.519  -2.170  0.00  0.00    -0.061 A 
ATOM     26  H   LIG d   1       6.382   0.621  -2.211  0.00  0.00     0.062 H 
ATOM     27  C   LIG d   1       3.119  -0.190  -2.553  0.00  0.00    -0.061 A 
ATOM     28  H   LIG d   1       4.136   1.432  -1.602  0.00  0.00     0.062 H 
ATOM     29  H   LIG d   1       2.138   0.171  -2.282  0.00  0.00     0.062 H 
ATOM     30  H   LIG d   1       2.366  -1.908  -3.577  0.00  0.00     0.063 H 
ENDBRANCH   7  16
ENDBRANCH   2   5
BRANCH   1  31
ATOM     31  C   LIG d   1       3.997  -0.295  -7.454  0.00  0.00     0.034 A 
ATOM     32  C   LIG d   1       3.918  -1.647  -7.759  0.00  0.00    -0.037 A 
ATOM     33  C   LIG d   1       3.065  -2.081  -8.755  0.00  0.00    -0.018 A 
ATOM     34  H   LIG d   1       4.518  -2.360  -7.213  0.00  0.00     0.064 H 
ATOM     35  C   LIG d   1       2.298  -1.164  -9.460  0.00  0.00     0.121 A 
ATOM     36  H   LIG d   1       2.999  -3.132  -8.989  0.00  0.00     0.066 H 
ATOM     37  C   LIG d   1       2.378   0.187  -9.155  0.00  0.00    -0.018 A 
ATOM     38  C   LIG d   1       3.225   0.621  -8.155  0.00  0.00    -0.037 A 
ATOM     39  H   LIG d   1       1.776   0.899  -9.701  0.00  0.00     0.066 H 
ATOM     40  H   LIG d   1       3.287   1.674  -7.919  0.00  0.00     0.064 H 
BRANCH  35  41
ATOM     41  O   LIG d   1       1.463  -1.590 -10.444  0.00  0.00    -0.492 OA
BRANCH  41  42
ATOM     42  C   LIG d   1       1.670  -1.046 -11.750  0.00  0.00     0.090 C 
ATOM     43  H   LIG d   1       1.752   0.039 -11.683  0.00  0.00     0.070 H 
ATOM     44  H   LIG d   1       0.828  -1.308 -12.390  0.00  0.00     0.070 H 
BRANCH  42  45
ATOM     45  C   LIG d   1       2.959  -1.620 -12.343  0.00  0.00    -0.019 C 
ATOM     46  H   LIG d   1       2.724  -2.187 -13.243  0.00  0.00     0.030 H 
ATOM     47  H   LIG d   1       3.433  -2.276 -11.613  0.00  0.00     0.030 H 
BRANCH  45  48
ATOM     48  C   LIG d   1       3.911  -0.476 -12.695  0.00  0.00    -0.053 C 
ATOM     49  H   LIG d   1       4.298  -0.623 -13.704  0.00  0.00     0.026 H 
ATOM     50  H   LIG d   1       3.374   0.472 -12.646  0.00  0.00     0.026 H 
BRANCH  48  51
ATOM     51  C   LIG d   1       5.073  -0.455 -11.701  0.00  0.00    -0.065 C 
ATOM     52  H   LIG d   1       5.201   0.555 -11.311  0.00  0.00     0.023 H 
ATOM     53  H   LIG d   1       4.861  -1.138 -10.878  0.00  0.00     0.023 H 
ATOM     54  H   LIG d   1       5.988  -0.768 -12.205  0.00  0.00     0.023 H 
ENDBRANCH  48  51
ENDBRANCH  45  48
ENDBRANCH  42  45
ENDBRANCH  41  42
ENDBRANCH  35  41
ENDBRANCH   1  31
TORSDOF 8
ENDMDL
MODEL 2
REMARK VINA RESULT:      -6.8      3.042      7.085
REMARK  8 active torsions:
REMARK  status: ('A' for Active; 'I' for Inactive)
REMARK    1  A    between atoms: C_1  and  C_2 
REMARK    2  A    between atoms: C_2  and  C_3 
REMARK    3  A    between atoms: C_3  and  C_4 
REMARK    4  A    between atoms: C_4  and  O_5 
REMARK    5  A    between atoms: O_5  and  C_6 
REMARK    6  A    between atoms: C_9  and  N_12 
REMARK       I    between atoms: N_12  and  C_13 
REMARK    7  A    between atoms: C_13  and  C_15 
REMARK    8  A    between atoms: N_21  and  C_22 
ROOT
ATOM      1  N   LIG d   1       6.846  -0.597  -5.016  0.00  0.00    -0.284 N 
ATOM      2  C   LIG d   1       5.961  -0.324  -5.995  0.00  0.00     0.238 C 
ATOM      3  O   LIG d   1       6.065   0.702  -6.636  0.00  0.00    -0.273 OA
ATOM      4  H   LIG d   1       6.811  -1.450  -4.557  0.00  0.00     0.155 HD
ENDROOT
BRANCH   2   5
ATOM      5  C   LIG d   1       4.845  -1.290  -6.294  0.00  0.00     0.106 C 
ATOM      6  H   LIG d   1       4.812  -2.074  -5.537  0.00  0.00     0.060 H 
ATOM      7  N   LIG d   1       3.561  -0.582  -6.348  0.00  0.00    -0.251 N 
ATOM      8  C   LIG d   1       3.168  -0.379  -7.617  0.00  0.00     0.219 C 
ATOM      9  C   LIG d   1       4.183  -0.961  -8.576  0.00  0.00     0.026 C 
ATOM     10  O   LIG d   1       2.147   0.188  -7.946  0.00  0.00    -0.276 OA
ATOM     11  C   LIG d   1       5.034  -1.907  -7.698  0.00  0.00    -0.017 C 
ATOM     12  H   LIG d   1       3.684  -1.520  -9.367  0.00  0.00     0.036 H 
ATOM     13  H   LIG d   1       4.803  -0.170  -9.001  0.00  0.00     0.036 H 
ATOM     14  H   LIG d   1       6.082  -1.880  -7.997  0.00  0.00     0.029 H 
ATOM     15  H   LIG d   1       4.647  -2.924  -7.732  0.00  0.00     0.029 H 
BRANCH   7  16
ATOM     16  C   LIG d   1       2.804  -0.151  -5.170  0.00  0.00     0.201 A 
ATOM     17  H   LIG d   1       1.763  -0.458  -5.262  0.00  0.00     0.101 H 
ATOM     18  O   LIG d   1       2.888   1.293  -5.023  0.00  0.00    -0.435 OA
ATOM     19  C   LIG d   1       3.468   1.580  -3.846  0.00  0.00     0.342 A 
ATOM     20  C   LIG d   1       3.808   0.337  -3.129  0.00  0.00     0.067 A 
ATOM     21  O   LIG d   1       3.679   2.702  -3.431  0.00  0.00    -0.245 OA
ATOM     22  C   LIG d   1       3.410  -0.742  -3.922  0.00  0.00     0.025 A 
ATOM     23  C   LIG d   1       4.411   0.095  -1.892  0.00  0.00    -0.047 A 
ATOM     24  C   LIG d   1       3.611  -2.033  -3.489  0.00  0.00    -0.053 A 
ATOM     25  C   LIG d   1       4.210  -2.265  -2.262  0.00  0.00    -0.061 A 
ATOM     26  H   LIG d   1       3.304  -2.864  -4.106  0.00  0.00     0.062 H 
ATOM     27  C   LIG d   1       4.607  -1.203  -1.468  0.00  0.00    -0.061 A 
ATOM     28  H   LIG d   1       4.369  -3.278  -1.923  0.00  0.00     0.062 H 
ATOM     29  H   LIG d   1       5.073  -1.391  -0.512  0.00  0.00     0.062 H 
ATOM     30  H   LIG d   1       4.721   0.921  -1.271  0.00  0.00     0.063 H 
ENDBRANCH   7  16
ENDBRANCH   2   5
BRANCH   1  31
ATOM     31  C   LIG d   1       7.815   0.351  -4.662  0.00  0.00     0.034 A 
ATOM     32  C   LIG d   1       9.123   0.207  -5.107  0.00  0.00    -0.037 A 
ATOM     33  C   LIG d   1      10.076   1.145  -4.762  0.00  0.00    -0.018 A 
ATOM     34  H   LIG d   1       9.392  -0.635  -5.727  0.00  0.00     0.064 H 
ATOM     35  C   LIG d   1       9.731   2.223  -3.961  0.00  0.00     0.121 A 
ATOM     36  H   LIG d   1      11.092   1.036  -5.112  0.00  0.00     0.066 H 
ATOM     37  C   LIG d   1       8.425   2.367  -3.515  0.00  0.00    -0.018 A 
ATOM     38  C   LIG d   1       7.469   1.433  -3.865  0.00  0.00    -0.037 A 
ATOM     39  H   LIG d   1       8.156   3.210  -2.895  0.00  0.00     0.066 H 
ATOM     40  H   LIG d   1       6.452   1.545  -3.517  0.00  0.00     0.064 H 
BRANCH  35  41
ATOM     41  O   LIG d   1      10.671   3.143  -3.616  0.00  0.00    -0.492 OA
BRANCH  41  42
ATOM     42  C   LIG d   1      10.322   4.071  -2.586  0.00  0.00     0.090 C 
ATOM     43  H   LIG d   1      10.857   3.817  -1.672  0.00  0.00     0.070 H 
ATOM     44  H   LIG d   1       9.248   4.026  -2.404  0.00  0.00     0.070 H 
BRANCH  42  45
ATOM     45  C   LIG d   1      10.705   5.487  -3.025  0.00  0.00    -0.019 C 
ATOM     46  H   LIG d   1      11.437   5.432  -3.831  0.00  0.00     0.030 H 
ATOM     47  H   LIG d   1      11.134   6.025  -2.180  0.00  0.00     0.030 H 
BRANCH  45  48
ATOM     48  C   LIG d   1       9.458   6.222  -3.518  0.00  0.00    -0.053 C 
ATOM     49  H   LIG d   1       8.574   5.806  -3.033  0.00  0.00     0.026 H 
ATOM     50  H   LIG d   1       9.541   7.282  -3.276  0.00  0.00     0.026 H 
BRANCH  48  51
ATOM     51  C   LIG d   1       9.333   6.054  -5.034  0.00  0.00    -0.065 C 
ATOM     52  H   LIG d   1       9.290   4.993  -5.281  0.00  0.00     0.023 H 
ATOM     53  H   LIG d   1       8.424   6.545  -5.381  0.00  0.00     0.023 H 
ATOM     54  H   LIG d   1      10.198   6.505  -5.522  0.00  0.00     0.023 H 
ENDBRANCH  48  51
ENDBRANCH  45  48
ENDBRANCH  42  45
ENDBRANCH  41  42
ENDBRANCH  35  41
ENDBRANCH   1  31
TORSDOF 8
ENDMDL
MODEL 3
REMARK VINA RESULT:      -6.7      2.032      4.038
REMARK  8 active torsions:
REMARK  status: ('A' for Active; 'I' for Inactive)
REMARK    1  A    between atoms: C_1  and  C_2 
REMARK    2  A    between atoms: C_2  and  C_3 
REMARK    3  A    between atoms: C_3  and  C_4 
REMARK    4  A    between atoms: C_4  and  O_5 
REMARK    5  A    between atoms: O_5  and  C_6 
REMARK    6  A    between atoms: C_9  and  N_12 
REMARK       I    between atoms: N_12  and  C_13 
REMARK    7  A    between atoms: C_13  and  C_15 
REMARK    8  A    between atoms: N_21  and  C_22 
ROOT
ATOM      1  N   LIG d   1       4.254  -1.446  -6.411  0.00  0.00    -0.284 N 
ATOM      2  C   LIG d   1       4.121  -0.621  -5.354  0.00  0.00     0.238 C 
ATOM      3  O   LIG d   1       3.756   0.525  -5.521  0.00  0.00    -0.273 OA
ATOM      4  H   LIG d   1       4.469  -2.381  -6.272  0.00  0.00     0.155 HD
ENDROOT
BRANCH   2   5
ATOM      5  C   LIG d   1       4.423  -1.120  -3.965  0.00  0.00     0.106 C 
ATOM      6  H   LIG d   1       4.931  -2.083  -4.013  0.00  0.00     0.060 H 
ATOM      7  N   LIG d   1       5.250  -0.145  -3.244  0.00  0.00    -0.251 N 
ATOM      8  C   LIG d   1       4.516   0.573  -2.378  0.00  0.00     0.219 C 
ATOM      9  C   LIG d   1       3.071   0.128  -2.427  0.00  0.00     0.026 C 
ATOM     10  O   LIG d   1       4.949   1.450  -1.660  0.00  0.00    -0.276 OA
ATOM     11  C   LIG d   1       3.120  -1.240  -3.144  0.00  0.00    -0.017 C 
ATOM     12  H   LIG d   1       2.671   0.017  -1.419  0.00  0.00     0.036 H 
ATOM     13  H   LIG d   1       2.472   0.840  -2.997  0.00  0.00     0.036 H 
ATOM     14  H   LIG d   1       2.258  -1.369  -3.799  0.00  0.00     0.029 H 
ATOM     15  H   LIG d   1       3.186  -2.055  -2.425  0.00  0.00     0.029 H 
BRANCH   7  16
ATOM     16  C   LIG d   1       6.692   0.023  -3.443  0.00  0.00     0.201 A 
ATOM     17  H   LIG d   1       7.174   0.264  -2.496  0.00  0.00     0.101 H 
ATOM     18  O   LIG d   1       6.942   1.076  -4.414  0.00  0.00    -0.435 OA
ATOM     19  C   LIG d   1       7.602   0.557  -5.463  0.00  0.00     0.342 A 
ATOM     20  C   LIG d   1       7.835  -0.884  -5.255  0.00  0.00     0.067 A 
ATOM     21  O   LIG d   1       7.957   1.185  -6.440  0.00  0.00    -0.245 OA
ATOM     22  C   LIG d   1       7.285  -1.238  -4.020  0.00  0.00     0.025 A 
ATOM     23  C   LIG d   1       8.464  -1.861  -6.031  0.00  0.00    -0.047 A 
ATOM     24  C   LIG d   1       7.361  -2.537  -3.573  0.00  0.00    -0.053 A 
ATOM     25  C   LIG d   1       7.986  -3.499  -4.349  0.00  0.00    -0.061 A 
ATOM     26  H   LIG d   1       6.933  -2.805  -2.618  0.00  0.00     0.062 H 
ATOM     27  C   LIG d   1       8.535  -3.160  -5.573  0.00  0.00    -0.061 A 
ATOM     28  H   LIG d   1       8.044  -4.519  -3.997  0.00  0.00     0.062 H 
ATOM     29  H   LIG d   1       9.020  -3.915  -6.172  0.00  0.00     0.062 H 
ATOM     30  H   LIG d   1       8.893  -1.599  -6.987  0.00  0.00     0.063 H 
ENDBRANCH   7  16
ENDBRANCH   2   5
BRANCH   1  31
ATOM     31  C   LIG d   1       4.082  -0.953  -7.711  0.00  0.00     0.034 A 
ATOM     32  C   LIG d   1       5.190  -0.666  -8.498  0.00  0.00    -0.037 A 
ATOM     33  C   LIG d   1       5.020  -0.186  -9.781  0.00  0.00    -0.018 A 
ATOM     34  H   LIG d   1       6.184  -0.825  -8.107  0.00  0.00     0.064 H 
ATOM     35  C   LIG d   1       3.742   0.023 -10.280  0.00  0.00     0.121 A 
ATOM     36  H   LIG d   1       5.881   0.033 -10.395  0.00  0.00     0.066 H 
ATOM     37  C   LIG d   1       2.635  -0.263  -9.495  0.00  0.00    -0.018 A 
ATOM     38  C   LIG d   1       2.804  -0.749  -8.213  0.00  0.00    -0.037 A 
ATOM     39  H   LIG d   1       1.641  -0.104  -9.886  0.00  0.00     0.066 H 
ATOM     40  H   LIG d   1       1.941  -0.971  -7.602  0.00  0.00     0.064 H 
BRANCH  35  41
ATOM     41  O   LIG d   1       3.575   0.502 -11.542  0.00  0.00    -0.492 OA
BRANCH  41  42
ATOM     42  C   LIG d   1       4.156  -0.256 -12.605  0.00  0.00     0.090 C 
ATOM     43  H   LIG d   1       5.133  -0.628 -12.295  0.00  0.00     0.070 H 
ATOM     44  H   LIG d   1       4.271   0.378 -13.484  0.00  0.00     0.070 H 
BRANCH  42  45
ATOM     45  C   LIG d   1       3.245  -1.438 -12.945  0.00  0.00    -0.019 C 
ATOM     46  H   LIG d   1       2.985  -1.404 -14.003  0.00  0.00     0.030 H 
ATOM     47  H   LIG d   1       2.336  -1.380 -12.347  0.00  0.00     0.030 H 
BRANCH  45  48
ATOM     48  C   LIG d   1       3.974  -2.748 -12.641  0.00  0.00    -0.053 C 
ATOM     49  H   LIG d   1       3.951  -3.390 -13.522  0.00  0.00     0.026 H 
ATOM     50  H   LIG d   1       5.008  -2.534 -12.373  0.00  0.00     0.026 H 
BRANCH  48  51
ATOM     51  C   LIG d   1       3.281  -3.458 -11.475  0.00  0.00    -0.065 C 
ATOM     52  H   LIG d   1       3.988  -3.585 -10.656  0.00  0.00     0.023 H 
ATOM     53  H   LIG d   1       2.436  -2.859 -11.136  0.00  0.00     0.023 H 
ATOM     54  H   LIG d   1       2.926  -4.434 -11.805  0.00  0.00     0.023 H 
ENDBRANCH  48  51
ENDBRANCH  45  48
ENDBRANCH  42  45
ENDBRANCH  41  42
ENDBRANCH  35  41
ENDBRANCH   1  31
TORSDOF 8
ENDMDL
MODEL 4
REMARK VINA RESULT:      -6.6      3.843      6.495
REMARK  8 active torsions:
REMARK  status: ('A' for Active; 'I' for Inactive)
REMARK    1  A    between atoms: C_1  and  C_2 
REMARK    2  A    between atoms: C_2  and  C_3 
REMARK    3  A    between atoms: C_3  and  C_4 
REMARK    4  A    between atoms: C_4  and  O_5 
REMARK    5  A    between atoms: O_5  and  C_6 
REMARK    6  A    between atoms: C_9  and  N_12 
REMARK       I    between atoms: N_12  and  C_13 
REMARK    7  A    between atoms: C_13  and  C_15 
REMARK    8  A    between atoms: N_21  and  C_22 
ROOT
ATOM      1  N   LIG d   1       3.610  -4.181  -6.824  0.00  0.00    -0.284 N 
ATOM      2  C   LIG d   1       4.390  -3.250  -7.410  0.00  0.00     0.238 C 
ATOM      3  O   LIG d   1       5.447  -3.574  -7.909  0.00  0.00    -0.273 OA
ATOM      4  H   LIG d   1       2.731  -3.938  -6.494  0.00  0.00     0.155 HD
ENDROOT
BRANCH   2   5
ATOM      5  C   LIG d   1       3.948  -1.810  -7.446  0.00  0.00     0.106 C 
ATOM      6  H   LIG d   1       3.193  -1.629  -6.681  0.00  0.00     0.060 H 
ATOM      7  N   LIG d   1       5.098  -0.921  -7.245  0.00  0.00    -0.251 N 
ATOM      8  C   LIG d   1       5.514  -0.391  -8.408  0.00  0.00     0.219 C 
ATOM      9  C   LIG d   1       4.645  -0.882  -9.544  0.00  0.00     0.026 C 
ATOM     10  O   LIG d   1       6.449   0.373  -8.528  0.00  0.00    -0.276 OA
ATOM     11  C   LIG d   1       3.393  -1.456  -8.843  0.00  0.00    -0.017 C 
ATOM     12  H   LIG d   1       4.371  -0.056 -10.200  0.00  0.00     0.036 H 
ATOM     13  H   LIG d   1       5.160  -1.661 -10.109  0.00  0.00     0.036 H 
ATOM     14  H   LIG d   1       3.032  -2.348  -9.356  0.00  0.00     0.029 H 
ATOM     15  H   LIG d   1       2.607  -0.705  -8.771  0.00  0.00     0.029 H 
BRANCH   7  16
ATOM     16  C   LIG d   1       5.715  -0.647  -5.944  0.00  0.00     0.201 A 
ATOM     17  H   LIG d   1       6.127   0.361  -5.931  0.00  0.00     0.101 H 
ATOM     18  O   LIG d   1       6.762  -1.619  -5.674  0.00  0.00    -0.435 OA
ATOM     19  C   LIG d   1       6.451  -2.300  -4.558  0.00  0.00     0.342 A 
ATOM     20  C   LIG d   1       5.168  -1.821  -4.011  0.00  0.00     0.067 A 
ATOM     21  O   LIG d   1       7.129  -3.181  -4.070  0.00  0.00    -0.245 OA
ATOM     22  C   LIG d   1       4.694  -0.805  -4.845  0.00  0.00     0.025 A 
ATOM     23  C   LIG d   1       4.422  -2.192  -2.890  0.00  0.00    -0.047 A 
ATOM     24  C   LIG d   1       3.503  -0.176  -4.565  0.00  0.00    -0.053 A 
ATOM     25  C   LIG d   1       2.769  -0.551  -3.452  0.00  0.00    -0.061 A 
ATOM     26  H   LIG d   1       3.140   0.608  -5.214  0.00  0.00     0.062 H 
ATOM     27  C   LIG d   1       3.229  -1.555  -2.619  0.00  0.00    -0.061 A 
ATOM     28  H   LIG d   1       1.833  -0.057  -3.234  0.00  0.00     0.062 H 
ATOM     29  H   LIG d   1       2.652  -1.842  -1.753  0.00  0.00     0.062 H 
ATOM     30  H   LIG d   1       4.779  -2.976  -2.239  0.00  0.00     0.063 H 
ENDBRANCH   7  16
ENDBRANCH   2   5
BRANCH   1  31
ATOM     31  C   LIG d   1       4.070  -5.497  -6.690  0.00  0.00     0.034 A 
ATOM     32  C   LIG d   1       3.952  -6.385  -7.752  0.00  0.00    -0.037 A 
ATOM     33  C   LIG d   1       4.411  -7.681  -7.622  0.00  0.00    -0.018 A 
ATOM     34  H   LIG d   1       3.507  -6.060  -8.681  0.00  0.00     0.064 H 
ATOM     35  C   LIG d   1       4.977  -8.100  -6.426  0.00  0.00     0.121 A 
ATOM     36  H   LIG d   1       4.323  -8.370  -8.448  0.00  0.00     0.066 H 
ATOM     37  C   LIG d   1       5.094  -7.214  -5.366  0.00  0.00    -0.018 A 
ATOM     38  C   LIG d   1       4.642  -5.915  -5.497  0.00  0.00    -0.037 A 
ATOM     39  H   LIG d   1       5.539  -7.540  -4.437  0.00  0.00     0.066 H 
ATOM     40  H   LIG d   1       4.733  -5.226  -4.670  0.00  0.00     0.064 H 
BRANCH  35  41
ATOM     41  O   LIG d   1       5.422  -9.378  -6.296  0.00  0.00    -0.492 OA
BRANCH  41  42
ATOM     42  C   LIG d   1       4.631 -10.262  -5.500  0.00  0.00     0.090 C 
ATOM     43  H   LIG d   1       4.265 -11.081  -6.119  0.00  0.00     0.070 H 
ATOM     44  H   LIG d   1       3.784  -9.717  -5.082  0.00  0.00     0.070 H 
BRANCH  42  45
ATOM     45  C   LIG d   1       5.485 -10.826  -4.362  0.00  0.00    -0.019 C 
ATOM     46  H   LIG d   1       6.507 -10.460  -4.459  0.00  0.00     0.030 H 
ATOM     47  H   LIG d   1       5.482 -11.915  -4.410  0.00  0.00     0.030 H 
BRANCH  45  48
ATOM     48  C   LIG d   1       4.908 -10.373  -3.019  0.00  0.00    -0.053 C 
ATOM     49  H   LIG d   1       5.029 -11.169  -2.284  0.00  0.00     0.026 H 
ATOM     50  H   LIG d   1       5.435  -9.481  -2.679  0.00  0.00     0.026 H 
BRANCH  48  51
ATOM     51  C   LIG d   1       3.421 -10.053  -3.185  0.00  0.00    -0.065 C 
ATOM     52  H   LIG d   1       2.891 -10.948  -3.511  0.00  0.00     0.023 H 
ATOM     53  H   LIG d   1       3.013  -9.716  -2.233  0.00  0.00     0.023 H 
ATOM     54  H   LIG d   1       3.299  -9.267  -3.931  0.00  0.00     0.023 H 
ENDBRANCH  48  51
ENDBRANCH  45  48
ENDBRANCH  42  45
ENDBRANCH  41  42
ENDBRANCH  35  41
ENDBRANCH   1  31
TORSDOF 8
ENDMDL
MODEL 5
REMARK VINA RESULT:      -6.5      2.586      7.332
REMARK  8 active torsions:
REMARK  status: ('A' for Active; 'I' for Inactive)
REMARK    1  A    between atoms: C_1  and  C_2 
REMARK    2  A    between atoms: C_2  and  C_3 
REMARK    3  A    between atoms: C_3  and  C_4 
REMARK    4  A    between atoms: C_4  and  O_5 
REMARK    5  A    between atoms: O_5  and  C_6 
REMARK    6  A    between atoms: C_9  and  N_12 
REMARK       I    between atoms: N_12  and  C_13 
REMARK    7  A    between atoms: C_13  and  C_15 
REMARK    8  A    between atoms: N_21  and  C_22 
ROOT
ATOM      1  N   LIG d   1       6.940   1.476  -4.435  0.00  0.00    -0.284 N 
ATOM      2  C   LIG d   1       6.401   0.391  -3.844  0.00  0.00     0.238 C 
ATOM      3  O   LIG d   1       7.119  -0.420  -3.296  0.00  0.00    -0.273 OA
ATOM      4  H   LIG d   1       6.363   2.162  -4.804  0.00  0.00     0.155 HD
ENDROOT
BRANCH   2   5
ATOM      5  C   LIG d   1       4.909   0.185  -3.862  0.00  0.00     0.106 C 
ATOM      6  H   LIG d   1       4.439   0.894  -4.545  0.00  0.00     0.060 H 
ATOM      7  N   LIG d   1       4.591  -1.191  -4.261  0.00  0.00    -0.251 N 
ATOM      8  C   LIG d   1       4.266  -1.945  -3.197  0.00  0.00     0.219 C 
ATOM      9  C   LIG d   1       4.325  -1.116  -1.933  0.00  0.00     0.026 C 
ATOM     10  O   LIG d   1       3.965  -3.119  -3.243  0.00  0.00    -0.276 OA
ATOM     11  C   LIG d   1       4.330   0.345  -2.439  0.00  0.00    -0.017 C 
ATOM     12  H   LIG d   1       3.449  -1.302  -1.313  0.00  0.00     0.036 H 
ATOM     13  H   LIG d   1       5.239  -1.333  -1.378  0.00  0.00     0.036 H 
ATOM     14  H   LIG d   1       4.977   0.970  -1.823  0.00  0.00     0.029 H 
ATOM     15  H   LIG d   1       3.319   0.750  -2.473  0.00  0.00     0.029 H 
BRANCH   7  16
ATOM     16  C   LIG d   1       4.625  -1.681  -5.641  0.00  0.00     0.201 A 
ATOM     17  H   LIG d   1       3.984  -2.556  -5.743  0.00  0.00     0.101 H 
ATOM     18  O   LIG d   1       5.989  -2.013  -6.020  0.00  0.00    -0.435 OA
ATOM     19  C   LIG d   1       6.354  -1.245  -7.060  0.00  0.00     0.342 A 
ATOM     20  C   LIG d   1       5.249  -0.348  -7.443  0.00  0.00     0.067 A 
ATOM     21  O   LIG d   1       7.438  -1.286  -7.607  0.00  0.00    -0.245 OA
ATOM     22  C   LIG d   1       4.173  -0.596  -6.586  0.00  0.00     0.025 A 
ATOM     23  C   LIG d   1       5.122   0.623  -8.440  0.00  0.00    -0.047 A 
ATOM     24  C   LIG d   1       3.000   0.111  -6.722  0.00  0.00    -0.053 A 
ATOM     25  C   LIG d   1       2.883   1.072  -7.712  0.00  0.00    -0.061 A 
ATOM     26  H   LIG d   1       2.173  -0.083  -6.056  0.00  0.00     0.062 H 
ATOM     27  C   LIG d   1       3.942   1.325  -8.567  0.00  0.00    -0.061 A 
ATOM     28  H   LIG d   1       1.963   1.627  -7.817  0.00  0.00     0.062 H 
ATOM     29  H   LIG d   1       3.843   2.075  -9.337  0.00  0.00     0.062 H 
ATOM     30  H   LIG d   1       5.946   0.822  -9.108  0.00  0.00     0.063 H 
ENDBRANCH   7  16
ENDBRANCH   2   5
BRANCH   1  31
ATOM     31  C   LIG d   1       8.332   1.611  -4.517  0.00  0.00     0.034 A 
ATOM     32  C   LIG d   1       9.018   2.331  -3.547  0.00  0.00    -0.037 A 
ATOM     33  C   LIG d   1      10.391   2.459  -3.625  0.00  0.00    -0.018 A 
ATOM     34  H   LIG d   1       8.478   2.785  -2.730  0.00  0.00     0.064 H 
ATOM     35  C   LIG d   1      11.083   1.880  -4.679  0.00  0.00     0.121 A 
ATOM     36  H   LIG d   1      10.925   3.014  -2.869  0.00  0.00     0.066 H 
ATOM     37  C   LIG d   1      10.398   1.161  -5.648  0.00  0.00    -0.018 A 
ATOM     38  C   LIG d   1       9.026   1.027  -5.568  0.00  0.00    -0.037 A 
ATOM     39  H   LIG d   1      10.939   0.706  -6.465  0.00  0.00     0.066 H 
ATOM     40  H   LIG d   1       8.493   0.467  -6.323  0.00  0.00     0.064 H 
BRANCH  35  41
ATOM     41  O   LIG d   1      12.434   2.011  -4.759  0.00  0.00    -0.492 OA
BRANCH  41  42
ATOM     42  C   LIG d   1      13.186   0.823  -5.016  0.00  0.00     0.090 C 
ATOM     43  H   LIG d   1      14.168   1.091  -5.406  0.00  0.00     0.070 H 
ATOM     44  H   LIG d   1      12.659   0.210  -5.747  0.00  0.00     0.070 H 
BRANCH  42  45
ATOM     45  C   LIG d   1      13.353   0.034  -3.715  0.00  0.00    -0.019 C 
ATOM     46  H   LIG d   1      12.503   0.227  -3.061  0.00  0.00     0.030 H 
ATOM     47  H   LIG d   1      14.272   0.344  -3.217  0.00  0.00     0.030 H 
BRANCH  45  48
ATOM     48  C   LIG d   1      13.423  -1.461  -4.031  0.00  0.00    -0.053 C 
ATOM     49  H   LIG d   1      14.054  -1.619  -4.905  0.00  0.00     0.026 H 
ATOM     50  H   LIG d   1      13.845  -1.993  -3.178  0.00  0.00     0.026 H 
BRANCH  48  51
ATOM     51  C   LIG d   1      12.015  -1.988  -4.315  0.00  0.00    -0.065 C 
ATOM     52  H   LIG d   1      11.923  -3.004  -3.932  0.00  0.00     0.023 H 
ATOM     53  H   LIG d   1      11.281  -1.348  -3.827  0.00  0.00     0.023 H 
ATOM     54  H   LIG d   1      11.838  -1.988  -5.391  0.00  0.00     0.023 H 
ENDBRANCH  48  51
ENDBRANCH  45  48
ENDBRANCH  42  45
ENDBRANCH  41  42
ENDBRANCH  35  41
ENDBRANCH   1  31
TORSDOF 8
ENDMDL
MODEL 6
REMARK VINA RESULT:      -6.5      4.088      8.154
REMARK  8 active torsions:
REMARK  status: ('A' for Active; 'I' for Inactive)
REMARK    1  A    between atoms: C_1  and  C_2 
REMARK    2  A    between atoms: C_2  and  C_3 
REMARK    3  A    between atoms: C_3  and  C_4 
REMARK    4  A    between atoms: C_4  and  O_5 
REMARK    5  A    between atoms: O_5  and  C_6 
REMARK    6  A    between atoms: C_9  and  N_12 
REMARK       I    between atoms: N_12  and  C_13 
REMARK    7  A    between atoms: C_13  and  C_15 
REMARK    8  A    between atoms: N_21  and  C_22 
ROOT
ATOM      1  N   LIG d   1       9.398   0.611  -4.660  0.00  0.00    -0.284 N 
ATOM      2  C   LIG d   1       8.937   0.656  -5.926  0.00  0.00     0.238 C 
ATOM      3  O   LIG d   1       9.118   1.647  -6.602  0.00  0.00    -0.273 OA
ATOM      4  H   LIG d   1       9.323  -0.208  -4.147  0.00  0.00     0.155 HD
ENDROOT
BRANCH   2   5
ATOM      5  C   LIG d   1       8.197  -0.524  -6.502  0.00  0.00     0.106 C 
ATOM      6  H   LIG d   1       8.809  -1.424  -6.429  0.00  0.00     0.060 H 
ATOM      7  N   LIG d   1       6.924  -0.717  -5.799  0.00  0.00    -0.251 N 
ATOM      8  C   LIG d   1       5.892  -0.246  -6.520  0.00  0.00     0.219 C 
ATOM      9  C   LIG d   1       6.390   0.322  -7.831  0.00  0.00     0.026 C 
ATOM     10  O   LIG d   1       4.731  -0.274  -6.172  0.00  0.00    -0.276 OA
ATOM     11  C   LIG d   1       7.818  -0.250  -7.974  0.00  0.00    -0.017 C 
ATOM     12  H   LIG d   1       5.760  -0.012  -8.655  0.00  0.00     0.036 H 
ATOM     13  H   LIG d   1       6.415   1.412  -7.789  0.00  0.00     0.036 H 
ATOM     14  H   LIG d   1       8.490   0.484  -8.419  0.00  0.00     0.029 H 
ATOM     15  H   LIG d   1       7.813  -1.172  -8.554  0.00  0.00     0.029 H 
BRANCH   7  16
ATOM     16  C   LIG d   1       6.793  -1.344  -4.481  0.00  0.00     0.201 A 
ATOM     17  H   LIG d   1       7.778  -1.488  -4.037  0.00  0.00     0.101 H 
ATOM     18  O   LIG d   1       6.108  -2.620  -4.602  0.00  0.00    -0.435 OA
ATOM     19  C   LIG d   1       4.975  -2.579  -3.880  0.00  0.00     0.342 A 
ATOM     20  C   LIG d   1       4.835  -1.263  -3.229  0.00  0.00     0.067 A 
ATOM     21  O   LIG d   1       4.182  -3.493  -3.778  0.00  0.00    -0.245 OA
ATOM     22  C   LIG d   1       5.940  -0.485  -3.583  0.00  0.00     0.025 A 
ATOM     23  C   LIG d   1       3.856  -0.725  -2.389  0.00  0.00    -0.047 A 
ATOM     24  C   LIG d   1       6.064   0.801  -3.109  0.00  0.00    -0.053 A 
ATOM     25  C   LIG d   1       5.089   1.328  -2.277  0.00  0.00    -0.061 A 
ATOM     26  H   LIG d   1       6.919   1.399  -3.387  0.00  0.00     0.062 H 
ATOM     27  C   LIG d   1       3.991   0.566  -1.920  0.00  0.00    -0.061 A 
ATOM     28  H   LIG d   1       5.186   2.337  -1.907  0.00  0.00     0.062 H 
ATOM     29  H   LIG d   1       3.235   0.983  -1.271  0.00  0.00     0.062 H 
ATOM     30  H   LIG d   1       2.998  -1.317  -2.109  0.00  0.00     0.063 H 
ENDBRANCH   7  16
ENDBRANCH   2   5
BRANCH   1  31
ATOM     31  C   LIG d   1       9.985   1.746  -4.087  0.00  0.00     0.034 A 
ATOM     32  C   LIG d   1      11.368   1.861  -4.033  0.00  0.00    -0.037 A 
ATOM     33  C   LIG d   1      11.947   2.983  -3.473  0.00  0.00    -0.018 A 
ATOM     34  H   LIG d   1      11.991   1.074  -4.434  0.00  0.00     0.064 H 
ATOM     35  C   LIG d   1      11.146   3.990  -2.953  0.00  0.00     0.121 A 
ATOM     36  H   LIG d   1      13.021   3.074  -3.435  0.00  0.00     0.066 H 
ATOM     37  C   LIG d   1       9.765   3.875  -3.007  0.00  0.00    -0.018 A 
ATOM     38  C   LIG d   1       9.185   2.756  -3.572  0.00  0.00    -0.037 A 
ATOM     39  H   LIG d   1       9.143   4.662  -2.606  0.00  0.00     0.066 H 
ATOM     40  H   LIG d   1       8.109   2.668  -3.613  0.00  0.00     0.064 H 
BRANCH  35  41
ATOM     41  O   LIG d   1      11.716   5.092  -2.397  0.00  0.00    -0.492 OA
BRANCH  41  42
ATOM     42  C   LIG d   1      11.024   5.694  -1.300  0.00  0.00     0.090 C 
ATOM     43  H   LIG d   1      10.035   5.247  -1.204  0.00  0.00     0.070 H 
ATOM     44  H   LIG d   1      10.923   6.765  -1.478  0.00  0.00     0.070 H 
BRANCH  42  45
ATOM     45  C   LIG d   1      11.816   5.464  -0.010  0.00  0.00    -0.019 C 
ATOM     46  H   LIG d   1      12.778   5.972  -0.079  0.00  0.00     0.030 H 
ATOM     47  H   LIG d   1      11.978   4.396   0.130  0.00  0.00     0.030 H 
BRANCH  45  48
ATOM     48  C   LIG d   1      11.029   6.022   1.177  0.00  0.00    -0.053 C 
ATOM     49  H   LIG d   1       9.961   5.889   1.000  0.00  0.00     0.026 H 
ATOM     50  H   LIG d   1      11.316   5.491   2.085  0.00  0.00     0.026 H 
BRANCH  48  51
ATOM     51  C   LIG d   1      11.337   7.512   1.338  0.00  0.00    -0.065 C 
ATOM     52  H   LIG d   1      11.397   7.980   0.356  0.00  0.00     0.023 H 
ATOM     53  H   LIG d   1      10.546   7.986   1.919  0.00  0.00     0.023 H 
ATOM     54  H   LIG d   1      12.289   7.632   1.856  0.00  0.00     0.023 H 
ENDBRANCH  48  51
ENDBRANCH  45  48
ENDBRANCH  42  45
ENDBRANCH  41  42
ENDBRANCH  35  41
ENDBRANCH   1  31
TORSDOF 8
ENDMDL
MODEL 7
REMARK VINA RESULT:      -6.5      3.053      5.129
REMARK  8 active torsions:
REMARK  status: ('A' for Active; 'I' for Inactive)
REMARK    1  A    between atoms: C_1  and  C_2 
REMARK    2  A    between atoms: C_2  and  C_3 
REMARK    3  A    between atoms: C_3  and  C_4 
REMARK    4  A    between atoms: C_4  and  O_5 
REMARK    5  A    between atoms: O_5  and  C_6 
REMARK    6  A    between atoms: C_9  and  N_12 
REMARK       I    between atoms: N_12  and  C_13 
REMARK    7  A    between atoms: C_13  and  C_15 
REMARK    8  A    between atoms: N_21  and  C_22 
ROOT
ATOM      1  N   LIG d   1       7.461   0.159  -5.400  0.00  0.00    -0.284 N 
ATOM      2  C   LIG d   1       7.528  -1.181  -5.532  0.00  0.00     0.238 C 
ATOM      3  O   LIG d   1       7.892  -1.669  -6.582  0.00  0.00    -0.273 OA
ATOM      4  H   LIG d   1       7.246   0.550  -4.539  0.00  0.00     0.155 HD
ENDROOT
BRANCH   2   5
ATOM      5  C   LIG d   1       7.153  -2.073  -4.377  0.00  0.00     0.106 C 
ATOM      6  H   LIG d   1       6.955  -1.474  -3.488  0.00  0.00     0.060 H 
ATOM      7  N   LIG d   1       5.976  -2.879  -4.720  0.00  0.00    -0.251 N 
ATOM      8  C   LIG d   1       6.322  -4.137  -5.040  0.00  0.00     0.219 C 
ATOM      9  C   LIG d   1       7.820  -4.309  -4.931  0.00  0.00     0.026 C 
ATOM     10  O   LIG d   1       5.545  -5.009  -5.368  0.00  0.00    -0.276 OA
ATOM     11  C   LIG d   1       8.282  -3.090  -4.099  0.00  0.00    -0.017 C 
ATOM     12  H   LIG d   1       8.062  -5.237  -4.414  0.00  0.00     0.036 H 
ATOM     13  H   LIG d   1       8.279  -4.294  -5.921  0.00  0.00     0.036 H 
ATOM     14  H   LIG d   1       9.241  -2.715  -4.455  0.00  0.00     0.029 H 
ATOM     15  H   LIG d   1       8.331  -3.338  -3.039  0.00  0.00     0.029 H 
BRANCH   7  16
ATOM     16  C   LIG d   1       4.599  -2.376  -4.713  0.00  0.00     0.201 A 
ATOM     17  H   LIG d   1       3.902  -3.198  -4.550  0.00  0.00     0.101 H 
ATOM     18  O   LIG d   1       4.304  -1.713  -5.973  0.00  0.00    -0.435 OA
ATOM     19  C   LIG d   1       3.995  -0.428  -5.730  0.00  0.00     0.342 A 
ATOM     20  C   LIG d   1       4.064  -0.154  -4.283  0.00  0.00     0.067 A 
ATOM     21  O   LIG d   1       3.699   0.388  -6.579  0.00  0.00    -0.245 OA
ATOM     22  C   LIG d   1       4.434  -1.336  -3.635  0.00  0.00     0.025 A 
ATOM     23  C   LIG d   1       3.838   1.000  -3.528  0.00  0.00    -0.047 A 
ATOM     24  C   LIG d   1       4.574  -1.362  -2.266  0.00  0.00    -0.053 A 
ATOM     25  C   LIG d   1       4.348  -0.213  -1.526  0.00  0.00    -0.061 A 
ATOM     26  H   LIG d   1       4.862  -2.278  -1.771  0.00  0.00     0.062 H 
ATOM     27  C   LIG d   1       3.981   0.962  -2.157  0.00  0.00    -0.061 A 
ATOM     28  H   LIG d   1       4.460  -0.235  -0.452  0.00  0.00     0.062 H 
ATOM     29  H   LIG d   1       3.806   1.853  -1.573  0.00  0.00     0.062 H 
ATOM     30  H   LIG d   1       3.551   1.919  -4.018  0.00  0.00     0.063 H 
ENDBRANCH   7  16
ENDBRANCH   2   5
BRANCH   1  31
ATOM     31  C   LIG d   1       7.701   0.985  -6.506  0.00  0.00     0.034 A 
ATOM     32  C   LIG d   1       8.805   1.826  -6.517  0.00  0.00    -0.037 A 
ATOM     33  C   LIG d   1       9.045   2.636  -7.610  0.00  0.00    -0.018 A 
ATOM     34  H   LIG d   1       9.481   1.842  -5.675  0.00  0.00     0.064 H 
ATOM     35  C   LIG d   1       8.174   2.620  -8.690  0.00  0.00     0.121 A 
ATOM     36  H   LIG d   1       9.906   3.287  -7.621  0.00  0.00     0.066 H 
ATOM     37  C   LIG d   1       7.070   1.779  -8.679  0.00  0.00    -0.018 A 
ATOM     38  C   LIG d   1       6.833   0.964  -7.589  0.00  0.00    -0.037 A 
ATOM     39  H   LIG d   1       6.395   1.764  -9.522  0.00  0.00     0.066 H 
ATOM     40  H   LIG d   1       5.973   0.311  -7.581  0.00  0.00     0.064 H 
BRANCH  35  41
ATOM     41  O   LIG d   1       8.406   3.422  -9.763  0.00  0.00    -0.492 OA
BRANCH  41  42
ATOM     42  C   LIG d   1       9.743   3.897  -9.940  0.00  0.00     0.090 C 
ATOM     43  H   LIG d   1      10.261   3.265 -10.661  0.00  0.00     0.070 H 
ATOM     44  H   LIG d   1      10.268   3.866  -8.985  0.00  0.00     0.070 H 
BRANCH  42  45
ATOM     45  C   LIG d   1       9.707   5.337 -10.456  0.00  0.00    -0.019 C 
ATOM     46  H   LIG d   1       9.550   5.334 -11.534  0.00  0.00     0.030 H 
ATOM     47  H   LIG d   1      10.654   5.828 -10.228  0.00  0.00     0.030 H 
BRANCH  45  48
ATOM     48  C   LIG d   1       8.565   6.094  -9.776  0.00  0.00    -0.053 C 
ATOM     49  H   LIG d   1       7.931   6.553 -10.535  0.00  0.00     0.026 H 
ATOM     50  H   LIG d   1       7.973   5.400  -9.179  0.00  0.00     0.026 H 
BRANCH  48  51
ATOM     51  C   LIG d   1       9.142   7.182  -8.869  0.00  0.00    -0.065 C 
ATOM     52  H   LIG d   1       8.378   7.514  -8.166  0.00  0.00     0.023 H 
ATOM     53  H   LIG d   1       9.993   6.782  -8.317  0.00  0.00     0.023 H 
ATOM     54  H   LIG d   1       9.468   8.027  -9.477  0.00  0.00     0.023 H 
ENDBRANCH  48  51
ENDBRANCH  45  48
ENDBRANCH  42  45
ENDBRANCH  41  42
ENDBRANCH  35  41
ENDBRANCH   1  31
TORSDOF 8
ENDMDL
MODEL 8
REMARK VINA RESULT:      -6.4      3.272      6.593
REMARK  8 active torsions:
REMARK  status: ('A' for Active; 'I' for Inactive)
REMARK    1  A    between atoms: C_1  and  C_2 
REMARK    2  A    between atoms: C_2  and  C_3 
REMARK    3  A    between atoms: C_3  and  C_4 
REMARK    4  A    between atoms: C_4  and  O_5 
REMARK    5  A    between atoms: O_5  and  C_6 
REMARK    6  A    between atoms: C_9  and  N_12 
REMARK       I    between atoms: N_12  and  C_13 
REMARK    7  A    between atoms: C_13  and  C_15 
REMARK    8  A    between atoms: N_21  and  C_22 
ROOT
ATOM      1  N   LIG d   1       8.302  -0.267  -3.993  0.00  0.00    -0.284 N 
ATOM      2  C   LIG d   1       7.624  -1.207  -4.680  0.00  0.00     0.238 C 
ATOM      3  O   LIG d   1       7.462  -1.083  -5.877  0.00  0.00    -0.273 OA
ATOM      4  H   LIG d   1       8.499  -0.402  -3.053  0.00  0.00     0.155 HD
ENDROOT
BRANCH   2   5
ATOM      5  C   LIG d   1       7.067  -2.410  -3.965  0.00  0.00     0.106 C 
ATOM      6  H   LIG d   1       6.755  -2.137  -2.956  0.00  0.00     0.060 H 
ATOM      7  N   LIG d   1       5.935  -2.967  -4.714  0.00  0.00    -0.251 N 
ATOM      8  C   LIG d   1       6.297  -4.062  -5.403  0.00  0.00     0.219 C 
ATOM      9  C   LIG d   1       7.760  -4.365  -5.169  0.00  0.00     0.026 C 
ATOM     10  O   LIG d   1       5.557  -4.714  -6.110  0.00  0.00    -0.276 OA
ATOM     11  C   LIG d   1       8.122  -3.538  -3.914  0.00  0.00    -0.017 C 
ATOM     12  H   LIG d   1       7.905  -5.428  -4.980  0.00  0.00     0.036 H 
ATOM     13  H   LIG d   1       8.357  -4.046  -6.025  0.00  0.00     0.036 H 
ATOM     14  H   LIG d   1       9.130  -3.131  -3.992  0.00  0.00     0.029 H 
ATOM     15  H   LIG d   1       8.012  -4.133  -3.009  0.00  0.00     0.029 H 
BRANCH   7  16
ATOM     16  C   LIG d   1       4.583  -2.402  -4.710  0.00  0.00     0.201 A 
ATOM     17  H   LIG d   1       3.848  -3.194  -4.565  0.00  0.00     0.101 H 
ATOM     18  O   LIG d   1       4.329  -1.708  -5.962  0.00  0.00    -0.435 OA
ATOM     19  C   LIG d   1       4.076  -0.414  -5.701  0.00  0.00     0.342 A 
ATOM     20  C   LIG d   1       4.146  -0.164  -4.250  0.00  0.00     0.067 A 
ATOM     21  O   LIG d   1       3.825   0.427  -6.540  0.00  0.00    -0.245 OA
ATOM     22  C   LIG d   1       4.456  -1.371  -3.617  0.00  0.00     0.025 A 
ATOM     23  C   LIG d   1       3.966   0.988  -3.480  0.00  0.00    -0.047 A 
ATOM     24  C   LIG d   1       4.584  -1.424  -2.248  0.00  0.00    -0.053 A 
ATOM     25  C   LIG d   1       4.405  -0.277  -1.492  0.00  0.00    -0.061 A 
ATOM     26  H   LIG d   1       4.825  -2.359  -1.764  0.00  0.00     0.062 H 
ATOM     27  C   LIG d   1       4.097   0.923  -2.109  0.00  0.00    -0.061 A 
ATOM     28  H   LIG d   1       4.506  -0.320  -0.418  0.00  0.00     0.062 H 
ATOM     29  H   LIG d   1       3.958   1.812  -1.513  0.00  0.00     0.062 H 
ATOM     30  H   LIG d   1       3.726   1.925  -3.958  0.00  0.00     0.063 H 
ENDBRANCH   7  16
ENDBRANCH   2   5
BRANCH   1  31
ATOM     31  C   LIG d   1       8.722   0.905  -4.635  0.00  0.00     0.034 A 
ATOM     32  C   LIG d   1       8.043   2.097  -4.420  0.00  0.00    -0.037 A 
ATOM     33  C   LIG d   1       8.461   3.253  -5.048  0.00  0.00    -0.018 A 
ATOM     34  H   LIG d   1       7.191   2.120  -3.756  0.00  0.00     0.064 H 
ATOM     35  C   LIG d   1       9.552   3.222  -5.906  0.00  0.00     0.121 A 
ATOM     36  H   LIG d   1       7.936   4.181  -4.878  0.00  0.00     0.066 H 
ATOM     37  C   LIG d   1      10.231   2.031  -6.121  0.00  0.00    -0.018 A 
ATOM     38  C   LIG d   1       9.817   0.875  -5.488  0.00  0.00    -0.037 A 
ATOM     39  H   LIG d   1      11.083   2.009  -6.784  0.00  0.00     0.066 H 
ATOM     40  H   LIG d   1      10.346  -0.051  -5.656  0.00  0.00     0.064 H 
BRANCH  35  41
ATOM     41  O   LIG d   1       9.960   4.359  -6.529  0.00  0.00    -0.492 OA
BRANCH  41  42
ATOM     42  C   LIG d   1       9.975   5.556  -5.749  0.00  0.00     0.090 C 
ATOM     43  H   LIG d   1       9.135   5.548  -5.054  0.00  0.00     0.070 H 
ATOM     44  H   LIG d   1       9.892   6.421  -6.408  0.00  0.00     0.070 H 
BRANCH  42  45
ATOM     45  C   LIG d   1      11.286   5.637  -4.965  0.00  0.00    -0.019 C 
ATOM     46  H   LIG d   1      11.948   6.364  -5.436  0.00  0.00     0.030 H 
ATOM     47  H   LIG d   1      11.767   4.658  -4.959  0.00  0.00     0.030 H 
BRANCH  45  48
ATOM     48  C   LIG d   1      10.995   6.071  -3.527  0.00  0.00    -0.053 C 
ATOM     49  H   LIG d   1      11.251   5.261  -2.844  0.00  0.00     0.026 H 
ATOM     50  H   LIG d   1      11.589   6.952  -3.286  0.00  0.00     0.026 H 
BRANCH  48  51
ATOM     51  C   LIG d   1       9.508   6.405  -3.387  0.00  0.00    -0.065 C 
ATOM     52  H   LIG d   1       8.990   6.155  -4.313  0.00  0.00     0.023 H 
ATOM     53  H   LIG d   1       9.082   5.828  -2.566  0.00  0.00     0.023 H 
ATOM     54  H   LIG d   1       9.393   7.469  -3.181  0.00  0.00     0.023 H 
ENDBRANCH  48  51
ENDBRANCH  45  48
ENDBRANCH  42  45
ENDBRANCH  41  42
ENDBRANCH  35  41
ENDBRANCH   1  31
TORSDOF 8
ENDMDL
MODEL 9
REMARK VINA RESULT:      -6.4      4.007      7.903
REMARK  8 active torsions:
REMARK  status: ('A' for Active; 'I' for Inactive)
REMARK    1  A    between atoms: C_1  and  C_2 
REMARK    2  A    between atoms: C_2  and  C_3 
REMARK    3  A    between atoms: C_3  and  C_4 
REMARK    4  A    between atoms: C_4  and  O_5 
REMARK    5  A    between atoms: O_5  and  C_6 
REMARK    6  A    between atoms: C_9  and  N_12 
REMARK       I    between atoms: N_12  and  C_13 
REMARK    7  A    between atoms: C_13  and  C_15 
REMARK    8  A    between atoms: N_21  and  C_22 
ROOT
ATOM      1  N   LIG d   1       8.997   1.115  -3.921  0.00  0.00    -0.284 N 
ATOM      2  C   LIG d   1       9.209   0.221  -4.906  0.00  0.00     0.238 C 
ATOM      3  O   LIG d   1      10.005   0.469  -5.788  0.00  0.00    -0.273 OA
ATOM      4  H   LIG d   1       8.420   0.886  -3.175  0.00  0.00     0.155 HD
ENDROOT
BRANCH   2   5
ATOM      5  C   LIG d   1       8.460  -1.086  -4.914  0.00  0.00     0.106 C 
ATOM      6  H   LIG d   1       8.170  -1.360  -3.899  0.00  0.00     0.060 H 
ATOM      7  N   LIG d   1       7.274  -0.986  -5.772  0.00  0.00    -0.251 N 
ATOM      8  C   LIG d   1       7.481  -1.574  -6.962  0.00  0.00     0.219 C 
ATOM      9  C   LIG d   1       8.876  -2.157  -7.019  0.00  0.00     0.026 C 
ATOM     10  O   LIG d   1       6.667  -1.631  -7.860  0.00  0.00    -0.276 OA
ATOM     11  C   LIG d   1       9.330  -2.197  -5.542  0.00  0.00    -0.017 C 
ATOM     12  H   LIG d   1       8.853  -3.162  -7.439  0.00  0.00     0.036 H 
ATOM     13  H   LIG d   1       9.534  -1.514  -7.606  0.00  0.00     0.036 H 
ATOM     14  H   LIG d   1      10.390  -1.959  -5.453  0.00  0.00     0.029 H 
ATOM     15  H   LIG d   1       9.111  -3.165  -5.093  0.00  0.00     0.029 H 
BRANCH   7  16
ATOM     16  C   LIG d   1       6.023  -0.330  -5.380  0.00  0.00     0.201 A 
ATOM     17  H   LIG d   1       5.410  -0.139  -6.261  0.00  0.00     0.101 H 
ATOM     18  O   LIG d   1       6.310   0.917  -4.691  0.00  0.00    -0.435 OA
ATOM     19  C   LIG d   1       5.808   0.855  -3.446  0.00  0.00     0.342 A 
ATOM     20  C   LIG d   1       5.151  -0.447  -3.227  0.00  0.00     0.067 A 
ATOM     21  O   LIG d   1       5.883   1.743  -2.621  0.00  0.00    -0.245 OA
ATOM     22  C   LIG d   1       5.270  -1.195  -4.402  0.00  0.00     0.025 A 
ATOM     23  C   LIG d   1       4.490  -0.998  -2.127  0.00  0.00    -0.047 A 
ATOM     24  C   LIG d   1       4.740  -2.463  -4.474  0.00  0.00    -0.053 A 
ATOM     25  C   LIG d   1       4.086  -3.002  -3.378  0.00  0.00    -0.061 A 
ATOM     26  H   LIG d   1       4.836  -3.037  -5.384  0.00  0.00     0.062 H 
ATOM     27  C   LIG d   1       3.962  -2.270  -2.211  0.00  0.00    -0.061 A 
ATOM     28  H   LIG d   1       3.671  -3.997  -3.436  0.00  0.00     0.062 H 
ATOM     29  H   LIG d   1       3.450  -2.696  -1.361  0.00  0.00     0.062 H 
ATOM     30  H   LIG d   1       4.392  -0.429  -1.214  0.00  0.00     0.063 H 
ENDBRANCH   7  16
ENDBRANCH   2   5
BRANCH   1  31
ATOM     31  C   LIG d   1       9.607   2.375  -3.973  0.00  0.00     0.034 A 
ATOM     32  C   LIG d   1       9.024   3.400  -4.707  0.00  0.00    -0.037 A 
ATOM     33  C   LIG d   1       9.623   4.643  -4.754  0.00  0.00    -0.018 A 
ATOM     34  H   LIG d   1       8.099   3.225  -5.237  0.00  0.00     0.064 H 
ATOM     35  C   LIG d   1      10.815   4.865  -4.078  0.00  0.00     0.121 A 
ATOM     36  H   LIG d   1       9.168   5.441  -5.321  0.00  0.00     0.066 H 
ATOM     37  C   LIG d   1      11.397   3.842  -3.345  0.00  0.00    -0.018 A 
ATOM     38  C   LIG d   1      10.796   2.600  -3.292  0.00  0.00    -0.037 A 
ATOM     39  H   LIG d   1      12.322   4.017  -2.815  0.00  0.00     0.066 H 
ATOM     40  H   LIG d   1      11.251   1.803  -2.722  0.00  0.00     0.064 H 
BRANCH  35  41
ATOM     41  O   LIG d   1      11.408   6.087  -4.129  0.00  0.00    -0.492 OA
BRANCH  41  42
ATOM     42  C   LIG d   1      11.681   6.727  -2.880  0.00  0.00     0.090 C 
ATOM     43  H   LIG d   1      12.607   7.297  -2.959  0.00  0.00     0.070 H 
ATOM     44  H   LIG d   1      11.784   5.973  -2.100  0.00  0.00     0.070 H 
BRANCH  42  45
ATOM     45  C   LIG d   1      10.529   7.671  -2.528  0.00  0.00    -0.019 C 
ATOM     46  H   LIG d   1       9.931   7.863  -3.419  0.00  0.00     0.030 H 
ATOM     47  H   LIG d   1      10.933   8.611  -2.151  0.00  0.00     0.030 H 
BRANCH  45  48
ATOM     48  C   LIG d   1       9.652   7.026  -1.455  0.00  0.00    -0.053 C 
ATOM     49  H   LIG d   1       9.050   7.793  -0.967  0.00  0.00     0.026 H 
ATOM     50  H   LIG d   1       8.996   6.288  -1.917  0.00  0.00     0.026 H 
BRANCH  48  51
ATOM     51  C   LIG d   1      10.540   6.338  -0.415  0.00  0.00    -0.065 C 
ATOM     52  H   LIG d   1      11.329   5.783  -0.922  0.00  0.00     0.023 H 
ATOM     53  H   LIG d   1      10.985   7.089   0.237  0.00  0.00     0.023 H 
ATOM     54  H   LIG d   1       9.938   5.651   0.179  0.00  0.00     0.023 H 
ENDBRANCH  48  51
ENDBRANCH  45  48
ENDBRANCH  42  45
ENDBRANCH  41  42
ENDBRANCH  35  41
ENDBRANCH   1  31
TORSDOF 8
ENDMDL
