MODEL 1
REMARK VINA RESULT:      -7.1      0.000      0.000
REMARK  8 active torsions:
REMARK  status: ('A' for Active; 'I' for Inactive)
REMARK    1  A    between atoms: C_1  and  C_2 
REMARK    2  A    between atoms: C_2  and  C_28 
REMARK    3  A    between atoms: C_7  and  O_27 
REMARK    4  A    between atoms: C_9  and  O_13 
REMARK    5  A    between atoms: O_13  and  C_14 
REMARK    6  A    between atoms: C_14  and  C_15 
REMARK       I    between atoms: C_15  and  N_17 
REMARK    7  A    between atoms: N_17  and  C_18 
REMARK    8  A    between atoms: C_21  and  C_24 
REMARK       I    between atoms: C_24  and  N_26 
ROOT
ATOM      1  C   LIG d   1      11.027   6.448  -0.165  0.00  0.00     0.112 C 
ATOM      2  C   LIG d   1      10.255   7.774  -0.227  0.00  0.00     0.050 C 
ATOM      3  C   LIG d   1      10.232   8.214  -1.680  0.00  0.00     0.174 C 
ATOM      4  O   LIG d   1      10.380   9.376  -1.997  0.00  0.00    -0.292 OA
ATOM      5  C   LIG d   1      10.023   7.161  -2.681  0.00  0.00     0.101 A 
ATOM      6  C   LIG d   1       9.735   7.490  -4.014  0.00  0.00     0.134 A 
ATOM      7  C   LIG d   1       9.561   6.478  -4.943  0.00  0.00     0.022 A 
ATOM      8  C   LIG d   1       9.660   5.148  -4.550  0.00  0.00     0.128 A 
ATOM      9  C   LIG d   1       9.940   4.819  -3.231  0.00  0.00     0.023 A 
ATOM     10  C   LIG d   1      10.121   5.814  -2.286  0.00  0.00     0.139 A 
ATOM     11  O   LIG d   1      10.382   5.486  -0.999  0.00  0.00    -0.485 OA
ATOM     12  H   LIG d   1       9.231   7.620   0.146  0.00  0.00     0.038 H 
ATOM     13  H   LIG d   1      10.763   8.524   0.396  0.00  0.00     0.038 H 
ATOM     14  H   LIG d   1       9.344   6.721  -5.972  0.00  0.00     0.069 H 
ATOM     15  H   LIG d   1      10.018   3.781  -2.939  0.00  0.00     0.069 H 
ENDROOT
BRANCH   8  16
ATOM     16  O   LIG d   1       9.486   4.163  -5.467  0.00  0.00    -0.482 OA
BRANCH  16  17
ATOM     17  C   LIG d   1       9.802   2.831  -5.056  0.00  0.00     0.166 C 
ATOM     18  H   LIG d   1      10.396   2.337  -5.839  0.00  0.00     0.080 H 
ATOM     19  H   LIG d   1      10.383   2.864  -4.122  0.00  0.00     0.080 H 
BRANCH  17  20
ATOM     20  C   LIG d   1       8.528   2.060  -4.830  0.00  0.00     0.255 C 
ATOM     21  O   LIG d   1       7.716   1.956  -5.725  0.00  0.00    -0.272 OA
ATOM     22  N   LIG d   1       8.291   1.486  -3.634  0.00  0.00    -0.283 N 
ATOM     23  H   LIG d   1       8.991   1.643  -2.800  0.00  0.00     0.155 HD
BRANCH  22  24
ATOM     24  C   LIG d   1       7.158   0.693  -3.454  0.00  0.00     0.034 A 
ATOM     25  C   LIG d   1       7.219  -0.673  -3.708  0.00  0.00    -0.040 A 
ATOM     26  C   LIG d   1       6.104  -1.461  -3.527  0.00  0.00    -0.048 A 
ATOM     27  H   LIG d   1       8.143  -1.118  -4.045  0.00  0.00     0.064 H 
ATOM     28  C   LIG d   1       4.906  -0.883  -3.096  0.00  0.00     0.037 A 
ATOM     29  H   LIG d   1       6.153  -2.521  -3.722  0.00  0.00     0.063 H 
ATOM     30  C   LIG d   1       4.848   0.489  -2.840  0.00  0.00    -0.048 A 
ATOM     31  C   LIG d   1       5.968   1.270  -3.019  0.00  0.00    -0.040 A 
ATOM     32  H   LIG d   1       3.925   0.939  -2.503  0.00  0.00     0.063 H 
ATOM     33  H   LIG d   1       5.924   2.331  -2.823  0.00  0.00     0.064 H 
BRANCH  28  34
ATOM     34  C   LIG d   1       3.707  -1.722  -2.905  0.00  0.00     0.241 C 
ATOM     35  O   LIG d   1       3.810  -2.933  -2.894  0.00  0.00    -0.270 OA
ATOM     36  N   LIG d   1       2.500  -1.146  -2.738  0.00  0.00    -0.325 N 
ATOM     37  H   LIG d   1       1.607  -1.773  -2.595  0.00  0.00     0.145 HD
ATOM     38  H   LIG d   1       2.408  -0.050  -2.743  0.00  0.00     0.145 HD
ENDBRANCH  28  34
ENDBRANCH  22  24
ENDBRANCH  17  20
ENDBRANCH  16  17
ENDBRANCH   8  16
BRANCH   6  39
ATOM     39  O   LIG d   1       9.631   8.788  -4.392  0.00  0.00    -0.506 OA
ATOM     40  H   LIG d   1      10.388   9.228  -5.058  0.00  0.00     0.292 HD
ENDBRANCH   6  39
BRANCH   1  41
ATOM     41  C   LIG d   1      12.461   6.670  -0.654  0.00  0.00    -0.025 C 
ATOM     42  H   LIG d   1      13.136   5.971  -0.140  0.00  0.00     0.027 H 
ATOM     43  H   LIG d   1      12.766   7.704  -0.434  0.00  0.00     0.027 H 
ATOM     44  H   LIG d   1      12.509   6.497  -1.739  0.00  0.00     0.027 H 
ENDBRANCH   1  41
BRANCH   1  45
ATOM     45  C   LIG d   1      11.052   5.939   1.277  0.00  0.00    -0.025 C 
ATOM     46  H   LIG d   1      10.589   6.686   1.938  0.00  0.00     0.027 H 
ATOM     47  H   LIG d   1      12.094   5.770   1.589  0.00  0.00     0.027 H 
ATOM     48  H   LIG d   1      10.492   4.994   1.342  0.00  0.00     0.027 H 
ENDBRANCH   1  45
TORSDOF 8
ENDMDL
MODEL 2
REMARK VINA RESULT:      -6.6      2.628      4.838
REMARK  8 active torsions:
REMARK  status: ('A' for Active; 'I' for Inactive)
REMARK    1  A    between atoms: C_1  and  C_2 
REMARK    2  A    between atoms: C_2  and  C_28 
REMARK    3  A    between atoms: C_7  and  O_27 
REMARK    4  A    between atoms: C_9  and  O_13 
REMARK    5  A    between atoms: O_13  and  C_14 
REMARK    6  A    between atoms: C_14  and  C_15 
REMARK       I    between atoms: C_15  and  N_17 
REMARK    7  A    between atoms: N_17  and  C_18 
REMARK    8  A    between atoms: C_21  and  C_24 
REMARK       I    between atoms: C_24  and  N_26 
ROOT
ATOM      1  C   LIG d   1      10.122   6.450  -9.908  0.00  0.00     0.112 C 
ATOM      2  C   LIG d   1      10.438   7.908  -9.543  0.00  0.00     0.050 C 
ATOM      3  C   LIG d   1       9.720   8.210  -8.239  0.00  0.00     0.174 C 
ATOM      4  O   LIG d   1       9.168   9.273  -8.046  0.00  0.00    -0.292 OA
ATOM      5  C   LIG d   1       9.728   7.149  -7.225  0.00  0.00     0.101 A 
ATOM      6  C   LIG d   1       9.320   7.415  -5.908  0.00  0.00     0.134 A 
ATOM      7  C   LIG d   1       9.318   6.393  -4.976  0.00  0.00     0.022 A 
ATOM      8  C   LIG d   1       9.731   5.117  -5.341  0.00  0.00     0.128 A 
ATOM      9  C   LIG d   1      10.140   4.850  -6.641  0.00  0.00     0.023 A 
ATOM     10  C   LIG d   1      10.146   5.856  -7.591  0.00  0.00     0.139 A 
ATOM     11  O   LIG d   1      10.558   5.593  -8.853  0.00  0.00    -0.485 OA
ATOM     12  H   LIG d   1      11.525   8.028  -9.422  0.00  0.00     0.038 H 
ATOM     13  H   LIG d   1      10.082   8.573 -10.343  0.00  0.00     0.038 H 
ATOM     14  H   LIG d   1       9.001   6.587  -3.962  0.00  0.00     0.069 H 
ATOM     15  H   LIG d   1      10.455   3.853  -6.913  0.00  0.00     0.069 H 
ENDROOT
BRANCH   8  16
ATOM     16  O   LIG d   1       9.728   4.121  -4.420  0.00  0.00    -0.482 OA
BRANCH  16  17
ATOM     17  C   LIG d   1       9.844   2.783  -4.909  0.00  0.00     0.166 C 
ATOM     18  H   LIG d   1      10.099   2.805  -5.979  0.00  0.00     0.080 H 
ATOM     19  H   LIG d   1      10.636   2.257  -4.355  0.00  0.00     0.080 H 
BRANCH  17  20
ATOM     20  C   LIG d   1       8.534   2.064  -4.720  0.00  0.00     0.255 C 
ATOM     21  O   LIG d   1       7.705   2.071  -5.605  0.00  0.00    -0.272 OA
ATOM     22  N   LIG d   1       8.283   1.415  -3.566  0.00  0.00    -0.283 N 
ATOM     23  H   LIG d   1       9.001   1.471  -2.735  0.00  0.00     0.155 HD
BRANCH  22  24
ATOM     24  C   LIG d   1       7.112   0.670  -3.426  0.00  0.00     0.034 A 
ATOM     25  C   LIG d   1       7.131  -0.703  -3.650  0.00  0.00    -0.040 A 
ATOM     26  C   LIG d   1       5.979  -1.442  -3.508  0.00  0.00    -0.048 A 
ATOM     27  H   LIG d   1       8.052  -1.190  -3.933  0.00  0.00     0.064 H 
ATOM     28  C   LIG d   1       4.785  -0.809  -3.148  0.00  0.00     0.037 A 
ATOM     29  H   LIG d   1       5.995  -2.508  -3.679  0.00  0.00     0.063 H 
ATOM     30  C   LIG d   1       4.769   0.569  -2.923  0.00  0.00    -0.048 A 
ATOM     31  C   LIG d   1       5.927   1.302  -3.062  0.00  0.00    -0.040 A 
ATOM     32  H   LIG d   1       3.850   1.061  -2.641  0.00  0.00     0.063 H 
ATOM     33  H   LIG d   1       5.915   2.367  -2.889  0.00  0.00     0.064 H 
BRANCH  28  34
ATOM     34  C   LIG d   1       3.546  -1.598  -3.000  0.00  0.00     0.241 C 
ATOM     35  O   LIG d   1       3.543  -2.600  -2.312  0.00  0.00    -0.270 OA
ATOM     36  N   LIG d   1       2.418  -1.204  -3.623  0.00  0.00    -0.325 N 
ATOM     37  H   LIG d   1       1.494  -1.792  -3.512  0.00  0.00     0.145 HD
ATOM     38  H   LIG d   1       2.419  -0.294  -4.241  0.00  0.00     0.145 HD
ENDBRANCH  28  34
ENDBRANCH  22  24
ENDBRANCH  17  20
ENDBRANCH  16  17
ENDBRANCH   8  16
BRANCH   6  39
ATOM     39  O   LIG d   1       8.925   8.663  -5.554  0.00  0.00    -0.506 OA
ATOM     40  H   LIG d   1       9.637   9.501  -5.606  0.00  0.00     0.292 HD
ENDBRANCH   6  39
BRANCH   1  41
ATOM     41  C   LIG d   1       8.613   6.290 -10.107  0.00  0.00    -0.025 C 
ATOM     42  H   LIG d   1       8.165   5.863  -9.197  0.00  0.00     0.027 H 
ATOM     43  H   LIG d   1       8.425   5.619 -10.958  0.00  0.00     0.027 H 
ATOM     44  H   LIG d   1       8.164   7.274 -10.312  0.00  0.00     0.027 H 
ENDBRANCH   1  41
BRANCH   1  45
ATOM     45  C   LIG d   1      10.850   6.079 -11.201  0.00  0.00    -0.025 C 
ATOM     46  H   LIG d   1      10.819   6.931 -11.897  0.00  0.00     0.027 H 
ATOM     47  H   LIG d   1      10.358   5.210 -11.663  0.00  0.00     0.027 H 
ATOM     48  H   LIG d   1      11.897   5.830 -10.974  0.00  0.00     0.027 H 
ENDBRANCH   1  45
TORSDOF 8
ENDMDL
MODEL 3
REMARK VINA RESULT:      -6.6      1.555      2.476
REMARK  8 active torsions:
REMARK  status: ('A' for Active; 'I' for Inactive)
REMARK    1  A    between atoms: C_1  and  C_2 
REMARK    2  A    between atoms: C_2  and  C_28 
REMARK    3  A    between atoms: C_7  and  O_27 
REMARK    4  A    between atoms: C_9  and  O_13 
REMARK    5  A    between atoms: O_13  and  C_14 
REMARK    6  A    between atoms: C_14  and  C_15 
REMARK       I    between atoms: C_15  and  N_17 
REMARK    7  A    between atoms: N_17  and  C_18 
REMARK    8  A    between atoms: C_21  and  C_24 
REMARK       I    between atoms: C_24  and  N_26 
ROOT
ATOM      1  C   LIG d   1      11.407   7.926   0.233  0.00  0.00     0.112 C 
ATOM      2  C   LIG d   1      12.906   7.824  -0.086  0.00  0.00     0.050 C 
ATOM      3  C   LIG d   1      13.150   6.439  -0.659  0.00  0.00     0.174 C 
ATOM      4  O   LIG d   1      14.133   5.791  -0.365  0.00  0.00    -0.292 OA
ATOM      5  C   LIG d   1      12.135   5.924  -1.586  0.00  0.00     0.101 A 
ATOM      6  C   LIG d   1      12.387   4.780  -2.358  0.00  0.00     0.134 A 
ATOM      7  C   LIG d   1      11.406   4.304  -3.210  0.00  0.00     0.022 A 
ATOM      8  C   LIG d   1      10.187   4.966  -3.307  0.00  0.00     0.128 A 
ATOM      9  C   LIG d   1       9.936   6.101  -2.548  0.00  0.00     0.023 A 
ATOM     10  C   LIG d   1      10.901   6.593  -1.687  0.00  0.00     0.139 A 
ATOM     11  O   LIG d   1      10.654   7.707  -0.959  0.00  0.00    -0.485 OA
ATOM     12  H   LIG d   1      13.179   8.599  -0.818  0.00  0.00     0.038 H 
ATOM     13  H   LIG d   1      13.489   7.969   0.836  0.00  0.00     0.038 H 
ATOM     14  H   LIG d   1      11.589   3.421  -3.804  0.00  0.00     0.069 H 
ATOM     15  H   LIG d   1       8.983   6.603  -2.630  0.00  0.00     0.069 H 
ENDROOT
BRANCH   8  16
ATOM     16  O   LIG d   1       9.231   4.493  -4.146  0.00  0.00    -0.482 OA
BRANCH  16  17
ATOM     17  C   LIG d   1       9.567   3.347  -4.932  0.00  0.00     0.166 C 
ATOM     18  H   LIG d   1       9.700   3.649  -5.981  0.00  0.00     0.080 H 
ATOM     19  H   LIG d   1      10.502   2.906  -4.556  0.00  0.00     0.080 H 
BRANCH  17  20
ATOM     20  C   LIG d   1       8.457   2.333  -4.839  0.00  0.00     0.255 C 
ATOM     21  O   LIG d   1       7.814   2.045  -5.826  0.00  0.00    -0.272 OA
ATOM     22  N   LIG d   1       8.179   1.746  -3.658  0.00  0.00    -0.283 N 
ATOM     23  H   LIG d   1       8.710   2.061  -2.748  0.00  0.00     0.155 HD
BRANCH  22  24
ATOM     24  C   LIG d   1       7.217   0.738  -3.590  0.00  0.00     0.034 A 
ATOM     25  C   LIG d   1       7.534  -0.553  -3.997  0.00  0.00    -0.040 A 
ATOM     26  C   LIG d   1       6.589  -1.552  -3.927  0.00  0.00    -0.048 A 
ATOM     27  H   LIG d   1       8.525  -0.775  -4.366  0.00  0.00     0.064 H 
ATOM     28  C   LIG d   1       5.305  -1.263  -3.455  0.00  0.00     0.037 A 
ATOM     29  H   LIG d   1       6.837  -2.555  -4.240  0.00  0.00     0.063 H 
ATOM     30  C   LIG d   1       4.990   0.034  -3.046  0.00  0.00    -0.048 A 
ATOM     31  C   LIG d   1       5.941   1.027  -3.114  0.00  0.00    -0.040 A 
ATOM     32  H   LIG d   1       4.000   0.260  -2.677  0.00  0.00     0.063 H 
ATOM     33  H   LIG d   1       5.698   2.031  -2.799  0.00  0.00     0.064 H 
BRANCH  28  34
ATOM     34  C   LIG d   1       4.287  -2.330  -3.383  0.00  0.00     0.241 C 
ATOM     35  O   LIG d   1       3.638  -2.483  -2.366  0.00  0.00    -0.270 OA
ATOM     36  N   LIG d   1       4.074  -3.131  -4.445  0.00  0.00    -0.325 N 
ATOM     37  H   LIG d   1       3.315  -3.926  -4.391  0.00  0.00     0.145 HD
ATOM     38  H   LIG d   1       4.658  -2.990  -5.366  0.00  0.00     0.145 HD
ENDBRANCH  28  34
ENDBRANCH  22  24
ENDBRANCH  17  20
ENDBRANCH  16  17
ENDBRANCH   8  16
BRANCH   6  39
ATOM     39  O   LIG d   1      13.580   4.142  -2.267  0.00  0.00    -0.506 OA
ATOM     40  H   LIG d   1      14.325   4.252  -3.068  0.00  0.00     0.292 HD
ENDBRANCH   6  39
BRANCH   1  41
ATOM     41  C   LIG d   1      11.035   6.869   1.276  0.00  0.00    -0.025 C 
ATOM     42  H   LIG d   1      11.950   6.411   1.678  0.00  0.00     0.027 H 
ATOM     43  H   LIG d   1      10.412   6.094   0.805  0.00  0.00     0.027 H 
ATOM     44  H   LIG d   1      10.471   7.344   2.093  0.00  0.00     0.027 H 
ENDBRANCH   1  41
BRANCH   1  45
ATOM     45  C   LIG d   1      11.097   9.319   0.785  0.00  0.00    -0.025 C 
ATOM     46  H   LIG d   1      11.315  10.075   0.016  0.00  0.00     0.027 H 
ATOM     47  H   LIG d   1      11.718   9.509   1.673  0.00  0.00     0.027 H 
ATOM     48  H   LIG d   1      10.034   9.375   1.062  0.00  0.00     0.027 H 
ENDBRANCH   1  45
TORSDOF 8
ENDMDL
MODEL 4
REMARK VINA RESULT:      -6.6      6.507     12.846
REMARK  8 active torsions:
REMARK  status: ('A' for Active; 'I' for Inactive)
REMARK    1  A    between atoms: C_1  and  C_2 
REMARK    2  A    between atoms: C_2  and  C_28 
REMARK    3  A    between atoms: C_7  and  O_27 
REMARK    4  A    between atoms: C_9  and  O_13 
REMARK    5  A    between atoms: O_13  and  C_14 
REMARK    6  A    between atoms: C_14  and  C_15 
REMARK       I    between atoms: C_15  and  N_17 
REMARK    7  A    between atoms: N_17  and  C_18 
REMARK    8  A    between atoms: C_21  and  C_24 
REMARK       I    between atoms: C_24  and  N_26 
ROOT
ATOM      1  C   LIG d   1       8.311 -10.375  -2.574  0.00  0.00     0.112 C 
ATOM      2  C   LIG d   1       7.359 -11.547  -2.857  0.00  0.00     0.050 C 
ATOM      3  C   LIG d   1       5.992 -10.955  -3.148  0.00  0.00     0.174 C 
ATOM      4  O   LIG d   1       4.974 -11.463  -2.727  0.00  0.00    -0.292 OA
ATOM      5  C   LIG d   1       5.965  -9.734  -3.963  0.00  0.00     0.101 A 
ATOM      6  C   LIG d   1       4.758  -9.257  -4.495  0.00  0.00     0.134 A 
ATOM      7  C   LIG d   1       4.757  -8.093  -5.244  0.00  0.00     0.022 A 
ATOM      8  C   LIG d   1       5.947  -7.413  -5.476  0.00  0.00     0.128 A 
ATOM      9  C   LIG d   1       7.145  -7.885  -4.955  0.00  0.00     0.023 A 
ATOM     10  C   LIG d   1       7.168  -9.045  -4.200  0.00  0.00     0.139 A 
ATOM     11  O   LIG d   1       8.341  -9.506  -3.706  0.00  0.00    -0.485 OA
ATOM     12  H   LIG d   1       7.726 -12.116  -3.725  0.00  0.00     0.038 H 
ATOM     13  H   LIG d   1       7.317 -12.206  -1.978  0.00  0.00     0.038 H 
ATOM     14  H   LIG d   1       3.832  -7.715  -5.654  0.00  0.00     0.069 H 
ATOM     15  H   LIG d   1       8.062  -7.345  -5.140  0.00  0.00     0.069 H 
ENDROOT
BRANCH   8  16
ATOM     16  O   LIG d   1       5.937  -6.274  -6.213  0.00  0.00    -0.482 OA
BRANCH  16  17
ATOM     17  C   LIG d   1       4.663  -5.687  -6.483  0.00  0.00     0.166 C 
ATOM     18  H   LIG d   1       4.503  -5.641  -7.571  0.00  0.00     0.080 H 
ATOM     19  H   LIG d   1       3.872  -6.299  -6.023  0.00  0.00     0.080 H 
BRANCH  17  20
ATOM     20  C   LIG d   1       4.620  -4.295  -5.911  0.00  0.00     0.255 C 
ATOM     21  O   LIG d   1       4.243  -3.368  -6.597  0.00  0.00    -0.272 OA
ATOM     22  N   LIG d   1       5.000  -4.078  -4.636  0.00  0.00    -0.283 N 
ATOM     23  H   LIG d   1       5.412  -4.904  -4.037  0.00  0.00     0.155 HD
BRANCH  22  24
ATOM     24  C   LIG d   1       4.871  -2.808  -4.076  0.00  0.00     0.034 A 
ATOM     25  C   LIG d   1       5.752  -1.795  -4.441  0.00  0.00    -0.040 A 
ATOM     26  C   LIG d   1       5.625  -0.538  -3.893  0.00  0.00    -0.048 A 
ATOM     27  H   LIG d   1       6.535  -1.994  -5.157  0.00  0.00     0.064 H 
ATOM     28  C   LIG d   1       4.613  -0.283  -2.962  0.00  0.00     0.037 A 
ATOM     29  H   LIG d   1       6.307   0.248  -4.179  0.00  0.00     0.063 H 
ATOM     30  C   LIG d   1       3.730  -1.302  -2.598  0.00  0.00    -0.048 A 
ATOM     31  C   LIG d   1       3.860  -2.555  -3.153  0.00  0.00    -0.040 A 
ATOM     32  H   LIG d   1       2.945  -1.108  -1.882  0.00  0.00     0.063 H 
ATOM     33  H   LIG d   1       3.178  -3.344  -2.872  0.00  0.00     0.064 H 
BRANCH  28  34
ATOM     34  C   LIG d   1       4.477   1.061  -2.369  0.00  0.00     0.241 C 
ATOM     35  O   LIG d   1       4.885   1.273  -1.244  0.00  0.00    -0.270 OA
ATOM     36  N   LIG d   1       3.904   2.055  -3.077  0.00  0.00    -0.325 N 
ATOM     37  H   LIG d   1       3.803   3.057  -2.635  0.00  0.00     0.145 HD
ATOM     38  H   LIG d   1       3.539   1.865  -4.096  0.00  0.00     0.145 HD
ENDBRANCH  28  34
ENDBRANCH  22  24
ENDBRANCH  17  20
ENDBRANCH  16  17
ENDBRANCH   8  16
BRANCH   6  39
ATOM     39  O   LIG d   1       3.600  -9.927  -4.274  0.00  0.00    -0.506 OA
ATOM     40  H   LIG d   1       3.560 -11.017  -4.412  0.00  0.00     0.292 HD
ENDBRANCH   6  39
BRANCH   1  41
ATOM     41  C   LIG d   1       7.819  -9.604  -1.348  0.00  0.00    -0.025 C 
ATOM     42  H   LIG d   1       7.303  -8.688  -1.673  0.00  0.00     0.027 H 
ATOM     43  H   LIG d   1       8.678  -9.337  -0.714  0.00  0.00     0.027 H 
ATOM     44  H   LIG d   1       7.123 -10.234  -0.774  0.00  0.00     0.027 H 
ENDBRANCH   1  41
BRANCH   1  45
ATOM     45  C   LIG d   1       9.718 -10.915  -2.307  0.00  0.00    -0.025 C 
ATOM     46  H   LIG d   1       9.648 -11.909  -1.842  0.00  0.00     0.027 H 
ATOM     47  H   LIG d   1      10.251 -10.230  -1.631  0.00  0.00     0.027 H 
ATOM     48  H   LIG d   1      10.267 -10.992  -3.258  0.00  0.00     0.027 H 
ENDBRANCH   1  45
TORSDOF 8
ENDMDL
MODEL 5
REMARK VINA RESULT:      -6.5      1.402      2.703
REMARK  8 active torsions:
REMARK  status: ('A' for Active; 'I' for Inactive)
REMARK    1  A    between atoms: C_1  and  C_2 
REMARK    2  A    between atoms: C_2  and  C_28 
REMARK    3  A    between atoms: C_7  and  O_27 
REMARK    4  A    between atoms: C_9  and  O_13 
REMARK    5  A    between atoms: O_13  and  C_14 
REMARK    6  A    between atoms: C_14  and  C_15 
REMARK       I    between atoms: C_15  and  N_17 
REMARK    7  A    between atoms: N_17  and  C_18 
REMARK    8  A    between atoms: C_21  and  C_24 
REMARK       I    between atoms: C_24  and  N_26 
ROOT
ATOM      1  C   LIG d   1      10.006   9.276  -1.653  0.00  0.00     0.112 C 
ATOM      2  C   LIG d   1      11.244   8.885  -0.832  0.00  0.00     0.050 C 
ATOM      3  C   LIG d   1      11.135   7.399  -0.536  0.00  0.00     0.174 C 
ATOM      4  O   LIG d   1      11.441   6.941   0.545  0.00  0.00    -0.292 OA
ATOM      5  C   LIG d   1      10.638   6.548  -1.623  0.00  0.00     0.101 A 
ATOM      6  C   LIG d   1      10.740   5.150  -1.539  0.00  0.00     0.134 A 
ATOM      7  C   LIG d   1      10.246   4.369  -2.570  0.00  0.00     0.022 A 
ATOM      8  C   LIG d   1       9.668   4.969  -3.683  0.00  0.00     0.128 A 
ATOM      9  C   LIG d   1       9.571   6.351  -3.772  0.00  0.00     0.023 A 
ATOM     10  C   LIG d   1      10.054   7.151  -2.752  0.00  0.00     0.139 A 
ATOM     11  O   LIG d   1       9.967   8.498  -2.850  0.00  0.00    -0.485 OA
ATOM     12  H   LIG d   1      12.153   9.096  -1.416  0.00  0.00     0.038 H 
ATOM     13  H   LIG d   1      11.264   9.465   0.101  0.00  0.00     0.038 H 
ATOM     14  H   LIG d   1      10.315   3.293  -2.512  0.00  0.00     0.069 H 
ATOM     15  H   LIG d   1       9.116   6.804  -4.640  0.00  0.00     0.069 H 
ENDROOT
BRANCH   8  16
ATOM     16  O   LIG d   1       9.189   4.195  -4.689  0.00  0.00    -0.482 OA
BRANCH  16  17
ATOM     17  C   LIG d   1       9.925   3.011  -5.005  0.00  0.00     0.166 C 
ATOM     18  H   LIG d   1      10.247   3.049  -6.056  0.00  0.00     0.080 H 
ATOM     19  H   LIG d   1      10.809   2.944  -4.353  0.00  0.00     0.080 H 
BRANCH  17  20
ATOM     20  C   LIG d   1       9.050   1.804  -4.792  0.00  0.00     0.255 C 
ATOM     21  O   LIG d   1       9.550   0.707  -4.660  0.00  0.00    -0.272 OA
ATOM     22  N   LIG d   1       7.710   1.943  -4.749  0.00  0.00    -0.283 N 
ATOM     23  H   LIG d   1       7.252   2.924  -4.944  0.00  0.00     0.155 HD
BRANCH  22  24
ATOM     24  C   LIG d   1       6.904   0.843  -4.458  0.00  0.00     0.034 A 
ATOM     25  C   LIG d   1       6.366   0.694  -3.183  0.00  0.00    -0.040 A 
ATOM     26  C   LIG d   1       5.566  -0.389  -2.893  0.00  0.00    -0.048 A 
ATOM     27  H   LIG d   1       6.573   1.430  -2.421  0.00  0.00     0.064 H 
ATOM     28  C   LIG d   1       5.303  -1.344  -3.879  0.00  0.00     0.037 A 
ATOM     29  H   LIG d   1       5.146  -0.502  -1.905  0.00  0.00     0.063 H 
ATOM     30  C   LIG d   1       5.844  -1.192  -5.158  0.00  0.00    -0.048 A 
ATOM     31  C   LIG d   1       6.639  -0.105  -5.443  0.00  0.00    -0.040 A 
ATOM     32  H   LIG d   1       5.639  -1.926  -5.923  0.00  0.00     0.063 H 
ATOM     33  H   LIG d   1       7.058   0.014  -6.430  0.00  0.00     0.064 H 
BRANCH  28  34
ATOM     34  C   LIG d   1       4.450  -2.509  -3.570  0.00  0.00     0.241 C 
ATOM     35  O   LIG d   1       4.455  -3.477  -4.305  0.00  0.00    -0.270 OA
ATOM     36  N   LIG d   1       3.669  -2.499  -2.472  0.00  0.00    -0.325 N 
ATOM     37  H   LIG d   1       3.033  -3.368  -2.242  0.00  0.00     0.145 HD
ATOM     38  H   LIG d   1       3.668  -1.626  -1.805  0.00  0.00     0.145 HD
ENDBRANCH  28  34
ENDBRANCH  22  24
ENDBRANCH  17  20
ENDBRANCH  16  17
ENDBRANCH   8  16
BRANCH   6  39
ATOM     39  O   LIG d   1      11.311   4.569  -0.456  0.00  0.00    -0.506 OA
ATOM     40  H   LIG d   1      11.132   4.982   0.548  0.00  0.00     0.292 HD
ENDBRANCH   6  39
BRANCH   1  41
ATOM     41  C   LIG d   1       8.743   9.012  -0.829  0.00  0.00    -0.025 C 
ATOM     42  H   LIG d   1       8.816   8.023  -0.353  0.00  0.00     0.027 H 
ATOM     43  H   LIG d   1       7.864   9.039  -1.489  0.00  0.00     0.027 H 
ATOM     44  H   LIG d   1       8.643   9.786  -0.054  0.00  0.00     0.027 H 
ENDBRANCH   1  41
BRANCH   1  45
ATOM     45  C   LIG d   1      10.080  10.761  -2.011  0.00  0.00    -0.025 C 
ATOM     46  H   LIG d   1      11.007  10.959  -2.570  0.00  0.00     0.027 H 
ATOM     47  H   LIG d   1      10.072  11.362  -1.089  0.00  0.00     0.027 H 
ATOM     48  H   LIG d   1       9.213  11.032  -2.633  0.00  0.00     0.027 H 
ENDBRANCH   1  45
TORSDOF 8
ENDMDL
MODEL 6
REMARK VINA RESULT:      -6.3      7.058     12.723
REMARK  8 active torsions:
REMARK  status: ('A' for Active; 'I' for Inactive)
REMARK    1  A    between atoms: C_1  and  C_2 
REMARK    2  A    between atoms: C_2  and  C_28 
REMARK    3  A    between atoms: C_7  and  O_27 
REMARK    4  A    between atoms: C_9  and  O_13 
REMARK    5  A    between atoms: O_13  and  C_14 
REMARK    6  A    between atoms: C_14  and  C_15 
REMARK       I    between atoms: C_15  and  N_17 
REMARK    7  A    between atoms: N_17  and  C_18 
REMARK    8  A    between atoms: C_21  and  C_24 
REMARK       I    between atoms: C_24  and  N_26 
ROOT
ATOM      1  C   LIG d   1       4.133 -10.555  -3.922  0.00  0.00     0.112 C 
ATOM      2  C   LIG d   1       5.070 -10.508  -2.705  0.00  0.00     0.050 C 
ATOM      3  C   LIG d   1       6.440 -10.092  -3.211  0.00  0.00     0.174 C 
ATOM      4  O   LIG d   1       7.458 -10.599  -2.786  0.00  0.00    -0.292 OA
ATOM      5  C   LIG d   1       6.470  -9.046  -4.240  0.00  0.00     0.101 A 
ATOM      6  C   LIG d   1       7.677  -8.417  -4.585  0.00  0.00     0.134 A 
ATOM      7  C   LIG d   1       7.682  -7.447  -5.572  0.00  0.00     0.022 A 
ATOM      8  C   LIG d   1       6.495  -7.092  -6.204  0.00  0.00     0.128 A 
ATOM      9  C   LIG d   1       5.299  -7.707  -5.862  0.00  0.00     0.023 A 
ATOM     10  C   LIG d   1       5.272  -8.683  -4.880  0.00  0.00     0.139 A 
ATOM     11  O   LIG d   1       4.100  -9.270  -4.543  0.00  0.00    -0.485 OA
ATOM     12  H   LIG d   1       4.689  -9.777  -1.976  0.00  0.00     0.038 H 
ATOM     13  H   LIG d   1       5.116 -11.502  -2.238  0.00  0.00     0.038 H 
ATOM     14  H   LIG d   1       8.606  -6.962  -5.848  0.00  0.00     0.069 H 
ATOM     15  H   LIG d   1       4.385  -7.425  -6.364  0.00  0.00     0.069 H 
ENDROOT
BRANCH   8  16
ATOM     16  O   LIG d   1       6.509  -6.138  -7.170  0.00  0.00    -0.482 OA
BRANCH  16  17
ATOM     17  C   LIG d   1       7.461  -5.083  -7.026  0.00  0.00     0.166 C 
ATOM     18  H   LIG d   1       8.328  -5.446  -6.454  0.00  0.00     0.080 H 
ATOM     19  H   LIG d   1       7.793  -4.750  -8.021  0.00  0.00     0.080 H 
BRANCH  17  20
ATOM     20  C   LIG d   1       6.825  -3.929  -6.295  0.00  0.00     0.255 C 
ATOM     21  O   LIG d   1       6.354  -3.002  -6.919  0.00  0.00    -0.272 OA
ATOM     22  N   LIG d   1       6.781  -3.927  -4.948  0.00  0.00    -0.283 N 
ATOM     23  H   LIG d   1       7.275  -4.730  -4.380  0.00  0.00     0.155 HD
BRANCH  22  24
ATOM     24  C   LIG d   1       6.110  -2.908  -4.274  0.00  0.00     0.034 A 
ATOM     25  C   LIG d   1       4.737  -2.996  -4.071  0.00  0.00    -0.040 A 
ATOM     26  C   LIG d   1       4.071  -1.994  -3.402  0.00  0.00    -0.048 A 
ATOM     27  H   LIG d   1       4.192  -3.855  -4.436  0.00  0.00     0.064 H 
ATOM     28  C   LIG d   1       4.776  -0.881  -2.935  0.00  0.00     0.037 A 
ATOM     29  H   LIG d   1       3.005  -2.065  -3.242  0.00  0.00     0.063 H 
ATOM     30  C   LIG d   1       6.155  -0.795  -3.140  0.00  0.00    -0.048 A 
ATOM     31  C   LIG d   1       6.815  -1.803  -3.805  0.00  0.00    -0.040 A 
ATOM     32  H   LIG d   1       6.704   0.062  -2.777  0.00  0.00     0.063 H 
ATOM     33  H   LIG d   1       7.881  -1.737  -3.965  0.00  0.00     0.064 H 
BRANCH  28  34
ATOM     34  C   LIG d   1       4.065   0.198  -2.221  0.00  0.00     0.241 C 
ATOM     35  O   LIG d   1       2.858   0.298  -2.319  0.00  0.00    -0.270 OA
ATOM     36  N   LIG d   1       4.754   1.070  -1.458  0.00  0.00    -0.325 N 
ATOM     37  H   LIG d   1       4.223   1.873  -0.926  0.00  0.00     0.145 HD
ATOM     38  H   LIG d   1       5.846   0.976  -1.366  0.00  0.00     0.145 HD
ENDBRANCH  28  34
ENDBRANCH  22  24
ENDBRANCH  17  20
ENDBRANCH  16  17
ENDBRANCH   8  16
BRANCH   6  39
ATOM     39  O   LIG d   1       8.831  -8.761  -3.960  0.00  0.00    -0.506 OA
ATOM     40  H   LIG d   1       9.757  -8.877  -4.542  0.00  0.00     0.292 HD
ENDBRANCH   6  39
BRANCH   1  41
ATOM     41  C   LIG d   1       4.645 -11.595  -4.921  0.00  0.00    -0.025 C 
ATOM     42  H   LIG d   1       3.825 -11.899  -5.587  0.00  0.00     0.027 H 
ATOM     43  H   LIG d   1       5.021 -12.473  -4.375  0.00  0.00     0.027 H 
ATOM     44  H   LIG d   1       5.461 -11.158  -5.517  0.00  0.00     0.027 H 
ENDBRANCH   1  41
BRANCH   1  45
ATOM     45  C   LIG d   1       2.724 -10.937  -3.464  0.00  0.00    -0.025 C 
ATOM     46  H   LIG d   1       2.581 -12.022  -3.583  0.00  0.00     0.027 H 
ATOM     47  H   LIG d   1       1.982 -10.401  -4.074  0.00  0.00     0.027 H 
ATOM     48  H   LIG d   1       2.595 -10.665  -2.406  0.00  0.00     0.027 H 
ENDBRANCH   1  45
TORSDOF 8
ENDMDL
MODEL 7
REMARK VINA RESULT:      -6.2      6.166      9.056
REMARK  8 active torsions:
REMARK  status: ('A' for Active; 'I' for Inactive)
REMARK    1  A    between atoms: C_1  and  C_2 
REMARK    2  A    between atoms: C_2  and  C_28 
REMARK    3  A    between atoms: C_7  and  O_27 
REMARK    4  A    between atoms: C_9  and  O_13 
REMARK    5  A    between atoms: O_13  and  C_14 
REMARK    6  A    between atoms: C_14  and  C_15 
REMARK       I    between atoms: C_15  and  N_17 
REMARK    7  A    between atoms: N_17  and  C_18 
REMARK    8  A    between atoms: C_21  and  C_24 
REMARK       I    between atoms: C_24  and  N_26 
ROOT
ATOM      1  C   LIG d   1       7.024  -4.305  -5.514  0.00  0.00     0.112 C 
ATOM      2  C   LIG d   1       8.396  -3.950  -4.920  0.00  0.00     0.050 C 
ATOM      3  C   LIG d   1       8.412  -2.449  -4.694  0.00  0.00     0.174 C 
ATOM      4  O   LIG d   1       9.395  -1.778  -4.932  0.00  0.00    -0.292 OA
ATOM      5  C   LIG d   1       7.177  -1.850  -4.175  0.00  0.00     0.101 A 
ATOM      6  C   LIG d   1       7.169  -0.530  -3.696  0.00  0.00     0.134 A 
ATOM      7  C   LIG d   1       5.986   0.018  -3.230  0.00  0.00     0.022 A 
ATOM      8  C   LIG d   1       4.822  -0.742  -3.225  0.00  0.00     0.128 A 
ATOM      9  C   LIG d   1       4.827  -2.049  -3.692  0.00  0.00     0.023 A 
ATOM     10  C   LIG d   1       5.997  -2.616  -4.167  0.00  0.00     0.139 A 
ATOM     11  O   LIG d   1       5.998  -3.894  -4.611  0.00  0.00    -0.485 OA
ATOM     12  H   LIG d   1       8.533  -4.486  -3.969  0.00  0.00     0.038 H 
ATOM     13  H   LIG d   1       9.187  -4.244  -5.625  0.00  0.00     0.038 H 
ATOM     14  H   LIG d   1       5.969   1.033  -2.864  0.00  0.00     0.069 H 
ATOM     15  H   LIG d   1       3.914  -2.627  -3.686  0.00  0.00     0.069 H 
ENDROOT
BRANCH   8  16
ATOM     16  O   LIG d   1       3.667  -0.197  -2.763  0.00  0.00    -0.482 OA
BRANCH  16  17
ATOM     17  C   LIG d   1       3.138   0.913  -3.491  0.00  0.00     0.166 C 
ATOM     18  H   LIG d   1       2.248   1.300  -2.972  0.00  0.00     0.080 H 
ATOM     19  H   LIG d   1       3.898   1.705  -3.555  0.00  0.00     0.080 H 
BRANCH  17  20
ATOM     20  C   LIG d   1       2.755   0.467  -4.878  0.00  0.00     0.255 C 
ATOM     21  O   LIG d   1       1.643   0.033  -5.090  0.00  0.00    -0.272 OA
ATOM     22  N   LIG d   1       3.649   0.550  -5.883  0.00  0.00    -0.283 N 
ATOM     23  H   LIG d   1       4.681   0.873  -5.676  0.00  0.00     0.155 HD
BRANCH  22  24
ATOM     24  C   LIG d   1       3.268   0.229  -7.184  0.00  0.00     0.034 A 
ATOM     25  C   LIG d   1       3.316  -1.093  -7.616  0.00  0.00    -0.040 A 
ATOM     26  C   LIG d   1       2.935  -1.415  -8.899  0.00  0.00    -0.048 A 
ATOM     27  H   LIG d   1       3.650  -1.868  -6.942  0.00  0.00     0.064 H 
ATOM     28  C   LIG d   1       2.508  -0.410  -9.772  0.00  0.00     0.037 A 
ATOM     29  H   LIG d   1       2.970  -2.442  -9.232  0.00  0.00     0.063 H 
ATOM     30  C   LIG d   1       2.460   0.916  -9.336  0.00  0.00    -0.048 A 
ATOM     31  C   LIG d   1       2.838   1.231  -8.050  0.00  0.00    -0.040 A 
ATOM     32  H   LIG d   1       2.127   1.695 -10.006  0.00  0.00     0.063 H 
ATOM     33  H   LIG d   1       2.802   2.255  -7.712  0.00  0.00     0.064 H 
BRANCH  28  34
ATOM     34  C   LIG d   1       2.104  -0.751 -11.150  0.00  0.00     0.241 C 
ATOM     35  O   LIG d   1       0.932  -0.940 -11.410  0.00  0.00    -0.270 OA
ATOM     36  N   LIG d   1       3.034  -0.849 -12.121  0.00  0.00    -0.325 N 
ATOM     37  H   LIG d   1       2.732  -1.102 -13.148  0.00  0.00     0.145 HD
ATOM     38  H   LIG d   1       4.094  -0.673 -11.887  0.00  0.00     0.145 HD
ENDBRANCH  28  34
ENDBRANCH  22  24
ENDBRANCH  17  20
ENDBRANCH  16  17
ENDBRANCH   8  16
BRANCH   6  39
ATOM     39  O   LIG d   1       8.308   0.205  -3.695  0.00  0.00    -0.506 OA
ATOM     40  H   LIG d   1       9.278  -0.284  -3.521  0.00  0.00     0.292 HD
ENDBRANCH   6  39
BRANCH   1  41
ATOM     41  C   LIG d   1       6.846  -3.585  -6.853  0.00  0.00    -0.025 C 
ATOM     42  H   LIG d   1       5.867  -3.846  -7.282  0.00  0.00     0.027 H 
ATOM     43  H   LIG d   1       7.645  -3.893  -7.543  0.00  0.00     0.027 H 
ATOM     44  H   LIG d   1       6.899  -2.497  -6.694  0.00  0.00     0.027 H 
ENDBRANCH   1  41
BRANCH   1  45
ATOM     45  C   LIG d   1       6.938  -5.817  -5.732  0.00  0.00    -0.025 C 
ATOM     46  H   LIG d   1       6.419  -6.282  -4.880  0.00  0.00     0.027 H 
ATOM     47  H   LIG d   1       7.953  -6.233  -5.814  0.00  0.00     0.027 H 
ATOM     48  H   LIG d   1       6.381  -6.022  -6.657  0.00  0.00     0.027 H 
ENDBRANCH   1  45
TORSDOF 8
ENDMDL
MODEL 8
REMARK VINA RESULT:      -6.1      4.366      9.366
REMARK  8 active torsions:
REMARK  status: ('A' for Active; 'I' for Inactive)
REMARK    1  A    between atoms: C_1  and  C_2 
REMARK    2  A    between atoms: C_2  and  C_28 
REMARK    3  A    between atoms: C_7  and  O_27 
REMARK    4  A    between atoms: C_9  and  O_13 
REMARK    5  A    between atoms: O_13  and  C_14 
REMARK    6  A    between atoms: C_14  and  C_15 
REMARK       I    between atoms: C_15  and  N_17 
REMARK    7  A    between atoms: N_17  and  C_18 
REMARK    8  A    between atoms: C_21  and  C_24 
REMARK       I    between atoms: C_24  and  N_26 
ROOT
ATOM      1  C   LIG d   1       4.020  -0.391  -3.135  0.00  0.00     0.112 C 
ATOM      2  C   LIG d   1       4.941  -1.617  -3.045  0.00  0.00     0.050 C 
ATOM      3  C   LIG d   1       4.650  -2.486  -4.256  0.00  0.00     0.174 C 
ATOM      4  O   LIG d   1       4.601  -3.696  -4.175  0.00  0.00    -0.292 OA
ATOM      5  C   LIG d   1       4.428  -1.788  -5.527  0.00  0.00     0.101 A 
ATOM      6  C   LIG d   1       4.405  -2.497  -6.738  0.00  0.00     0.134 A 
ATOM      7  C   LIG d   1       4.175  -1.818  -7.922  0.00  0.00     0.022 A 
ATOM      8  C   LIG d   1       3.983  -0.441  -7.907  0.00  0.00     0.128 A 
ATOM      9  C   LIG d   1       4.010   0.266  -6.712  0.00  0.00     0.023 A 
ATOM     10  C   LIG d   1       4.235  -0.394  -5.517  0.00  0.00     0.139 A 
ATOM     11  O   LIG d   1       4.272   0.302  -4.357  0.00  0.00    -0.485 OA
ATOM     12  H   LIG d   1       5.991  -1.288  -3.050  0.00  0.00     0.038 H 
ATOM     13  H   LIG d   1       4.733  -2.166  -2.116  0.00  0.00     0.038 H 
ATOM     14  H   LIG d   1       4.150  -2.356  -8.857  0.00  0.00     0.069 H 
ATOM     15  H   LIG d   1       3.855   1.335  -6.715  0.00  0.00     0.069 H 
ENDROOT
BRANCH   8  16
ATOM     16  O   LIG d   1       3.760   0.218  -9.073  0.00  0.00    -0.482 OA
BRANCH  16  17
ATOM     17  C   LIG d   1       4.885   0.416  -9.932  0.00  0.00     0.166 C 
ATOM     18  H   LIG d   1       5.402  -0.543 -10.085  0.00  0.00     0.080 H 
ATOM     19  H   LIG d   1       4.541   0.807 -10.901  0.00  0.00     0.080 H 
BRANCH  17  20
ATOM     20  C   LIG d   1       5.832   1.401  -9.299  0.00  0.00     0.255 C 
ATOM     21  O   LIG d   1       5.471   2.539  -9.086  0.00  0.00    -0.272 OA
ATOM     22  N   LIG d   1       7.082   1.018  -8.969  0.00  0.00    -0.283 N 
ATOM     23  H   LIG d   1       7.434   0.009  -9.230  0.00  0.00     0.155 HD
BRANCH  22  24
ATOM     24  C   LIG d   1       7.927   1.900  -8.298  0.00  0.00     0.034 A 
ATOM     25  C   LIG d   1       8.575   2.911  -8.999  0.00  0.00    -0.040 A 
ATOM     26  C   LIG d   1       9.407   3.788  -8.339  0.00  0.00    -0.048 A 
ATOM     27  H   LIG d   1       8.423   3.012 -10.064  0.00  0.00     0.064 H 
ATOM     28  C   LIG d   1       9.608   3.653  -6.961  0.00  0.00     0.037 A 
ATOM     29  H   LIG d   1       9.907   4.574  -8.883  0.00  0.00     0.063 H 
ATOM     30  C   LIG d   1       8.955   2.637  -6.260  0.00  0.00    -0.048 A 
ATOM     31  C   LIG d   1       8.120   1.768  -6.926  0.00  0.00    -0.040 A 
ATOM     32  H   LIG d   1       9.104   2.533  -5.195  0.00  0.00     0.063 H 
ATOM     33  H   LIG d   1       7.616   0.982  -6.384  0.00  0.00     0.064 H 
BRANCH  28  34
ATOM     34  C   LIG d   1      10.502   4.587  -6.251  0.00  0.00     0.241 C 
ATOM     35  O   LIG d   1      11.593   4.855  -6.715  0.00  0.00    -0.270 OA
ATOM     36  N   LIG d   1      10.108   5.146  -5.089  0.00  0.00    -0.325 N 
ATOM     37  H   LIG d   1      10.775   5.843  -4.560  0.00  0.00     0.145 HD
ATOM     38  H   LIG d   1       9.119   4.907  -4.671  0.00  0.00     0.145 HD
ENDBRANCH  28  34
ENDBRANCH  22  24
ENDBRANCH  17  20
ENDBRANCH  16  17
ENDBRANCH   8  16
BRANCH   6  39
ATOM     39  O   LIG d   1       4.601  -3.839  -6.749  0.00  0.00    -0.506 OA
ATOM     40  H   LIG d   1       5.618  -4.245  -6.846  0.00  0.00     0.292 HD
ENDBRANCH   6  39
BRANCH   1  41
ATOM     41  C   LIG d   1       2.559  -0.846  -3.096  0.00  0.00    -0.025 C 
ATOM     42  H   LIG d   1       2.052  -0.531  -4.019  0.00  0.00     0.027 H 
ATOM     43  H   LIG d   1       2.058  -0.394  -2.227  0.00  0.00     0.027 H 
ATOM     44  H   LIG d   1       2.520  -1.943  -3.011  0.00  0.00     0.027 H 
ENDBRANCH   1  41
BRANCH   1  45
ATOM     45  C   LIG d   1       4.296   0.541  -1.953  0.00  0.00    -0.025 C 
ATOM     46  H   LIG d   1       5.336   0.896  -2.000  0.00  0.00     0.027 H 
ATOM     47  H   LIG d   1       4.137  -0.004  -1.011  0.00  0.00     0.027 H 
ATOM     48  H   LIG d   1       3.613   1.402  -1.998  0.00  0.00     0.027 H 
ENDBRANCH   1  45
TORSDOF 8
ENDMDL
MODEL 9
REMARK VINA RESULT:      -6.0      5.878      8.530
REMARK  8 active torsions:
REMARK  status: ('A' for Active; 'I' for Inactive)
REMARK    1  A    between atoms: C_1  and  C_2 
REMARK    2  A    between atoms: C_2  and  C_28 
REMARK    3  A    between atoms: C_7  and  O_27 
REMARK    4  A    between atoms: C_9  and  O_13 
REMARK    5  A    between atoms: O_13  and  C_14 
REMARK    6  A    between atoms: C_14  and  C_15 
REMARK       I    between atoms: C_15  and  N_17 
REMARK    7  A    between atoms: N_17  and  C_18 
REMARK    8  A    between atoms: C_21  and  C_24 
REMARK       I    between atoms: C_24  and  N_26 
ROOT
ATOM      1  C   LIG d   1       3.271  -0.469  -3.830  0.00  0.00     0.112 C 
ATOM      2  C   LIG d   1       3.727   0.919  -3.355  0.00  0.00     0.050 C 
ATOM      3  C   LIG d   1       5.234   0.861  -3.181  0.00  0.00     0.174 C 
ATOM      4  O   LIG d   1       5.790   1.400  -2.247  0.00  0.00    -0.292 OA
ATOM      5  C   LIG d   1       5.984   0.118  -4.201  0.00  0.00     0.101 A 
ATOM      6  C   LIG d   1       7.382   0.217  -4.274  0.00  0.00     0.134 A 
ATOM      7  C   LIG d   1       8.068  -0.508  -5.233  0.00  0.00     0.022 A 
ATOM      8  C   LIG d   1       7.371  -1.317  -6.123  0.00  0.00     0.128 A 
ATOM      9  C   LIG d   1       5.987  -1.415  -6.058  0.00  0.00     0.023 A 
ATOM     10  C   LIG d   1       5.282  -0.701  -5.105  0.00  0.00     0.139 A 
ATOM     11  O   LIG d   1       3.933  -0.791  -5.054  0.00  0.00    -0.485 OA
ATOM     12  H   LIG d   1       3.453   1.673  -4.108  0.00  0.00     0.038 H 
ATOM     13  H   LIG d   1       3.237   1.159  -2.400  0.00  0.00     0.038 H 
ATOM     14  H   LIG d   1       9.143  -0.442  -5.294  0.00  0.00     0.069 H 
ATOM     15  H   LIG d   1       5.459  -2.050  -6.753  0.00  0.00     0.069 H 
ENDROOT
BRANCH   8  16
ATOM     16  O   LIG d   1       8.051  -2.024  -7.061  0.00  0.00    -0.482 OA
BRANCH  16  17
ATOM     17  C   LIG d   1       7.722  -3.408  -7.196  0.00  0.00     0.166 C 
ATOM     18  H   LIG d   1       6.647  -3.549  -7.010  0.00  0.00     0.080 H 
ATOM     19  H   LIG d   1       7.965  -3.745  -8.215  0.00  0.00     0.080 H 
BRANCH  17  20
ATOM     20  C   LIG d   1       8.513  -4.211  -6.197  0.00  0.00     0.255 C 
ATOM     21  O   LIG d   1       9.688  -4.439  -6.396  0.00  0.00    -0.272 OA
ATOM     22  N   LIG d   1       7.916  -4.678  -5.083  0.00  0.00    -0.283 N 
ATOM     23  H   LIG d   1       6.834  -4.537  -4.939  0.00  0.00     0.155 HD
BRANCH  22  24
ATOM     24  C   LIG d   1       8.668  -5.339  -4.113  0.00  0.00     0.034 A 
ATOM     25  C   LIG d   1       9.274  -4.616  -3.092  0.00  0.00    -0.040 A 
ATOM     26  C   LIG d   1      10.014  -5.265  -2.129  0.00  0.00    -0.048 A 
ATOM     27  H   LIG d   1       9.161  -3.542  -3.051  0.00  0.00     0.064 H 
ATOM     28  C   LIG d   1      10.164  -6.655  -2.186  0.00  0.00     0.037 A 
ATOM     29  H   LIG d   1      10.481  -4.703  -1.335  0.00  0.00     0.063 H 
ATOM     30  C   LIG d   1       9.553  -7.378  -3.212  0.00  0.00    -0.048 A 
ATOM     31  C   LIG d   1       8.811  -6.723  -4.169  0.00  0.00    -0.040 A 
ATOM     32  H   LIG d   1       9.664  -8.452  -3.257  0.00  0.00     0.063 H 
ATOM     33  H   LIG d   1       8.339  -7.282  -4.963  0.00  0.00     0.064 H 
BRANCH  28  34
ATOM     34  C   LIG d   1      10.960  -7.354  -1.159  0.00  0.00     0.241 C 
ATOM     35  O   LIG d   1      11.868  -8.090  -1.492  0.00  0.00    -0.270 OA
ATOM     36  N   LIG d   1      10.683  -7.173   0.148  0.00  0.00    -0.325 N 
ATOM     37  H   LIG d   1      11.278  -7.694   0.913  0.00  0.00     0.145 HD
ATOM     38  H   LIG d   1       9.866  -6.503   0.449  0.00  0.00     0.145 HD
ENDBRANCH  28  34
ENDBRANCH  22  24
ENDBRANCH  17  20
ENDBRANCH  16  17
ENDBRANCH   8  16
BRANCH   6  39
ATOM     39  O   LIG d   1       8.058   1.014  -3.409  0.00  0.00    -0.506 OA
ATOM     40  H   LIG d   1       8.747   1.780  -3.792  0.00  0.00     0.292 HD
ENDBRANCH   6  39
BRANCH   1  41
ATOM     41  C   LIG d   1       3.623  -1.513  -2.768  0.00  0.00    -0.025 C 
ATOM     42  H   LIG d   1       4.200  -2.328  -3.230  0.00  0.00     0.027 H 
ATOM     43  H   LIG d   1       2.697  -1.919  -2.334  0.00  0.00     0.027 H 
ATOM     44  H   LIG d   1       4.223  -1.041  -1.975  0.00  0.00     0.027 H 
ENDBRANCH   1  41
BRANCH   1  45
ATOM     45  C   LIG d   1       1.758  -0.459  -4.055  0.00  0.00    -0.025 C 
ATOM     46  H   LIG d   1       1.391  -1.493  -4.132  0.00  0.00     0.027 H 
ATOM     47  H   LIG d   1       1.529   0.081  -4.985  0.00  0.00     0.027 H 
ATOM     48  H   LIG d   1       1.265   0.042  -3.209  0.00  0.00     0.027 H 
ENDBRANCH   1  45
TORSDOF 8
ENDMDL
MODEL 10
REMARK VINA RESULT:      -6.0      7.243     11.135
REMARK  8 active torsions:
REMARK  status: ('A' for Active; 'I' for Inactive)
REMARK    1  A    between atoms: C_1  and  C_2 
REMARK    2  A    between atoms: C_2  and  C_28 
REMARK    3  A    between atoms: C_7  and  O_27 
REMARK    4  A    between atoms: C_9  and  O_13 
REMARK    5  A    between atoms: O_13  and  C_14 
REMARK    6  A    between atoms: C_14  and  C_15 
REMARK       I    between atoms: C_15  and  N_17 
REMARK    7  A    between atoms: N_17  and  C_18 
REMARK    8  A    between atoms: C_21  and  C_24 
REMARK       I    between atoms: C_24  and  N_26 
ROOT
ATOM      1  C   LIG d   1       3.828  -1.289  -3.520  0.00  0.00     0.112 C 
ATOM      2  C   LIG d   1       5.025  -0.347  -3.719  0.00  0.00     0.050 C 
ATOM      3  C   LIG d   1       6.281  -1.196  -3.641  0.00  0.00     0.174 C 
ATOM      4  O   LIG d   1       7.279  -0.808  -3.070  0.00  0.00    -0.292 OA
ATOM      5  C   LIG d   1       6.227  -2.511  -4.292  0.00  0.00     0.101 A 
ATOM      6  C   LIG d   1       7.398  -3.256  -4.496  0.00  0.00     0.134 A 
ATOM      7  C   LIG d   1       7.317  -4.502  -5.094  0.00  0.00     0.022 A 
ATOM      8  C   LIG d   1       6.084  -5.000  -5.500  0.00  0.00     0.128 A 
ATOM      9  C   LIG d   1       4.923  -4.263  -5.305  0.00  0.00     0.023 A 
ATOM     10  C   LIG d   1       4.981  -3.017  -4.705  0.00  0.00     0.139 A 
ATOM     11  O   LIG d   1       3.847  -2.299  -4.528  0.00  0.00    -0.485 OA
ATOM     12  H   LIG d   1       4.948   0.140  -4.703  0.00  0.00     0.038 H 
ATOM     13  H   LIG d   1       5.025   0.418  -2.930  0.00  0.00     0.038 H 
ATOM     14  H   LIG d   1       8.212  -5.085  -5.251  0.00  0.00     0.069 H 
ATOM     15  H   LIG d   1       3.971  -4.664  -5.621  0.00  0.00     0.069 H 
ENDROOT
BRANCH   8  16
ATOM     16  O   LIG d   1       6.014  -6.221  -6.087  0.00  0.00    -0.482 OA
BRANCH  16  17
ATOM     17  C   LIG d   1       4.832  -6.989  -5.849  0.00  0.00     0.166 C 
ATOM     18  H   LIG d   1       4.118  -6.391  -5.264  0.00  0.00     0.080 H 
ATOM     19  H   LIG d   1       4.376  -7.267  -6.811  0.00  0.00     0.080 H 
BRANCH  17  20
ATOM     20  C   LIG d   1       5.190  -8.236  -5.083  0.00  0.00     0.255 C 
ATOM     21  O   LIG d   1       4.333  -9.053  -4.821  0.00  0.00    -0.272 OA
ATOM     22  N   LIG d   1       6.462  -8.442  -4.688  0.00  0.00    -0.283 N 
ATOM     23  H   LIG d   1       7.223  -7.667  -4.858  0.00  0.00     0.155 HD
BRANCH  22  24
ATOM     24  C   LIG d   1       6.812  -9.638  -4.063  0.00  0.00     0.034 A 
ATOM     25  C   LIG d   1       7.205 -10.732  -4.827  0.00  0.00    -0.040 A 
ATOM     26  C   LIG d   1       7.556 -11.913  -4.213  0.00  0.00    -0.048 A 
ATOM     27  H   LIG d   1       7.237 -10.654  -5.903  0.00  0.00     0.064 H 
ATOM     28  C   LIG d   1       7.508 -12.015  -2.819  0.00  0.00     0.037 A 
ATOM     29  H   LIG d   1       7.864 -12.761  -4.806  0.00  0.00     0.063 H 
ATOM     30  C   LIG d   1       7.114 -10.915  -2.055  0.00  0.00    -0.048 A 
ATOM     31  C   LIG d   1       6.769  -9.735  -2.675  0.00  0.00    -0.040 A 
ATOM     32  H   LIG d   1       7.080 -10.988  -0.978  0.00  0.00     0.063 H 
ATOM     33  H   LIG d   1       6.463  -8.884  -2.085  0.00  0.00     0.064 H 
BRANCH  28  34
ATOM     34  C   LIG d   1       7.879 -13.281  -2.158  0.00  0.00     0.241 C 
ATOM     35  O   LIG d   1       8.097 -14.274  -2.825  0.00  0.00    -0.270 OA
ATOM     36  N   LIG d   1       7.981 -13.336  -0.815  0.00  0.00    -0.325 N 
ATOM     37  H   LIG d   1       8.258 -14.280  -0.322  0.00  0.00     0.145 HD
ATOM     38  H   LIG d   1       7.789 -12.437  -0.212  0.00  0.00     0.145 HD
ENDBRANCH  28  34
ENDBRANCH  22  24
ENDBRANCH  17  20
ENDBRANCH  16  17
ENDBRANCH   8  16
BRANCH   6  39
ATOM     39  O   LIG d   1       8.599  -2.764  -4.106  0.00  0.00    -0.506 OA
ATOM     40  H   LIG d   1       9.302  -3.403  -3.551  0.00  0.00     0.292 HD
ENDBRANCH   6  39
BRANCH   1  41
ATOM     41  C   LIG d   1       3.917  -1.942  -2.139  0.00  0.00    -0.025 C 
ATOM     42  H   LIG d   1       2.915  -1.985  -1.687  0.00  0.00     0.027 H 
ATOM     43  H   LIG d   1       4.585  -1.349  -1.497  0.00  0.00     0.027 H 
ATOM     44  H   LIG d   1       4.318  -2.962  -2.241  0.00  0.00     0.027 H 
ENDBRANCH   1  41
BRANCH   1  45
ATOM     45  C   LIG d   1       2.527  -0.489  -3.623  0.00  0.00    -0.025 C 
ATOM     46  H   LIG d   1       1.701  -1.164  -3.892  0.00  0.00     0.027 H 
ATOM     47  H   LIG d   1       2.634   0.286  -4.396  0.00  0.00     0.027 H 
ATOM     48  H   LIG d   1       2.312  -0.014  -2.654  0.00  0.00     0.027 H 
ENDBRANCH   1  45
TORSDOF 8
ENDMDL
