MODEL 1
REMARK VINA RESULT:      -7.0      0.000      0.000
REMARK  7 active torsions:
REMARK  status: ('A' for Active; 'I' for Inactive)
REMARK    1  A    between atoms: C_1  and  C_2 
REMARK    2  A    between atoms: C_2  and  C_3 
REMARK    3  A    between atoms: C_3  and  C_4 
REMARK    4  A    between atoms: C_4  and  C_5 
REMARK    5  A    between atoms: C_5  and  O_6 
REMARK    6  A    between atoms: O_6  and  C_7 
REMARK    7  A    between atoms: C_10  and  N_13 
ROOT
ATOM      1  N   LIG d   1       4.791  -2.560  -8.801  0.00  0.00    -0.210 N 
ATOM      2  C   LIG d   1       5.929  -2.361  -9.476  0.00  0.00     0.232 A 
ATOM      3  O   LIG d   1       7.025  -2.216  -8.979  0.00  0.00    -0.274 OA
ATOM      4  C   LIG d   1       5.630  -2.348 -10.961  0.00  0.00     0.073 A 
ATOM      5  H   LIG d   1       6.165  -3.148 -11.472  0.00  0.00     0.042 H 
ATOM      6  C   LIG d   1       4.109  -2.577 -11.024  0.00  0.00     0.073 A 
ATOM      7  H   LIG d   1       3.877  -3.492 -11.569  0.00  0.00     0.042 H 
ATOM      8  C   LIG d   1       3.705  -2.700  -9.571  0.00  0.00     0.232 A 
ATOM      9  O   LIG d   1       2.578  -2.892  -9.170  0.00  0.00    -0.274 OA
ATOM     10  C   LIG d   1       3.391  -1.365 -11.655  0.00  0.00     0.088 C 
ATOM     11  C   LIG d   1       4.056  -1.160 -13.009  0.00  0.00    -0.021 A 
ATOM     12  C   LIG d   1       3.401  -1.168 -14.207  0.00  0.00    -0.057 A 
ATOM     13  C   LIG d   1       4.133  -0.969 -15.370  0.00  0.00    -0.061 A 
ATOM     14  C   LIG d   1       5.500  -0.763 -15.311  0.00  0.00    -0.061 A 
ATOM     15  C   LIG d   1       6.158  -0.753 -14.088  0.00  0.00    -0.057 A 
ATOM     16  C   LIG d   1       5.432  -0.953 -12.949  0.00  0.00    -0.021 A 
ATOM     17  C   LIG d   1       6.023  -0.970 -11.532  0.00  0.00     0.088 C 
ATOM     18  C   LIG d   1       5.212   0.043 -10.740  0.00  0.00    -0.021 A 
ATOM     19  C   LIG d   1       3.812  -0.166 -10.821  0.00  0.00    -0.021 A 
ATOM     20  C   LIG d   1       2.952   0.669 -10.166  0.00  0.00    -0.057 A 
ATOM     21  C   LIG d   1       3.473   1.729  -9.435  0.00  0.00    -0.061 A 
ATOM     22  C   LIG d   1       4.838   1.934  -9.377  0.00  0.00    -0.061 A 
ATOM     23  C   LIG d   1       5.742   1.073 -10.019  0.00  0.00    -0.057 A 
ATOM     24 BR   LIG d   1       7.962  -0.643 -11.491  0.00  0.00    -0.073 Br
ATOM     25 BR   LIG d   1       1.441  -1.591 -11.754  0.00  0.00    -0.073 Br
ATOM     26  H   LIG d   1       2.334  -1.330 -14.250  0.00  0.00     0.062 H 
ATOM     27  H   LIG d   1       3.633  -0.973 -16.327  0.00  0.00     0.062 H 
ATOM     28  H   LIG d   1       6.058  -0.608 -16.222  0.00  0.00     0.062 H 
ATOM     29  H   LIG d   1       7.224  -0.592 -14.040  0.00  0.00     0.062 H 
ATOM     30  H   LIG d   1       1.885   0.506 -10.214  0.00  0.00     0.062 H 
ATOM     31  H   LIG d   1       2.807   2.398  -8.911  0.00  0.00     0.062 H 
ATOM     32  H   LIG d   1       5.233   2.762  -8.807  0.00  0.00     0.062 H 
ATOM     33  H   LIG d   1       6.811   1.222  -9.974  0.00  0.00     0.062 H 
ENDROOT
BRANCH   1  34
ATOM     34  C   LIG d   1       4.740  -2.622  -7.399  0.00  0.00     0.044 A 
ATOM     35  C   LIG d   1       4.511  -1.470  -6.661  0.00  0.00    -0.036 A 
ATOM     36  C   LIG d   1       4.460  -1.531  -5.282  0.00  0.00    -0.018 A 
ATOM     37  H   LIG d   1       4.371  -0.524  -7.165  0.00  0.00     0.064 H 
ATOM     38  C   LIG d   1       4.639  -2.745  -4.635  0.00  0.00     0.121 A 
ATOM     39  H   LIG d   1       4.281  -0.635  -4.708  0.00  0.00     0.066 H 
ATOM     40  C   LIG d   1       4.875  -3.896  -5.372  0.00  0.00    -0.018 A 
ATOM     41  C   LIG d   1       4.920  -3.837  -6.750  0.00  0.00    -0.036 A 
ATOM     42  H   LIG d   1       5.018  -4.840  -4.867  0.00  0.00     0.066 H 
ATOM     43  H   LIG d   1       5.098  -4.734  -7.325  0.00  0.00     0.064 H 
BRANCH  38  44
ATOM     44  O   LIG d   1       4.590  -2.805  -3.278  0.00  0.00    -0.492 OA
BRANCH  44  45
ATOM     45  C   LIG d   1       3.619  -1.984  -2.627  0.00  0.00     0.090 C 
ATOM     46  H   LIG d   1       3.010  -2.598  -1.963  0.00  0.00     0.070 H 
ATOM     47  H   LIG d   1       2.980  -1.514  -3.374  0.00  0.00     0.070 H 
BRANCH  45  48
ATOM     48  C   LIG d   1       4.330  -0.902  -1.811  0.00  0.00    -0.019 C 
ATOM     49  H   LIG d   1       5.401  -0.946  -2.005  0.00  0.00     0.030 H 
ATOM     50  H   LIG d   1       4.146  -1.067  -0.749  0.00  0.00     0.030 H 
BRANCH  48  51
ATOM     51  C   LIG d   1       3.795   0.474  -2.213  0.00  0.00    -0.050 C 
ATOM     52  H   LIG d   1       3.132   0.848  -1.433  0.00  0.00     0.027 H 
ATOM     53  H   LIG d   1       3.245   0.391  -3.150  0.00  0.00     0.027 H 
BRANCH  51  54
ATOM     54  C   LIG d   1       4.965   1.443  -2.394  0.00  0.00    -0.056 C 
ATOM     55  H   LIG d   1       5.332   1.757  -1.418  0.00  0.00     0.026 H 
ATOM     56  H   LIG d   1       4.631   2.317  -2.955  0.00  0.00     0.026 H 
BRANCH  54  57
ATOM     57  C   LIG d   1       6.092   0.747  -3.162  0.00  0.00    -0.065 C 
ATOM     58  H   LIG d   1       7.031   0.876  -2.624  0.00  0.00     0.023 H 
ATOM     59  H   LIG d   1       5.868  -0.316  -3.250  0.00  0.00     0.023 H 
ATOM     60  H   LIG d   1       6.178   1.183  -4.156  0.00  0.00     0.023 H 
ENDBRANCH  54  57
ENDBRANCH  51  54
ENDBRANCH  48  51
ENDBRANCH  45  48
ENDBRANCH  44  45
ENDBRANCH  38  44
ENDBRANCH   1  34
TORSDOF 7
ENDMDL
MODEL 2
REMARK VINA RESULT:      -6.6      4.357      7.362
REMARK  7 active torsions:
REMARK  status: ('A' for Active; 'I' for Inactive)
REMARK    1  A    between atoms: C_1  and  C_2 
REMARK    2  A    between atoms: C_2  and  C_3 
REMARK    3  A    between atoms: C_3  and  C_4 
REMARK    4  A    between atoms: C_4  and  C_5 
REMARK    5  A    between atoms: C_5  and  O_6 
REMARK    6  A    between atoms: O_6  and  C_7 
REMARK    7  A    between atoms: C_10  and  N_13 
ROOT
ATOM      1  N   LIG d   1       7.822   0.158  -6.095  0.00  0.00    -0.210 N 
ATOM      2  C   LIG d   1       6.773   0.104  -6.924  0.00  0.00     0.232 A 
ATOM      3  O   LIG d   1       6.174   1.062  -7.364  0.00  0.00    -0.274 OA
ATOM      4  C   LIG d   1       6.453  -1.345  -7.227  0.00  0.00     0.073 A 
ATOM      5  H   LIG d   1       6.548  -1.550  -8.293  0.00  0.00     0.042 H 
ATOM      6  C   LIG d   1       7.509  -2.123  -6.422  0.00  0.00     0.073 A 
ATOM      7  H   LIG d   1       8.137  -2.722  -7.082  0.00  0.00     0.042 H 
ATOM      8  C   LIG d   1       8.319  -1.036  -5.751  0.00  0.00     0.232 A 
ATOM      9  O   LIG d   1       9.267  -1.218  -5.016  0.00  0.00    -0.274 OA
ATOM     10  C   LIG d   1       6.846  -3.008  -5.345  0.00  0.00     0.088 C 
ATOM     11  C   LIG d   1       5.852  -3.883  -6.094  0.00  0.00    -0.021 A 
ATOM     12  C   LIG d   1       5.855  -5.248  -6.084  0.00  0.00    -0.057 A 
ATOM     13  C   LIG d   1       4.888  -5.924  -6.817  0.00  0.00    -0.061 A 
ATOM     14  C   LIG d   1       3.939  -5.223  -7.539  0.00  0.00    -0.061 A 
ATOM     15  C   LIG d   1       3.941  -3.834  -7.542  0.00  0.00    -0.057 A 
ATOM     16  C   LIG d   1       4.897  -3.177  -6.822  0.00  0.00    -0.021 A 
ATOM     17  C   LIG d   1       5.023  -1.649  -6.734  0.00  0.00     0.088 C 
ATOM     18  C   LIG d   1       5.029  -1.326  -5.248  0.00  0.00    -0.021 A 
ATOM     19  C   LIG d   1       5.993  -2.061  -4.514  0.00  0.00    -0.021 A 
ATOM     20  C   LIG d   1       6.115  -1.884  -3.165  0.00  0.00    -0.057 A 
ATOM     21  C   LIG d   1       5.269  -0.984  -2.529  0.00  0.00    -0.061 A 
ATOM     22  C   LIG d   1       4.321  -0.284  -3.252  0.00  0.00    -0.061 A 
ATOM     23  C   LIG d   1       4.198  -0.429  -4.642  0.00  0.00    -0.057 A 
ATOM     24 BR   LIG d   1       3.637  -0.692  -7.749  0.00  0.00    -0.073 Br
ATOM     25 BR   LIG d   1       8.145  -4.020  -4.272  0.00  0.00    -0.073 Br
ATOM     26  H   LIG d   1       6.597  -5.793  -5.520  0.00  0.00     0.062 H 
ATOM     27  H   LIG d   1       4.875  -7.004  -6.822  0.00  0.00     0.062 H 
ATOM     28  H   LIG d   1       3.192  -5.760  -8.104  0.00  0.00     0.062 H 
ATOM     29  H   LIG d   1       3.201  -3.285  -8.104  0.00  0.00     0.062 H 
ATOM     30  H   LIG d   1       6.855  -2.433  -2.602  0.00  0.00     0.062 H 
ATOM     31  H   LIG d   1       5.351  -0.831  -1.463  0.00  0.00     0.062 H 
ATOM     32  H   LIG d   1       3.668   0.413  -2.746  0.00  0.00     0.062 H 
ATOM     33  H   LIG d   1       3.464   0.117  -5.216  0.00  0.00     0.062 H 
ENDROOT
BRANCH   1  34
ATOM     34  C   LIG d   1       8.359   1.368  -5.628  0.00  0.00     0.044 A 
ATOM     35  C   LIG d   1       9.195   2.117  -6.444  0.00  0.00    -0.036 A 
ATOM     36  C   LIG d   1       9.723   3.308  -5.985  0.00  0.00    -0.018 A 
ATOM     37  H   LIG d   1       9.432   1.770  -7.440  0.00  0.00     0.064 H 
ATOM     38  C   LIG d   1       9.419   3.754  -4.708  0.00  0.00     0.121 A 
ATOM     39  H   LIG d   1      10.373   3.891  -6.620  0.00  0.00     0.066 H 
ATOM     40  C   LIG d   1       8.589   3.003  -3.889  0.00  0.00    -0.018 A 
ATOM     41  C   LIG d   1       8.056   1.816  -4.349  0.00  0.00    -0.036 A 
ATOM     42  H   LIG d   1       8.355   3.350  -2.893  0.00  0.00     0.066 H 
ATOM     43  H   LIG d   1       7.405   1.233  -3.714  0.00  0.00     0.064 H 
BRANCH  38  44
ATOM     44  O   LIG d   1       9.939   4.926  -4.256  0.00  0.00    -0.492 OA
BRANCH  44  45
ATOM     45  C   LIG d   1       9.916   5.144  -2.844  0.00  0.00     0.090 C 
ATOM     46  H   LIG d   1      10.903   4.937  -2.428  0.00  0.00     0.070 H 
ATOM     47  H   LIG d   1       9.183   4.481  -2.385  0.00  0.00     0.070 H 
BRANCH  45  48
ATOM     48  C   LIG d   1       9.537   6.599  -2.558  0.00  0.00    -0.019 C 
ATOM     49  H   LIG d   1       8.463   6.726  -2.687  0.00  0.00     0.030 H 
ATOM     50  H   LIG d   1      10.066   7.256  -3.249  0.00  0.00     0.030 H 
BRANCH  48  51
ATOM     51  C   LIG d   1       9.924   6.954  -1.121  0.00  0.00    -0.050 C 
ATOM     52  H   LIG d   1       9.022   7.108  -0.530  0.00  0.00     0.027 H 
ATOM     53  H   LIG d   1      10.520   7.866  -1.120  0.00  0.00     0.027 H 
BRANCH  51  54
ATOM     54  C   LIG d   1      10.740   5.810  -0.516  0.00  0.00    -0.056 C 
ATOM     55  H   LIG d   1      11.633   5.643  -1.117  0.00  0.00     0.026 H 
ATOM     56  H   LIG d   1      10.138   4.901  -0.500  0.00  0.00     0.026 H 
BRANCH  54  57
ATOM     57  C   LIG d   1      11.149   6.175   0.913  0.00  0.00    -0.065 C 
ATOM     58  H   LIG d   1      12.227   6.055   1.024  0.00  0.00     0.023 H 
ATOM     59  H   LIG d   1      10.877   7.210   1.116  0.00  0.00     0.023 H 
ATOM     60  H   LIG d   1      10.636   5.520   1.617  0.00  0.00     0.023 H 
ENDBRANCH  54  57
ENDBRANCH  51  54
ENDBRANCH  48  51
ENDBRANCH  45  48
ENDBRANCH  44  45
ENDBRANCH  38  44
ENDBRANCH   1  34
TORSDOF 7
ENDMDL
MODEL 3
REMARK VINA RESULT:      -6.6      3.726      6.167
REMARK  7 active torsions:
REMARK  status: ('A' for Active; 'I' for Inactive)
REMARK    1  A    between atoms: C_1  and  C_2 
REMARK    2  A    between atoms: C_2  and  C_3 
REMARK    3  A    between atoms: C_3  and  C_4 
REMARK    4  A    between atoms: C_4  and  C_5 
REMARK    5  A    between atoms: C_5  and  O_6 
REMARK    6  A    between atoms: O_6  and  C_7 
REMARK    7  A    between atoms: C_10  and  N_13 
ROOT
ATOM      1  N   LIG d   1       7.237  -0.326  -6.382  0.00  0.00    -0.210 N 
ATOM      2  C   LIG d   1       6.429   0.161  -7.331  0.00  0.00     0.232 A 
ATOM      3  O   LIG d   1       6.243   1.337  -7.560  0.00  0.00    -0.274 OA
ATOM      4  C   LIG d   1       5.786  -0.990  -8.075  0.00  0.00     0.073 A 
ATOM      5  H   LIG d   1       6.055  -0.969  -9.131  0.00  0.00     0.042 H 
ATOM      6  C   LIG d   1       6.368  -2.236  -7.385  0.00  0.00     0.073 A 
ATOM      7  H   LIG d   1       6.930  -2.845  -8.093  0.00  0.00     0.042 H 
ATOM      8  C   LIG d   1       7.283  -1.663  -6.326  0.00  0.00     0.232 A 
ATOM      9  O   LIG d   1       7.950  -2.312  -5.548  0.00  0.00    -0.274 OA
ATOM     10  C   LIG d   1       5.257  -3.067  -6.709  0.00  0.00     0.088 C 
ATOM     11  C   LIG d   1       4.249  -3.367  -7.808  0.00  0.00    -0.021 A 
ATOM     12  C   LIG d   1       3.860  -4.620  -8.188  0.00  0.00    -0.057 A 
ATOM     13  C   LIG d   1       2.929  -4.750  -9.210  0.00  0.00    -0.061 A 
ATOM     14  C   LIG d   1       2.407  -3.629  -9.829  0.00  0.00    -0.061 A 
ATOM     15  C   LIG d   1       2.806  -2.358  -9.436  0.00  0.00    -0.057 A 
ATOM     16  C   LIG d   1       3.723  -2.238  -8.432  0.00  0.00    -0.021 A 
ATOM     17  C   LIG d   1       4.256  -0.901  -7.895  0.00  0.00     0.088 C 
ATOM     18  C   LIG d   1       4.022  -0.943  -6.394  0.00  0.00    -0.021 A 
ATOM     19  C   LIG d   1       4.546  -2.103  -5.771  0.00  0.00    -0.021 A 
ATOM     20  C   LIG d   1       4.408  -2.286  -4.425  0.00  0.00    -0.057 A 
ATOM     21  C   LIG d   1       3.734  -1.323  -3.684  0.00  0.00    -0.061 A 
ATOM     22  C   LIG d   1       3.212  -0.202  -4.303  0.00  0.00    -0.061 A 
ATOM     23  C   LIG d   1       3.367   0.019  -5.680  0.00  0.00    -0.057 A 
ATOM     24 BR   LIG d   1       3.465   0.666  -8.780  0.00  0.00    -0.073 Br
ATOM     25 BR   LIG d   1       5.940  -4.669  -5.797  0.00  0.00    -0.073 Br
ATOM     26  H   LIG d   1       4.270  -5.494  -7.703  0.00  0.00     0.062 H 
ATOM     27  H   LIG d   1       2.611  -5.734  -9.524  0.00  0.00     0.062 H 
ATOM     28  H   LIG d   1       1.684  -3.743 -10.622  0.00  0.00     0.062 H 
ATOM     29  H   LIG d   1       2.398  -1.481  -9.917  0.00  0.00     0.062 H 
ATOM     30  H   LIG d   1       4.816  -3.162  -3.943  0.00  0.00     0.062 H 
ATOM     31  H   LIG d   1       3.616  -1.450  -2.619  0.00  0.00     0.062 H 
ATOM     32  H   LIG d   1       2.690   0.540  -3.718  0.00  0.00     0.062 H 
ATOM     33  H   LIG d   1       2.968   0.894  -6.173  0.00  0.00     0.062 H 
ENDROOT
BRANCH   1  34
ATOM     34  C   LIG d   1       7.979   0.496  -5.519  0.00  0.00     0.044 A 
ATOM     35  C   LIG d   1       9.295   0.812  -5.822  0.00  0.00    -0.036 A 
ATOM     36  C   LIG d   1      10.025   1.622  -4.974  0.00  0.00    -0.018 A 
ATOM     37  H   LIG d   1       9.750   0.425  -6.723  0.00  0.00     0.064 H 
ATOM     38  C   LIG d   1       9.441   2.119  -3.818  0.00  0.00     0.121 A 
ATOM     39  H   LIG d   1      11.049   1.868  -5.211  0.00  0.00     0.066 H 
ATOM     40  C   LIG d   1       8.127   1.799  -3.511  0.00  0.00    -0.018 A 
ATOM     41  C   LIG d   1       7.395   0.994  -4.362  0.00  0.00    -0.036 A 
ATOM     42  H   LIG d   1       7.674   2.183  -2.609  0.00  0.00     0.066 H 
ATOM     43  H   LIG d   1       6.370   0.748  -4.126  0.00  0.00     0.064 H 
BRANCH  38  44
ATOM     44  O   LIG d   1      10.159   2.915  -2.983  0.00  0.00    -0.492 OA
BRANCH  44  45
ATOM     45  C   LIG d   1      10.794   4.057  -3.561  0.00  0.00     0.090 C 
ATOM     46  H   LIG d   1      11.028   3.853  -4.606  0.00  0.00     0.070 H 
ATOM     47  H   LIG d   1      11.714   4.275  -3.019  0.00  0.00     0.070 H 
BRANCH  45  48
ATOM     48  C   LIG d   1       9.854   5.262  -3.475  0.00  0.00    -0.019 C 
ATOM     49  H   LIG d   1      10.393   6.114  -3.063  0.00  0.00     0.030 H 
ATOM     50  H   LIG d   1       9.009   5.020  -2.830  0.00  0.00     0.030 H 
BRANCH  48  51
ATOM     51  C   LIG d   1       9.343   5.611  -4.874  0.00  0.00    -0.050 C 
ATOM     52  H   LIG d   1       9.107   6.674  -4.920  0.00  0.00     0.027 H 
ATOM     53  H   LIG d   1       8.447   5.030  -5.090  0.00  0.00     0.027 H 
BRANCH  51  54
ATOM     54  C   LIG d   1      10.423   5.284  -5.908  0.00  0.00    -0.056 C 
ATOM     55  H   LIG d   1      11.134   4.579  -5.480  0.00  0.00     0.026 H 
ATOM     56  H   LIG d   1      10.945   6.199  -6.191  0.00  0.00     0.026 H 
BRANCH  54  57
ATOM     57  C   LIG d   1       9.774   4.665  -7.148  0.00  0.00    -0.065 C 
ATOM     58  H   LIG d   1      10.146   5.167  -8.041  0.00  0.00     0.023 H 
ATOM     59  H   LIG d   1      10.022   3.606  -7.197  0.00  0.00     0.023 H 
ATOM     60  H   LIG d   1       8.692   4.783  -7.088  0.00  0.00     0.023 H 
ENDBRANCH  54  57
ENDBRANCH  51  54
ENDBRANCH  48  51
ENDBRANCH  45  48
ENDBRANCH  44  45
ENDBRANCH  38  44
ENDBRANCH   1  34
TORSDOF 7
ENDMDL
MODEL 4
REMARK VINA RESULT:      -6.5      3.973      6.290
REMARK  7 active torsions:
REMARK  status: ('A' for Active; 'I' for Inactive)
REMARK    1  A    between atoms: C_1  and  C_2 
REMARK    2  A    between atoms: C_2  and  C_3 
REMARK    3  A    between atoms: C_3  and  C_4 
REMARK    4  A    between atoms: C_4  and  C_5 
REMARK    5  A    between atoms: C_5  and  O_6 
REMARK    6  A    between atoms: O_6  and  C_7 
REMARK    7  A    between atoms: C_10  and  N_13 
ROOT
ATOM      1  N   LIG d   1       7.184  -0.250  -6.404  0.00  0.00    -0.210 N 
ATOM      2  C   LIG d   1       6.371   0.185  -7.374  0.00  0.00     0.232 A 
ATOM      3  O   LIG d   1       6.156   1.348  -7.642  0.00  0.00    -0.274 OA
ATOM      4  C   LIG d   1       5.765  -1.006  -8.086  0.00  0.00     0.073 A 
ATOM      5  H   LIG d   1       6.041  -1.011  -9.140  0.00  0.00     0.042 H 
ATOM      6  C   LIG d   1       6.374  -2.213  -7.352  0.00  0.00     0.073 A 
ATOM      7  H   LIG d   1       6.958  -2.829  -8.036  0.00  0.00     0.042 H 
ATOM      8  C   LIG d   1       7.266  -1.582  -6.305  0.00  0.00     0.232 A 
ATOM      9  O   LIG d   1       7.944  -2.188  -5.502  0.00  0.00    -0.274 OA
ATOM     10  C   LIG d   1       5.281  -3.051  -6.657  0.00  0.00     0.088 C 
ATOM     11  C   LIG d   1       4.289  -3.414  -7.753  0.00  0.00    -0.021 A 
ATOM     12  C   LIG d   1       3.937  -4.688  -8.094  0.00  0.00    -0.057 A 
ATOM     13  C   LIG d   1       3.018  -4.876  -9.119  0.00  0.00    -0.061 A 
ATOM     14  C   LIG d   1       2.471  -3.789  -9.776  0.00  0.00    -0.061 A 
ATOM     15  C   LIG d   1       2.833  -2.496  -9.422  0.00  0.00    -0.057 A 
ATOM     16  C   LIG d   1       3.739  -2.319  -8.416  0.00  0.00    -0.021 A 
ATOM     17  C   LIG d   1       4.231  -0.953  -7.919  0.00  0.00     0.088 C 
ATOM     18  C   LIG d   1       3.987  -0.952  -6.418  0.00  0.00    -0.021 A 
ATOM     19  C   LIG d   1       4.537  -2.078  -5.755  0.00  0.00    -0.021 A 
ATOM     20  C   LIG d   1       4.394  -2.221  -4.404  0.00  0.00    -0.057 A 
ATOM     21  C   LIG d   1       3.689  -1.253  -3.700  0.00  0.00    -0.061 A 
ATOM     22  C   LIG d   1       3.142  -0.168  -4.358  0.00  0.00    -0.061 A 
ATOM     23  C   LIG d   1       3.301   0.014  -5.741  0.00  0.00    -0.057 A 
ATOM     24 BR   LIG d   1       3.405   0.564  -8.859  0.00  0.00    -0.073 Br
ATOM     25 BR   LIG d   1       5.999  -4.605  -5.689  0.00  0.00    -0.073 Br
ATOM     26  H   LIG d   1       4.366  -5.534  -7.579  0.00  0.00     0.062 H 
ATOM     27  H   LIG d   1       2.728  -5.877  -9.403  0.00  0.00     0.062 H 
ATOM     28  H   LIG d   1       1.757  -3.948 -10.571  0.00  0.00     0.062 H 
ATOM     29  H   LIG d   1       2.406  -1.647  -9.933  0.00  0.00     0.062 H 
ATOM     30  H   LIG d   1       4.822  -3.070  -3.893  0.00  0.00     0.062 H 
ATOM     31  H   LIG d   1       3.566  -1.350  -2.632  0.00  0.00     0.062 H 
ATOM     32  H   LIG d   1       2.595   0.578  -3.800  0.00  0.00     0.062 H 
ATOM     33  H   LIG d   1       2.882   0.862  -6.263  0.00  0.00     0.062 H 
ENDROOT
BRANCH   1  34
ATOM     34  C   LIG d   1       7.897   0.620  -5.563  0.00  0.00     0.044 A 
ATOM     35  C   LIG d   1       7.348   1.021  -4.354  0.00  0.00    -0.036 A 
ATOM     36  C   LIG d   1       8.049   1.876  -3.526  0.00  0.00    -0.018 A 
ATOM     37  H   LIG d   1       6.371   0.665  -4.059  0.00  0.00     0.064 H 
ATOM     38  C   LIG d   1       9.303   2.333  -3.904  0.00  0.00     0.121 A 
ATOM     39  H   LIG d   1       7.622   2.188  -2.585  0.00  0.00     0.066 H 
ATOM     40  C   LIG d   1       9.850   1.936  -5.115  0.00  0.00    -0.018 A 
ATOM     41  C   LIG d   1       9.152   1.078  -5.941  0.00  0.00    -0.036 A 
ATOM     42  H   LIG d   1      10.825   2.296  -5.411  0.00  0.00     0.066 H 
ATOM     43  H   LIG d   1       9.580   0.765  -6.882  0.00  0.00     0.064 H 
BRANCH  38  44
ATOM     44  O   LIG d   1       9.993   3.174  -3.090  0.00  0.00    -0.492 OA
BRANCH  44  45
ATOM     45  C   LIG d   1       9.872   4.574  -3.350  0.00  0.00     0.090 C 
ATOM     46  H   LIG d   1       8.847   4.802  -3.643  0.00  0.00     0.070 H 
ATOM     47  H   LIG d   1      10.550   4.854  -4.157  0.00  0.00     0.070 H 
BRANCH  45  48
ATOM     48  C   LIG d   1      10.230   5.361  -2.088  0.00  0.00    -0.019 C 
ATOM     49  H   LIG d   1      11.311   5.362  -1.955  0.00  0.00     0.030 H 
ATOM     50  H   LIG d   1       9.758   4.896  -1.223  0.00  0.00     0.030 H 
BRANCH  48  51
ATOM     51  C   LIG d   1       9.733   6.801  -2.227  0.00  0.00    -0.050 C 
ATOM     52  H   LIG d   1       8.682   6.796  -2.516  0.00  0.00     0.027 H 
ATOM     53  H   LIG d   1      10.316   7.316  -2.990  0.00  0.00     0.027 H 
BRANCH  51  54
ATOM     54  C   LIG d   1       9.890   7.526  -0.889  0.00  0.00    -0.056 C 
ATOM     55  H   LIG d   1      10.926   7.837  -0.764  0.00  0.00     0.026 H 
ATOM     56  H   LIG d   1       9.611   6.855  -0.076  0.00  0.00     0.026 H 
BRANCH  54  57
ATOM     57  C   LIG d   1       8.982   8.758  -0.866  0.00  0.00    -0.065 C 
ATOM     58  H   LIG d   1       9.574   9.649  -1.078  0.00  0.00     0.023 H 
ATOM     59  H   LIG d   1       8.204   8.651  -1.621  0.00  0.00     0.023 H 
ATOM     60  H   LIG d   1       8.522   8.853   0.118  0.00  0.00     0.023 H 
ENDBRANCH  54  57
ENDBRANCH  51  54
ENDBRANCH  48  51
ENDBRANCH  45  48
ENDBRANCH  44  45
ENDBRANCH  38  44
ENDBRANCH   1  34
TORSDOF 7
ENDMDL
MODEL 5
REMARK VINA RESULT:      -6.4      1.896      4.087
REMARK  7 active torsions:
REMARK  status: ('A' for Active; 'I' for Inactive)
REMARK    1  A    between atoms: C_1  and  C_2 
REMARK    2  A    between atoms: C_2  and  C_3 
REMARK    3  A    between atoms: C_3  and  C_4 
REMARK    4  A    between atoms: C_4  and  C_5 
REMARK    5  A    between atoms: C_5  and  O_6 
REMARK    6  A    between atoms: O_6  and  C_7 
REMARK    7  A    between atoms: C_10  and  N_13 
ROOT
ATOM      1  N   LIG d   1       3.329  -1.053 -10.079  0.00  0.00    -0.210 N 
ATOM      2  C   LIG d   1       2.114  -1.424 -10.498  0.00  0.00     0.232 A 
ATOM      3  O   LIG d   1       1.235  -1.875  -9.795  0.00  0.00    -0.274 OA
ATOM      4  C   LIG d   1       2.010  -1.190 -11.991  0.00  0.00     0.073 A 
ATOM      5  H   LIG d   1       1.217  -0.479 -12.218  0.00  0.00     0.042 H 
ATOM      6  C   LIG d   1       3.388  -0.614 -12.362  0.00  0.00     0.073 A 
ATOM      7  H   LIG d   1       3.290   0.388 -12.779  0.00  0.00     0.042 H 
ATOM      8  C   LIG d   1       4.127  -0.577 -11.043  0.00  0.00     0.232 A 
ATOM      9  O   LIG d   1       5.263  -0.182 -10.885  0.00  0.00    -0.274 OA
ATOM     10  C   LIG d   1       4.133  -1.545 -13.343  0.00  0.00     0.088 C 
ATOM     11  C   LIG d   1       3.189  -1.733 -14.521  0.00  0.00    -0.021 A 
ATOM     12  C   LIG d   1       3.492  -1.431 -15.817  0.00  0.00    -0.057 A 
ATOM     13  C   LIG d   1       2.532  -1.652 -16.797  0.00  0.00    -0.061 A 
ATOM     14  C   LIG d   1       1.295  -2.170 -16.461  0.00  0.00    -0.061 A 
ATOM     15  C   LIG d   1       0.995  -2.476 -15.140  0.00  0.00    -0.057 A 
ATOM     16  C   LIG d   1       1.942  -2.254 -14.182  0.00  0.00    -0.021 A 
ATOM     17  C   LIG d   1       1.752  -2.543 -12.686  0.00  0.00     0.088 C 
ATOM     18  C   LIG d   1       2.920  -3.431 -12.291  0.00  0.00    -0.021 A 
ATOM     19  C   LIG d   1       4.183  -2.900 -12.654  0.00  0.00    -0.021 A 
ATOM     20  C   LIG d   1       5.328  -3.588 -12.370  0.00  0.00    -0.057 A 
ATOM     21  C   LIG d   1       5.230  -4.819 -11.735  0.00  0.00    -0.061 A 
ATOM     22  C   LIG d   1       3.992  -5.336 -11.400  0.00  0.00    -0.061 A 
ATOM     23  C   LIG d   1       2.805  -4.634 -11.656  0.00  0.00    -0.057 A 
ATOM     24 BR   LIG d   1      -0.009  -3.307 -12.257  0.00  0.00    -0.073 Br
ATOM     25 BR   LIG d   1       5.909  -0.869 -13.847  0.00  0.00    -0.073 Br
ATOM     26  H   LIG d   1       4.459  -1.026 -16.077  0.00  0.00     0.062 H 
ATOM     27  H   LIG d   1       2.754  -1.418 -17.828  0.00  0.00     0.062 H 
ATOM     28  H   LIG d   1       0.557  -2.338 -17.232  0.00  0.00     0.062 H 
ATOM     29  H   LIG d   1       0.030  -2.882 -14.876  0.00  0.00     0.062 H 
ATOM     30  H   LIG d   1       6.294  -3.182 -12.634  0.00  0.00     0.062 H 
ATOM     31  H   LIG d   1       6.125  -5.376 -11.503  0.00  0.00     0.062 H 
ATOM     32  H   LIG d   1       3.928  -6.295 -10.906  0.00  0.00     0.062 H 
ATOM     33  H   LIG d   1       1.834  -5.027 -11.393  0.00  0.00     0.062 H 
ENDROOT
BRANCH   1  34
ATOM     34  C   LIG d   1       3.733  -1.150  -8.738  0.00  0.00     0.044 A 
ATOM     35  C   LIG d   1       4.397  -2.284  -8.293  0.00  0.00    -0.036 A 
ATOM     36  C   LIG d   1       4.795  -2.379  -6.974  0.00  0.00    -0.018 A 
ATOM     37  H   LIG d   1       4.603  -3.094  -8.978  0.00  0.00     0.064 H 
ATOM     38  C   LIG d   1       4.531  -1.339  -6.094  0.00  0.00     0.121 A 
ATOM     39  H   LIG d   1       5.311  -3.261  -6.628  0.00  0.00     0.066 H 
ATOM     40  C   LIG d   1       3.862  -0.208  -6.537  0.00  0.00    -0.018 A 
ATOM     41  C   LIG d   1       3.469  -0.110  -7.856  0.00  0.00    -0.036 A 
ATOM     42  H   LIG d   1       3.653   0.599  -5.850  0.00  0.00     0.066 H 
ATOM     43  H   LIG d   1       2.953   0.773  -8.203  0.00  0.00     0.064 H 
BRANCH  38  44
ATOM     44  O   LIG d   1       4.922  -1.433  -4.795  0.00  0.00    -0.492 OA
BRANCH  44  45
ATOM     45  C   LIG d   1       4.335  -2.476  -4.014  0.00  0.00     0.090 C 
ATOM     46  H   LIG d   1       5.055  -3.285  -3.890  0.00  0.00     0.070 H 
ATOM     47  H   LIG d   1       3.448  -2.855  -4.522  0.00  0.00     0.070 H 
BRANCH  45  48
ATOM     48  C   LIG d   1       3.941  -1.927  -2.642  0.00  0.00    -0.019 C 
ATOM     49  H   LIG d   1       4.799  -1.431  -2.189  0.00  0.00     0.030 H 
ATOM     50  H   LIG d   1       3.616  -2.747  -2.001  0.00  0.00     0.030 H 
BRANCH  48  51
ATOM     51  C   LIG d   1       2.799  -0.922  -2.803  0.00  0.00    -0.050 C 
ATOM     52  H   LIG d   1       2.067  -1.075  -2.011  0.00  0.00     0.027 H 
ATOM     53  H   LIG d   1       2.321  -1.068  -3.772  0.00  0.00     0.027 H 
BRANCH  51  54
ATOM     54  C   LIG d   1       3.354   0.500  -2.717  0.00  0.00    -0.056 C 
ATOM     55  H   LIG d   1       2.565   1.180  -2.398  0.00  0.00     0.026 H 
ATOM     56  H   LIG d   1       3.723   0.807  -3.697  0.00  0.00     0.026 H 
BRANCH  54  57
ATOM     57  C   LIG d   1       4.502   0.540  -1.706  0.00  0.00    -0.065 C 
ATOM     58  H   LIG d   1       4.666  -0.460  -1.303  0.00  0.00     0.023 H 
ATOM     59  H   LIG d   1       5.410   0.885  -2.200  0.00  0.00     0.023 H 
ATOM     60  H   LIG d   1       4.249   1.222  -0.895  0.00  0.00     0.023 H 
ENDBRANCH  54  57
ENDBRANCH  51  54
ENDBRANCH  48  51
ENDBRANCH  45  48
ENDBRANCH  44  45
ENDBRANCH  38  44
ENDBRANCH   1  34
TORSDOF 7
ENDMDL
MODEL 6
REMARK VINA RESULT:      -6.4      1.521      3.712
REMARK  7 active torsions:
REMARK  status: ('A' for Active; 'I' for Inactive)
REMARK    1  A    between atoms: C_1  and  C_2 
REMARK    2  A    between atoms: C_2  and  C_3 
REMARK    3  A    between atoms: C_3  and  C_4 
REMARK    4  A    between atoms: C_4  and  C_5 
REMARK    5  A    between atoms: C_5  and  O_6 
REMARK    6  A    between atoms: O_6  and  C_7 
REMARK    7  A    between atoms: C_10  and  N_13 
ROOT
ATOM      1  N   LIG d   1       3.672  -0.029  -8.709  0.00  0.00    -0.210 N 
ATOM      2  C   LIG d   1       2.669  -0.207  -9.577  0.00  0.00     0.232 A 
ATOM      3  O   LIG d   1       1.519  -0.454  -9.282  0.00  0.00    -0.274 OA
ATOM      4  C   LIG d   1       3.198  -0.049 -10.987  0.00  0.00     0.073 A 
ATOM      5  H   LIG d   1       2.702   0.775 -11.498  0.00  0.00     0.042 H 
ATOM      6  C   LIG d   1       4.693   0.254 -10.779  0.00  0.00     0.073 A 
ATOM      7  H   LIG d   1       4.951   1.231 -11.187  0.00  0.00     0.042 H 
ATOM      8  C   LIG d   1       4.855   0.241  -9.275  0.00  0.00     0.232 A 
ATOM      9  O   LIG d   1       5.891   0.440  -8.678  0.00  0.00    -0.274 OA
ATOM     10  C   LIG d   1       5.575  -0.850 -11.400  0.00  0.00     0.088 C 
ATOM     11  C   LIG d   1       5.146  -0.941 -12.857  0.00  0.00    -0.021 A 
ATOM     12  C   LIG d   1       5.979  -0.776 -13.926  0.00  0.00    -0.057 A 
ATOM     13  C   LIG d   1       5.453  -0.884 -15.207  0.00  0.00    -0.061 A 
ATOM     14  C   LIG d   1       4.110  -1.157 -15.391  0.00  0.00    -0.061 A 
ATOM     15  C   LIG d   1       3.269  -1.326 -14.299  0.00  0.00    -0.057 A 
ATOM     16  C   LIG d   1       3.793  -1.215 -13.042  0.00  0.00    -0.021 A 
ATOM     17  C   LIG d   1       2.986  -1.375 -11.746  0.00  0.00     0.088 C 
ATOM     18  C   LIG d   1       3.724  -2.429 -10.935  0.00  0.00    -0.021 A 
ATOM     19  C   LIG d   1       5.103  -2.149 -10.765  0.00  0.00    -0.021 A 
ATOM     20  C   LIG d   1       5.900  -3.008 -10.063  0.00  0.00    -0.057 A 
ATOM     21  C   LIG d   1       5.337  -4.162  -9.534  0.00  0.00    -0.061 A 
ATOM     22  C   LIG d   1       3.994  -4.434  -9.719  0.00  0.00    -0.061 A 
ATOM     23  C   LIG d   1       3.151  -3.552 -10.413  0.00  0.00    -0.057 A 
ATOM     24 BR   LIG d   1       1.089  -1.793 -12.053  0.00  0.00    -0.073 Br
ATOM     25 BR   LIG d   1       7.499  -0.526 -11.157  0.00  0.00    -0.073 Br
ATOM     26  H   LIG d   1       7.027  -0.563 -13.779  0.00  0.00     0.062 H 
ATOM     27  H   LIG d   1       6.097  -0.756 -16.064  0.00  0.00     0.062 H 
ATOM     28  H   LIG d   1       3.713  -1.240 -16.392  0.00  0.00     0.062 H 
ATOM     29  H   LIG d   1       2.220  -1.540 -14.440  0.00  0.00     0.062 H 
ATOM     30  H   LIG d   1       6.948  -2.793  -9.921  0.00  0.00     0.062 H 
ATOM     31  H   LIG d   1       5.952  -4.852  -8.976  0.00  0.00     0.062 H 
ATOM     32  H   LIG d   1       3.567  -5.335  -9.304  0.00  0.00     0.062 H 
ATOM     33  H   LIG d   1       2.100  -3.753 -10.558  0.00  0.00     0.062 H 
ENDROOT
BRANCH   1  34
ATOM     34  C   LIG d   1       3.497  -0.113  -7.318  0.00  0.00     0.044 A 
ATOM     35  C   LIG d   1       4.070  -1.160  -6.609  0.00  0.00    -0.036 A 
ATOM     36  C   LIG d   1       3.899  -1.243  -5.241  0.00  0.00    -0.018 A 
ATOM     37  H   LIG d   1       4.650  -1.910  -7.127  0.00  0.00     0.064 H 
ATOM     38  C   LIG d   1       3.154  -0.279  -4.576  0.00  0.00     0.121 A 
ATOM     39  H   LIG d   1       4.344  -2.056  -4.689  0.00  0.00     0.066 H 
ATOM     40  C   LIG d   1       2.577   0.764  -5.285  0.00  0.00    -0.018 A 
ATOM     41  C   LIG d   1       2.752   0.850  -6.652  0.00  0.00    -0.036 A 
ATOM     42  H   LIG d   1       1.994   1.512  -4.768  0.00  0.00     0.066 H 
ATOM     43  H   LIG d   1       2.307   1.665  -7.204  0.00  0.00     0.064 H 
BRANCH  38  44
ATOM     44  O   LIG d   1       2.985  -0.361  -3.230  0.00  0.00    -0.492 OA
BRANCH  44  45
ATOM     45  C   LIG d   1       3.485   0.725  -2.446  0.00  0.00     0.090 C 
ATOM     46  H   LIG d   1       2.902   0.808  -1.528  0.00  0.00     0.070 H 
ATOM     47  H   LIG d   1       3.402   1.652  -3.013  0.00  0.00     0.070 H 
BRANCH  45  48
ATOM     48  C   LIG d   1       4.953   0.470  -2.098  0.00  0.00    -0.019 C 
ATOM     49  H   LIG d   1       5.170  -0.593  -2.195  0.00  0.00     0.030 H 
ATOM     50  H   LIG d   1       5.144   0.788  -1.073  0.00  0.00     0.030 H 
BRANCH  48  51
ATOM     51  C   LIG d   1       5.848   1.263  -3.052  0.00  0.00    -0.050 C 
ATOM     52  H   LIG d   1       6.275   2.116  -2.525  0.00  0.00     0.027 H 
ATOM     53  H   LIG d   1       5.256   1.618  -3.896  0.00  0.00     0.027 H 
BRANCH  51  54
ATOM     54  C   LIG d   1       6.974   0.362  -3.562  0.00  0.00    -0.056 C 
ATOM     55  H   LIG d   1       7.920   0.679  -3.123  0.00  0.00     0.026 H 
ATOM     56  H   LIG d   1       7.036   0.436  -4.648  0.00  0.00     0.026 H 
BRANCH  54  57
ATOM     57  C   LIG d   1       6.688  -1.088  -3.166  0.00  0.00    -0.065 C 
ATOM     58  H   LIG d   1       7.382  -1.749  -3.685  0.00  0.00     0.023 H 
ATOM     59  H   LIG d   1       6.813  -1.202  -2.090  0.00  0.00     0.023 H 
ATOM     60  H   LIG d   1       5.665  -1.345  -3.442  0.00  0.00     0.023 H 
ENDBRANCH  54  57
ENDBRANCH  51  54
ENDBRANCH  48  51
ENDBRANCH  45  48
ENDBRANCH  44  45
ENDBRANCH  38  44
ENDBRANCH   1  34
TORSDOF 7
ENDMDL
MODEL 7
REMARK VINA RESULT:      -6.3      4.420      7.653
REMARK  7 active torsions:
REMARK  status: ('A' for Active; 'I' for Inactive)
REMARK    1  A    between atoms: C_1  and  C_2 
REMARK    2  A    between atoms: C_2  and  C_3 
REMARK    3  A    between atoms: C_3  and  C_4 
REMARK    4  A    between atoms: C_4  and  C_5 
REMARK    5  A    between atoms: C_5  and  O_6 
REMARK    6  A    between atoms: O_6  and  C_7 
REMARK    7  A    between atoms: C_10  and  N_13 
ROOT
ATOM      1  N   LIG d   1       7.863   0.272  -6.252  0.00  0.00    -0.210 N 
ATOM      2  C   LIG d   1       6.791   0.144  -7.043  0.00  0.00     0.232 A 
ATOM      3  O   LIG d   1       6.173   1.060  -7.543  0.00  0.00    -0.274 OA
ATOM      4  C   LIG d   1       6.475  -1.326  -7.217  0.00  0.00     0.073 A 
ATOM      5  H   LIG d   1       6.541  -1.617  -8.265  0.00  0.00     0.042 H 
ATOM      6  C   LIG d   1       7.559  -2.030  -6.382  0.00  0.00     0.073 A 
ATOM      7  H   LIG d   1       8.172  -2.677  -7.009  0.00  0.00     0.042 H 
ATOM      8  C   LIG d   1       8.379  -0.887  -5.826  0.00  0.00     0.232 A 
ATOM      9  O   LIG d   1       9.348  -1.003  -5.106  0.00  0.00    -0.274 OA
ATOM     10  C   LIG d   1       6.933  -2.827  -5.218  0.00  0.00     0.088 C 
ATOM     11  C   LIG d   1       5.926  -3.766  -5.864  0.00  0.00    -0.021 A 
ATOM     12  C   LIG d   1       5.940  -5.126  -5.743  0.00  0.00    -0.057 A 
ATOM     13  C   LIG d   1       4.957  -5.865  -6.390  0.00  0.00    -0.061 A 
ATOM     14  C   LIG d   1       3.983  -5.231  -7.139  0.00  0.00    -0.061 A 
ATOM     15  C   LIG d   1       3.975  -3.847  -7.256  0.00  0.00    -0.057 A 
ATOM     16  C   LIG d   1       4.945  -3.127  -6.620  0.00  0.00    -0.021 A 
ATOM     17  C   LIG d   1       5.061  -1.597  -6.660  0.00  0.00     0.088 C 
ATOM     18  C   LIG d   1       5.107  -1.153  -5.207  0.00  0.00    -0.021 A 
ATOM     19  C   LIG d   1       6.097  -1.820  -4.443  0.00  0.00    -0.021 A 
ATOM     20  C   LIG d   1       6.255  -1.533  -3.117  0.00  0.00    -0.057 A 
ATOM     21  C   LIG d   1       5.421  -0.588  -2.532  0.00  0.00    -0.061 A 
ATOM     22  C   LIG d   1       4.448   0.045  -3.282  0.00  0.00    -0.061 A 
ATOM     23  C   LIG d   1       4.286  -0.214  -4.652  0.00  0.00    -0.057 A 
ATOM     24 BR   LIG d   1       3.640  -0.733  -7.710  0.00  0.00    -0.073 Br
ATOM     25 BR   LIG d   1       8.270  -3.741  -4.103  0.00  0.00    -0.073 Br
ATOM     26  H   LIG d   1       6.701  -5.619  -5.157  0.00  0.00     0.062 H 
ATOM     27  H   LIG d   1       4.953  -6.942  -6.306  0.00  0.00     0.062 H 
ATOM     28  H   LIG d   1       3.225  -5.816  -7.636  0.00  0.00     0.062 H 
ATOM     29  H   LIG d   1       3.215  -3.350  -7.840  0.00  0.00     0.062 H 
ATOM     30  H   LIG d   1       7.016  -2.030  -2.533  0.00  0.00     0.062 H 
ATOM     31  H   LIG d   1       5.532  -0.348  -1.486  0.00  0.00     0.062 H 
ATOM     32  H   LIG d   1       3.804   0.777  -2.817  0.00  0.00     0.062 H 
ATOM     33  H   LIG d   1       3.532   0.279  -5.248  0.00  0.00     0.062 H 
ENDROOT
BRANCH   1  34
ATOM     34  C   LIG d   1       8.404   1.520  -5.901  0.00  0.00     0.044 A 
ATOM     35  C   LIG d   1       9.215   2.201  -6.797  0.00  0.00    -0.036 A 
ATOM     36  C   LIG d   1       9.747   3.428  -6.452  0.00  0.00    -0.018 A 
ATOM     37  H   LIG d   1       9.431   1.772  -7.765  0.00  0.00     0.064 H 
ATOM     38  C   LIG d   1       9.470   3.979  -5.210  0.00  0.00     0.121 A 
ATOM     39  H   LIG d   1      10.378   3.958  -7.149  0.00  0.00     0.066 H 
ATOM     40  C   LIG d   1       8.664   3.296  -4.311  0.00  0.00    -0.018 A 
ATOM     41  C   LIG d   1       8.127   2.072  -4.657  0.00  0.00    -0.036 A 
ATOM     42  H   LIG d   1       8.451   3.724  -3.343  0.00  0.00     0.066 H 
ATOM     43  H   LIG d   1       7.495   1.542  -3.960  0.00  0.00     0.064 H 
BRANCH  38  44
ATOM     44  O   LIG d   1       9.994   5.186  -4.870  0.00  0.00    -0.492 OA
BRANCH  44  45
ATOM     45  C   LIG d   1       9.079   6.274  -4.728  0.00  0.00     0.090 C 
ATOM     46  H   LIG d   1       8.788   6.371  -3.682  0.00  0.00     0.070 H 
ATOM     47  H   LIG d   1       8.193   6.086  -5.334  0.00  0.00     0.070 H 
BRANCH  45  48
ATOM     48  C   LIG d   1       9.748   7.569  -5.193  0.00  0.00    -0.019 C 
ATOM     49  H   LIG d   1      10.827   7.426  -5.231  0.00  0.00     0.030 H 
ATOM     50  H   LIG d   1       9.512   8.372  -4.494  0.00  0.00     0.030 H 
BRANCH  48  51
ATOM     51  C   LIG d   1       9.233   7.938  -6.586  0.00  0.00    -0.050 C 
ATOM     52  H   LIG d   1       9.315   9.015  -6.730  0.00  0.00     0.027 H 
ATOM     53  H   LIG d   1       8.189   7.637  -6.679  0.00  0.00     0.027 H 
BRANCH  51  54
ATOM     54  C   LIG d   1      10.068   7.216  -7.646  0.00  0.00    -0.056 C 
ATOM     55  H   LIG d   1      10.481   6.301  -7.223  0.00  0.00     0.026 H 
ATOM     56  H   LIG d   1      10.881   7.865  -7.972  0.00  0.00     0.026 H 
BRANCH  54  57
ATOM     57  C   LIG d   1       9.182   6.870  -8.845  0.00  0.00    -0.065 C 
ATOM     58  H   LIG d   1       9.247   7.667  -9.586  0.00  0.00     0.023 H 
ATOM     59  H   LIG d   1       9.520   5.934  -9.288  0.00  0.00     0.023 H 
ATOM     60  H   LIG d   1       8.149   6.763  -8.515  0.00  0.00     0.023 H 
ENDBRANCH  54  57
ENDBRANCH  51  54
ENDBRANCH  48  51
ENDBRANCH  45  48
ENDBRANCH  44  45
ENDBRANCH  38  44
ENDBRANCH   1  34
TORSDOF 7
ENDMDL
MODEL 8
REMARK VINA RESULT:      -6.3      7.509     10.691
REMARK  7 active torsions:
REMARK  status: ('A' for Active; 'I' for Inactive)
REMARK    1  A    between atoms: C_1  and  C_2 
REMARK    2  A    between atoms: C_2  and  C_3 
REMARK    3  A    between atoms: C_3  and  C_4 
REMARK    4  A    between atoms: C_4  and  C_5 
REMARK    5  A    between atoms: C_5  and  O_6 
REMARK    6  A    between atoms: O_6  and  C_7 
REMARK    7  A    between atoms: C_10  and  N_13 
ROOT
ATOM      1  N   LIG d   1      10.714   3.549  -5.227  0.00  0.00    -0.210 N 
ATOM      2  C   LIG d   1      11.933   3.422  -4.689  0.00  0.00     0.232 A 
ATOM      3  O   LIG d   1      12.301   2.499  -3.994  0.00  0.00    -0.274 OA
ATOM      4  C   LIG d   1      12.779   4.612  -5.089  0.00  0.00     0.073 A 
ATOM      5  H   LIG d   1      13.651   4.295  -5.660  0.00  0.00     0.042 H 
ATOM      6  C   LIG d   1      11.829   5.455  -5.957  0.00  0.00     0.073 A 
ATOM      7  H   LIG d   1      12.222   5.564  -6.968  0.00  0.00     0.042 H 
ATOM      8  C   LIG d   1      10.546   4.654  -5.964  0.00  0.00     0.232 A 
ATOM      9  O   LIG d   1       9.527   4.964  -6.543  0.00  0.00    -0.274 OA
ATOM     10  C   LIG d   1      11.569   6.835  -5.318  0.00  0.00     0.088 C 
ATOM     11  C   LIG d   1      12.944   7.451  -5.107  0.00  0.00    -0.021 A 
ATOM     12  C   LIG d   1      13.349   8.647  -5.624  0.00  0.00    -0.057 A 
ATOM     13  C   LIG d   1      14.637   9.091  -5.353  0.00  0.00    -0.061 A 
ATOM     14  C   LIG d   1      15.490   8.333  -4.572  0.00  0.00    -0.061 A 
ATOM     15  C   LIG d   1      15.069   7.117  -4.048  0.00  0.00    -0.057 A 
ATOM     16  C   LIG d   1      13.803   6.686  -4.320  0.00  0.00    -0.021 A 
ATOM     17  C   LIG d   1      13.204   5.367  -3.811  0.00  0.00     0.088 C 
ATOM     18  C   LIG d   1      11.907   5.750  -3.117  0.00  0.00    -0.021 A 
ATOM     19  C   LIG d   1      11.047   6.541  -3.920  0.00  0.00    -0.021 A 
ATOM     20  C   LIG d   1       9.846   6.968  -3.430  0.00  0.00    -0.057 A 
ATOM     21  C   LIG d   1       9.492   6.625  -2.131  0.00  0.00    -0.061 A 
ATOM     22  C   LIG d   1      10.345   5.867  -1.351  0.00  0.00    -0.061 A 
ATOM     23  C   LIG d   1      11.571   5.394  -1.843  0.00  0.00    -0.057 A 
ATOM     24 BR   LIG d   1      14.437   4.335  -2.679  0.00  0.00    -0.073 Br
ATOM     25 BR   LIG d   1      10.350   7.957  -6.376  0.00  0.00    -0.073 Br
ATOM     26  H   LIG d   1      12.682   9.238  -6.234  0.00  0.00     0.062 H 
ATOM     27  H   LIG d   1      14.975  10.036  -5.755  0.00  0.00     0.062 H 
ATOM     28  H   LIG d   1      16.488   8.689  -4.367  0.00  0.00     0.062 H 
ATOM     29  H   LIG d   1      15.733   6.524  -3.436  0.00  0.00     0.062 H 
ATOM     30  H   LIG d   1       9.182   7.561  -4.042  0.00  0.00     0.062 H 
ATOM     31  H   LIG d   1       8.546   6.954  -1.728  0.00  0.00     0.062 H 
ATOM     32  H   LIG d   1      10.059   5.607  -0.342  0.00  0.00     0.062 H 
ATOM     33  H   LIG d   1      12.241   4.796  -1.243  0.00  0.00     0.062 H 
ENDROOT
BRANCH   1  34
ATOM     34  C   LIG d   1       9.696   2.600  -5.037  0.00  0.00     0.044 A 
ATOM     35  C   LIG d   1       8.840   2.709  -3.951  0.00  0.00    -0.036 A 
ATOM     36  C   LIG d   1       7.838   1.776  -3.765  0.00  0.00    -0.018 A 
ATOM     37  H   LIG d   1       8.955   3.524  -3.251  0.00  0.00     0.064 H 
ATOM     38  C   LIG d   1       7.690   0.730  -4.664  0.00  0.00     0.121 A 
ATOM     39  H   LIG d   1       7.172   1.861  -2.921  0.00  0.00     0.066 H 
ATOM     40  C   LIG d   1       8.550   0.618  -5.746  0.00  0.00    -0.018 A 
ATOM     41  C   LIG d   1       9.547   1.553  -5.936  0.00  0.00    -0.036 A 
ATOM     42  H   LIG d   1       8.436  -0.199  -6.444  0.00  0.00     0.066 H 
ATOM     43  H   LIG d   1      10.214   1.468  -6.782  0.00  0.00     0.064 H 
BRANCH  38  44
ATOM     44  O   LIG d   1       6.705  -0.189  -4.481  0.00  0.00    -0.492 OA
BRANCH  44  45
ATOM     45  C   LIG d   1       6.534  -0.701  -3.158  0.00  0.00     0.090 C 
ATOM     46  H   LIG d   1       6.569   0.121  -2.442  0.00  0.00     0.070 H 
ATOM     47  H   LIG d   1       7.331  -1.409  -2.936  0.00  0.00     0.070 H 
BRANCH  45  48
ATOM     48  C   LIG d   1       5.181  -1.409  -3.056  0.00  0.00    -0.019 C 
ATOM     49  H   LIG d   1       5.339  -2.479  -2.932  0.00  0.00     0.030 H 
ATOM     50  H   LIG d   1       4.607  -1.230  -3.965  0.00  0.00     0.030 H 
BRANCH  48  51
ATOM     51  C   LIG d   1       4.410  -0.864  -1.851  0.00  0.00    -0.050 C 
ATOM     52  H   LIG d   1       4.750  -1.366  -0.946  0.00  0.00     0.027 H 
ATOM     53  H   LIG d   1       3.345  -1.045  -1.989  0.00  0.00     0.027 H 
BRANCH  51  54
ATOM     54  C   LIG d   1       4.660   0.640  -1.724  0.00  0.00    -0.056 C 
ATOM     55  H   LIG d   1       5.646   0.880  -2.121  0.00  0.00     0.026 H 
ATOM     56  H   LIG d   1       4.610   0.930  -0.674  0.00  0.00     0.026 H 
BRANCH  54  57
ATOM     57  C   LIG d   1       3.593   1.403  -2.513  0.00  0.00    -0.065 C 
ATOM     58  H   LIG d   1       3.755   2.475  -2.399  0.00  0.00     0.023 H 
ATOM     59  H   LIG d   1       3.661   1.137  -3.567  0.00  0.00     0.023 H 
ATOM     60  H   LIG d   1       2.605   1.142  -2.135  0.00  0.00     0.023 H 
ENDBRANCH  54  57
ENDBRANCH  51  54
ENDBRANCH  48  51
ENDBRANCH  45  48
ENDBRANCH  44  45
ENDBRANCH  38  44
ENDBRANCH   1  34
TORSDOF 7
ENDMDL
MODEL 9
REMARK VINA RESULT:      -6.2      9.253     13.954
REMARK  7 active torsions:
REMARK  status: ('A' for Active; 'I' for Inactive)
REMARK    1  A    between atoms: C_1  and  C_2 
REMARK    2  A    between atoms: C_2  and  C_3 
REMARK    3  A    between atoms: C_3  and  C_4 
REMARK    4  A    between atoms: C_4  and  C_5 
REMARK    5  A    between atoms: C_5  and  O_6 
REMARK    6  A    between atoms: O_6  and  C_7 
REMARK    7  A    between atoms: C_10  and  N_13 
ROOT
ATOM      1  N   LIG d   1      10.038   7.943  -4.884  0.00  0.00    -0.210 N 
ATOM      2  C   LIG d   1      10.240   8.947  -4.023  0.00  0.00     0.232 A 
ATOM      3  O   LIG d   1      10.479  10.097  -4.327  0.00  0.00    -0.274 OA
ATOM      4  C   LIG d   1      10.121   8.421  -2.608  0.00  0.00     0.073 A 
ATOM      5  H   LIG d   1       9.311   8.919  -2.075  0.00  0.00     0.042 H 
ATOM      6  C   LIG d   1       9.813   6.926  -2.804  0.00  0.00     0.073 A 
ATOM      7  H   LIG d   1       8.847   6.669  -2.369  0.00  0.00     0.042 H 
ATOM      8  C   LIG d   1       9.784   6.762  -4.308  0.00  0.00     0.232 A 
ATOM      9  O   LIG d   1       9.569   5.724  -4.896  0.00  0.00    -0.274 OA
ATOM     10  C   LIG d   1      10.933   6.046  -2.212  0.00  0.00     0.088 C 
ATOM     11  C   LIG d   1      11.065   6.478  -0.760  0.00  0.00    -0.021 A 
ATOM     12  C   LIG d   1      10.929   5.647   0.316  0.00  0.00    -0.057 A 
ATOM     13  C   LIG d   1      11.073   6.176   1.592  0.00  0.00    -0.061 A 
ATOM     14  C   LIG d   1      11.351   7.520   1.766  0.00  0.00    -0.061 A 
ATOM     15  C   LIG d   1      11.489   8.358   0.667  0.00  0.00    -0.057 A 
ATOM     16  C   LIG d   1      11.344   7.831  -0.584  0.00  0.00    -0.021 A 
ATOM     17  C   LIG d   1      11.468   8.635  -1.886  0.00  0.00     0.088 C 
ATOM     18  C   LIG d   1      12.499   7.896  -2.725  0.00  0.00    -0.021 A 
ATOM     19  C   LIG d   1      12.214   6.517  -2.884  0.00  0.00    -0.021 A 
ATOM     20  C   LIG d   1      13.054   5.718  -3.607  0.00  0.00    -0.057 A 
ATOM     21  C   LIG d   1      14.193   6.280  -4.169  0.00  0.00    -0.061 A 
ATOM     22  C   LIG d   1      14.470   7.623  -3.995  0.00  0.00    -0.061 A 
ATOM     23  C   LIG d   1      13.607   8.467  -3.279  0.00  0.00    -0.057 A 
ATOM     24 BR   LIG d   1      11.894  10.533  -1.595  0.00  0.00    -0.073 Br
ATOM     25 BR   LIG d   1      10.603   4.121  -2.442  0.00  0.00    -0.073 Br
ATOM     26  H   LIG d   1      10.712   4.598   0.177  0.00  0.00     0.062 H 
ATOM     27  H   LIG d   1      10.968   5.534   2.454  0.00  0.00     0.062 H 
ATOM     28  H   LIG d   1      11.461   7.919   2.763  0.00  0.00     0.062 H 
ATOM     29  H   LIG d   1      11.707   9.407   0.801  0.00  0.00     0.062 H 
ATOM     30  H   LIG d   1      12.835   4.669  -3.742  0.00  0.00     0.062 H 
ATOM     31  H   LIG d   1      14.867   5.664  -4.745  0.00  0.00     0.062 H 
ATOM     32  H   LIG d   1      15.359   8.049  -4.436  0.00  0.00     0.062 H 
ATOM     33  H   LIG d   1      13.812   9.519  -3.142  0.00  0.00     0.062 H 
ENDROOT
BRANCH   1  34
ATOM     34  C   LIG d   1      10.084   8.115  -6.277  0.00  0.00     0.044 A 
ATOM     35  C   LIG d   1       8.934   8.458  -6.972  0.00  0.00    -0.036 A 
ATOM     36  C   LIG d   1       8.979   8.628  -8.342  0.00  0.00    -0.018 A 
ATOM     37  H   LIG d   1       8.002   8.594  -6.442  0.00  0.00     0.064 H 
ATOM     38  C   LIG d   1      10.175   8.454  -9.022  0.00  0.00     0.121 A 
ATOM     39  H   LIG d   1       8.084   8.896  -8.882  0.00  0.00     0.066 H 
ATOM     40  C   LIG d   1      11.324   8.105  -8.329  0.00  0.00    -0.018 A 
ATOM     41  C   LIG d   1      11.281   7.941  -6.959  0.00  0.00    -0.036 A 
ATOM     42  H   LIG d   1      12.254   7.966  -8.860  0.00  0.00     0.066 H 
ATOM     43  H   LIG d   1      12.177   7.674  -6.417  0.00  0.00     0.064 H 
BRANCH  38  44
ATOM     44  O   LIG d   1      10.219   8.620 -10.371  0.00  0.00    -0.492 OA
BRANCH  44  45
ATOM     45  C   LIG d   1      10.544   7.472 -11.156  0.00  0.00     0.090 C 
ATOM     46  H   LIG d   1      11.392   6.953 -10.709  0.00  0.00     0.070 H 
ATOM     47  H   LIG d   1      10.802   7.784 -12.168  0.00  0.00     0.070 H 
BRANCH  45  48
ATOM     48  C   LIG d   1       9.338   6.530 -11.205  0.00  0.00    -0.019 C 
ATOM     49  H   LIG d   1       8.992   6.438 -12.234  0.00  0.00     0.030 H 
ATOM     50  H   LIG d   1       8.536   6.933 -10.587  0.00  0.00     0.030 H 
BRANCH  48  51
ATOM     51  C   LIG d   1       9.745   5.153 -10.679  0.00  0.00    -0.050 C 
ATOM     52  H   LIG d   1      10.779   5.187 -10.334  0.00  0.00     0.027 H 
ATOM     53  H   LIG d   1       9.653   4.416 -11.477  0.00  0.00     0.027 H 
BRANCH  51  54
ATOM     54  C   LIG d   1       8.832   4.761  -9.516  0.00  0.00    -0.056 C 
ATOM     55  H   LIG d   1       8.484   3.739  -9.655  0.00  0.00     0.026 H 
ATOM     56  H   LIG d   1       7.976   5.435  -9.482  0.00  0.00     0.026 H 
BRANCH  54  57
ATOM     57  C   LIG d   1       9.609   4.861  -8.200  0.00  0.00    -0.065 C 
ATOM     58  H   LIG d   1       9.460   3.948  -7.622  0.00  0.00     0.023 H 
ATOM     59  H   LIG d   1      10.670   4.986  -8.414  0.00  0.00     0.023 H 
ATOM     60  H   LIG d   1       9.249   5.716  -7.629  0.00  0.00     0.023 H 
ENDBRANCH  54  57
ENDBRANCH  51  54
ENDBRANCH  48  51
ENDBRANCH  45  48
ENDBRANCH  44  45
ENDBRANCH  38  44
ENDBRANCH   1  34
TORSDOF 7
ENDMDL
MODEL 10
REMARK VINA RESULT:      -6.2      4.177      6.469
REMARK  7 active torsions:
REMARK  status: ('A' for Active; 'I' for Inactive)
REMARK    1  A    between atoms: C_1  and  C_2 
REMARK    2  A    between atoms: C_2  and  C_3 
REMARK    3  A    between atoms: C_3  and  C_4 
REMARK    4  A    between atoms: C_4  and  C_5 
REMARK    5  A    between atoms: C_5  and  O_6 
REMARK    6  A    between atoms: O_6  and  C_7 
REMARK    7  A    between atoms: C_10  and  N_13 
ROOT
ATOM      1  N   LIG d   1       6.939  -3.188  -5.553  0.00  0.00    -0.210 N 
ATOM      2  C   LIG d   1       7.325  -2.675  -6.727  0.00  0.00     0.232 A 
ATOM      3  O   LIG d   1       8.427  -2.795  -7.219  0.00  0.00    -0.274 OA
ATOM      4  C   LIG d   1       6.165  -1.923  -7.346  0.00  0.00     0.073 A 
ATOM      5  H   LIG d   1       5.887  -2.358  -8.305  0.00  0.00     0.042 H 
ATOM      6  C   LIG d   1       5.035  -2.093  -6.316  0.00  0.00     0.073 A 
ATOM      7  H   LIG d   1       4.184  -2.614  -6.757  0.00  0.00     0.042 H 
ATOM      8  C   LIG d   1       5.668  -2.927  -5.225  0.00  0.00     0.232 A 
ATOM      9  O   LIG d   1       5.113  -3.297  -4.212  0.00  0.00    -0.274 OA
ATOM     10  C   LIG d   1       4.602  -0.730  -5.736  0.00  0.00     0.088 C 
ATOM     11  C   LIG d   1       4.236   0.126  -6.939  0.00  0.00    -0.021 A 
ATOM     12  C   LIG d   1       3.021   0.716  -7.135  0.00  0.00    -0.057 A 
ATOM     13  C   LIG d   1       2.821   1.473  -8.282  0.00  0.00    -0.061 A 
ATOM     14  C   LIG d   1       3.839   1.625  -9.206  0.00  0.00    -0.061 A 
ATOM     15  C   LIG d   1       5.074   1.024  -8.999  0.00  0.00    -0.057 A 
ATOM     16  C   LIG d   1       5.262   0.279  -7.870  0.00  0.00    -0.021 A 
ATOM     17  C   LIG d   1       6.568  -0.442  -7.510  0.00  0.00     0.088 C 
ATOM     18  C   LIG d   1       6.927   0.037  -6.113  0.00  0.00    -0.021 A 
ATOM     19  C   LIG d   1       5.872  -0.107  -5.177  0.00  0.00    -0.021 A 
ATOM     20  C   LIG d   1       6.042   0.286  -3.880  0.00  0.00    -0.057 A 
ATOM     21  C   LIG d   1       7.258   0.840  -3.502  0.00  0.00    -0.061 A 
ATOM     22  C   LIG d   1       8.275   0.992  -4.426  0.00  0.00    -0.061 A 
ATOM     23  C   LIG d   1       8.132   0.570  -5.757  0.00  0.00    -0.057 A 
ATOM     24 BR   LIG d   1       7.998  -0.174  -8.834  0.00  0.00    -0.073 Br
ATOM     25 BR   LIG d   1       3.166  -0.882  -4.402  0.00  0.00    -0.073 Br
ATOM     26  H   LIG d   1       2.227   0.595  -6.412  0.00  0.00     0.062 H 
ATOM     27  H   LIG d   1       1.866   1.946  -8.454  0.00  0.00     0.062 H 
ATOM     28  H   LIG d   1       3.672   2.216 -10.094  0.00  0.00     0.062 H 
ATOM     29  H   LIG d   1       5.870   1.142  -9.718  0.00  0.00     0.062 H 
ATOM     30  H   LIG d   1       5.246   0.166  -3.160  0.00  0.00     0.062 H 
ATOM     31  H   LIG d   1       7.410   1.156  -2.481  0.00  0.00     0.062 H 
ATOM     32  H   LIG d   1       9.216   1.426  -4.122  0.00  0.00     0.062 H 
ATOM     33  H   LIG d   1       8.923   0.679  -6.485  0.00  0.00     0.062 H 
ENDROOT
BRANCH   1  34
ATOM     34  C   LIG d   1       7.795  -3.943  -4.735  0.00  0.00     0.044 A 
ATOM     35  C   LIG d   1       8.480  -3.330  -3.696  0.00  0.00    -0.036 A 
ATOM     36  C   LIG d   1       9.322  -4.072  -2.891  0.00  0.00    -0.018 A 
ATOM     37  H   LIG d   1       8.355  -2.272  -3.515  0.00  0.00     0.064 H 
ATOM     38  C   LIG d   1       9.482  -5.431  -3.122  0.00  0.00     0.121 A 
ATOM     39  H   LIG d   1       9.855  -3.596  -2.082  0.00  0.00     0.066 H 
ATOM     40  C   LIG d   1       8.802  -6.043  -4.165  0.00  0.00    -0.018 A 
ATOM     41  C   LIG d   1       7.956  -5.302  -4.966  0.00  0.00    -0.036 A 
ATOM     42  H   LIG d   1       8.930  -7.100  -4.347  0.00  0.00     0.066 H 
ATOM     43  H   LIG d   1       7.423  -5.779  -5.775  0.00  0.00     0.064 H 
BRANCH  38  44
ATOM     44  O   LIG d   1      10.311  -6.162  -2.330  0.00  0.00    -0.492 OA
BRANCH  44  45
ATOM     45  C   LIG d   1      10.539  -7.520  -2.709  0.00  0.00     0.090 C 
ATOM     46  H   LIG d   1      11.605  -7.677  -2.878  0.00  0.00     0.070 H 
ATOM     47  H   LIG d   1       9.992  -7.740  -3.625  0.00  0.00     0.070 H 
BRANCH  45  48
ATOM     48  C   LIG d   1      10.057  -8.449  -1.593  0.00  0.00    -0.019 C 
ATOM     49  H   LIG d   1      10.123  -7.932  -0.636  0.00  0.00     0.030 H 
ATOM     50  H   LIG d   1      10.683  -9.342  -1.567  0.00  0.00     0.030 H 
BRANCH  48  51
ATOM     51  C   LIG d   1       8.606  -8.852  -1.856  0.00  0.00    -0.050 C 
ATOM     52  H   LIG d   1       8.497  -9.160  -2.896  0.00  0.00     0.027 H 
ATOM     53  H   LIG d   1       7.951  -8.004  -1.658  0.00  0.00     0.027 H 
BRANCH  51  54
ATOM     54  C   LIG d   1       8.225 -10.016  -0.939  0.00  0.00    -0.056 C 
ATOM     55  H   LIG d   1       8.200  -9.671   0.094  0.00  0.00     0.026 H 
ATOM     56  H   LIG d   1       8.962 -10.814  -1.038  0.00  0.00     0.026 H 
BRANCH  54  57
ATOM     57  C   LIG d   1       6.844 -10.547  -1.333  0.00  0.00    -0.065 C 
ATOM     58  H   LIG d   1       6.165 -10.455  -0.484  0.00  0.00     0.023 H 
ATOM     59  H   LIG d   1       6.458  -9.968  -2.171  0.00  0.00     0.023 H 
ATOM     60  H   LIG d   1       6.926 -11.594  -1.622  0.00  0.00     0.023 H 
ENDBRANCH  54  57
ENDBRANCH  51  54
ENDBRANCH  48  51
ENDBRANCH  45  48
ENDBRANCH  44  45
ENDBRANCH  38  44
ENDBRANCH   1  34
TORSDOF 7
ENDMDL
