MODEL 1
REMARK VINA RESULT:      -6.8      0.000      0.000
REMARK  0 active torsions:
REMARK  status: ('A' for Active; 'I' for Inactive)
ROOT
ATOM      1  C   LIG d   1       4.307   1.403 -10.399  0.00  0.00    -0.061 A 
ATOM      2  C   LIG d   1       3.341   2.198  -9.790  0.00  0.00    -0.060 A 
ATOM      3  C   LIG d   1       2.932   1.971  -8.511  0.00  0.00    -0.036 A 
ATOM      4  C   LIG d   1       3.503   0.913  -7.775  0.00  0.00     0.072 A 
ATOM      5  C   LIG d   1       4.525   0.080  -8.418  0.00  0.00     0.000 A 
ATOM      6  C   LIG d   1       4.897   0.365  -9.741  0.00  0.00    -0.053 A 
ATOM      7  C   LIG d   1       5.231  -1.021  -7.889  0.00  0.00    -0.052 A 
ATOM      8  C   LIG d   1       5.113  -1.561  -6.639  0.00  0.00    -0.052 A 
ATOM      9  C   LIG d   1       4.260  -1.142  -5.594  0.00  0.00     0.004 A 
ATOM     10  C   LIG d   1       4.412  -1.931  -4.459  0.00  0.00    -0.006 A 
ATOM     11  C   LIG d   1       3.646  -1.660  -3.322  0.00  0.00     0.180 A 
ATOM     12  O   LIG d   1       3.777  -2.353  -2.322  0.00  0.00    -0.288 OA
ATOM     13  C   LIG d   1       2.689  -0.557  -3.319  0.00  0.00    -0.013 A 
ATOM     14  C   LIG d   1       2.529   0.220  -4.413  0.00  0.00    -0.032 A 
ATOM     15  C   LIG d   1       3.292  -0.029  -5.582  0.00  0.00     0.072 A 
ATOM     16  N   LIG d   1       3.000   0.829  -6.544  0.00  0.00    -0.247 NA
ATOM     17  H   LIG d   1       4.599   1.615 -11.417  0.00  0.00     0.062 H 
ATOM     18  H   LIG d   1       2.902   3.013 -10.346  0.00  0.00     0.062 H 
ATOM     19  H   LIG d   1       2.178   2.600  -8.063  0.00  0.00     0.064 H 
ATOM     20  H   LIG d   1       5.648  -0.235 -10.234  0.00  0.00     0.062 H 
ATOM     21  H   LIG d   1       5.946  -1.492  -8.548  0.00  0.00     0.062 H 
ATOM     22  H   LIG d   1       5.748  -2.409  -6.425  0.00  0.00     0.062 H 
ATOM     23  H   LIG d   1       5.118  -2.748  -4.456  0.00  0.00     0.066 H 
ATOM     24  H   LIG d   1       2.104  -0.359  -2.433  0.00  0.00     0.066 H 
ATOM     25  H   LIG d   1       1.817   1.033  -4.397  0.00  0.00     0.064 H 
ENDROOT
TORSDOF 0
ENDMDL
MODEL 2
REMARK VINA RESULT:      -6.7      4.663      5.699
REMARK  0 active torsions:
REMARK  status: ('A' for Active; 'I' for Inactive)
ROOT
ATOM      1  C   LIG d   1       4.105   0.785  -2.233  0.00  0.00    -0.061 A 
ATOM      2  C   LIG d   1       2.976   0.064  -2.612  0.00  0.00    -0.060 A 
ATOM      3  C   LIG d   1       3.076  -1.123  -3.270  0.00  0.00    -0.036 A 
ATOM      4  C   LIG d   1       4.350  -1.647  -3.571  0.00  0.00     0.072 A 
ATOM      5  C   LIG d   1       5.537  -0.887  -3.166  0.00  0.00     0.000 A 
ATOM      6  C   LIG d   1       5.364   0.332  -2.495  0.00  0.00    -0.053 A 
ATOM      7  C   LIG d   1       6.899  -1.206  -3.355  0.00  0.00    -0.052 A 
ATOM      8  C   LIG d   1       7.416  -2.311  -3.968  0.00  0.00    -0.052 A 
ATOM      9  C   LIG d   1       6.709  -3.387  -4.551  0.00  0.00     0.004 A 
ATOM     10  C   LIG d   1       7.570  -4.340  -5.084  0.00  0.00    -0.006 A 
ATOM     11  C   LIG d   1       7.045  -5.477  -5.703  0.00  0.00     0.180 A 
ATOM     12  O   LIG d   1       7.800  -6.317  -6.173  0.00  0.00    -0.288 OA
ATOM     13  C   LIG d   1       5.600  -5.669  -5.794  0.00  0.00    -0.013 A 
ATOM     14  C   LIG d   1       4.749  -4.754  -5.282  0.00  0.00    -0.032 A 
ATOM     15  C   LIG d   1       5.252  -3.590  -4.647  0.00  0.00     0.072 A 
ATOM     16  N   LIG d   1       4.274  -2.814  -4.210  0.00  0.00    -0.247 NA
ATOM     17  H   LIG d   1       3.980   1.725  -1.716  0.00  0.00     0.062 H 
ATOM     18  H   LIG d   1       1.998   0.457  -2.381  0.00  0.00     0.062 H 
ATOM     19  H   LIG d   1       2.186  -1.662  -3.557  0.00  0.00     0.064 H 
ATOM     20  H   LIG d   1       6.224   0.909  -2.187  0.00  0.00     0.062 H 
ATOM     21  H   LIG d   1       7.613  -0.493  -2.971  0.00  0.00     0.062 H 
ATOM     22  H   LIG d   1       8.495  -2.371  -4.011  0.00  0.00     0.062 H 
ATOM     23  H   LIG d   1       8.640  -4.202  -5.020  0.00  0.00     0.066 H 
ATOM     24  H   LIG d   1       5.208  -6.553  -6.275  0.00  0.00     0.066 H 
ATOM     25  H   LIG d   1       3.682  -4.908  -5.356  0.00  0.00     0.064 H 
ENDROOT
TORSDOF 0
ENDMDL
MODEL 3
REMARK VINA RESULT:      -6.6      2.531      5.328
REMARK  0 active torsions:
REMARK  status: ('A' for Active; 'I' for Inactive)
ROOT
ATOM      1  C   LIG d   1       4.228  -1.560  -2.288  0.00  0.00    -0.061 A 
ATOM      2  C   LIG d   1       3.638  -0.301  -2.321  0.00  0.00    -0.060 A 
ATOM      3  C   LIG d   1       3.338   0.316  -3.497  0.00  0.00    -0.036 A 
ATOM      4  C   LIG d   1       3.620  -0.334  -4.716  0.00  0.00     0.072 A 
ATOM      5  C   LIG d   1       4.237  -1.664  -4.677  0.00  0.00     0.000 A 
ATOM      6  C   LIG d   1       4.525  -2.241  -3.431  0.00  0.00    -0.053 A 
ATOM      7  C   LIG d   1       4.606  -2.500  -5.753  0.00  0.00    -0.052 A 
ATOM      8  C   LIG d   1       4.467  -2.247  -7.088  0.00  0.00    -0.052 A 
ATOM      9  C   LIG d   1       3.923  -1.093  -7.697  0.00  0.00     0.004 A 
ATOM     10  C   LIG d   1       3.943  -1.186  -9.084  0.00  0.00    -0.006 A 
ATOM     11  C   LIG d   1       3.442  -0.133  -9.854  0.00  0.00     0.180 A 
ATOM     12  O   LIG d   1       3.460  -0.212 -11.075  0.00  0.00    -0.288 OA
ATOM     13  C   LIG d   1       2.900   1.061  -9.212  0.00  0.00    -0.013 A 
ATOM     14  C   LIG d   1       2.872   1.168  -7.866  0.00  0.00    -0.032 A 
ATOM     15  C   LIG d   1       3.373   0.116  -7.057  0.00  0.00     0.072 A 
ATOM     16  N   LIG d   1       3.262   0.398  -5.770  0.00  0.00    -0.247 NA
ATOM     17  H   LIG d   1       4.453  -2.012  -1.333  0.00  0.00     0.062 H 
ATOM     18  H   LIG d   1       3.415   0.202  -1.392  0.00  0.00     0.062 H 
ATOM     19  H   LIG d   1       2.884   1.296  -3.496  0.00  0.00     0.064 H 
ATOM     20  H   LIG d   1       4.979  -3.220  -3.379  0.00  0.00     0.062 H 
ATOM     21  H   LIG d   1       5.051  -3.448  -5.489  0.00  0.00     0.062 H 
ATOM     22  H   LIG d   1       4.814  -3.020  -7.758  0.00  0.00     0.062 H 
ATOM     23  H   LIG d   1       4.344  -2.067  -9.563  0.00  0.00     0.066 H 
ATOM     24  H   LIG d   1       2.517   1.867  -9.820  0.00  0.00     0.066 H 
ATOM     25  H   LIG d   1       2.468   2.057  -7.403  0.00  0.00     0.064 H 
ENDROOT
TORSDOF 0
ENDMDL
MODEL 4
REMARK VINA RESULT:      -6.4      4.664      5.369
REMARK  0 active torsions:
REMARK  status: ('A' for Active; 'I' for Inactive)
ROOT
ATOM      1  C   LIG d   1       6.628  -6.025  -6.135  0.00  0.00    -0.061 A 
ATOM      2  C   LIG d   1       5.247  -6.132  -6.001  0.00  0.00    -0.060 A 
ATOM      3  C   LIG d   1       4.519  -5.186  -5.347  0.00  0.00    -0.036 A 
ATOM      4  C   LIG d   1       5.169  -4.063  -4.798  0.00  0.00     0.072 A 
ATOM      5  C   LIG d   1       6.624  -3.951  -4.945  0.00  0.00     0.000 A 
ATOM      6  C   LIG d   1       7.316  -4.963  -5.627  0.00  0.00    -0.053 A 
ATOM      7  C   LIG d   1       7.484  -2.930  -4.486  0.00  0.00    -0.052 A 
ATOM      8  C   LIG d   1       7.142  -1.805  -3.791  0.00  0.00    -0.052 A 
ATOM      9  C   LIG d   1       5.852  -1.406  -3.374  0.00  0.00     0.004 A 
ATOM     10  C   LIG d   1       5.885  -0.198  -2.686  0.00  0.00    -0.006 A 
ATOM     11  C   LIG d   1       4.697   0.352  -2.198  0.00  0.00     0.180 A 
ATOM     12  O   LIG d   1       4.723   1.414  -1.591  0.00  0.00    -0.288 OA
ATOM     13  C   LIG d   1       3.424  -0.334  -2.404  0.00  0.00    -0.013 A 
ATOM     14  C   LIG d   1       3.373  -1.508  -3.071  0.00  0.00    -0.032 A 
ATOM     15  C   LIG d   1       4.562  -2.091  -3.579  0.00  0.00     0.072 A 
ATOM     16  N   LIG d   1       4.317  -3.233  -4.199  0.00  0.00    -0.247 NA
ATOM     17  H   LIG d   1       7.169  -6.801  -6.658  0.00  0.00     0.062 H 
ATOM     18  H   LIG d   1       4.741  -6.987  -6.423  0.00  0.00     0.062 H 
ATOM     19  H   LIG d   1       3.449  -5.294  -5.253  0.00  0.00     0.064 H 
ATOM     20  H   LIG d   1       8.387  -4.901  -5.748  0.00  0.00     0.062 H 
ATOM     21  H   LIG d   1       8.534  -3.054  -4.709  0.00  0.00     0.062 H 
ATOM     22  H   LIG d   1       7.954  -1.142  -3.529  0.00  0.00     0.062 H 
ATOM     23  H   LIG d   1       6.824   0.312  -2.530  0.00  0.00     0.066 H 
ATOM     24  H   LIG d   1       2.514   0.103  -2.022  0.00  0.00     0.066 H 
ATOM     25  H   LIG d   1       2.425  -2.005  -3.217  0.00  0.00     0.064 H 
ENDROOT
TORSDOF 0
ENDMDL
MODEL 5
REMARK VINA RESULT:      -6.4      5.158      6.625
REMARK  0 active torsions:
REMARK  status: ('A' for Active; 'I' for Inactive)
ROOT
ATOM      1  C   LIG d   1       4.265  -1.112  -2.004  0.00  0.00    -0.061 A 
ATOM      2  C   LIG d   1       4.157   0.260  -1.794  0.00  0.00    -0.060 A 
ATOM      3  C   LIG d   1       5.051   1.136  -2.328  0.00  0.00    -0.036 A 
ATOM      4  C   LIG d   1       6.110   0.652  -3.124  0.00  0.00     0.072 A 
ATOM      5  C   LIG d   1       6.218  -0.793  -3.347  0.00  0.00     0.000 A 
ATOM      6  C   LIG d   1       5.266  -1.642  -2.763  0.00  0.00    -0.053 A 
ATOM      7  C   LIG d   1       7.180  -1.504  -4.098  0.00  0.00    -0.052 A 
ATOM      8  C   LIG d   1       8.238  -0.989  -4.791  0.00  0.00    -0.052 A 
ATOM      9  C   LIG d   1       8.612   0.368  -4.916  0.00  0.00     0.004 A 
ATOM     10  C   LIG d   1       9.750   0.518  -5.702  0.00  0.00    -0.006 A 
ATOM     11  C   LIG d   1      10.265   1.795  -5.935  0.00  0.00     0.180 A 
ATOM     12  O   LIG d   1      11.267   1.930  -6.625  0.00  0.00    -0.288 OA
ATOM     13  C   LIG d   1       9.619   2.971  -5.358  0.00  0.00    -0.013 A 
ATOM     14  C   LIG d   1       8.513   2.844  -4.592  0.00  0.00    -0.032 A 
ATOM     15  C   LIG d   1       7.966   1.560  -4.338  0.00  0.00     0.072 A 
ATOM     16  N   LIG d   1       6.889   1.635  -3.573  0.00  0.00    -0.247 NA
ATOM     17  H   LIG d   1       3.537  -1.772  -1.557  0.00  0.00     0.062 H 
ATOM     18  H   LIG d   1       3.347   0.638  -1.189  0.00  0.00     0.062 H 
ATOM     19  H   LIG d   1       4.948   2.195  -2.147  0.00  0.00     0.064 H 
ATOM     20  H   LIG d   1       5.325  -2.710  -2.915  0.00  0.00     0.062 H 
ATOM     21  H   LIG d   1       7.065  -2.577  -4.126  0.00  0.00     0.062 H 
ATOM     22  H   LIG d   1       8.864  -1.705  -5.306  0.00  0.00     0.062 H 
ATOM     23  H   LIG d   1      10.232  -0.349  -6.129  0.00  0.00     0.066 H 
ATOM     24  H   LIG d   1      10.028   3.952  -5.546  0.00  0.00     0.066 H 
ATOM     25  H   LIG d   1       8.045   3.722  -4.172  0.00  0.00     0.064 H 
ENDROOT
TORSDOF 0
ENDMDL
MODEL 6
REMARK VINA RESULT:      -6.4      2.540      5.834
REMARK  0 active torsions:
REMARK  status: ('A' for Active; 'I' for Inactive)
ROOT
ATOM      1  C   LIG d   1       3.561  -1.570  -2.312  0.00  0.00    -0.061 A 
ATOM      2  C   LIG d   1       4.559  -2.334  -2.909  0.00  0.00    -0.060 A 
ATOM      3  C   LIG d   1       4.898  -2.170  -4.217  0.00  0.00    -0.036 A 
ATOM      4  C   LIG d   1       4.232  -1.198  -4.992  0.00  0.00     0.072 A 
ATOM      5  C   LIG d   1       3.184  -0.391  -4.359  0.00  0.00     0.000 A 
ATOM      6  C   LIG d   1       2.881  -0.614  -3.007  0.00  0.00    -0.053 A 
ATOM      7  C   LIG d   1       2.390   0.630  -4.924  0.00  0.00    -0.052 A 
ATOM      8  C   LIG d   1       2.426   1.095  -6.208  0.00  0.00    -0.052 A 
ATOM      9  C   LIG d   1       3.264   0.664  -7.261  0.00  0.00     0.004 A 
ATOM     10  C   LIG d   1       3.019   1.368  -8.435  0.00  0.00    -0.006 A 
ATOM     11  C   LIG d   1       3.758   1.074  -9.584  0.00  0.00     0.180 A 
ATOM     12  O   LIG d   1       3.544   1.692 -10.618  0.00  0.00    -0.288 OA
ATOM     13  C   LIG d   1       4.781   0.033  -9.559  0.00  0.00    -0.013 A 
ATOM     14  C   LIG d   1       5.033  -0.661  -8.428  0.00  0.00    -0.032 A 
ATOM     15  C   LIG d   1       4.300  -0.385  -7.245  0.00  0.00     0.072 A 
ATOM     16  N   LIG d   1       4.683  -1.161  -6.245  0.00  0.00    -0.247 NA
ATOM     17  H   LIG d   1       3.321  -1.735  -1.272  0.00  0.00     0.062 H 
ATOM     18  H   LIG d   1       5.076  -3.077  -2.321  0.00  0.00     0.062 H 
ATOM     19  H   LIG d   1       5.673  -2.778  -4.658  0.00  0.00     0.064 H 
ATOM     20  H   LIG d   1       2.113  -0.031  -2.520  0.00  0.00     0.062 H 
ATOM     21  H   LIG d   1       1.671   1.095  -4.266  0.00  0.00     0.062 H 
ATOM     22  H   LIG d   1       1.731   1.888  -6.447  0.00  0.00     0.062 H 
ATOM     23  H   LIG d   1       2.262   2.138  -8.458  0.00  0.00     0.066 H 
ATOM     24  H   LIG d   1       5.345  -0.184 -10.455  0.00  0.00     0.066 H 
ATOM     25  H   LIG d   1       5.793  -1.429  -8.424  0.00  0.00     0.064 H 
ENDROOT
TORSDOF 0
ENDMDL
MODEL 7
REMARK VINA RESULT:      -6.1      4.395      4.747
REMARK  0 active torsions:
REMARK  status: ('A' for Active; 'I' for Inactive)
ROOT
ATOM      1  C   LIG d   1      10.154   2.387  -5.736  0.00  0.00    -0.061 A 
ATOM      2  C   LIG d   1       9.507   3.334  -4.947  0.00  0.00    -0.060 A 
ATOM      3  C   LIG d   1       8.411   3.016  -4.205  0.00  0.00    -0.036 A 
ATOM      4  C   LIG d   1       7.918   1.695  -4.222  0.00  0.00     0.072 A 
ATOM      5  C   LIG d   1       8.606   0.699  -5.050  0.00  0.00     0.000 A 
ATOM      6  C   LIG d   1       9.727   1.094  -5.795  0.00  0.00    -0.053 A 
ATOM      7  C   LIG d   1       8.301  -0.669  -5.225  0.00  0.00    -0.052 A 
ATOM      8  C   LIG d   1       7.282  -1.373  -4.652  0.00  0.00    -0.052 A 
ATOM      9  C   LIG d   1       6.300  -0.896  -3.754  0.00  0.00     0.004 A 
ATOM     10  C   LIG d   1       5.417  -1.902  -3.376  0.00  0.00    -0.006 A 
ATOM     11  C   LIG d   1       4.378  -1.612  -2.488  0.00  0.00     0.180 A 
ATOM     12  O   LIG d   1       3.599  -2.494  -2.154  0.00  0.00    -0.288 OA
ATOM     13  C   LIG d   1       4.213  -0.261  -1.957  0.00  0.00    -0.013 A 
ATOM     14  C   LIG d   1       5.062   0.728  -2.313  0.00  0.00    -0.032 A 
ATOM     15  C   LIG d   1       6.127   0.464  -3.212  0.00  0.00     0.072 A 
ATOM     16  N   LIG d   1       6.849   1.548  -3.441  0.00  0.00    -0.247 NA
ATOM     17  H   LIG d   1      11.018   2.684  -6.313  0.00  0.00     0.062 H 
ATOM     18  H   LIG d   1       9.881   4.347  -4.925  0.00  0.00     0.062 H 
ATOM     19  H   LIG d   1       7.924   3.769  -3.604  0.00  0.00     0.064 H 
ATOM     20  H   LIG d   1      10.249   0.377  -6.412  0.00  0.00     0.062 H 
ATOM     21  H   LIG d   1       8.949  -1.220  -5.891  0.00  0.00     0.062 H 
ATOM     22  H   LIG d   1       7.217  -2.419  -4.916  0.00  0.00     0.062 H 
ATOM     23  H   LIG d   1       5.534  -2.902  -3.766  0.00  0.00     0.066 H 
ATOM     24  H   LIG d   1       3.406  -0.051  -1.272  0.00  0.00     0.066 H 
ATOM     25  H   LIG d   1       4.929   1.723  -1.913  0.00  0.00     0.064 H 
ENDROOT
TORSDOF 0
ENDMDL
MODEL 8
REMARK VINA RESULT:      -5.8      5.088      6.533
REMARK  0 active torsions:
REMARK  status: ('A' for Active; 'I' for Inactive)
ROOT
ATOM      1  C   LIG d   1       4.333   0.769  -1.995  0.00  0.00    -0.061 A 
ATOM      2  C   LIG d   1       4.102  -0.599  -1.884  0.00  0.00    -0.060 A 
ATOM      3  C   LIG d   1       4.922  -1.511  -2.473  0.00  0.00    -0.036 A 
ATOM      4  C   LIG d   1       6.042  -1.069  -3.208  0.00  0.00     0.072 A 
ATOM      5  C   LIG d   1       6.285   0.373  -3.318  0.00  0.00     0.000 A 
ATOM      6  C   LIG d   1       5.398   1.260  -2.690  0.00  0.00    -0.053 A 
ATOM      7  C   LIG d   1       7.327   1.045  -3.992  0.00  0.00    -0.052 A 
ATOM      8  C   LIG d   1       8.353   0.489  -4.701  0.00  0.00    -0.052 A 
ATOM      9  C   LIG d   1       8.607  -0.884  -4.922  0.00  0.00     0.004 A 
ATOM     10  C   LIG d   1       9.747  -1.079  -5.694  0.00  0.00    -0.006 A 
ATOM     11  C   LIG d   1      10.151  -2.378  -6.013  0.00  0.00     0.180 A 
ATOM     12  O   LIG d   1      11.154  -2.552  -6.693  0.00  0.00    -0.288 OA
ATOM     13  C   LIG d   1       9.385  -3.528  -5.543  0.00  0.00    -0.013 A 
ATOM     14  C   LIG d   1       8.275  -3.358  -4.791  0.00  0.00    -0.032 A 
ATOM     15  C   LIG d   1       7.840  -2.052  -4.450  0.00  0.00     0.072 A 
ATOM     16  N   LIG d   1       6.742  -2.083  -3.714  0.00  0.00    -0.247 NA
ATOM     17  H   LIG d   1       3.655   1.459  -1.515  0.00  0.00     0.062 H 
ATOM     18  H   LIG d   1       3.249  -0.945  -1.319  0.00  0.00     0.062 H 
ATOM     19  H   LIG d   1       4.719  -2.567  -2.376  0.00  0.00     0.064 H 
ATOM     20  H   LIG d   1       5.558   2.326  -2.759  0.00  0.00     0.062 H 
ATOM     21  H   LIG d   1       7.310   2.124  -3.942  0.00  0.00     0.062 H 
ATOM     22  H   LIG d   1       9.055   1.180  -5.146  0.00  0.00     0.062 H 
ATOM     23  H   LIG d   1      10.316  -0.231  -6.045  0.00  0.00     0.066 H 
ATOM     24  H   LIG d   1       9.710  -4.527  -5.797  0.00  0.00     0.066 H 
ATOM     25  H   LIG d   1       7.718  -4.218  -4.449  0.00  0.00     0.064 H 
ENDROOT
TORSDOF 0
ENDMDL
MODEL 9
REMARK VINA RESULT:      -5.7      4.389      5.754
REMARK  0 active torsions:
REMARK  status: ('A' for Active; 'I' for Inactive)
ROOT
ATOM      1  C   LIG d   1       4.593   0.925  -1.797  0.00  0.00    -0.061 A 
ATOM      2  C   LIG d   1       5.628   1.467  -2.552  0.00  0.00    -0.060 A 
ATOM      3  C   LIG d   1       6.254   0.748  -3.524  0.00  0.00    -0.036 A 
ATOM      4  C   LIG d   1       5.844  -0.575  -3.786  0.00  0.00     0.072 A 
ATOM      5  C   LIG d   1       4.749  -1.141  -2.991  0.00  0.00     0.000 A 
ATOM      6  C   LIG d   1       4.149  -0.348  -2.001  0.00  0.00    -0.053 A 
ATOM      7  C   LIG d   1       4.171  -2.426  -3.070  0.00  0.00    -0.052 A 
ATOM      8  C   LIG d   1       4.513  -3.440  -3.918  0.00  0.00    -0.052 A 
ATOM      9  C   LIG d   1       5.521  -3.436  -4.909  0.00  0.00     0.004 A 
ATOM     10  C   LIG d   1       5.585  -4.650  -5.583  0.00  0.00    -0.006 A 
ATOM     11  C   LIG d   1       6.526  -4.827  -6.601  0.00  0.00     0.180 A 
ATOM     12  O   LIG d   1       6.586  -5.895  -7.195  0.00  0.00    -0.288 OA
ATOM     13  C   LIG d   1       7.442  -3.747  -6.958  0.00  0.00    -0.013 A 
ATOM     14  C   LIG d   1       7.394  -2.560  -6.313  0.00  0.00    -0.032 A 
ATOM     15  C   LIG d   1       6.449  -2.350  -5.277  0.00  0.00     0.072 A 
ATOM     16  N   LIG d   1       6.551  -1.135  -4.766  0.00  0.00    -0.247 NA
ATOM     17  H   LIG d   1       4.126   1.529  -1.032  0.00  0.00     0.062 H 
ATOM     18  H   LIG d   1       5.946   2.481  -2.361  0.00  0.00     0.062 H 
ATOM     19  H   LIG d   1       7.058   1.190  -4.093  0.00  0.00     0.064 H 
ATOM     20  H   LIG d   1       3.341  -0.744  -1.404  0.00  0.00     0.062 H 
ATOM     21  H   LIG d   1       3.366  -2.631  -2.379  0.00  0.00     0.062 H 
ATOM     22  H   LIG d   1       3.946  -4.356  -3.820  0.00  0.00     0.062 H 
ATOM     23  H   LIG d   1       4.911  -5.452  -5.322  0.00  0.00     0.066 H 
ATOM     24  H   LIG d   1       8.165  -3.897  -7.746  0.00  0.00     0.066 H 
ATOM     25  H   LIG d   1       8.077  -1.769  -6.587  0.00  0.00     0.064 H 
ENDROOT
TORSDOF 0
ENDMDL
MODEL 10
REMARK VINA RESULT:      -5.7      4.667      5.667
REMARK  0 active torsions:
REMARK  status: ('A' for Active; 'I' for Inactive)
ROOT
ATOM      1  C   LIG d   1      10.322  -2.726  -5.781  0.00  0.00    -0.061 A 
ATOM      2  C   LIG d   1       9.589  -3.800  -5.285  0.00  0.00    -0.060 A 
ATOM      3  C   LIG d   1       8.438  -3.614  -4.582  0.00  0.00    -0.036 A 
ATOM      4  C   LIG d   1       7.964  -2.306  -4.355  0.00  0.00     0.072 A 
ATOM      5  C   LIG d   1       8.736  -1.177  -4.884  0.00  0.00     0.000 A 
ATOM      6  C   LIG d   1       9.917  -1.437  -5.596  0.00  0.00    -0.053 A 
ATOM      7  C   LIG d   1       8.464   0.205  -4.786  0.00  0.00    -0.052 A 
ATOM      8  C   LIG d   1       7.404   0.801  -4.164  0.00  0.00    -0.052 A 
ATOM      9  C   LIG d   1       6.339   0.173  -3.480  0.00  0.00     0.004 A 
ATOM     10  C   LIG d   1       5.436   1.100  -2.971  0.00  0.00    -0.006 A 
ATOM     11  C   LIG d   1       4.316   0.658  -2.263  0.00  0.00     0.180 A 
ATOM     12  O   LIG d   1       3.520   1.472  -1.813  0.00  0.00    -0.288 OA
ATOM     13  C   LIG d   1       4.089  -0.769  -2.053  0.00  0.00    -0.013 A 
ATOM     14  C   LIG d   1       4.955  -1.684  -2.540  0.00  0.00    -0.032 A 
ATOM     15  C   LIG d   1       6.101  -1.266  -3.264  0.00  0.00     0.072 A 
ATOM     16  N   LIG d   1       6.828  -2.298  -3.660  0.00  0.00    -0.247 NA
ATOM     17  H   LIG d   1      11.233  -2.917  -6.330  0.00  0.00     0.062 H 
ATOM     18  H   LIG d   1       9.944  -4.805  -5.458  0.00  0.00     0.062 H 
ATOM     19  H   LIG d   1       7.890  -4.464  -4.204  0.00  0.00     0.064 H 
ATOM     20  H   LIG d   1      10.501  -0.621  -5.994  0.00  0.00     0.062 H 
ATOM     21  H   LIG d   1       9.177   0.866  -5.255  0.00  0.00     0.062 H 
ATOM     22  H   LIG d   1       7.376   1.881  -4.200  0.00  0.00     0.062 H 
ATOM     23  H   LIG d   1       5.600   2.157  -3.123  0.00  0.00     0.066 H 
ATOM     24  H   LIG d   1       3.219  -1.097  -1.503  0.00  0.00     0.066 H 
ATOM     25  H   LIG d   1       4.776  -2.737  -2.377  0.00  0.00     0.064 H 
ENDROOT
TORSDOF 0
ENDMDL
