MODEL 1
REMARK VINA RESULT:      -6.3      0.000      0.000
REMARK  6 active torsions:
REMARK  status: ('A' for Active; 'I' for Inactive)
REMARK    1  A    between atoms: C_1  and  C_2 
REMARK    2  A    between atoms: C_5  and  S_8 
REMARK    3  A    between atoms: S_8  and  N_11 
REMARK    4  A    between atoms: N_11  and  C_12 
REMARK    5  A    between atoms: C_18  and  N_20 
REMARK       I    between atoms: N_20  and  C_21 
REMARK    6  A    between atoms: C_21  and  C_23 
ROOT
ATOM      1  C   LIG d   1       5.935  -0.923  -3.549  0.00  0.00     0.047 C 
ATOM      2  H   LIG d   1       6.799  -1.519  -3.844  0.00  0.00     0.050 H 
ATOM      3  C   LIG d   1       5.333  -1.498  -2.266  0.00  0.00    -0.034 C 
ATOM      4  C   LIG d   1       4.119  -0.662  -1.852  0.00  0.00    -0.051 C 
ATOM      5  C   LIG d   1       4.555   0.783  -1.608  0.00  0.00    -0.051 C 
ATOM      6  C   LIG d   1       5.157   1.358  -2.891  0.00  0.00    -0.033 C 
ATOM      7  C   LIG d   1       6.370   0.523  -3.305  0.00  0.00     0.040 C 
ATOM      8  H   LIG d   1       7.116   0.548  -2.510  0.00  0.00     0.051 H 
ATOM      9  H   LIG d   1       5.022  -2.529  -2.440  0.00  0.00     0.028 H 
ATOM     10  H   LIG d   1       6.079  -1.473  -1.471  0.00  0.00     0.028 H 
ATOM     11  H   LIG d   1       3.374  -0.688  -2.647  0.00  0.00     0.027 H 
ATOM     12  H   LIG d   1       3.690  -1.072  -0.938  0.00  0.00     0.027 H 
ATOM     13  H   LIG d   1       3.691   1.378  -1.313  0.00  0.00     0.027 H 
ATOM     14  H   LIG d   1       5.301   0.808  -0.813  0.00  0.00     0.027 H 
ATOM     15  H   LIG d   1       5.468   2.388  -2.717  0.00  0.00     0.028 H 
ATOM     16  H   LIG d   1       4.412   1.333  -3.685  0.00  0.00     0.028 H 
ENDROOT
BRANCH   1  17
ATOM     17  N   LIG d   1       4.932  -0.957  -4.617  0.00  0.00    -0.185 N 
ATOM     18  H   LIG d   1       4.024  -0.666  -4.439  0.00  0.00     0.148 HD
BRANCH  17  19
ATOM     19  S   LIG d   1       5.349  -1.490  -6.129  0.00  0.00     0.059 S 
ATOM     20  O   LIG d   1       6.768  -1.488  -6.182  0.00  0.00    -0.153 OA
ATOM     21  O   LIG d   1       4.579  -2.659  -6.373  0.00  0.00    -0.153 OA
BRANCH  19  22
ATOM     22  C   LIG d   1       4.799  -0.274  -7.280  0.00  0.00     0.105 A 
ATOM     23  C   LIG d   1       3.450  -0.001  -7.405  0.00  0.00    -0.035 A 
ATOM     24  C   LIG d   1       3.019   0.954  -8.308  0.00  0.00    -0.057 A 
ATOM     25  H   LIG d   1       2.733  -0.533  -6.799  0.00  0.00     0.064 H 
ATOM     26  C   LIG d   1       3.938   1.635  -9.084  0.00  0.00    -0.050 A 
ATOM     27  H   LIG d   1       1.965   1.166  -8.406  0.00  0.00     0.062 H 
ATOM     28  C   LIG d   1       5.288   1.362  -8.958  0.00  0.00    -0.057 A 
ATOM     29  C   LIG d   1       5.719   0.411  -8.052  0.00  0.00    -0.035 A 
ATOM     30  H   LIG d   1       6.005   1.895  -9.564  0.00  0.00     0.062 H 
ATOM     31  H   LIG d   1       6.774   0.200  -7.952  0.00  0.00     0.064 H 
BRANCH  26  32
ATOM     32  C   LIG d   1       3.469   2.676 -10.067  0.00  0.00    -0.040 C 
ATOM     33  H   LIG d   1       4.174   3.506 -10.082  0.00  0.00     0.028 H 
ATOM     34  H   LIG d   1       3.405   2.235 -11.062  0.00  0.00     0.028 H 
ATOM     35  H   LIG d   1       2.486   3.041  -9.768  0.00  0.00     0.028 H 
ENDBRANCH  26  32
ENDBRANCH  19  22
ENDBRANCH  17  19
ENDBRANCH   1  17
BRANCH   7  36
ATOM     36  N   LIG d   1       6.947   1.074  -4.534  0.00  0.00    -0.311 N 
ATOM     37  C   LIG d   1       8.020   1.887  -4.470  0.00  0.00     0.210 C 
ATOM     38  O   LIG d   1       8.507   2.165  -3.393  0.00  0.00    -0.276 OA
ATOM     39  H   LIG d   1       6.555   0.854  -5.394  0.00  0.00     0.149 HD
BRANCH  37  40
ATOM     40  C   LIG d   1       8.613   2.453  -5.733  0.00  0.00     0.012 C 
ATOM     41  H   LIG d   1       9.656   2.145  -5.815  0.00  0.00     0.032 H 
ATOM     42  H   LIG d   1       8.057   2.082  -6.594  0.00  0.00     0.032 H 
ATOM     43  H   LIG d   1       8.557   3.541  -5.705  0.00  0.00     0.032 H 
ENDBRANCH  37  40
ENDBRANCH   7  36
TORSDOF 6
ENDMDL
MODEL 2
REMARK VINA RESULT:      -6.3      2.300      3.687
REMARK  6 active torsions:
REMARK  status: ('A' for Active; 'I' for Inactive)
REMARK    1  A    between atoms: C_1  and  C_2 
REMARK    2  A    between atoms: C_5  and  S_8 
REMARK    3  A    between atoms: S_8  and  N_11 
REMARK    4  A    between atoms: N_11  and  C_12 
REMARK    5  A    between atoms: C_18  and  N_20 
REMARK       I    between atoms: N_20  and  C_21 
REMARK    6  A    between atoms: C_21  and  C_23 
ROOT
ATOM      1  C   LIG d   1       4.158  -0.936  -4.809  0.00  0.00     0.047 C 
ATOM      2  H   LIG d   1       3.734  -1.428  -5.684  0.00  0.00     0.050 H 
ATOM      3  C   LIG d   1       3.088  -0.068  -4.143  0.00  0.00    -0.034 C 
ATOM      4  C   LIG d   1       3.683   0.623  -2.914  0.00  0.00    -0.051 C 
ATOM      5  C   LIG d   1       4.173  -0.432  -1.922  0.00  0.00    -0.051 C 
ATOM      6  C   LIG d   1       5.243  -1.300  -2.588  0.00  0.00    -0.033 C 
ATOM      7  C   LIG d   1       4.648  -1.991  -3.817  0.00  0.00     0.040 C 
ATOM      8  H   LIG d   1       3.811  -2.618  -3.510  0.00  0.00     0.051 H 
ATOM      9  H   LIG d   1       2.738   0.685  -4.850  0.00  0.00     0.028 H 
ATOM     10  H   LIG d   1       2.250  -0.695  -3.837  0.00  0.00     0.028 H 
ATOM     11  H   LIG d   1       4.520   1.250  -3.221  0.00  0.00     0.027 H 
ATOM     12  H   LIG d   1       2.920   1.242  -2.441  0.00  0.00     0.027 H 
ATOM     13  H   LIG d   1       4.596   0.060  -1.048  0.00  0.00     0.027 H 
ATOM     14  H   LIG d   1       3.335  -1.060  -1.616  0.00  0.00     0.027 H 
ATOM     15  H   LIG d   1       5.592  -2.052  -1.881  0.00  0.00     0.028 H 
ATOM     16  H   LIG d   1       6.080  -0.673  -2.894  0.00  0.00     0.028 H 
ENDROOT
BRANCH   1  17
ATOM     17  N   LIG d   1       5.283  -0.092  -5.220  0.00  0.00    -0.185 N 
ATOM     18  H   LIG d   1       5.697   0.510  -4.582  0.00  0.00     0.148 HD
BRANCH  17  19
ATOM     19  S   LIG d   1       5.850  -0.169  -6.775  0.00  0.00     0.059 S 
ATOM     20  O   LIG d   1       6.419   1.101  -7.062  0.00  0.00    -0.153 OA
ATOM     21  O   LIG d   1       6.592  -1.377  -6.877  0.00  0.00    -0.153 OA
BRANCH  19  22
ATOM     22  C   LIG d   1       4.451  -0.344  -7.831  0.00  0.00     0.105 A 
ATOM     23  C   LIG d   1       3.690   0.762  -8.159  0.00  0.00    -0.035 A 
ATOM     24  C   LIG d   1       2.592   0.624  -8.988  0.00  0.00    -0.057 A 
ATOM     25  H   LIG d   1       3.952   1.733  -7.768  0.00  0.00     0.064 H 
ATOM     26  C   LIG d   1       2.257  -0.620  -9.490  0.00  0.00    -0.050 A 
ATOM     27  H   LIG d   1       1.997   1.488  -9.244  0.00  0.00     0.062 H 
ATOM     28  C   LIG d   1       3.019  -1.726  -9.162  0.00  0.00    -0.057 A 
ATOM     29  C   LIG d   1       4.119  -1.587  -8.336  0.00  0.00    -0.035 A 
ATOM     30  H   LIG d   1       2.756  -2.697  -9.554  0.00  0.00     0.062 H 
ATOM     31  H   LIG d   1       4.716  -2.452  -8.083  0.00  0.00     0.064 H 
BRANCH  26  32
ATOM     32  C   LIG d   1       1.060  -0.770 -10.394  0.00  0.00    -0.040 C 
ATOM     33  H   LIG d   1       0.618  -1.755 -10.250  0.00  0.00     0.028 H 
ATOM     34  H   LIG d   1       0.324  -0.003 -10.155  0.00  0.00     0.028 H 
ATOM     35  H   LIG d   1       1.374  -0.661 -11.432  0.00  0.00     0.028 H 
ENDBRANCH  26  32
ENDBRANCH  19  22
ENDBRANCH  17  19
ENDBRANCH   1  17
BRANCH   7  36
ATOM     36  N   LIG d   1       5.673  -2.822  -4.453  0.00  0.00    -0.311 N 
ATOM     37  C   LIG d   1       5.342  -4.022  -4.972  0.00  0.00     0.210 C 
ATOM     38  O   LIG d   1       4.196  -4.415  -4.908  0.00  0.00    -0.276 OA
ATOM     39  H   LIG d   1       6.590  -2.509  -4.501  0.00  0.00     0.149 HD
BRANCH  37  40
ATOM     40  C   LIG d   1       6.396  -4.876  -5.627  0.00  0.00     0.012 C 
ATOM     41  H   LIG d   1       7.229  -5.016  -4.939  0.00  0.00     0.032 H 
ATOM     42  H   LIG d   1       5.970  -5.846  -5.884  0.00  0.00     0.032 H 
ATOM     43  H   LIG d   1       6.752  -4.384  -6.532  0.00  0.00     0.032 H 
ENDBRANCH  37  40
ENDBRANCH   7  36
TORSDOF 6
ENDMDL
MODEL 3
REMARK VINA RESULT:      -6.3      3.133      5.803
REMARK  6 active torsions:
REMARK  status: ('A' for Active; 'I' for Inactive)
REMARK    1  A    between atoms: C_1  and  C_2 
REMARK    2  A    between atoms: C_5  and  S_8 
REMARK    3  A    between atoms: S_8  and  N_11 
REMARK    4  A    between atoms: N_11  and  C_12 
REMARK    5  A    between atoms: C_18  and  N_20 
REMARK       I    between atoms: N_20  and  C_21 
REMARK    6  A    between atoms: C_21  and  C_23 
ROOT
ATOM      1  C   LIG d   1       5.094  -0.551  -4.427  0.00  0.00     0.047 C 
ATOM      2  H   LIG d   1       5.805  -0.434  -5.245  0.00  0.00     0.050 H 
ATOM      3  C   LIG d   1       5.650   0.115  -3.168  0.00  0.00    -0.034 C 
ATOM      4  C   LIG d   1       4.653  -0.049  -2.019  0.00  0.00    -0.051 C 
ATOM      5  C   LIG d   1       3.324   0.607  -2.399  0.00  0.00    -0.051 C 
ATOM      6  C   LIG d   1       2.768  -0.060  -3.659  0.00  0.00    -0.033 C 
ATOM      7  C   LIG d   1       3.766   0.104  -4.807  0.00  0.00     0.040 C 
ATOM      8  H   LIG d   1       3.926   1.166  -4.998  0.00  0.00     0.051 H 
ATOM      9  H   LIG d   1       6.598  -0.352  -2.896  0.00  0.00     0.028 H 
ATOM     10  H   LIG d   1       5.812   1.177  -3.359  0.00  0.00     0.028 H 
ATOM     11  H   LIG d   1       4.492  -1.111  -1.828  0.00  0.00     0.027 H 
ATOM     12  H   LIG d   1       5.049   0.426  -1.122  0.00  0.00     0.027 H 
ATOM     13  H   LIG d   1       2.615   0.489  -1.581  0.00  0.00     0.027 H 
ATOM     14  H   LIG d   1       3.485   1.668  -2.591  0.00  0.00     0.027 H 
ATOM     15  H   LIG d   1       1.822   0.407  -3.930  0.00  0.00     0.028 H 
ATOM     16  H   LIG d   1       2.607  -1.121  -3.467  0.00  0.00     0.028 H 
ENDROOT
BRANCH   1  17
ATOM     17  N   LIG d   1       4.878  -1.978  -4.169  0.00  0.00    -0.185 N 
ATOM     18  H   LIG d   1       4.457  -2.263  -3.344  0.00  0.00     0.148 HD
BRANCH  17  19
ATOM     19  S   LIG d   1       5.353  -3.103  -5.288  0.00  0.00     0.059 S 
ATOM     20  O   LIG d   1       4.410  -4.163  -5.223  0.00  0.00    -0.153 OA
ATOM     21  O   LIG d   1       5.619  -2.393  -6.490  0.00  0.00    -0.153 OA
BRANCH  19  22
ATOM     22  C   LIG d   1       6.892  -3.763  -4.741  0.00  0.00     0.105 A 
ATOM     23  C   LIG d   1       7.333  -4.980  -5.226  0.00  0.00    -0.035 A 
ATOM     24  C   LIG d   1       8.541  -5.499  -4.796  0.00  0.00    -0.057 A 
ATOM     25  H   LIG d   1       6.735  -5.527  -5.938  0.00  0.00     0.064 H 
ATOM     26  C   LIG d   1       9.308  -4.799  -3.884  0.00  0.00    -0.050 A 
ATOM     27  H   LIG d   1       8.885  -6.450  -5.174  0.00  0.00     0.062 H 
ATOM     28  C   LIG d   1       8.867  -3.580  -3.400  0.00  0.00    -0.057 A 
ATOM     29  C   LIG d   1       7.661  -3.061  -3.832  0.00  0.00    -0.035 A 
ATOM     30  H   LIG d   1       9.467  -3.034  -2.688  0.00  0.00     0.062 H 
ATOM     31  H   LIG d   1       7.319  -2.107  -3.457  0.00  0.00     0.064 H 
BRANCH  26  32
ATOM     32  C   LIG d   1      10.625  -5.362  -3.417  0.00  0.00    -0.040 C 
ATOM     33  H   LIG d   1      11.439  -4.749  -3.800  0.00  0.00     0.028 H 
ATOM     34  H   LIG d   1      10.654  -5.365  -2.327  0.00  0.00     0.028 H 
ATOM     35  H   LIG d   1      10.735  -6.382  -3.786  0.00  0.00     0.028 H 
ENDBRANCH  26  32
ENDBRANCH  19  22
ENDBRANCH  17  19
ENDBRANCH   1  17
BRANCH   7  36
ATOM     36  N   LIG d   1       3.232  -0.534  -6.013  0.00  0.00    -0.311 N 
ATOM     37  C   LIG d   1       2.939   0.211  -7.097  0.00  0.00     0.210 C 
ATOM     38  O   LIG d   1       3.113   1.412  -7.073  0.00  0.00    -0.276 OA
ATOM     39  H   LIG d   1       3.090  -1.494  -6.030  0.00  0.00     0.149 HD
BRANCH  37  40
ATOM     40  C   LIG d   1       2.391  -0.446  -8.337  0.00  0.00     0.012 C 
ATOM     41  H   LIG d   1       2.050   0.320  -9.034  0.00  0.00     0.032 H 
ATOM     42  H   LIG d   1       3.172  -1.043  -8.807  0.00  0.00     0.032 H 
ATOM     43  H   LIG d   1       1.553  -1.089  -8.067  0.00  0.00     0.032 H 
ENDBRANCH  37  40
ENDBRANCH   7  36
TORSDOF 6
ENDMDL
MODEL 4
REMARK VINA RESULT:      -6.1      3.448      5.514
REMARK  6 active torsions:
REMARK  status: ('A' for Active; 'I' for Inactive)
REMARK    1  A    between atoms: C_1  and  C_2 
REMARK    2  A    between atoms: C_5  and  S_8 
REMARK    3  A    between atoms: S_8  and  N_11 
REMARK    4  A    between atoms: N_11  and  C_12 
REMARK    5  A    between atoms: C_18  and  N_20 
REMARK       I    between atoms: N_20  and  C_21 
REMARK    6  A    between atoms: C_21  and  C_23 
ROOT
ATOM      1  C   LIG d   1       5.373  -0.152  -4.353  0.00  0.00     0.047 C 
ATOM      2  H   LIG d   1       6.008   0.223  -5.155  0.00  0.00     0.050 H 
ATOM      3  C   LIG d   1       5.597   0.683  -3.091  0.00  0.00    -0.034 C 
ATOM      4  C   LIG d   1       4.706   0.156  -1.964  0.00  0.00    -0.051 C 
ATOM      5  C   LIG d   1       3.239   0.253  -2.387  0.00  0.00    -0.051 C 
ATOM      6  C   LIG d   1       3.015  -0.582  -3.648  0.00  0.00    -0.033 C 
ATOM      7  C   LIG d   1       3.906  -0.055  -4.775  0.00  0.00     0.040 C 
ATOM      8  H   LIG d   1       3.655   0.986  -4.979  0.00  0.00     0.051 H 
ATOM      9  H   LIG d   1       6.643   0.614  -2.790  0.00  0.00     0.028 H 
ATOM     10  H   LIG d   1       5.347   1.725  -3.295  0.00  0.00     0.028 H 
ATOM     11  H   LIG d   1       4.957  -0.885  -1.761  0.00  0.00     0.027 H 
ATOM     12  H   LIG d   1       4.866   0.751  -1.066  0.00  0.00     0.027 H 
ATOM     13  H   LIG d   1       2.605  -0.122  -1.584  0.00  0.00     0.027 H 
ATOM     14  H   LIG d   1       2.989   1.295  -2.591  0.00  0.00     0.027 H 
ATOM     15  H   LIG d   1       1.970  -0.512  -3.949  0.00  0.00     0.028 H 
ATOM     16  H   LIG d   1       3.265  -1.622  -3.444  0.00  0.00     0.028 H 
ENDROOT
BRANCH   1  17
ATOM     17  N   LIG d   1       5.710  -1.552  -4.078  0.00  0.00    -0.185 N 
ATOM     18  H   LIG d   1       5.264  -2.026  -3.359  0.00  0.00     0.148 HD
BRANCH  17  19
ATOM     19  S   LIG d   1       6.852  -2.325  -4.996  0.00  0.00     0.059 S 
ATOM     20  O   LIG d   1       6.831  -1.706  -6.275  0.00  0.00    -0.153 OA
ATOM     21  O   LIG d   1       8.029  -2.396  -4.203  0.00  0.00    -0.153 OA
BRANCH  19  22
ATOM     22  C   LIG d   1       6.299  -3.981  -5.228  0.00  0.00     0.105 A 
ATOM     23  C   LIG d   1       7.219  -5.004  -5.364  0.00  0.00    -0.035 A 
ATOM     24  C   LIG d   1       6.785  -6.305  -5.546  0.00  0.00    -0.057 A 
ATOM     25  H   LIG d   1       8.276  -4.788  -5.329  0.00  0.00     0.064 H 
ATOM     26  C   LIG d   1       5.432  -6.581  -5.590  0.00  0.00    -0.050 A 
ATOM     27  H   LIG d   1       7.504  -7.103  -5.653  0.00  0.00     0.062 H 
ATOM     28  C   LIG d   1       4.511  -5.558  -5.453  0.00  0.00    -0.057 A 
ATOM     29  C   LIG d   1       4.946  -4.259  -5.267  0.00  0.00    -0.035 A 
ATOM     30  H   LIG d   1       3.454  -5.775  -5.487  0.00  0.00     0.062 H 
ATOM     31  H   LIG d   1       4.226  -3.460  -5.157  0.00  0.00     0.064 H 
BRANCH  26  32
ATOM     32  C   LIG d   1       4.959  -7.998  -5.787  0.00  0.00    -0.040 C 
ATOM     33  H   LIG d   1       4.042  -8.157  -5.221  0.00  0.00     0.028 H 
ATOM     34  H   LIG d   1       4.767  -8.174  -6.846  0.00  0.00     0.028 H 
ATOM     35  H   LIG d   1       5.726  -8.689  -5.437  0.00  0.00     0.028 H 
ENDBRANCH  26  32
ENDBRANCH  19  22
ENDBRANCH  17  19
ENDBRANCH   1  17
BRANCH   7  36
ATOM     36  N   LIG d   1       3.691  -0.855  -5.983  0.00  0.00    -0.311 N 
ATOM     37  C   LIG d   1       3.368  -0.250  -7.144  0.00  0.00     0.210 C 
ATOM     38  O   LIG d   1       3.253   0.957  -7.187  0.00  0.00    -0.276 OA
ATOM     39  H   LIG d   1       3.779  -1.821  -5.947  0.00  0.00     0.149 HD
BRANCH  37  40
ATOM     40  C   LIG d   1       3.147  -1.073  -8.386  0.00  0.00     0.012 C 
ATOM     41  H   LIG d   1       4.106  -1.275  -8.864  0.00  0.00     0.032 H 
ATOM     42  H   LIG d   1       2.670  -2.015  -8.118  0.00  0.00     0.032 H 
ATOM     43  H   LIG d   1       2.506  -0.524  -9.076  0.00  0.00     0.032 H 
ENDBRANCH  37  40
ENDBRANCH   7  36
TORSDOF 6
ENDMDL
MODEL 5
REMARK VINA RESULT:      -5.9      3.558      6.967
REMARK  6 active torsions:
REMARK  status: ('A' for Active; 'I' for Inactive)
REMARK    1  A    between atoms: C_1  and  C_2 
REMARK    2  A    between atoms: C_5  and  S_8 
REMARK    3  A    between atoms: S_8  and  N_11 
REMARK    4  A    between atoms: N_11  and  C_12 
REMARK    5  A    between atoms: C_18  and  N_20 
REMARK       I    between atoms: N_20  and  C_21 
REMARK    6  A    between atoms: C_21  and  C_23 
ROOT
ATOM      1  C   LIG d   1       3.716  -1.270  -9.542  0.00  0.00     0.047 C 
ATOM      2  H   LIG d   1       4.745  -1.305  -9.185  0.00  0.00     0.050 H 
ATOM      3  C   LIG d   1       3.683  -0.657 -10.944  0.00  0.00    -0.034 C 
ATOM      4  C   LIG d   1       2.239  -0.607 -11.446  0.00  0.00    -0.051 C 
ATOM      5  C   LIG d   1       1.667  -2.025 -11.496  0.00  0.00    -0.051 C 
ATOM      6  C   LIG d   1       1.699  -2.638 -10.095  0.00  0.00    -0.033 C 
ATOM      7  C   LIG d   1       3.144  -2.688  -9.592  0.00  0.00     0.040 C 
ATOM      8  H   LIG d   1       3.742  -3.297 -10.270  0.00  0.00     0.051 H 
ATOM      9  H   LIG d   1       4.091   0.354 -10.909  0.00  0.00     0.028 H 
ATOM     10  H   LIG d   1       4.283  -1.266 -11.621  0.00  0.00     0.028 H 
ATOM     11  H   LIG d   1       1.640   0.002 -10.769  0.00  0.00     0.027 H 
ATOM     12  H   LIG d   1       2.216  -0.171 -12.444  0.00  0.00     0.027 H 
ATOM     13  H   LIG d   1       0.639  -1.989 -11.853  0.00  0.00     0.027 H 
ATOM     14  H   LIG d   1       2.266  -2.635 -12.173  0.00  0.00     0.027 H 
ATOM     15  H   LIG d   1       1.293  -3.648 -10.130  0.00  0.00     0.028 H 
ATOM     16  H   LIG d   1       1.101  -2.029  -9.418  0.00  0.00     0.028 H 
ENDROOT
BRANCH   1  17
ATOM     17  N   LIG d   1       2.911  -0.450  -8.633  0.00  0.00    -0.185 N 
ATOM     18  H   LIG d   1       1.943  -0.513  -8.651  0.00  0.00     0.148 HD
BRANCH  17  19
ATOM     19  S   LIG d   1       3.653   0.583  -7.572  0.00  0.00     0.059 S 
ATOM     20  O   LIG d   1       5.004   0.697  -7.995  0.00  0.00    -0.153 OA
ATOM     21  O   LIG d   1       2.799   1.711  -7.439  0.00  0.00    -0.153 OA
BRANCH  19  22
ATOM     22  C   LIG d   1       3.682  -0.216  -6.002  0.00  0.00     0.105 A 
ATOM     23  C   LIG d   1       2.817   0.191  -5.003  0.00  0.00    -0.035 A 
ATOM     24  C   LIG d   1       2.840  -0.436  -3.771  0.00  0.00    -0.057 A 
ATOM     25  H   LIG d   1       2.125   0.999  -5.185  0.00  0.00     0.064 H 
ATOM     26  C   LIG d   1       3.727  -1.470  -3.539  0.00  0.00    -0.050 A 
ATOM     27  H   LIG d   1       2.165  -0.117  -2.991  0.00  0.00     0.062 H 
ATOM     28  C   LIG d   1       4.591  -1.878  -4.538  0.00  0.00    -0.057 A 
ATOM     29  C   LIG d   1       4.566  -1.254  -5.771  0.00  0.00    -0.035 A 
ATOM     30  H   LIG d   1       5.283  -2.687  -4.356  0.00  0.00     0.062 H 
ATOM     31  H   LIG d   1       5.239  -1.575  -6.553  0.00  0.00     0.064 H 
BRANCH  26  32
ATOM     32  C   LIG d   1       3.751  -2.155  -2.196  0.00  0.00    -0.040 C 
ATOM     33  H   LIG d   1       3.740  -1.405  -1.406  0.00  0.00     0.028 H 
ATOM     34  H   LIG d   1       2.876  -2.797  -2.099  0.00  0.00     0.028 H 
ATOM     35  H   LIG d   1       4.656  -2.757  -2.112  0.00  0.00     0.028 H 
ENDBRANCH  26  32
ENDBRANCH  19  22
ENDBRANCH  17  19
ENDBRANCH   1  17
BRANCH   7  36
ATOM     36  N   LIG d   1       3.175  -3.275  -8.251  0.00  0.00    -0.311 N 
ATOM     37  C   LIG d   1       3.925  -4.369  -8.010  0.00  0.00     0.210 C 
ATOM     38  O   LIG d   1       4.571  -4.869  -8.906  0.00  0.00    -0.276 OA
ATOM     39  H   LIG d   1       2.654  -2.876  -7.535  0.00  0.00     0.149 HD
BRANCH  37  40
ATOM     40  C   LIG d   1       3.956  -4.972  -6.630  0.00  0.00     0.012 C 
ATOM     41  H   LIG d   1       4.973  -5.287  -6.395  0.00  0.00     0.032 H 
ATOM     42  H   LIG d   1       3.628  -4.231  -5.902  0.00  0.00     0.032 H 
ATOM     43  H   LIG d   1       3.292  -5.835  -6.595  0.00  0.00     0.032 H 
ENDBRANCH  37  40
ENDBRANCH   7  36
TORSDOF 6
ENDMDL
MODEL 6
REMARK VINA RESULT:      -5.8      2.795      4.162
REMARK  6 active torsions:
REMARK  status: ('A' for Active; 'I' for Inactive)
REMARK    1  A    between atoms: C_1  and  C_2 
REMARK    2  A    between atoms: C_5  and  S_8 
REMARK    3  A    between atoms: S_8  and  N_11 
REMARK    4  A    between atoms: N_11  and  C_12 
REMARK    5  A    between atoms: C_18  and  N_20 
REMARK       I    between atoms: N_20  and  C_21 
REMARK    6  A    between atoms: C_21  and  C_23 
ROOT
ATOM      1  C   LIG d   1       3.616  -1.161  -3.866  0.00  0.00     0.047 C 
ATOM      2  H   LIG d   1       2.594  -1.526  -3.967  0.00  0.00     0.050 H 
ATOM      3  C   LIG d   1       3.875  -0.762  -2.412  0.00  0.00    -0.034 C 
ATOM      4  C   LIG d   1       5.310  -0.249  -2.271  0.00  0.00    -0.051 C 
ATOM      5  C   LIG d   1       6.288  -1.351  -2.680  0.00  0.00    -0.051 C 
ATOM      6  C   LIG d   1       6.030  -1.750  -4.133  0.00  0.00    -0.033 C 
ATOM      7  C   LIG d   1       4.595  -2.263  -4.275  0.00  0.00     0.040 C 
ATOM      8  H   LIG d   1       4.455  -3.130  -3.629  0.00  0.00     0.051 H 
ATOM      9  H   LIG d   1       3.177   0.024  -2.121  0.00  0.00     0.028 H 
ATOM     10  H   LIG d   1       3.734  -1.629  -1.766  0.00  0.00     0.028 H 
ATOM     11  H   LIG d   1       5.449   0.619  -2.917  0.00  0.00     0.027 H 
ATOM     12  H   LIG d   1       5.494   0.036  -1.235  0.00  0.00     0.027 H 
ATOM     13  H   LIG d   1       7.309  -0.985  -2.579  0.00  0.00     0.027 H 
ATOM     14  H   LIG d   1       6.148  -2.218  -2.034  0.00  0.00     0.027 H 
ATOM     15  H   LIG d   1       6.726  -2.535  -4.424  0.00  0.00     0.028 H 
ATOM     16  H   LIG d   1       6.170  -0.883  -4.778  0.00  0.00     0.028 H 
ENDROOT
BRANCH   1  17
ATOM     17  N   LIG d   1       3.805   0.005  -4.733  0.00  0.00    -0.185 N 
ATOM     18  H   LIG d   1       4.694   0.369  -4.871  0.00  0.00     0.148 HD
BRANCH  17  19
ATOM     19  S   LIG d   1       2.501   0.703  -5.479  0.00  0.00     0.059 S 
ATOM     20  O   LIG d   1       1.393  -0.155  -5.246  0.00  0.00    -0.153 OA
ATOM     21  O   LIG d   1       2.498   2.071  -5.095  0.00  0.00    -0.153 OA
BRANCH  19  22
ATOM     22  C   LIG d   1       2.811   0.666  -7.213  0.00  0.00     0.105 A 
ATOM     23  C   LIG d   1       2.898   1.848  -7.925  0.00  0.00    -0.035 A 
ATOM     24  C   LIG d   1       3.142   1.819  -9.286  0.00  0.00    -0.057 A 
ATOM     25  H   LIG d   1       2.774   2.794  -7.419  0.00  0.00     0.064 H 
ATOM     26  C   LIG d   1       3.300   0.608  -9.933  0.00  0.00    -0.050 A 
ATOM     27  H   LIG d   1       3.209   2.742  -9.842  0.00  0.00     0.062 H 
ATOM     28  C   LIG d   1       3.215  -0.574  -9.221  0.00  0.00    -0.057 A 
ATOM     29  C   LIG d   1       2.974  -0.545  -7.860  0.00  0.00    -0.035 A 
ATOM     30  H   LIG d   1       3.339  -1.519  -9.727  0.00  0.00     0.062 H 
ATOM     31  H   LIG d   1       2.911  -1.468  -7.303  0.00  0.00     0.064 H 
BRANCH  26  32
ATOM     32  C   LIG d   1       3.567   0.576 -11.416  0.00  0.00    -0.040 C 
ATOM     33  H   LIG d   1       2.879  -0.120 -11.894  0.00  0.00     0.028 H 
ATOM     34  H   LIG d   1       3.424   1.573 -11.833  0.00  0.00     0.028 H 
ATOM     35  H   LIG d   1       4.593   0.251 -11.593  0.00  0.00     0.028 H 
ENDBRANCH  26  32
ENDBRANCH  19  22
ENDBRANCH  17  19
ENDBRANCH   1  17
BRANCH   7  36
ATOM     36  N   LIG d   1       4.348  -2.645  -5.667  0.00  0.00    -0.311 N 
ATOM     37  C   LIG d   1       4.295  -3.948  -6.010  0.00  0.00     0.210 C 
ATOM     38  O   LIG d   1       4.456  -4.804  -5.165  0.00  0.00    -0.276 OA
ATOM     39  H   LIG d   1       4.223  -1.960  -6.343  0.00  0.00     0.149 HD
BRANCH  37  40
ATOM     40  C   LIG d   1       4.040  -4.341  -7.442  0.00  0.00     0.012 C 
ATOM     41  H   LIG d   1       3.163  -3.810  -7.813  0.00  0.00     0.032 H 
ATOM     42  H   LIG d   1       4.907  -4.080  -8.049  0.00  0.00     0.032 H 
ATOM     43  H   LIG d   1       3.866  -5.415  -7.498  0.00  0.00     0.032 H 
ENDBRANCH  37  40
ENDBRANCH   7  36
TORSDOF 6
ENDMDL
MODEL 7
REMARK VINA RESULT:      -5.7      2.243      3.026
REMARK  6 active torsions:
REMARK  status: ('A' for Active; 'I' for Inactive)
REMARK    1  A    between atoms: C_1  and  C_2 
REMARK    2  A    between atoms: C_5  and  S_8 
REMARK    3  A    between atoms: S_8  and  N_11 
REMARK    4  A    between atoms: N_11  and  C_12 
REMARK    5  A    between atoms: C_18  and  N_20 
REMARK       I    between atoms: N_20  and  C_21 
REMARK    6  A    between atoms: C_21  and  C_23 
ROOT
ATOM      1  C   LIG d   1       5.917  -0.814  -3.794  0.00  0.00     0.047 C 
ATOM      2  H   LIG d   1       6.789  -1.368  -4.141  0.00  0.00     0.050 H 
ATOM      3  C   LIG d   1       5.293  -1.541  -2.601  0.00  0.00    -0.034 C 
ATOM      4  C   LIG d   1       4.068  -0.764  -2.113  0.00  0.00    -0.051 C 
ATOM      5  C   LIG d   1       4.491   0.643  -1.689  0.00  0.00    -0.051 C 
ATOM      6  C   LIG d   1       5.115   1.370  -2.882  0.00  0.00    -0.033 C 
ATOM      7  C   LIG d   1       6.340   0.593  -3.370  0.00  0.00     0.040 C 
ATOM      8  H   LIG d   1       7.070   0.525  -2.563  0.00  0.00     0.051 H 
ATOM      9  H   LIG d   1       4.991  -2.544  -2.903  0.00  0.00     0.028 H 
ATOM     10  H   LIG d   1       6.024  -1.609  -1.794  0.00  0.00     0.028 H 
ATOM     11  H   LIG d   1       3.338  -0.696  -2.920  0.00  0.00     0.027 H 
ATOM     12  H   LIG d   1       3.624  -1.282  -1.263  0.00  0.00     0.027 H 
ATOM     13  H   LIG d   1       3.619   1.195  -1.342  0.00  0.00     0.027 H 
ATOM     14  H   LIG d   1       5.222   0.575  -0.883  0.00  0.00     0.027 H 
ATOM     15  H   LIG d   1       5.417   2.372  -2.580  0.00  0.00     0.028 H 
ATOM     16  H   LIG d   1       4.385   1.438  -3.688  0.00  0.00     0.028 H 
ENDROOT
BRANCH   1  17
ATOM     17  N   LIG d   1       4.934  -0.722  -4.877  0.00  0.00    -0.185 N 
ATOM     18  H   LIG d   1       3.988  -0.682  -4.671  0.00  0.00     0.148 HD
BRANCH  17  19
ATOM     19  S   LIG d   1       5.441  -0.686  -6.454  0.00  0.00     0.059 S 
ATOM     20  O   LIG d   1       4.913   0.503  -7.023  0.00  0.00    -0.153 OA
ATOM     21  O   LIG d   1       6.833  -0.971  -6.439  0.00  0.00    -0.153 OA
BRANCH  19  22
ATOM     22  C   LIG d   1       4.660  -2.031  -7.282  0.00  0.00     0.105 A 
ATOM     23  C   LIG d   1       4.754  -3.310  -6.765  0.00  0.00    -0.035 A 
ATOM     24  C   LIG d   1       4.141  -4.365  -7.416  0.00  0.00    -0.057 A 
ATOM     25  H   LIG d   1       5.307  -3.485  -5.855  0.00  0.00     0.064 H 
ATOM     26  C   LIG d   1       3.433  -4.140  -8.581  0.00  0.00    -0.050 A 
ATOM     27  H   LIG d   1       4.215  -5.363  -7.012  0.00  0.00     0.062 H 
ATOM     28  C   LIG d   1       3.338  -2.861  -9.098  0.00  0.00    -0.057 A 
ATOM     29  C   LIG d   1       3.948  -1.806  -8.446  0.00  0.00    -0.035 A 
ATOM     30  H   LIG d   1       2.785  -2.686 -10.008  0.00  0.00     0.062 H 
ATOM     31  H   LIG d   1       3.871  -0.806  -8.848  0.00  0.00     0.064 H 
BRANCH  26  32
ATOM     32  C   LIG d   1       2.764  -5.290  -9.290  0.00  0.00    -0.040 C 
ATOM     33  H   LIG d   1       1.776  -4.981  -9.630  0.00  0.00     0.028 H 
ATOM     34  H   LIG d   1       3.366  -5.590 -10.147  0.00  0.00     0.028 H 
ATOM     35  H   LIG d   1       2.664  -6.131  -8.603  0.00  0.00     0.028 H 
ENDBRANCH  26  32
ENDBRANCH  19  22
ENDBRANCH  17  19
ENDBRANCH   1  17
BRANCH   7  36
ATOM     36  N   LIG d   1       6.937   1.289  -4.512  0.00  0.00    -0.311 N 
ATOM     37  C   LIG d   1       8.077   1.991  -4.353  0.00  0.00     0.210 C 
ATOM     38  O   LIG d   1       8.607   2.049  -3.263  0.00  0.00    -0.276 OA
ATOM     39  H   LIG d   1       6.511   1.246  -5.383  0.00  0.00     0.149 HD
BRANCH  37  40
ATOM     40  C   LIG d   1       8.691   2.706  -5.528  0.00  0.00     0.012 C 
ATOM     41  H   LIG d   1       9.248   1.994  -6.137  0.00  0.00     0.032 H 
ATOM     42  H   LIG d   1       7.903   3.159  -6.130  0.00  0.00     0.032 H 
ATOM     43  H   LIG d   1       9.366   3.483  -5.169  0.00  0.00     0.032 H 
ENDBRANCH  37  40
ENDBRANCH   7  36
TORSDOF 6
ENDMDL
MODEL 8
REMARK VINA RESULT:      -5.7      2.245      2.656
REMARK  6 active torsions:
REMARK  status: ('A' for Active; 'I' for Inactive)
REMARK    1  A    between atoms: C_1  and  C_2 
REMARK    2  A    between atoms: C_5  and  S_8 
REMARK    3  A    between atoms: S_8  and  N_11 
REMARK    4  A    between atoms: N_11  and  C_12 
REMARK    5  A    between atoms: C_18  and  N_20 
REMARK       I    between atoms: N_20  and  C_21 
REMARK    6  A    between atoms: C_21  and  C_23 
ROOT
ATOM      1  C   LIG d   1       5.192  -1.828  -3.620  0.00  0.00     0.047 C 
ATOM      2  H   LIG d   1       5.550  -2.854  -3.705  0.00  0.00     0.050 H 
ATOM      3  C   LIG d   1       3.999  -1.782  -2.664  0.00  0.00    -0.034 C 
ATOM      4  C   LIG d   1       3.496  -0.341  -2.544  0.00  0.00    -0.051 C 
ATOM      5  C   LIG d   1       4.617   0.547  -2.004  0.00  0.00    -0.051 C 
ATOM      6  C   LIG d   1       5.811   0.501  -2.959  0.00  0.00    -0.033 C 
ATOM      7  C   LIG d   1       6.314  -0.939  -3.079  0.00  0.00     0.040 C 
ATOM      8  H   LIG d   1       6.620  -1.299  -2.096  0.00  0.00     0.051 H 
ATOM      9  H   LIG d   1       3.199  -2.415  -3.049  0.00  0.00     0.028 H 
ATOM     10  H   LIG d   1       4.305  -2.142  -1.681  0.00  0.00     0.028 H 
ATOM     11  H   LIG d   1       3.190   0.018  -3.527  0.00  0.00     0.027 H 
ATOM     12  H   LIG d   1       2.646  -0.309  -1.864  0.00  0.00     0.027 H 
ATOM     13  H   LIG d   1       4.259   1.572  -1.919  0.00  0.00     0.027 H 
ATOM     14  H   LIG d   1       4.924   0.187  -1.021  0.00  0.00     0.027 H 
ATOM     15  H   LIG d   1       6.610   1.134  -2.574  0.00  0.00     0.028 H 
ATOM     16  H   LIG d   1       5.504   0.861  -3.941  0.00  0.00     0.028 H 
ENDROOT
BRANCH   1  17
ATOM     17  N   LIG d   1       4.780  -1.344  -4.940  0.00  0.00    -0.185 N 
ATOM     18  H   LIG d   1       4.326  -0.491  -5.024  0.00  0.00     0.148 HD
BRANCH  17  19
ATOM     19  S   LIG d   1       5.089  -2.254  -6.289  0.00  0.00     0.059 S 
ATOM     20  O   LIG d   1       6.370  -1.859  -6.760  0.00  0.00    -0.153 OA
ATOM     21  O   LIG d   1       4.783  -3.599  -5.950  0.00  0.00    -0.153 OA
BRANCH  19  22
ATOM     22  C   LIG d   1       3.927  -1.768  -7.521  0.00  0.00     0.105 A 
ATOM     23  C   LIG d   1       3.589  -2.643  -8.536  0.00  0.00    -0.035 A 
ATOM     24  C   LIG d   1       2.677  -2.262  -9.503  0.00  0.00    -0.057 A 
ATOM     25  H   LIG d   1       4.038  -3.624  -8.575  0.00  0.00     0.064 H 
ATOM     26  C   LIG d   1       2.102  -1.006  -9.453  0.00  0.00    -0.050 A 
ATOM     27  H   LIG d   1       2.414  -2.946 -10.296  0.00  0.00     0.062 H 
ATOM     28  C   LIG d   1       2.439  -0.131  -8.437  0.00  0.00    -0.057 A 
ATOM     29  C   LIG d   1       3.348  -0.513  -7.469  0.00  0.00    -0.035 A 
ATOM     30  H   LIG d   1       1.989   0.850  -8.399  0.00  0.00     0.062 H 
ATOM     31  H   LIG d   1       3.608   0.170  -6.673  0.00  0.00     0.064 H 
BRANCH  26  32
ATOM     32  C   LIG d   1       1.107  -0.591 -10.506  0.00  0.00    -0.040 C 
ATOM     33  H   LIG d   1       1.636  -0.318 -11.419  0.00  0.00     0.028 H 
ATOM     34  H   LIG d   1       0.429  -1.419 -10.714  0.00  0.00     0.028 H 
ATOM     35  H   LIG d   1       0.536   0.266 -10.148  0.00  0.00     0.028 H 
ENDBRANCH  26  32
ENDBRANCH  19  22
ENDBRANCH  17  19
ENDBRANCH   1  17
BRANCH   7  36
ATOM     36  N   LIG d   1       7.457  -0.983  -3.994  0.00  0.00    -0.311 N 
ATOM     37  C   LIG d   1       8.249  -2.074  -4.032  0.00  0.00     0.210 C 
ATOM     38  O   LIG d   1       8.016  -3.018  -3.306  0.00  0.00    -0.276 OA
ATOM     39  H   LIG d   1       7.645  -0.226  -4.572  0.00  0.00     0.149 HD
BRANCH  37  40
ATOM     40  C   LIG d   1       9.424  -2.119  -4.973  0.00  0.00     0.012 C 
ATOM     41  H   LIG d   1      10.277  -1.620  -4.513  0.00  0.00     0.032 H 
ATOM     42  H   LIG d   1       9.681  -3.157  -5.184  0.00  0.00     0.032 H 
ATOM     43  H   LIG d   1       9.165  -1.611  -5.902  0.00  0.00     0.032 H 
ENDBRANCH  37  40
ENDBRANCH   7  36
TORSDOF 6
ENDMDL
MODEL 9
REMARK VINA RESULT:      -5.6      2.839      5.465
REMARK  6 active torsions:
REMARK  status: ('A' for Active; 'I' for Inactive)
REMARK    1  A    between atoms: C_1  and  C_2 
REMARK    2  A    between atoms: C_5  and  S_8 
REMARK    3  A    between atoms: S_8  and  N_11 
REMARK    4  A    between atoms: N_11  and  C_12 
REMARK    5  A    between atoms: C_18  and  N_20 
REMARK       I    between atoms: N_20  and  C_21 
REMARK    6  A    between atoms: C_21  and  C_23 
ROOT
ATOM      1  C   LIG d   1       4.375  -0.847  -5.196  0.00  0.00     0.047 C 
ATOM      2  H   LIG d   1       4.393  -1.063  -6.265  0.00  0.00     0.050 H 
ATOM      3  C   LIG d   1       3.184   0.059  -4.879  0.00  0.00    -0.034 C 
ATOM      4  C   LIG d   1       3.159   0.363  -3.379  0.00  0.00    -0.051 C 
ATOM      5  C   LIG d   1       3.028  -0.944  -2.596  0.00  0.00    -0.051 C 
ATOM      6  C   LIG d   1       4.219  -1.851  -2.913  0.00  0.00    -0.033 C 
ATOM      7  C   LIG d   1       4.244  -2.154  -4.413  0.00  0.00     0.040 C 
ATOM      8  H   LIG d   1       3.319  -2.657  -4.697  0.00  0.00     0.051 H 
ATOM      9  H   LIG d   1       3.277   0.991  -5.438  0.00  0.00     0.028 H 
ATOM     10  H   LIG d   1       2.259  -0.443  -5.163  0.00  0.00     0.028 H 
ATOM     11  H   LIG d   1       4.084   0.865  -3.096  0.00  0.00     0.027 H 
ATOM     12  H   LIG d   1       2.311   1.009  -3.154  0.00  0.00     0.027 H 
ATOM     13  H   LIG d   1       3.010  -0.727  -1.529  0.00  0.00     0.027 H 
ATOM     14  H   LIG d   1       2.103  -1.447  -2.881  0.00  0.00     0.027 H 
ATOM     15  H   LIG d   1       4.126  -2.782  -2.356  0.00  0.00     0.028 H 
ATOM     16  H   LIG d   1       5.143  -1.348  -2.630  0.00  0.00     0.028 H 
ENDROOT
BRANCH   1  17
ATOM     17  N   LIG d   1       5.618  -0.172  -4.814  0.00  0.00    -0.185 N 
ATOM     18  H   LIG d   1       5.721   0.185  -3.918  0.00  0.00     0.148 HD
BRANCH  17  19
ATOM     19  S   LIG d   1       6.848  -0.017  -5.913  0.00  0.00     0.059 S 
ATOM     20  O   LIG d   1       7.322  -1.329  -6.179  0.00  0.00    -0.153 OA
ATOM     21  O   LIG d   1       6.370   0.843  -6.938  0.00  0.00    -0.153 OA
BRANCH  19  22
ATOM     22  C   LIG d   1       8.161   0.839  -5.107  0.00  0.00     0.105 A 
ATOM     23  C   LIG d   1       7.877   1.848  -4.205  0.00  0.00    -0.035 A 
ATOM     24  C   LIG d   1       8.908   2.519  -3.573  0.00  0.00    -0.057 A 
ATOM     25  H   LIG d   1       6.852   2.112  -3.995  0.00  0.00     0.064 H 
ATOM     26  C   LIG d   1      10.220   2.180  -3.842  0.00  0.00    -0.050 A 
ATOM     27  H   LIG d   1       8.686   3.307  -2.869  0.00  0.00     0.062 H 
ATOM     28  C   LIG d   1      10.504   1.171  -4.744  0.00  0.00    -0.057 A 
ATOM     29  C   LIG d   1       9.473   0.497  -5.373  0.00  0.00    -0.035 A 
ATOM     30  H   LIG d   1      11.529   0.907  -4.953  0.00  0.00     0.062 H 
ATOM     31  H   LIG d   1       9.695  -0.294  -6.074  0.00  0.00     0.064 H 
BRANCH  26  32
ATOM     32  C   LIG d   1      11.343   2.911  -3.152  0.00  0.00    -0.040 C 
ATOM     33  H   LIG d   1      11.120   3.977  -3.124  0.00  0.00     0.028 H 
ATOM     34  H   LIG d   1      11.451   2.536  -2.134  0.00  0.00     0.028 H 
ATOM     35  H   LIG d   1      12.272   2.749  -3.699  0.00  0.00     0.028 H 
ENDBRANCH  26  32
ENDBRANCH  19  22
ENDBRANCH  17  19
ENDBRANCH   1  17
BRANCH   7  36
ATOM     36  N   LIG d   1       5.384  -3.022  -4.716  0.00  0.00    -0.311 N 
ATOM     37  C   LIG d   1       5.181  -4.235  -5.270  0.00  0.00     0.210 C 
ATOM     38  O   LIG d   1       4.052  -4.609  -5.513  0.00  0.00    -0.276 OA
ATOM     39  H   LIG d   1       6.287  -2.725  -4.518  0.00  0.00     0.149 HD
BRANCH  37  40
ATOM     40  C   LIG d   1       6.354  -5.127  -5.582  0.00  0.00     0.012 C 
ATOM     41  H   LIG d   1       6.001  -6.144  -5.753  0.00  0.00     0.032 H 
ATOM     42  H   LIG d   1       6.859  -4.763  -6.476  0.00  0.00     0.032 H 
ATOM     43  H   LIG d   1       7.049  -5.121  -4.743  0.00  0.00     0.032 H 
ENDBRANCH  37  40
ENDBRANCH   7  36
TORSDOF 6
ENDMDL
