MODEL 1
REMARK VINA RESULT:      -5.0      0.000      0.000
REMARK  4 active torsions:
REMARK  status: ('A' for Active; 'I' for Inactive)
REMARK    1  A    between atoms: C_1  and  C_2 
REMARK    2  A    between atoms: C_5  and  S_8 
REMARK    3  A    between atoms: S_8  and  N_11 
REMARK    4  A    between atoms: C_13  and  C_15 
ROOT
ATOM      1  C   LIG d   1       4.796  -0.351  -2.370  0.00  0.00    -0.050 A 
ATOM      2  C   LIG d   1       3.832  -1.342  -2.362  0.00  0.00    -0.057 A 
ATOM      3  C   LIG d   1       3.957  -2.433  -3.201  0.00  0.00    -0.035 A 
ATOM      4  C   LIG d   1       5.045  -2.534  -4.048  0.00  0.00     0.105 A 
ATOM      5  C   LIG d   1       6.012  -1.545  -4.052  0.00  0.00    -0.035 A 
ATOM      6  C   LIG d   1       5.885  -0.451  -3.216  0.00  0.00    -0.057 A 
ATOM      7  H   LIG d   1       2.983  -1.263  -1.702  0.00  0.00     0.062 H 
ATOM      8  H   LIG d   1       3.204  -3.208  -3.196  0.00  0.00     0.064 H 
ATOM      9  H   LIG d   1       6.864  -1.626  -4.710  0.00  0.00     0.064 H 
ATOM     10  H   LIG d   1       6.637   0.323  -3.222  0.00  0.00     0.062 H 
ENDROOT
BRANCH   4  11
ATOM     11  S   LIG d   1       5.204  -3.925  -5.118  0.00  0.00     0.061 S 
ATOM     12  O   LIG d   1       6.591  -4.227  -5.187  0.00  0.00    -0.153 OA
ATOM     13  O   LIG d   1       4.238  -4.876  -4.693  0.00  0.00    -0.153 OA
BRANCH  11  14
ATOM     14  N   LIG d   1       4.750  -3.433  -6.632  0.00  0.00    -0.171 N 
ATOM     15  C   LIG d   1       4.792  -2.406  -7.677  0.00  0.00     0.043 A 
ATOM     16  C   LIG d   1       4.021  -3.714  -7.871  0.00  0.00     0.038 A 
ATOM     17  H   LIG d   1       5.725  -2.279  -8.225  0.00  0.00     0.049 H 
ATOM     18  H   LIG d   1       4.442  -4.457  -8.549  0.00  0.00     0.046 H 
ATOM     19  H   LIG d   1       2.933  -3.669  -7.838  0.00  0.00     0.046 H 
BRANCH  15  20
ATOM     20  C   LIG d   1       3.974  -1.132  -7.452  0.00  0.00    -0.047 C 
ATOM     21  H   LIG d   1       4.575  -0.263  -7.717  0.00  0.00     0.025 H 
ATOM     22  H   LIG d   1       3.080  -1.160  -8.075  0.00  0.00     0.025 H 
ATOM     23  H   LIG d   1       3.684  -1.067  -6.403  0.00  0.00     0.025 H 
ENDBRANCH  15  20
ENDBRANCH  11  14
ENDBRANCH   4  11
BRANCH   1  24
ATOM     24  C   LIG d   1       4.660   0.838  -1.455  0.00  0.00    -0.040 C 
ATOM     25  H   LIG d   1       3.683   1.301  -1.602  0.00  0.00     0.028 H 
ATOM     26  H   LIG d   1       4.755   0.513  -0.419  0.00  0.00     0.028 H 
ATOM     27  H   LIG d   1       5.442   1.562  -1.680  0.00  0.00     0.028 H 
ENDBRANCH   1  24
TORSDOF 4
ENDMDL
MODEL 2
REMARK VINA RESULT:      -5.0      1.895      2.614
REMARK  4 active torsions:
REMARK  status: ('A' for Active; 'I' for Inactive)
REMARK    1  A    between atoms: C_1  and  C_2 
REMARK    2  A    between atoms: C_5  and  S_8 
REMARK    3  A    between atoms: S_8  and  N_11 
REMARK    4  A    between atoms: C_13  and  C_15 
ROOT
ATOM      1  C   LIG d   1       4.638  -0.199  -2.520  0.00  0.00    -0.050 A 
ATOM      2  C   LIG d   1       4.070  -1.414  -2.190  0.00  0.00    -0.057 A 
ATOM      3  C   LIG d   1       4.162  -2.480  -3.065  0.00  0.00    -0.035 A 
ATOM      4  C   LIG d   1       4.822  -2.331  -4.270  0.00  0.00     0.105 A 
ATOM      5  C   LIG d   1       5.395  -1.116  -4.598  0.00  0.00    -0.035 A 
ATOM      6  C   LIG d   1       5.298  -0.048  -3.725  0.00  0.00    -0.057 A 
ATOM      7  H   LIG d   1       3.554  -1.532  -1.249  0.00  0.00     0.062 H 
ATOM      8  H   LIG d   1       3.718  -3.431  -2.807  0.00  0.00     0.064 H 
ATOM      9  H   LIG d   1       5.915  -1.000  -5.537  0.00  0.00     0.064 H 
ATOM     10  H   LIG d   1       5.742   0.902  -3.983  0.00  0.00     0.062 H 
ENDROOT
BRANCH   4  11
ATOM     11  S   LIG d   1       4.940  -3.690  -5.386  0.00  0.00     0.061 S 
ATOM     12  O   LIG d   1       4.276  -4.782  -4.766  0.00  0.00    -0.153 OA
ATOM     13  O   LIG d   1       4.566  -3.198  -6.666  0.00  0.00    -0.153 OA
BRANCH  11  14
ATOM     14  N   LIG d   1       6.540  -4.104  -5.486  0.00  0.00    -0.171 N 
ATOM     15  C   LIG d   1       7.774  -4.497  -4.801  0.00  0.00     0.043 A 
ATOM     16  C   LIG d   1       7.722  -4.332  -6.321  0.00  0.00     0.038 A 
ATOM     17  H   LIG d   1       7.830  -5.508  -4.400  0.00  0.00     0.049 H 
ATOM     18  H   LIG d   1       7.743  -5.234  -6.932  0.00  0.00     0.046 H 
ATOM     19  H   LIG d   1       8.212  -3.459  -6.752  0.00  0.00     0.046 H 
BRANCH  15  20
ATOM     20  C   LIG d   1       8.513  -3.422  -4.000  0.00  0.00    -0.047 C 
ATOM     21  H   LIG d   1       7.793  -2.713  -3.592  0.00  0.00     0.025 H 
ATOM     22  H   LIG d   1       9.062  -3.892  -3.184  0.00  0.00     0.025 H 
ATOM     23  H   LIG d   1       9.211  -2.897  -4.653  0.00  0.00     0.025 H 
ENDBRANCH  15  20
ENDBRANCH  11  14
ENDBRANCH   4  11
BRANCH   1  24
ATOM     24  C   LIG d   1       4.537   0.963  -1.566  0.00  0.00    -0.040 C 
ATOM     25  H   LIG d   1       4.573   0.596  -0.540  0.00  0.00     0.028 H 
ATOM     26  H   LIG d   1       5.370   1.646  -1.736  0.00  0.00     0.028 H 
ATOM     27  H   LIG d   1       3.597   1.489  -1.731  0.00  0.00     0.028 H 
ENDBRANCH   1  24
TORSDOF 4
ENDMDL
MODEL 3
REMARK VINA RESULT:      -5.0      2.517      5.552
REMARK  4 active torsions:
REMARK  status: ('A' for Active; 'I' for Inactive)
REMARK    1  A    between atoms: C_1  and  C_2 
REMARK    2  A    between atoms: C_5  and  S_8 
REMARK    3  A    between atoms: S_8  and  N_11 
REMARK    4  A    between atoms: C_13  and  C_15 
ROOT
ATOM      1  C   LIG d   1       2.527  -0.852  -9.012  0.00  0.00    -0.050 A 
ATOM      2  C   LIG d   1       2.448   0.239  -8.166  0.00  0.00    -0.057 A 
ATOM      3  C   LIG d   1       3.196   0.267  -7.004  0.00  0.00    -0.035 A 
ATOM      4  C   LIG d   1       4.022  -0.795  -6.688  0.00  0.00     0.105 A 
ATOM      5  C   LIG d   1       4.105  -1.883  -7.536  0.00  0.00    -0.035 A 
ATOM      6  C   LIG d   1       3.353  -1.914  -8.696  0.00  0.00    -0.057 A 
ATOM      7  H   LIG d   1       1.802   1.068  -8.413  0.00  0.00     0.062 H 
ATOM      8  H   LIG d   1       3.135   1.119  -6.343  0.00  0.00     0.064 H 
ATOM      9  H   LIG d   1       4.754  -2.711  -7.291  0.00  0.00     0.064 H 
ATOM     10  H   LIG d   1       3.415  -2.766  -9.356  0.00  0.00     0.062 H 
ENDROOT
BRANCH   4  11
ATOM     11  S   LIG d   1       4.976  -0.758  -5.206  0.00  0.00     0.061 S 
ATOM     12  O   LIG d   1       5.377  -2.097  -4.949  0.00  0.00    -0.153 OA
ATOM     13  O   LIG d   1       5.911   0.303  -5.351  0.00  0.00    -0.153 OA
BRANCH  11  14
ATOM     14  N   LIG d   1       3.955  -0.326  -3.977  0.00  0.00    -0.171 N 
ATOM     15  C   LIG d   1       3.553   0.668  -2.978  0.00  0.00     0.043 A 
ATOM     16  C   LIG d   1       2.820  -0.669  -3.116  0.00  0.00     0.038 A 
ATOM     17  H   LIG d   1       3.046   1.565  -3.333  0.00  0.00     0.049 H 
ATOM     18  H   LIG d   1       1.826  -0.660  -3.563  0.00  0.00     0.046 H 
ATOM     19  H   LIG d   1       2.982  -1.416  -2.340  0.00  0.00     0.046 H 
BRANCH  15  20
ATOM     20  C   LIG d   1       4.457   0.854  -1.758  0.00  0.00    -0.047 C 
ATOM     21  H   LIG d   1       4.388  -0.025  -1.116  0.00  0.00     0.025 H 
ATOM     22  H   LIG d   1       5.488   0.983  -2.087  0.00  0.00     0.025 H 
ATOM     23  H   LIG d   1       4.140   1.736  -1.201  0.00  0.00     0.025 H 
ENDBRANCH  15  20
ENDBRANCH  11  14
ENDBRANCH   4  11
BRANCH   1  24
ATOM     24  C   LIG d   1       1.711  -0.883 -10.279  0.00  0.00    -0.040 C 
ATOM     25  H   LIG d   1       1.374   0.126 -10.519  0.00  0.00     0.028 H 
ATOM     26  H   LIG d   1       2.323  -1.265 -11.096  0.00  0.00     0.028 H 
ATOM     27  H   LIG d   1       0.847  -1.531 -10.139  0.00  0.00     0.028 H 
ENDBRANCH   1  24
TORSDOF 4
ENDMDL
MODEL 4
REMARK VINA RESULT:      -4.9      3.780      4.323
REMARK  4 active torsions:
REMARK  status: ('A' for Active; 'I' for Inactive)
REMARK    1  A    between atoms: C_1  and  C_2 
REMARK    2  A    between atoms: C_5  and  S_8 
REMARK    3  A    between atoms: S_8  and  N_11 
REMARK    4  A    between atoms: C_13  and  C_15 
ROOT
ATOM      1  C   LIG d   1       3.668  -1.257  -3.570  0.00  0.00    -0.050 A 
ATOM      2  C   LIG d   1       4.454  -1.694  -4.620  0.00  0.00    -0.057 A 
ATOM      3  C   LIG d   1       4.288  -1.151  -5.880  0.00  0.00    -0.035 A 
ATOM      4  C   LIG d   1       3.336  -0.170  -6.091  0.00  0.00     0.105 A 
ATOM      5  C   LIG d   1       2.554   0.271  -5.039  0.00  0.00    -0.035 A 
ATOM      6  C   LIG d   1       2.716  -0.276  -3.780  0.00  0.00    -0.057 A 
ATOM      7  H   LIG d   1       5.197  -2.459  -4.456  0.00  0.00     0.062 H 
ATOM      8  H   LIG d   1       4.902  -1.491  -6.701  0.00  0.00     0.064 H 
ATOM      9  H   LIG d   1       1.814   1.040  -5.203  0.00  0.00     0.064 H 
ATOM     10  H   LIG d   1       2.102   0.065  -2.960  0.00  0.00     0.062 H 
ENDROOT
BRANCH   4  11
ATOM     11  S   LIG d   1       3.125   0.523  -7.697  0.00  0.00     0.061 S 
ATOM     12  O   LIG d   1       2.170  -0.289  -8.366  0.00  0.00    -0.153 OA
ATOM     13  O   LIG d   1       2.943   1.921  -7.515  0.00  0.00    -0.153 OA
BRANCH  11  14
ATOM     14  N   LIG d   1       4.557   0.332  -8.505  0.00  0.00    -0.171 N 
ATOM     15  C   LIG d   1       6.003   0.566  -8.557  0.00  0.00     0.043 A 
ATOM     16  C   LIG d   1       5.274  -0.185  -9.674  0.00  0.00     0.038 A 
ATOM     17  H   LIG d   1       6.634  -0.011  -7.883  0.00  0.00     0.049 H 
ATOM     18  H   LIG d   1       5.420  -1.263  -9.741  0.00  0.00     0.046 H 
ATOM     19  H   LIG d   1       5.133   0.332 -10.622  0.00  0.00     0.046 H 
BRANCH  15  20
ATOM     20  C   LIG d   1       6.481   1.989  -8.860  0.00  0.00    -0.047 C 
ATOM     21  H   LIG d   1       6.476   2.577  -7.942  0.00  0.00     0.025 H 
ATOM     22  H   LIG d   1       7.492   1.954  -9.263  0.00  0.00     0.025 H 
ATOM     23  H   LIG d   1       5.814   2.449  -9.589  0.00  0.00     0.025 H 
ENDBRANCH  15  20
ENDBRANCH  11  14
ENDBRANCH   4  11
BRANCH   1  24
ATOM     24  C   LIG d   1       3.849  -1.849  -2.197  0.00  0.00    -0.040 C 
ATOM     25  H   LIG d   1       2.925  -1.741  -1.628  0.00  0.00     0.028 H 
ATOM     26  H   LIG d   1       4.097  -2.907  -2.287  0.00  0.00     0.028 H 
ATOM     27  H   LIG d   1       4.656  -1.331  -1.680  0.00  0.00     0.028 H 
ENDBRANCH   1  24
TORSDOF 4
ENDMDL
MODEL 5
REMARK VINA RESULT:      -4.8      2.165      3.140
REMARK  4 active torsions:
REMARK  status: ('A' for Active; 'I' for Inactive)
REMARK    1  A    between atoms: C_1  and  C_2 
REMARK    2  A    between atoms: C_5  and  S_8 
REMARK    3  A    between atoms: S_8  and  N_11 
REMARK    4  A    between atoms: C_13  and  C_15 
ROOT
ATOM      1  C   LIG d   1       4.693  -0.189  -2.486  0.00  0.00    -0.050 A 
ATOM      2  C   LIG d   1       5.567  -0.140  -3.555  0.00  0.00    -0.057 A 
ATOM      3  C   LIG d   1       5.689  -1.228  -4.398  0.00  0.00    -0.035 A 
ATOM      4  C   LIG d   1       4.936  -2.366  -4.172  0.00  0.00     0.105 A 
ATOM      5  C   LIG d   1       4.057  -2.412  -3.105  0.00  0.00    -0.035 A 
ATOM      6  C   LIG d   1       3.940  -1.325  -2.259  0.00  0.00    -0.057 A 
ATOM      7  H   LIG d   1       6.155   0.748  -3.733  0.00  0.00     0.062 H 
ATOM      8  H   LIG d   1       6.371  -1.192  -5.234  0.00  0.00     0.064 H 
ATOM      9  H   LIG d   1       3.466  -3.299  -2.931  0.00  0.00     0.064 H 
ATOM     10  H   LIG d   1       3.257  -1.363  -1.423  0.00  0.00     0.062 H 
ENDROOT
BRANCH   4  11
ATOM     11  S   LIG d   1       5.090  -3.754  -5.246  0.00  0.00     0.061 S 
ATOM     12  O   LIG d   1       4.282  -4.785  -4.696  0.00  0.00    -0.153 OA
ATOM     13  O   LIG d   1       4.907  -3.266  -6.569  0.00  0.00    -0.153 OA
BRANCH  11  14
ATOM     14  N   LIG d   1       6.657  -4.278  -5.148  0.00  0.00    -0.171 N 
ATOM     15  C   LIG d   1       7.706  -5.181  -5.631  0.00  0.00     0.043 A 
ATOM     16  C   LIG d   1       7.973  -4.171  -4.513  0.00  0.00     0.038 A 
ATOM     17  H   LIG d   1       8.134  -4.980  -6.612  0.00  0.00     0.049 H 
ATOM     18  H   LIG d   1       8.580  -3.297  -4.751  0.00  0.00     0.046 H 
ATOM     19  H   LIG d   1       8.078  -4.555  -3.499  0.00  0.00     0.046 H 
BRANCH  15  20
ATOM     20  C   LIG d   1       7.606  -6.657  -5.239  0.00  0.00    -0.047 C 
ATOM     21  H   LIG d   1       6.562  -6.918  -5.064  0.00  0.00     0.025 H 
ATOM     22  H   LIG d   1       8.005  -7.274  -6.044  0.00  0.00     0.025 H 
ATOM     23  H   LIG d   1       8.181  -6.831  -4.329  0.00  0.00     0.025 H 
ENDBRANCH  15  20
ENDBRANCH  11  14
ENDBRANCH   4  11
BRANCH   1  24
ATOM     24  C   LIG d   1       4.561   0.999  -1.567  0.00  0.00    -0.040 C 
ATOM     25  H   LIG d   1       5.071   0.789  -0.626  0.00  0.00     0.028 H 
ATOM     26  H   LIG d   1       5.012   1.873  -2.037  0.00  0.00     0.028 H 
ATOM     27  H   LIG d   1       3.507   1.194  -1.374  0.00  0.00     0.028 H 
ENDBRANCH   1  24
TORSDOF 4
ENDMDL
MODEL 6
REMARK VINA RESULT:      -4.8      3.620      4.197
REMARK  4 active torsions:
REMARK  status: ('A' for Active; 'I' for Inactive)
REMARK    1  A    between atoms: C_1  and  C_2 
REMARK    2  A    between atoms: C_5  and  S_8 
REMARK    3  A    between atoms: S_8  and  N_11 
REMARK    4  A    between atoms: C_13  and  C_15 
ROOT
ATOM      1  C   LIG d   1       3.663  -1.393  -3.569  0.00  0.00    -0.050 A 
ATOM      2  C   LIG d   1       4.526  -1.796  -4.570  0.00  0.00    -0.057 A 
ATOM      3  C   LIG d   1       4.497  -1.168  -5.801  0.00  0.00    -0.035 A 
ATOM      4  C   LIG d   1       3.604  -0.138  -6.031  0.00  0.00     0.105 A 
ATOM      5  C   LIG d   1       2.744   0.268  -5.027  0.00  0.00    -0.035 A 
ATOM      6  C   LIG d   1       2.769  -0.363  -3.798  0.00  0.00    -0.057 A 
ATOM      7  H   LIG d   1       5.223  -2.600  -4.391  0.00  0.00     0.062 H 
ATOM      8  H   LIG d   1       5.171  -1.482  -6.585  0.00  0.00     0.064 H 
ATOM      9  H   LIG d   1       2.049   1.075  -5.206  0.00  0.00     0.064 H 
ATOM     10  H   LIG d   1       2.095  -0.049  -3.016  0.00  0.00     0.062 H 
ENDROOT
BRANCH   4  11
ATOM     11  S   LIG d   1       3.566   0.662  -7.601  0.00  0.00     0.061 S 
ATOM     12  O   LIG d   1       2.737   1.806  -7.453  0.00  0.00    -0.153 OA
ATOM     13  O   LIG d   1       4.913   0.750  -8.044  0.00  0.00    -0.153 OA
BRANCH  11  14
ATOM     14  N   LIG d   1       2.787  -0.354  -8.650  0.00  0.00    -0.171 N 
ATOM     15  C   LIG d   1       2.677  -1.687  -9.248  0.00  0.00     0.043 A 
ATOM     16  C   LIG d   1       1.726  -0.554  -9.640  0.00  0.00     0.038 A 
ATOM     17  H   LIG d   1       2.284  -2.490  -8.626  0.00  0.00     0.049 H 
ATOM     18  H   LIG d   1       0.700  -0.604  -9.278  0.00  0.00     0.046 H 
ATOM     19  H   LIG d   1       1.858  -0.100 -10.622  0.00  0.00     0.046 H 
BRANCH  15  20
ATOM     20  C   LIG d   1       3.743  -2.098 -10.267  0.00  0.00    -0.047 C 
ATOM     21  H   LIG d   1       4.624  -2.467  -9.743  0.00  0.00     0.025 H 
ATOM     22  H   LIG d   1       3.347  -2.883 -10.910  0.00  0.00     0.025 H 
ATOM     23  H   LIG d   1       4.017  -1.235 -10.875  0.00  0.00     0.025 H 
ENDBRANCH  15  20
ENDBRANCH  11  14
ENDBRANCH   4  11
BRANCH   1  24
ATOM     24  C   LIG d   1       3.695  -2.078  -2.227  0.00  0.00    -0.040 C 
ATOM     25  H   LIG d   1       2.720  -2.520  -2.020  0.00  0.00     0.028 H 
ATOM     26  H   LIG d   1       4.454  -2.861  -2.237  0.00  0.00     0.028 H 
ATOM     27  H   LIG d   1       3.936  -1.350  -1.453  0.00  0.00     0.028 H 
ENDBRANCH   1  24
TORSDOF 4
ENDMDL
MODEL 7
REMARK VINA RESULT:      -4.6      4.484      5.971
REMARK  4 active torsions:
REMARK  status: ('A' for Active; 'I' for Inactive)
REMARK    1  A    between atoms: C_1  and  C_2 
REMARK    2  A    between atoms: C_5  and  S_8 
REMARK    3  A    between atoms: S_8  and  N_11 
REMARK    4  A    between atoms: C_13  and  C_15 
ROOT
ATOM      1  C   LIG d   1       5.327  -0.828  -2.642  0.00  0.00    -0.050 A 
ATOM      2  C   LIG d   1       6.256  -1.589  -3.325  0.00  0.00    -0.057 A 
ATOM      3  C   LIG d   1       7.259  -0.971  -4.048  0.00  0.00    -0.035 A 
ATOM      4  C   LIG d   1       7.333   0.410  -4.086  0.00  0.00     0.105 A 
ATOM      5  C   LIG d   1       6.406   1.171  -3.398  0.00  0.00    -0.035 A 
ATOM      6  C   LIG d   1       5.400   0.552  -2.680  0.00  0.00    -0.057 A 
ATOM      7  H   LIG d   1       6.199  -2.667  -3.296  0.00  0.00     0.062 H 
ATOM      8  H   LIG d   1       7.985  -1.564  -4.582  0.00  0.00     0.064 H 
ATOM      9  H   LIG d   1       6.466   2.249  -3.425  0.00  0.00     0.064 H 
ATOM     10  H   LIG d   1       4.674   1.147  -2.146  0.00  0.00     0.062 H 
ENDROOT
BRANCH   4  11
ATOM     11  S   LIG d   1       8.611   1.199  -5.007  0.00  0.00     0.061 S 
ATOM     12  O   LIG d   1       9.547   0.186  -5.351  0.00  0.00    -0.153 OA
ATOM     13  O   LIG d   1       7.969   2.006  -5.984  0.00  0.00    -0.153 OA
BRANCH  11  14
ATOM     14  N   LIG d   1       9.391   2.233  -3.976  0.00  0.00    -0.171 N 
ATOM     15  C   LIG d   1       9.431   3.537  -3.308  0.00  0.00     0.043 A 
ATOM     16  C   LIG d   1      10.529   2.493  -3.090  0.00  0.00     0.038 A 
ATOM     17  H   LIG d   1       8.726   3.711  -2.495  0.00  0.00     0.049 H 
ATOM     18  H   LIG d   1      10.554   1.973  -2.133  0.00  0.00     0.046 H 
ATOM     19  H   LIG d   1      11.498   2.675  -3.554  0.00  0.00     0.046 H 
BRANCH  15  20
ATOM     20  C   LIG d   1       9.779   4.759  -4.159  0.00  0.00    -0.047 C 
ATOM     21  H   LIG d   1       9.728   4.494  -5.215  0.00  0.00     0.025 H 
ATOM     22  H   LIG d   1       9.070   5.560  -3.951  0.00  0.00     0.025 H 
ATOM     23  H   LIG d   1      10.788   5.095  -3.918  0.00  0.00     0.025 H 
ENDBRANCH  15  20
ENDBRANCH  11  14
ENDBRANCH   4  11
BRANCH   1  24
ATOM     24  C   LIG d   1       4.233  -1.503  -1.854  0.00  0.00    -0.040 C 
ATOM     25  H   LIG d   1       3.723  -0.766  -1.234  0.00  0.00     0.028 H 
ATOM     26  H   LIG d   1       3.518  -1.957  -2.541  0.00  0.00     0.028 H 
ATOM     27  H   LIG d   1       4.666  -2.275  -1.219  0.00  0.00     0.028 H 
ENDBRANCH   1  24
TORSDOF 4
ENDMDL
MODEL 8
REMARK VINA RESULT:      -4.4      4.295      5.337
REMARK  4 active torsions:
REMARK  status: ('A' for Active; 'I' for Inactive)
REMARK    1  A    between atoms: C_1  and  C_2 
REMARK    2  A    between atoms: C_5  and  S_8 
REMARK    3  A    between atoms: S_8  and  N_11 
REMARK    4  A    between atoms: C_13  and  C_15 
ROOT
ATOM      1  C   LIG d   1       5.057  -1.157  -2.725  0.00  0.00    -0.050 A 
ATOM      2  C   LIG d   1       5.040   0.215  -2.562  0.00  0.00    -0.057 A 
ATOM      3  C   LIG d   1       6.050   0.988  -3.103  0.00  0.00    -0.035 A 
ATOM      4  C   LIG d   1       7.077   0.389  -3.808  0.00  0.00     0.105 A 
ATOM      5  C   LIG d   1       7.091  -0.984  -3.976  0.00  0.00    -0.035 A 
ATOM      6  C   LIG d   1       6.084  -1.757  -3.430  0.00  0.00    -0.057 A 
ATOM      7  H   LIG d   1       4.238   0.683  -2.012  0.00  0.00     0.062 H 
ATOM      8  H   LIG d   1       6.037   2.061  -2.976  0.00  0.00     0.064 H 
ATOM      9  H   LIG d   1       7.891  -1.451  -4.530  0.00  0.00     0.064 H 
ATOM     10  H   LIG d   1       6.098  -2.829  -3.557  0.00  0.00     0.062 H 
ENDROOT
BRANCH   4  11
ATOM     11  S   LIG d   1       8.365   1.374  -4.499  0.00  0.00     0.061 S 
ATOM     12  O   LIG d   1       7.770   2.159  -5.522  0.00  0.00    -0.153 OA
ATOM     13  O   LIG d   1       9.064   1.952  -3.405  0.00  0.00    -0.153 OA
BRANCH  11  14
ATOM     14  N   LIG d   1       9.423   0.343  -5.246  0.00  0.00    -0.171 N 
ATOM     15  C   LIG d   1      10.561  -0.573  -5.139  0.00  0.00     0.043 A 
ATOM     16  C   LIG d   1       9.885  -0.292  -6.483  0.00  0.00     0.038 A 
ATOM     17  H   LIG d   1      10.387  -1.543  -4.675  0.00  0.00     0.049 H 
ATOM     18  H   LIG d   1       9.262  -1.076  -6.913  0.00  0.00     0.046 H 
ATOM     19  H   LIG d   1      10.423   0.328  -7.199  0.00  0.00     0.046 H 
BRANCH  15  20
ATOM     20  C   LIG d   1      11.944   0.038  -4.903  0.00  0.00    -0.047 C 
ATOM     21  H   LIG d   1      12.162   0.044  -3.835  0.00  0.00     0.025 H 
ATOM     22  H   LIG d   1      12.696  -0.554  -5.425  0.00  0.00     0.025 H 
ATOM     23  H   LIG d   1      11.959   1.060  -5.282  0.00  0.00     0.025 H 
ENDBRANCH  15  20
ENDBRANCH  11  14
ENDBRANCH   4  11
BRANCH   1  24
ATOM     24  C   LIG d   1       3.956  -1.999  -2.135  0.00  0.00    -0.040 C 
ATOM     25  H   LIG d   1       4.124  -3.047  -2.386  0.00  0.00     0.028 H 
ATOM     26  H   LIG d   1       3.951  -1.883  -1.051  0.00  0.00     0.028 H 
ATOM     27  H   LIG d   1       2.996  -1.678  -2.538  0.00  0.00     0.028 H 
ENDBRANCH   1  24
TORSDOF 4
ENDMDL
MODEL 9
REMARK VINA RESULT:      -4.3      2.996      3.634
REMARK  4 active torsions:
REMARK  status: ('A' for Active; 'I' for Inactive)
REMARK    1  A    between atoms: C_1  and  C_2 
REMARK    2  A    between atoms: C_5  and  S_8 
REMARK    3  A    between atoms: S_8  and  N_11 
REMARK    4  A    between atoms: C_13  and  C_15 
ROOT
ATOM      1  C   LIG d   1       4.398  -1.529  -3.412  0.00  0.00    -0.050 A 
ATOM      2  C   LIG d   1       5.588  -1.968  -3.963  0.00  0.00    -0.057 A 
ATOM      3  C   LIG d   1       5.940  -1.580  -5.242  0.00  0.00    -0.035 A 
ATOM      4  C   LIG d   1       5.104  -0.754  -5.970  0.00  0.00     0.105 A 
ATOM      5  C   LIG d   1       3.917  -0.311  -5.416  0.00  0.00    -0.035 A 
ATOM      6  C   LIG d   1       3.562  -0.703  -4.139  0.00  0.00    -0.057 A 
ATOM      7  H   LIG d   1       6.241  -2.613  -3.395  0.00  0.00     0.062 H 
ATOM      8  H   LIG d   1       6.869  -1.923  -5.674  0.00  0.00     0.064 H 
ATOM      9  H   LIG d   1       3.266   0.338  -5.983  0.00  0.00     0.064 H 
ATOM     10  H   LIG d   1       2.633  -0.360  -3.708  0.00  0.00     0.062 H 
ENDROOT
BRANCH   4  11
ATOM     11  S   LIG d   1       5.553  -0.260  -7.601  0.00  0.00     0.061 S 
ATOM     12  O   LIG d   1       6.184   1.007  -7.481  0.00  0.00    -0.153 OA
ATOM     13  O   LIG d   1       6.196  -1.377  -8.201  0.00  0.00    -0.153 OA
BRANCH  11  14
ATOM     14  N   LIG d   1       4.149  -0.013  -8.442  0.00  0.00    -0.171 N 
ATOM     15  C   LIG d   1       3.352   0.854  -9.315  0.00  0.00     0.043 A 
ATOM     16  C   LIG d   1       2.826  -0.502  -8.837  0.00  0.00     0.038 A 
ATOM     17  H   LIG d   1       3.658   0.943 -10.356  0.00  0.00     0.049 H 
ATOM     18  H   LIG d   1       2.783  -1.315  -9.562  0.00  0.00     0.046 H 
ATOM     19  H   LIG d   1       2.041  -0.502  -8.081  0.00  0.00     0.046 H 
BRANCH  15  20
ATOM     20  C   LIG d   1       2.733   2.108  -8.694  0.00  0.00    -0.047 C 
ATOM     21  H   LIG d   1       3.337   2.430  -7.845  0.00  0.00     0.025 H 
ATOM     22  H   LIG d   1       2.700   2.903  -9.439  0.00  0.00     0.025 H 
ATOM     23  H   LIG d   1       1.721   1.885  -8.356  0.00  0.00     0.025 H 
ENDBRANCH  15  20
ENDBRANCH  11  14
ENDBRANCH   4  11
BRANCH   1  24
ATOM     24  C   LIG d   1       4.015  -1.951  -2.017  0.00  0.00    -0.040 C 
ATOM     25  H   LIG d   1       3.231  -2.708  -2.069  0.00  0.00     0.028 H 
ATOM     26  H   LIG d   1       4.886  -2.366  -1.510  0.00  0.00     0.028 H 
ATOM     27  H   LIG d   1       3.650  -1.087  -1.463  0.00  0.00     0.028 H 
ENDBRANCH   1  24
TORSDOF 4
ENDMDL
MODEL 10
REMARK VINA RESULT:      -4.2      4.692      7.315
REMARK  4 active torsions:
REMARK  status: ('A' for Active; 'I' for Inactive)
REMARK    1  A    between atoms: C_1  and  C_2 
REMARK    2  A    between atoms: C_5  and  S_8 
REMARK    3  A    between atoms: S_8  and  N_11 
REMARK    4  A    between atoms: C_13  and  C_15 
ROOT
ATOM      1  C   LIG d   1       2.016  -1.133 -11.718  0.00  0.00    -0.050 A 
ATOM      2  C   LIG d   1       1.380  -1.140 -10.491  0.00  0.00    -0.057 A 
ATOM      3  C   LIG d   1       1.899  -0.408  -9.439  0.00  0.00    -0.035 A 
ATOM      4  C   LIG d   1       3.054   0.332  -9.615  0.00  0.00     0.105 A 
ATOM      5  C   LIG d   1       3.687   0.343 -10.845  0.00  0.00    -0.035 A 
ATOM      6  C   LIG d   1       3.171  -0.394 -11.894  0.00  0.00    -0.057 A 
ATOM      7  H   LIG d   1       0.478  -1.717 -10.353  0.00  0.00     0.062 H 
ATOM      8  H   LIG d   1       1.402  -0.413  -8.480  0.00  0.00     0.064 H 
ATOM      9  H   LIG d   1       4.586   0.924 -10.983  0.00  0.00     0.064 H 
ATOM     10  H   LIG d   1       3.668  -0.388 -12.853  0.00  0.00     0.062 H 
ENDROOT
BRANCH   4  11
ATOM     11  S   LIG d   1       3.715   1.266  -8.275  0.00  0.00     0.061 S 
ATOM     12  O   LIG d   1       5.096   1.451  -8.553  0.00  0.00    -0.153 OA
ATOM     13  O   LIG d   1       2.828   2.356  -8.063  0.00  0.00    -0.153 OA
BRANCH  11  14
ATOM     14  N   LIG d   1       3.627   0.313  -6.924  0.00  0.00    -0.171 N 
ATOM     15  C   LIG d   1       2.851  -0.151  -5.771  0.00  0.00     0.043 A 
ATOM     16  C   LIG d   1       4.272  -0.656  -6.034  0.00  0.00     0.038 A 
ATOM     17  H   LIG d   1       2.024  -0.835  -5.960  0.00  0.00     0.049 H 
ATOM     18  H   LIG d   1       4.390  -1.676  -6.398  0.00  0.00     0.046 H 
ATOM     19  H   LIG d   1       5.065  -0.293  -5.382  0.00  0.00     0.046 H 
BRANCH  15  20
ATOM     20  C   LIG d   1       2.653   0.825  -4.610  0.00  0.00    -0.047 C 
ATOM     21  H   LIG d   1       3.583   1.363  -4.423  0.00  0.00     0.025 H 
ATOM     22  H   LIG d   1       1.867   1.536  -4.863  0.00  0.00     0.025 H 
ATOM     23  H   LIG d   1       2.368   0.273  -3.714  0.00  0.00     0.025 H 
ENDBRANCH  15  20
ENDBRANCH  11  14
ENDBRANCH   4  11
BRANCH   1  24
ATOM     24  C   LIG d   1       1.450  -1.931 -12.863  0.00  0.00    -0.040 C 
ATOM     25  H   LIG d   1       1.742  -1.471 -13.808  0.00  0.00     0.028 H 
ATOM     26  H   LIG d   1       1.836  -2.950 -12.822  0.00  0.00     0.028 H 
ATOM     27  H   LIG d   1       0.363  -1.953 -12.790  0.00  0.00     0.028 H 
ENDBRANCH   1  24
TORSDOF 4
ENDMDL
