MODEL 1
REMARK VINA RESULT:      -7.4      0.000      0.000
REMARK  4 active torsions:
REMARK  status: ('A' for Active; 'I' for Inactive)
REMARK    1  A    between atoms: C_4  and  C_7 
REMARK    2  A    between atoms: C_7  and  O_8 
REMARK    3  A    between atoms: O_8  and  C_9 
REMARK    4  A    between atoms: CA_18  and  C_19 
ROOT
ATOM      1  C   LIG d   1       3.349   0.181  -7.088  0.00  0.00     0.149 A 
ATOM      2  C   LIG d   1       2.293   0.128  -7.976  0.00  0.00    -0.009 A 
ATOM      3  C   LIG d   1       2.452  -0.625  -9.152  0.00  0.00     0.004 A 
ATOM      4  C   LIG d   1       1.419  -0.722 -10.100  0.00  0.00    -0.052 A 
ATOM      5  C   LIG d   1       1.608  -1.459 -11.228  0.00  0.00    -0.061 A 
ATOM      6  C   LIG d   1       2.815  -2.121 -11.458  0.00  0.00    -0.060 A 
ATOM      7  C   LIG d   1       3.837  -2.050 -10.564  0.00  0.00    -0.036 A 
ATOM      8  C   LIG d   1       3.682  -1.297  -9.383  0.00  0.00     0.072 A 
ATOM      9  N   LIG d   1       4.669  -1.212  -8.495  0.00  0.00    -0.242 NA
ATOM     10  CA  LIG d   1       4.541  -0.506  -7.387  0.00  0.00     0.128 A 
ATOM     11  H   LIG d   1       1.369   0.650  -7.772  0.00  0.00     0.066 H 
ATOM     12  H   LIG d   1       0.480  -0.216  -9.934  0.00  0.00     0.062 H 
ATOM     13  H   LIG d   1       0.813  -1.534 -11.955  0.00  0.00     0.062 H 
ATOM     14  H   LIG d   1       2.939  -2.700 -12.361  0.00  0.00     0.062 H 
ATOM     15  H   LIG d   1       4.763  -2.569 -10.758  0.00  0.00     0.064 H 
ENDROOT
BRANCH   1  16
ATOM     16  O   LIG d   1       3.241   0.896  -5.939  0.00  0.00    -0.485 OA
BRANCH  16  17
ATOM     17  C   LIG d   1       2.345   0.396  -4.946  0.00  0.00     0.115 C 
ATOM     18  H   LIG d   1       1.792  -0.452  -5.350  0.00  0.00     0.075 H 
ATOM     19  H   LIG d   1       1.645   1.181  -4.659  0.00  0.00     0.075 H 
BRANCH  17  20
ATOM     20  C   LIG d   1       3.130  -0.045  -3.737  0.00  0.00    -0.010 A 
ATOM     21  C   LIG d   1       3.762   0.892  -2.944  0.00  0.00    -0.055 A 
ATOM     22  C   LIG d   1       4.483   0.488  -1.835  0.00  0.00    -0.061 A 
ATOM     23  H   LIG d   1       3.695   1.941  -3.190  0.00  0.00     0.062 H 
ATOM     24  C   LIG d   1       4.570  -0.856  -1.521  0.00  0.00    -0.062 A 
ATOM     25  H   LIG d   1       4.976   1.220  -1.215  0.00  0.00     0.062 H 
ATOM     26  C   LIG d   1       3.937  -1.794  -2.315  0.00  0.00    -0.061 A 
ATOM     27  H   LIG d   1       5.128  -1.172  -0.652  0.00  0.00     0.062 H 
ATOM     28  C   LIG d   1       3.217  -1.389  -3.423  0.00  0.00    -0.055 A 
ATOM     29  H   LIG d   1       4.005  -2.844  -2.069  0.00  0.00     0.062 H 
ATOM     30  H   LIG d   1       2.722  -2.122  -4.044  0.00  0.00     0.062 H 
ENDBRANCH  17  20
ENDBRANCH  16  17
ENDBRANCH   1  16
BRANCH  10  31
ATOM     31  C   LIG d   1       5.673  -0.440  -6.436  0.00  0.00     0.093 C 
ATOM     32  O   LIG d   1       5.869  -1.353  -5.660  0.00  0.00    -0.543 OA
ATOM     33  OXT LIG d   1       6.486   0.634  -6.431  0.00  0.00    -0.543 OA
ENDBRANCH  10  31
TORSDOF 4
ENDMDL
MODEL 2
REMARK VINA RESULT:      -7.1      1.022      1.251
REMARK  4 active torsions:
REMARK  status: ('A' for Active; 'I' for Inactive)
REMARK    1  A    between atoms: C_4  and  C_7 
REMARK    2  A    between atoms: C_7  and  O_8 
REMARK    3  A    between atoms: O_8  and  C_9 
REMARK    4  A    between atoms: CA_18  and  C_19 
ROOT
ATOM      1  C   LIG d   1       3.700   0.245  -7.630  0.00  0.00     0.149 A 
ATOM      2  C   LIG d   1       2.467  -0.073  -8.164  0.00  0.00    -0.009 A 
ATOM      3  C   LIG d   1       2.408  -0.451  -9.516  0.00  0.00     0.004 A 
ATOM      4  C   LIG d   1       1.187  -0.787 -10.125  0.00  0.00    -0.052 A 
ATOM      5  C   LIG d   1       1.166  -1.147 -11.438  0.00  0.00    -0.061 A 
ATOM      6  C   LIG d   1       2.342  -1.187 -12.188  0.00  0.00    -0.060 A 
ATOM      7  C   LIG d   1       3.541  -0.869 -11.634  0.00  0.00    -0.036 A 
ATOM      8  C   LIG d   1       3.606  -0.490 -10.278  0.00  0.00     0.072 A 
ATOM      9  N   LIG d   1       4.769  -0.172  -9.714  0.00  0.00    -0.242 NA
ATOM     10  CA  LIG d   1       4.845   0.189  -8.448  0.00  0.00     0.128 A 
ATOM     11  H   LIG d   1       1.573  -0.034  -7.559  0.00  0.00     0.066 H 
ATOM     12  H   LIG d   1       0.270  -0.761  -9.556  0.00  0.00     0.062 H 
ATOM     13  H   LIG d   1       0.227  -1.406 -11.904  0.00  0.00     0.062 H 
ATOM     14  H   LIG d   1       2.297  -1.477 -13.228  0.00  0.00     0.062 H 
ATOM     15  H   LIG d   1       4.440  -0.906 -12.230  0.00  0.00     0.064 H 
ENDROOT
BRANCH   1  16
ATOM     16  O   LIG d   1       3.807   0.615  -6.328  0.00  0.00    -0.485 OA
BRANCH  16  17
ATOM     17  C   LIG d   1       2.763   0.196  -5.447  0.00  0.00     0.115 C 
ATOM     18  H   LIG d   1       2.298  -0.708  -5.840  0.00  0.00     0.075 H 
ATOM     19  H   LIG d   1       2.015   0.985  -5.369  0.00  0.00     0.075 H 
BRANCH  17  20
ATOM     20  C   LIG d   1       3.340  -0.087  -4.084  0.00  0.00    -0.010 A 
ATOM     21  C   LIG d   1       3.747   0.958  -3.275  0.00  0.00    -0.055 A 
ATOM     22  C   LIG d   1       4.277   0.699  -2.025  0.00  0.00    -0.061 A 
ATOM     23  H   LIG d   1       3.653   1.976  -3.621  0.00  0.00     0.062 H 
ATOM     24  C   LIG d   1       4.399  -0.606  -1.583  0.00  0.00    -0.062 A 
ATOM     25  H   LIG d   1       4.594   1.514  -1.393  0.00  0.00     0.062 H 
ATOM     26  C   LIG d   1       3.991  -1.651  -2.392  0.00  0.00    -0.061 A 
ATOM     27  H   LIG d   1       4.807  -0.809  -0.605  0.00  0.00     0.062 H 
ATOM     28  C   LIG d   1       3.462  -1.391  -3.642  0.00  0.00    -0.055 A 
ATOM     29  H   LIG d   1       4.086  -2.670  -2.047  0.00  0.00     0.062 H 
ATOM     30  H   LIG d   1       3.144  -2.207  -4.274  0.00  0.00     0.062 H 
ENDBRANCH  17  20
ENDBRANCH  16  17
ENDBRANCH   1  16
BRANCH  10  31
ATOM     31  C   LIG d   1       6.164   0.539  -7.872  0.00  0.00     0.093 C 
ATOM     32  O   LIG d   1       6.587   1.673  -7.967  0.00  0.00    -0.543 OA
ATOM     33  OXT LIG d   1       6.893  -0.402  -7.243  0.00  0.00    -0.543 OA
ENDBRANCH  10  31
TORSDOF 4
ENDMDL
MODEL 3
REMARK VINA RESULT:      -7.1      2.473      6.359
REMARK  4 active torsions:
REMARK  status: ('A' for Active; 'I' for Inactive)
REMARK    1  A    between atoms: C_4  and  C_7 
REMARK    2  A    between atoms: C_7  and  O_8 
REMARK    3  A    between atoms: O_8  and  C_9 
REMARK    4  A    between atoms: CA_18  and  C_19 
ROOT
ATOM      1  C   LIG d   1       4.515  -1.966  -6.380  0.00  0.00     0.149 A 
ATOM      2  C   LIG d   1       4.495  -0.734  -5.757  0.00  0.00    -0.009 A 
ATOM      3  C   LIG d   1       4.461  -0.702  -4.352  0.00  0.00     0.004 A 
ATOM      4  C   LIG d   1       4.438   0.517  -3.652  0.00  0.00    -0.052 A 
ATOM      5  C   LIG d   1       4.404   0.512  -2.292  0.00  0.00    -0.061 A 
ATOM      6  C   LIG d   1       4.393  -0.689  -1.580  0.00  0.00    -0.060 A 
ATOM      7  C   LIG d   1       4.415  -1.886  -2.222  0.00  0.00    -0.036 A 
ATOM      8  C   LIG d   1       4.449  -1.924  -3.631  0.00  0.00     0.072 A 
ATOM      9  N   LIG d   1       4.469  -3.086  -4.281  0.00  0.00    -0.242 NA
ATOM     10  CA  LIG d   1       4.496  -3.138  -5.599  0.00  0.00     0.128 A 
ATOM     11  H   LIG d   1       4.504   0.180  -6.333  0.00  0.00     0.066 H 
ATOM     12  H   LIG d   1       4.447   1.453  -4.191  0.00  0.00     0.062 H 
ATOM     13  H   LIG d   1       4.387   1.448  -1.756  0.00  0.00     0.062 H 
ATOM     14  H   LIG d   1       4.367  -0.665  -0.501  0.00  0.00     0.062 H 
ATOM     15  H   LIG d   1       4.406  -2.805  -1.656  0.00  0.00     0.064 H 
ENDROOT
BRANCH   1  16
ATOM     16  O   LIG d   1       4.548  -2.047  -7.735  0.00  0.00    -0.485 OA
BRANCH  16  17
ATOM     17  C   LIG d   1       3.345  -1.724  -8.433  0.00  0.00     0.115 C 
ATOM     18  H   LIG d   1       2.497  -1.803  -7.752  0.00  0.00     0.075 H 
ATOM     19  H   LIG d   1       3.209  -2.416  -9.263  0.00  0.00     0.075 H 
BRANCH  17  20
ATOM     20  C   LIG d   1       3.434  -0.315  -8.962  0.00  0.00    -0.010 A 
ATOM     21  C   LIG d   1       2.700   0.694  -8.368  0.00  0.00    -0.055 A 
ATOM     22  C   LIG d   1       2.782   1.986  -8.853  0.00  0.00    -0.061 A 
ATOM     23  H   LIG d   1       2.062   0.473  -7.526  0.00  0.00     0.062 H 
ATOM     24  C   LIG d   1       3.599   2.268  -9.933  0.00  0.00    -0.062 A 
ATOM     25  H   LIG d   1       2.209   2.774  -8.390  0.00  0.00     0.062 H 
ATOM     26  C   LIG d   1       4.333   1.258 -10.527  0.00  0.00    -0.061 A 
ATOM     27  H   LIG d   1       3.667   3.278 -10.309  0.00  0.00     0.062 H 
ATOM     28  C   LIG d   1       4.251  -0.033 -10.041  0.00  0.00    -0.055 A 
ATOM     29  H   LIG d   1       4.971   1.479 -11.370  0.00  0.00     0.062 H 
ATOM     30  H   LIG d   1       4.824  -0.822 -10.505  0.00  0.00     0.062 H 
ENDBRANCH  17  20
ENDBRANCH  16  17
ENDBRANCH   1  16
BRANCH  10  31
ATOM     31  C   LIG d   1       4.511  -4.456  -6.272  0.00  0.00     0.093 C 
ATOM     32  O   LIG d   1       5.531  -4.862  -6.790  0.00  0.00    -0.543 OA
ATOM     33  OXT LIG d   1       3.392  -5.206  -6.308  0.00  0.00    -0.543 OA
ENDBRANCH  10  31
TORSDOF 4
ENDMDL
MODEL 4
REMARK VINA RESULT:      -6.4      5.199      7.243
REMARK  4 active torsions:
REMARK  status: ('A' for Active; 'I' for Inactive)
REMARK    1  A    between atoms: C_4  and  C_7 
REMARK    2  A    between atoms: C_7  and  O_8 
REMARK    3  A    between atoms: O_8  and  C_9 
REMARK    4  A    between atoms: CA_18  and  C_19 
ROOT
ATOM      1  C   LIG d   1       8.131   0.902  -4.384  0.00  0.00     0.149 A 
ATOM      2  C   LIG d   1       7.125   1.396  -3.578  0.00  0.00    -0.009 A 
ATOM      3  C   LIG d   1       6.166   0.494  -3.086  0.00  0.00     0.004 A 
ATOM      4  C   LIG d   1       5.114   0.929  -2.261  0.00  0.00    -0.052 A 
ATOM      5  C   LIG d   1       4.202   0.028  -1.803  0.00  0.00    -0.061 A 
ATOM      6  C   LIG d   1       4.297  -1.323  -2.141  0.00  0.00    -0.060 A 
ATOM      7  C   LIG d   1       5.299  -1.779  -2.937  0.00  0.00    -0.036 A 
ATOM      8  C   LIG d   1       6.264  -0.879  -3.432  0.00  0.00     0.072 A 
ATOM      9  N   LIG d   1       7.254  -1.304  -4.214  0.00  0.00    -0.242 NA
ATOM     10  CA  LIG d   1       8.161  -0.473  -4.691  0.00  0.00     0.128 A 
ATOM     11  H   LIG d   1       7.076   2.447  -3.332  0.00  0.00     0.066 H 
ATOM     12  H   LIG d   1       5.030   1.971  -1.991  0.00  0.00     0.062 H 
ATOM     13  H   LIG d   1       3.396   0.363  -1.168  0.00  0.00     0.062 H 
ATOM     14  H   LIG d   1       3.560  -2.016  -1.764  0.00  0.00     0.062 H 
ATOM     15  H   LIG d   1       5.357  -2.828  -3.187  0.00  0.00     0.064 H 
ENDROOT
BRANCH   1  16
ATOM     16  O   LIG d   1       9.080   1.735  -4.883  0.00  0.00    -0.485 OA
BRANCH  16  17
ATOM     17  C   LIG d   1      10.048   2.240  -3.962  0.00  0.00     0.115 C 
ATOM     18  H   LIG d   1      11.050   2.038  -4.341  0.00  0.00     0.075 H 
ATOM     19  H   LIG d   1       9.920   1.751  -2.996  0.00  0.00     0.075 H 
BRANCH  17  20
ATOM     20  C   LIG d   1       9.861   3.727  -3.802  0.00  0.00    -0.010 A 
ATOM     21  C   LIG d   1      10.159   4.336  -2.598  0.00  0.00    -0.055 A 
ATOM     22  C   LIG d   1       9.987   5.699  -2.451  0.00  0.00    -0.061 A 
ATOM     23  H   LIG d   1      10.526   3.746  -1.772  0.00  0.00     0.062 H 
ATOM     24  C   LIG d   1       9.517   6.454  -3.510  0.00  0.00    -0.062 A 
ATOM     25  H   LIG d   1      10.221   6.175  -1.511  0.00  0.00     0.062 H 
ATOM     26  C   LIG d   1       9.218   5.845  -4.715  0.00  0.00    -0.061 A 
ATOM     27  H   LIG d   1       9.388   7.520  -3.397  0.00  0.00     0.062 H 
ATOM     28  C   LIG d   1       9.390   4.482  -4.861  0.00  0.00    -0.055 A 
ATOM     29  H   LIG d   1       8.851   6.435  -5.542  0.00  0.00     0.062 H 
ATOM     30  H   LIG d   1       9.157   4.006  -5.802  0.00  0.00     0.062 H 
ENDBRANCH  17  20
ENDBRANCH  16  17
ENDBRANCH   1  16
BRANCH  10  31
ATOM     31  C   LIG d   1       9.238  -0.996  -5.561  0.00  0.00     0.093 C 
ATOM     32  O   LIG d   1      10.267  -1.413  -5.070  0.00  0.00    -0.543 OA
ATOM     33  OXT LIG d   1       9.075  -1.011  -6.898  0.00  0.00    -0.543 OA
ENDBRANCH  10  31
TORSDOF 4
ENDMDL
MODEL 5
REMARK VINA RESULT:      -6.3      1.779      6.414
REMARK  4 active torsions:
REMARK  status: ('A' for Active; 'I' for Inactive)
REMARK    1  A    between atoms: C_4  and  C_7 
REMARK    2  A    between atoms: C_7  and  O_8 
REMARK    3  A    between atoms: O_8  and  C_9 
REMARK    4  A    between atoms: CA_18  and  C_19 
ROOT
ATOM      1  C   LIG d   1       3.945  -0.156  -7.127  0.00  0.00     0.149 A 
ATOM      2  C   LIG d   1       3.242   0.173  -5.984  0.00  0.00    -0.009 A 
ATOM      3  C   LIG d   1       3.453  -0.602  -4.830  0.00  0.00     0.004 A 
ATOM      4  C   LIG d   1       2.772  -0.324  -3.633  0.00  0.00    -0.052 A 
ATOM      5  C   LIG d   1       2.999  -1.095  -2.535  0.00  0.00    -0.061 A 
ATOM      6  C   LIG d   1       3.900  -2.159  -2.580  0.00  0.00    -0.060 A 
ATOM      7  C   LIG d   1       4.577  -2.458  -3.720  0.00  0.00    -0.036 A 
ATOM      8  C   LIG d   1       4.370  -1.684  -4.880  0.00  0.00     0.072 A 
ATOM      9  N   LIG d   1       5.021  -1.960  -6.008  0.00  0.00    -0.242 NA
ATOM     10  CA  LIG d   1       4.834  -1.248  -7.103  0.00  0.00     0.128 A 
ATOM     11  H   LIG d   1       2.551   1.003  -5.977  0.00  0.00     0.066 H 
ATOM     12  H   LIG d   1       2.072   0.497  -3.584  0.00  0.00     0.062 H 
ATOM     13  H   LIG d   1       2.475  -0.879  -1.616  0.00  0.00     0.062 H 
ATOM     14  H   LIG d   1       4.062  -2.755  -1.695  0.00  0.00     0.062 H 
ATOM     15  H   LIG d   1       5.272  -3.285  -3.737  0.00  0.00     0.064 H 
ENDROOT
BRANCH   1  16
ATOM     16  O   LIG d   1       3.775   0.563  -8.265  0.00  0.00    -0.485 OA
BRANCH  16  17
ATOM     17  C   LIG d   1       2.504   0.465  -8.910  0.00  0.00     0.115 C 
ATOM     18  H   LIG d   1       2.058   1.457  -8.986  0.00  0.00     0.075 H 
ATOM     19  H   LIG d   1       1.849  -0.183  -8.327  0.00  0.00     0.075 H 
BRANCH  17  20
ATOM     20  C   LIG d   1       2.684  -0.112 -10.290  0.00  0.00    -0.010 A 
ATOM     21  C   LIG d   1       3.799   0.217 -11.038  0.00  0.00    -0.055 A 
ATOM     22  C   LIG d   1       3.964  -0.312 -12.304  0.00  0.00    -0.061 A 
ATOM     23  H   LIG d   1       4.541   0.889 -10.632  0.00  0.00     0.062 H 
ATOM     24  C   LIG d   1       3.013  -1.172 -12.823  0.00  0.00    -0.062 A 
ATOM     25  H   LIG d   1       4.835  -0.055 -12.887  0.00  0.00     0.062 H 
ATOM     26  C   LIG d   1       1.898  -1.501 -12.075  0.00  0.00    -0.061 A 
ATOM     27  H   LIG d   1       3.144  -1.589 -13.809  0.00  0.00     0.062 H 
ATOM     28  C   LIG d   1       1.733  -0.971 -10.809  0.00  0.00    -0.055 A 
ATOM     29  H   LIG d   1       1.155  -2.172 -12.480  0.00  0.00     0.062 H 
ATOM     30  H   LIG d   1       0.861  -1.228 -10.225  0.00  0.00     0.062 H 
ENDBRANCH  17  20
ENDBRANCH  16  17
ENDBRANCH   1  16
BRANCH  10  31
ATOM     31  C   LIG d   1       5.580  -1.601  -8.332  0.00  0.00     0.093 C 
ATOM     32  O   LIG d   1       6.634  -1.053  -8.582  0.00  0.00    -0.543 OA
ATOM     33  OXT LIG d   1       5.088  -2.531  -9.174  0.00  0.00    -0.543 OA
ENDBRANCH  10  31
TORSDOF 4
ENDMDL
MODEL 6
REMARK VINA RESULT:      -6.3      1.772      6.564
REMARK  4 active torsions:
REMARK  status: ('A' for Active; 'I' for Inactive)
REMARK    1  A    between atoms: C_4  and  C_7 
REMARK    2  A    between atoms: C_7  and  O_8 
REMARK    3  A    between atoms: O_8  and  C_9 
REMARK    4  A    between atoms: CA_18  and  C_19 
ROOT
ATOM      1  C   LIG d   1       4.697  -1.065  -7.259  0.00  0.00     0.149 A 
ATOM      2  C   LIG d   1       4.952  -1.932  -6.215  0.00  0.00    -0.009 A 
ATOM      3  C   LIG d   1       4.369  -1.654  -4.966  0.00  0.00     0.004 A 
ATOM      4  C   LIG d   1       4.587  -2.493  -3.859  0.00  0.00    -0.052 A 
ATOM      5  C   LIG d   1       4.008  -2.194  -2.664  0.00  0.00    -0.061 A 
ATOM      6  C   LIG d   1       3.200  -1.065  -2.522  0.00  0.00    -0.060 A 
ATOM      7  C   LIG d   1       2.968  -0.231  -3.569  0.00  0.00    -0.036 A 
ATOM      8  C   LIG d   1       3.549  -0.505  -4.824  0.00  0.00     0.072 A 
ATOM      9  N   LIG d   1       3.336   0.299  -5.863  0.00  0.00    -0.242 NA
ATOM     10  CA  LIG d   1       3.877   0.060  -7.042  0.00  0.00     0.128 A 
ATOM     11  H   LIG d   1       5.581  -2.799  -6.353  0.00  0.00     0.066 H 
ATOM     12  H   LIG d   1       5.209  -3.370  -3.956  0.00  0.00     0.062 H 
ATOM     13  H   LIG d   1       4.175  -2.840  -1.815  0.00  0.00     0.062 H 
ATOM     14  H   LIG d   1       2.753  -0.851  -1.563  0.00  0.00     0.062 H 
ATOM     15  H   LIG d   1       2.339   0.638  -3.441  0.00  0.00     0.064 H 
ENDROOT
BRANCH   1  16
ATOM     16  O   LIG d   1       5.237  -1.292  -8.484  0.00  0.00    -0.485 OA
BRANCH  16  17
ATOM     17  C   LIG d   1       4.792  -2.455  -9.183  0.00  0.00     0.115 C 
ATOM     18  H   LIG d   1       4.491  -3.218  -8.465  0.00  0.00     0.075 H 
ATOM     19  H   LIG d   1       5.603  -2.839  -9.802  0.00  0.00     0.075 H 
BRANCH  17  20
ATOM     20  C   LIG d   1       3.619  -2.096 -10.058  0.00  0.00    -0.010 A 
ATOM     21  C   LIG d   1       2.355  -2.561  -9.745  0.00  0.00    -0.055 A 
ATOM     22  C   LIG d   1       1.279  -2.233 -10.547  0.00  0.00    -0.061 A 
ATOM     23  H   LIG d   1       2.210  -3.182  -8.873  0.00  0.00     0.062 H 
ATOM     24  C   LIG d   1       1.466  -1.439 -11.664  0.00  0.00    -0.062 A 
ATOM     25  H   LIG d   1       0.292  -2.595 -10.303  0.00  0.00     0.062 H 
ATOM     26  C   LIG d   1       2.730  -0.974 -11.977  0.00  0.00    -0.061 A 
ATOM     27  H   LIG d   1       0.625  -1.178 -12.288  0.00  0.00     0.062 H 
ATOM     28  C   LIG d   1       3.806  -1.302 -11.175  0.00  0.00    -0.055 A 
ATOM     29  H   LIG d   1       2.876  -0.354 -12.849  0.00  0.00     0.062 H 
ATOM     30  H   LIG d   1       4.794  -0.939 -11.419  0.00  0.00     0.062 H 
ENDBRANCH  17  20
ENDBRANCH  16  17
ENDBRANCH   1  16
BRANCH  10  31
ATOM     31  C   LIG d   1       3.613   0.989  -8.163  0.00  0.00     0.093 C 
ATOM     32  O   LIG d   1       4.448   1.811  -8.481  0.00  0.00    -0.543 OA
ATOM     33  OXT LIG d   1       2.445   0.924  -8.830  0.00  0.00    -0.543 OA
ENDBRANCH  10  31
TORSDOF 4
ENDMDL
MODEL 7
REMARK VINA RESULT:      -6.3      1.741      2.646
REMARK  4 active torsions:
REMARK  status: ('A' for Active; 'I' for Inactive)
REMARK    1  A    between atoms: C_4  and  C_7 
REMARK    2  A    between atoms: C_7  and  O_8 
REMARK    3  A    between atoms: O_8  and  C_9 
REMARK    4  A    between atoms: CA_18  and  C_19 
ROOT
ATOM      1  C   LIG d   1       3.703  -0.365  -7.915  0.00  0.00     0.149 A 
ATOM      2  C   LIG d   1       3.542  -1.702  -8.223  0.00  0.00    -0.009 A 
ATOM      3  C   LIG d   1       2.745  -2.034  -9.332  0.00  0.00     0.004 A 
ATOM      4  C   LIG d   1       2.537  -3.374  -9.703  0.00  0.00    -0.052 A 
ATOM      5  C   LIG d   1       1.759  -3.661 -10.782  0.00  0.00    -0.061 A 
ATOM      6  C   LIG d   1       1.164  -2.642 -11.527  0.00  0.00    -0.060 A 
ATOM      7  C   LIG d   1       1.342  -1.335 -11.199  0.00  0.00    -0.036 A 
ATOM      8  C   LIG d   1       2.140  -0.996 -10.088  0.00  0.00     0.072 A 
ATOM      9  N   LIG d   1       2.327   0.277  -9.747  0.00  0.00    -0.242 NA
ATOM     10  CA  LIG d   1       3.067   0.611  -8.707  0.00  0.00     0.128 A 
ATOM     11  H   LIG d   1       4.015  -2.470  -7.629  0.00  0.00     0.066 H 
ATOM     12  H   LIG d   1       2.993  -4.172  -9.136  0.00  0.00     0.062 H 
ATOM     13  H   LIG d   1       1.601  -4.690 -11.066  0.00  0.00     0.062 H 
ATOM     14  H   LIG d   1       0.551  -2.896 -12.379  0.00  0.00     0.062 H 
ATOM     15  H   LIG d   1       0.874  -0.560 -11.787  0.00  0.00     0.064 H 
ENDROOT
BRANCH   1  16
ATOM     16  O   LIG d   1       4.464   0.005  -6.853  0.00  0.00    -0.485 OA
BRANCH  16  17
ATOM     17  C   LIG d   1       4.673  -0.973  -5.833  0.00  0.00     0.115 C 
ATOM     18  H   LIG d   1       5.672  -1.398  -5.937  0.00  0.00     0.075 H 
ATOM     19  H   LIG d   1       3.930  -1.765  -5.931  0.00  0.00     0.075 H 
BRANCH  17  20
ATOM     20  C   LIG d   1       4.541  -0.324  -4.480  0.00  0.00    -0.010 A 
ATOM     21  C   LIG d   1       5.653   0.209  -3.857  0.00  0.00    -0.055 A 
ATOM     22  C   LIG d   1       5.532   0.805  -2.615  0.00  0.00    -0.061 A 
ATOM     23  H   LIG d   1       6.618   0.160  -4.340  0.00  0.00     0.062 H 
ATOM     24  C   LIG d   1       4.296   0.866  -1.997  0.00  0.00    -0.062 A 
ATOM     25  H   LIG d   1       6.400   1.221  -2.129  0.00  0.00     0.062 H 
ATOM     26  C   LIG d   1       3.184   0.333  -2.620  0.00  0.00    -0.061 A 
ATOM     27  H   LIG d   1       4.200   1.336  -1.029  0.00  0.00     0.062 H 
ATOM     28  C   LIG d   1       3.305  -0.262  -3.861  0.00  0.00    -0.055 A 
ATOM     29  H   LIG d   1       2.219   0.382  -2.136  0.00  0.00     0.062 H 
ATOM     30  H   LIG d   1       2.436  -0.679  -4.348  0.00  0.00     0.062 H 
ENDBRANCH  17  20
ENDBRANCH  16  17
ENDBRANCH   1  16
BRANCH  10  31
ATOM     31  C   LIG d   1       3.238   2.041  -8.368  0.00  0.00     0.093 C 
ATOM     32  O   LIG d   1       4.077   2.706  -8.941  0.00  0.00    -0.543 OA
ATOM     33  OXT LIG d   1       2.461   2.606  -7.423  0.00  0.00    -0.543 OA
ENDBRANCH  10  31
TORSDOF 4
ENDMDL
MODEL 8
REMARK VINA RESULT:      -6.1      3.809      6.428
REMARK  4 active torsions:
REMARK  status: ('A' for Active; 'I' for Inactive)
REMARK    1  A    between atoms: C_4  and  C_7 
REMARK    2  A    between atoms: C_7  and  O_8 
REMARK    3  A    between atoms: O_8  and  C_9 
REMARK    4  A    between atoms: CA_18  and  C_19 
ROOT
ATOM      1  C   LIG d   1       4.762  -2.307  -5.739  0.00  0.00     0.149 A 
ATOM      2  C   LIG d   1       4.906  -2.358  -4.366  0.00  0.00    -0.009 A 
ATOM      3  C   LIG d   1       4.565  -1.216  -3.621  0.00  0.00     0.004 A 
ATOM      4  C   LIG d   1       4.687  -1.197  -2.221  0.00  0.00    -0.052 A 
ATOM      5  C   LIG d   1       4.349  -0.074  -1.531  0.00  0.00    -0.061 A 
ATOM      6  C   LIG d   1       3.880   1.061  -2.195  0.00  0.00    -0.060 A 
ATOM      7  C   LIG d   1       3.748   1.080  -3.547  0.00  0.00    -0.036 A 
ATOM      8  C   LIG d   1       4.089  -0.063  -4.299  0.00  0.00     0.072 A 
ATOM      9  N   LIG d   1       3.969  -0.066  -5.625  0.00  0.00    -0.242 NA
ATOM     10  CA  LIG d   1       4.289  -1.126  -6.343  0.00  0.00     0.128 A 
ATOM     11  H   LIG d   1       5.271  -3.250  -3.878  0.00  0.00     0.066 H 
ATOM     12  H   LIG d   1       5.048  -2.068  -1.696  0.00  0.00     0.062 H 
ATOM     13  H   LIG d   1       4.442  -0.061  -0.456  0.00  0.00     0.062 H 
ATOM     14  H   LIG d   1       3.618   1.939  -1.624  0.00  0.00     0.062 H 
ATOM     15  H   LIG d   1       3.384   1.966  -4.044  0.00  0.00     0.064 H 
ENDROOT
BRANCH   1  16
ATOM     16  O   LIG d   1       5.079  -3.386  -6.500  0.00  0.00    -0.485 OA
BRANCH  16  17
ATOM     17  C   LIG d   1       4.356  -4.592  -6.249  0.00  0.00     0.115 C 
ATOM     18  H   LIG d   1       3.825  -4.892  -7.153  0.00  0.00     0.075 H 
ATOM     19  H   LIG d   1       3.638  -4.424  -5.446  0.00  0.00     0.075 H 
BRANCH  17  20
ATOM     20  C   LIG d   1       5.317  -5.679  -5.845  0.00  0.00    -0.010 A 
ATOM     21  C   LIG d   1       4.853  -6.958  -5.600  0.00  0.00    -0.055 A 
ATOM     22  C   LIG d   1       5.735  -7.955  -5.229  0.00  0.00    -0.061 A 
ATOM     23  H   LIG d   1       3.800  -7.176  -5.697  0.00  0.00     0.062 H 
ATOM     24  C   LIG d   1       7.083  -7.673  -5.104  0.00  0.00    -0.062 A 
ATOM     25  H   LIG d   1       5.372  -8.953  -5.038  0.00  0.00     0.062 H 
ATOM     26  C   LIG d   1       7.548  -6.395  -5.349  0.00  0.00    -0.061 A 
ATOM     27  H   LIG d   1       7.773  -8.454  -4.820  0.00  0.00     0.062 H 
ATOM     28  C   LIG d   1       6.666  -5.398  -5.720  0.00  0.00    -0.055 A 
ATOM     29  H   LIG d   1       8.601  -6.175  -5.252  0.00  0.00     0.062 H 
ATOM     30  H   LIG d   1       7.029  -4.399  -5.911  0.00  0.00     0.062 H 
ENDBRANCH  17  20
ENDBRANCH  16  17
ENDBRANCH   1  16
BRANCH  10  31
ATOM     31  C   LIG d   1       4.143  -1.075  -7.815  0.00  0.00     0.093 C 
ATOM     32  O   LIG d   1       5.048  -0.645  -8.501  0.00  0.00    -0.543 OA
ATOM     33  OXT LIG d   1       3.005  -1.505  -8.393  0.00  0.00    -0.543 OA
ENDBRANCH  10  31
TORSDOF 4
ENDMDL
MODEL 9
REMARK VINA RESULT:      -6.1      2.732      6.093
REMARK  4 active torsions:
REMARK  status: ('A' for Active; 'I' for Inactive)
REMARK    1  A    between atoms: C_4  and  C_7 
REMARK    2  A    between atoms: C_7  and  O_8 
REMARK    3  A    between atoms: O_8  and  C_9 
REMARK    4  A    between atoms: CA_18  and  C_19 
ROOT
ATOM      1  C   LIG d   1       4.581  -0.333  -5.381  0.00  0.00     0.149 A 
ATOM      2  C   LIG d   1       5.273  -1.242  -6.157  0.00  0.00    -0.009 A 
ATOM      3  C   LIG d   1       6.259  -2.028  -5.536  0.00  0.00     0.004 A 
ATOM      4  C   LIG d   1       7.002  -2.973  -6.264  0.00  0.00    -0.052 A 
ATOM      5  C   LIG d   1       7.949  -3.717  -5.632  0.00  0.00    -0.061 A 
ATOM      6  C   LIG d   1       8.193  -3.556  -4.267  0.00  0.00    -0.060 A 
ATOM      7  C   LIG d   1       7.495  -2.653  -3.530  0.00  0.00    -0.036 A 
ATOM      8  C   LIG d   1       6.505  -1.862  -4.148  0.00  0.00     0.072 A 
ATOM      9  N   LIG d   1       5.810  -0.970  -3.446  0.00  0.00    -0.242 NA
ATOM     10  CA  LIG d   1       4.884  -0.218  -4.010  0.00  0.00     0.128 A 
ATOM     11  H   LIG d   1       5.063  -1.346  -7.211  0.00  0.00     0.066 H 
ATOM     12  H   LIG d   1       6.822  -3.108  -7.321  0.00  0.00     0.062 H 
ATOM     13  H   LIG d   1       8.519  -4.442  -6.193  0.00  0.00     0.062 H 
ATOM     14  H   LIG d   1       8.951  -4.159  -3.789  0.00  0.00     0.062 H 
ATOM     15  H   LIG d   1       7.697  -2.542  -2.475  0.00  0.00     0.064 H 
ENDROOT
BRANCH   1  16
ATOM     16  O   LIG d   1       3.620   0.449  -5.936  0.00  0.00    -0.485 OA
BRANCH  16  17
ATOM     17  C   LIG d   1       2.806  -0.145  -6.949  0.00  0.00     0.115 C 
ATOM     18  H   LIG d   1       1.756   0.050  -6.731  0.00  0.00     0.075 H 
ATOM     19  H   LIG d   1       2.979  -1.221  -6.969  0.00  0.00     0.075 H 
BRANCH  17  20
ATOM     20  C   LIG d   1       3.160   0.446  -8.289  0.00  0.00    -0.010 A 
ATOM     21  C   LIG d   1       3.200   1.818  -8.451  0.00  0.00    -0.055 A 
ATOM     22  C   LIG d   1       3.524   2.360  -9.680  0.00  0.00    -0.061 A 
ATOM     23  H   LIG d   1       2.976   2.466  -7.617  0.00  0.00     0.062 H 
ATOM     24  C   LIG d   1       3.809   1.529 -10.748  0.00  0.00    -0.062 A 
ATOM     25  H   LIG d   1       3.555   3.431  -9.807  0.00  0.00     0.062 H 
ATOM     26  C   LIG d   1       3.770   0.157 -10.586  0.00  0.00    -0.061 A 
ATOM     27  H   LIG d   1       4.068   1.952 -11.707  0.00  0.00     0.062 H 
ATOM     28  C   LIG d   1       3.446  -0.385  -9.357  0.00  0.00    -0.055 A 
ATOM     29  H   LIG d   1       3.993  -0.492 -11.421  0.00  0.00     0.062 H 
ATOM     30  H   LIG d   1       3.414  -1.457  -9.230  0.00  0.00     0.062 H 
ENDBRANCH  17  20
ENDBRANCH  16  17
ENDBRANCH   1  16
BRANCH  10  31
ATOM     31  C   LIG d   1       4.145   0.763  -3.185  0.00  0.00     0.093 C 
ATOM     32  O   LIG d   1       4.540   1.908  -3.102  0.00  0.00    -0.543 OA
ATOM     33  OXT LIG d   1       3.033   0.384  -2.526  0.00  0.00    -0.543 OA
ENDBRANCH  10  31
TORSDOF 4
ENDMDL
MODEL 10
REMARK VINA RESULT:      -6.0      4.488      7.013
REMARK  4 active torsions:
REMARK  status: ('A' for Active; 'I' for Inactive)
REMARK    1  A    between atoms: C_4  and  C_7 
REMARK    2  A    between atoms: C_7  and  O_8 
REMARK    3  A    between atoms: O_8  and  C_9 
REMARK    4  A    between atoms: CA_18  and  C_19 
ROOT
ATOM      1  C   LIG d   1       7.908   1.665  -4.901  0.00  0.00     0.149 A 
ATOM      2  C   LIG d   1       8.407   2.336  -3.802  0.00  0.00    -0.009 A 
ATOM      3  C   LIG d   1       9.344   3.360  -4.020  0.00  0.00     0.004 A 
ATOM      4  C   LIG d   1       9.894   4.084  -2.948  0.00  0.00    -0.052 A 
ATOM      5  C   LIG d   1      10.800   5.069  -3.195  0.00  0.00    -0.061 A 
ATOM      6  C   LIG d   1      11.190   5.372  -4.500  0.00  0.00    -0.060 A 
ATOM      7  C   LIG d   1      10.681   4.694  -5.561  0.00  0.00    -0.036 A 
ATOM      8  C   LIG d   1       9.740   3.666  -5.349  0.00  0.00     0.072 A 
ATOM      9  N   LIG d   1       9.229   2.988  -6.373  0.00  0.00    -0.242 NA
ATOM     10  CA  LIG d   1       8.352   2.019  -6.190  0.00  0.00     0.128 A 
ATOM     11  H   LIG d   1       8.086   2.080  -2.802  0.00  0.00     0.066 H 
ATOM     12  H   LIG d   1       9.599   3.860  -1.933  0.00  0.00     0.062 H 
ATOM     13  H   LIG d   1      11.220   5.624  -2.370  0.00  0.00     0.062 H 
ATOM     14  H   LIG d   1      11.911   6.159  -4.668  0.00  0.00     0.062 H 
ATOM     15  H   LIG d   1      10.994   4.943  -6.564  0.00  0.00     0.064 H 
ENDROOT
BRANCH   1  16
ATOM     16  O   LIG d   1       7.001   0.668  -4.740  0.00  0.00    -0.485 OA
BRANCH  16  17
ATOM     17  C   LIG d   1       6.973   0.015  -3.470  0.00  0.00     0.115 C 
ATOM     18  H   LIG d   1       7.345   0.695  -2.704  0.00  0.00     0.075 H 
ATOM     19  H   LIG d   1       7.606  -0.873  -3.504  0.00  0.00     0.075 H 
BRANCH  17  20
ATOM     20  C   LIG d   1       5.558  -0.387  -3.142  0.00  0.00    -0.010 A 
ATOM     21  C   LIG d   1       4.582   0.579  -2.992  0.00  0.00    -0.055 A 
ATOM     22  C   LIG d   1       3.284   0.210  -2.691  0.00  0.00    -0.061 A 
ATOM     23  H   LIG d   1       4.833   1.622  -3.109  0.00  0.00     0.062 H 
ATOM     24  C   LIG d   1       2.963  -1.127  -2.540  0.00  0.00    -0.062 A 
ATOM     25  H   LIG d   1       2.522   0.964  -2.575  0.00  0.00     0.062 H 
ATOM     26  C   LIG d   1       3.940  -2.093  -2.690  0.00  0.00    -0.061 A 
ATOM     27  H   LIG d   1       1.949  -1.415  -2.311  0.00  0.00     0.062 H 
ATOM     28  C   LIG d   1       5.238  -1.724  -2.991  0.00  0.00    -0.055 A 
ATOM     29  H   LIG d   1       3.689  -3.137  -2.573  0.00  0.00     0.062 H 
ATOM     30  H   LIG d   1       6.001  -2.479  -3.108  0.00  0.00     0.062 H 
ENDBRANCH  17  20
ENDBRANCH  16  17
ENDBRANCH   1  16
BRANCH  10  31
ATOM     31  C   LIG d   1       7.819   1.292  -7.364  0.00  0.00     0.093 C 
ATOM     32  O   LIG d   1       8.449   0.374  -7.848  0.00  0.00    -0.543 OA
ATOM     33  OXT LIG d   1       6.634   1.650  -7.896  0.00  0.00    -0.543 OA
ENDBRANCH  10  31
TORSDOF 4
ENDMDL
