MODEL 1
REMARK VINA RESULT:      -6.6      0.000      0.000
REMARK  11 active torsions:
REMARK  status: ('A' for Active; 'I' for Inactive)
REMARK    1  A    between atoms: C_1  and  C_2 
REMARK    2  A    between atoms: C_2  and  O_3 
REMARK    3  A    between atoms: O_3  and  C_4 
REMARK    4  A    between atoms: C_4  and  C_6 
REMARK    5  A    between atoms: C_9  and  O_23 
REMARK    6  A    between atoms: C_14  and  C_15 
REMARK    7  A    between atoms: C_18  and  O_21 
REMARK    8  A    between atoms: O_21  and  C_22 
REMARK    9  A    between atoms: O_23  and  C_24 
REMARK   10  A    between atoms: C_24  and  C_25 
REMARK   11  A    between atoms: C_30  and  C_31 
ROOT
ATOM      1  C   LIG d   1       9.838   5.903  -3.382  0.00  0.00     0.112 A 
ATOM      2  C   LIG d   1       9.524   4.589  -3.976  0.00  0.00     0.038 A 
ATOM      3  C   LIG d   1       9.139   3.359  -3.450  0.00  0.00    -0.008 A 
ATOM      4  C   LIG d   1       8.914   2.292  -4.300  0.00  0.00     0.122 A 
ATOM      5  C   LIG d   1       9.073   2.450  -5.673  0.00  0.00    -0.016 A 
ATOM      6  C   LIG d   1       9.455   3.665  -6.200  0.00  0.00    -0.015 A 
ATOM      7  C   LIG d   1       9.685   4.749  -5.360  0.00  0.00     0.137 A 
ATOM      8  O   LIG d   1      10.058   6.025  -5.595  0.00  0.00    -0.454 OA
ATOM      9  C   LIG d   1      10.151   6.727  -4.455  0.00  0.00     0.150 A 
ATOM     10  H   LIG d   1       9.015   3.239  -2.384  0.00  0.00     0.066 H 
ATOM     11  H   LIG d   1       8.897   1.613  -6.332  0.00  0.00     0.066 H 
ATOM     12  H   LIG d   1       9.576   3.776  -7.268  0.00  0.00     0.066 H 
ENDROOT
BRANCH   4  13
ATOM     13  O   LIG d   1       8.538   1.088  -3.794  0.00  0.00    -0.487 OA
BRANCH  13  14
ATOM     14  C   LIG d   1       7.489   0.396  -4.477  0.00  0.00     0.115 C 
ATOM     15  H   LIG d   1       7.122   1.013  -5.297  0.00  0.00     0.075 H 
ATOM     16  H   LIG d   1       7.872  -0.544  -4.873  0.00  0.00     0.075 H 
BRANCH  14  17
ATOM     17  C   LIG d   1       6.364   0.116  -3.515  0.00  0.00    -0.007 A 
ATOM     18  C   LIG d   1       5.986  -1.188  -3.256  0.00  0.00    -0.044 A 
ATOM     19  C   LIG d   1       4.956  -1.446  -2.370  0.00  0.00    -0.059 A 
ATOM     20  C   LIG d   1       4.298  -0.400  -1.752  0.00  0.00    -0.061 A 
ATOM     21  H   LIG d   1       4.664  -2.465  -2.164  0.00  0.00     0.062 H 
ATOM     22  C   LIG d   1       4.672   0.905  -2.016  0.00  0.00    -0.061 A 
ATOM     23  H   LIG d   1       3.491  -0.601  -1.063  0.00  0.00     0.062 H 
ATOM     24  C   LIG d   1       5.705   1.162  -2.898  0.00  0.00    -0.055 A 
ATOM     25  H   LIG d   1       4.157   1.723  -1.534  0.00  0.00     0.062 H 
ATOM     26  H   LIG d   1       5.997   2.181  -3.105  0.00  0.00     0.062 H 
BRANCH  18  27
ATOM     27  C   LIG d   1       6.700  -2.329  -3.933  0.00  0.00    -0.039 C 
ATOM     28  H   LIG d   1       6.108  -2.678  -4.778  0.00  0.00     0.028 H 
ATOM     29  H   LIG d   1       7.674  -1.990  -4.288  0.00  0.00     0.028 H 
ATOM     30  H   LIG d   1       6.837  -3.144  -3.223  0.00  0.00     0.028 H 
ENDBRANCH  18  27
ENDBRANCH  14  17
ENDBRANCH  13  14
ENDBRANCH   4  13
BRANCH   1  31
ATOM     31  C   LIG d   1       9.819   6.263  -1.963  0.00  0.00     0.344 C 
ATOM     32  O   LIG d   1      10.539   5.678  -1.177  0.00  0.00    -0.245 OA
BRANCH  31  33
ATOM     33  O   LIG d   1       9.003   7.245  -1.528  0.00  0.00    -0.461 OA
BRANCH  33  34
ATOM     34  C   LIG d   1       9.592   8.270  -0.725  0.00  0.00     0.090 C 
ATOM     35  H   LIG d   1      10.665   8.307  -0.913  0.00  0.00     0.070 H 
ATOM     36  H   LIG d   1       9.415   8.054   0.328  0.00  0.00     0.070 H 
BRANCH  34  37
ATOM     37  C   LIG d   1       8.965   9.620  -1.081  0.00  0.00    -0.031 C 
ATOM     38  H   LIG d   1       8.362   9.513  -1.983  0.00  0.00     0.026 H 
ATOM     39  H   LIG d   1       8.334   9.956  -0.259  0.00  0.00     0.026 H 
ATOM     40  H   LIG d   1       9.754  10.351  -1.257  0.00  0.00     0.026 H 
ENDBRANCH  34  37
ENDBRANCH  33  34
ENDBRANCH  31  33
ENDBRANCH   1  31
BRANCH   9  41
ATOM     41  C   LIG d   1      10.528   8.148  -4.356  0.00  0.00     0.018 A 
ATOM     42  C   LIG d   1       9.666   9.138  -4.837  0.00  0.00    -0.048 A 
ATOM     43  C   LIG d   1      10.020  10.465  -4.737  0.00  0.00    -0.019 A 
ATOM     44  H   LIG d   1       8.720   8.863  -5.280  0.00  0.00     0.063 H 
ATOM     45  C   LIG d   1      11.238  10.820  -4.171  0.00  0.00     0.120 A 
ATOM     46  H   LIG d   1       9.352  11.231  -5.104  0.00  0.00     0.065 H 
ATOM     47  C   LIG d   1      12.103   9.839  -3.698  0.00  0.00    -0.019 A 
ATOM     48  C   LIG d   1      11.753   8.510  -3.788  0.00  0.00    -0.048 A 
ATOM     49  H   LIG d   1      13.048  10.120  -3.259  0.00  0.00     0.065 H 
ATOM     50  H   LIG d   1      12.425   7.749  -3.419  0.00  0.00     0.063 H 
BRANCH  45  51
ATOM     51  O   LIG d   1      11.587  12.130  -4.080  0.00  0.00    -0.495 OA
BRANCH  51  52
ATOM     52  C   LIG d   1      10.578  13.091  -4.392  0.00  0.00     0.079 C 
ATOM     53  H   LIG d   1      10.483  13.183  -5.473  0.00  0.00     0.066 H 
ATOM     54  H   LIG d   1       9.626  12.770  -3.970  0.00  0.00     0.066 H 
ATOM     55  H   LIG d   1      10.854  14.058  -3.969  0.00  0.00     0.066 H 
ENDBRANCH  51  52
ENDBRANCH  45  51
ENDBRANCH   9  41
TORSDOF 11
ENDMDL
MODEL 2
REMARK VINA RESULT:      -6.5      7.335     11.326
REMARK  11 active torsions:
REMARK  status: ('A' for Active; 'I' for Inactive)
REMARK    1  A    between atoms: C_1  and  C_2 
REMARK    2  A    between atoms: C_2  and  O_3 
REMARK    3  A    between atoms: O_3  and  C_4 
REMARK    4  A    between atoms: C_4  and  C_6 
REMARK    5  A    between atoms: C_9  and  O_23 
REMARK    6  A    between atoms: C_14  and  C_15 
REMARK    7  A    between atoms: C_18  and  O_21 
REMARK    8  A    between atoms: O_21  and  C_22 
REMARK    9  A    between atoms: O_23  and  C_24 
REMARK   10  A    between atoms: C_24  and  C_25 
REMARK   11  A    between atoms: C_30  and  C_31 
ROOT
ATOM      1  C   LIG d   1       4.319  -1.498  -8.427  0.00  0.00     0.112 A 
ATOM      2  C   LIG d   1       4.925  -2.094  -7.221  0.00  0.00     0.038 A 
ATOM      3  C   LIG d   1       5.790  -1.620  -6.239  0.00  0.00    -0.008 A 
ATOM      4  C   LIG d   1       6.180  -2.456  -5.209  0.00  0.00     0.122 A 
ATOM      5  C   LIG d   1       5.710  -3.764  -5.158  0.00  0.00    -0.016 A 
ATOM      6  C   LIG d   1       4.854  -4.241  -6.128  0.00  0.00    -0.015 A 
ATOM      7  C   LIG d   1       4.450  -3.414  -7.170  0.00  0.00     0.137 A 
ATOM      8  O   LIG d   1       3.639  -3.608  -8.231  0.00  0.00    -0.454 OA
ATOM      9  C   LIG d   1       3.538  -2.501  -8.982  0.00  0.00     0.150 A 
ATOM     10  H   LIG d   1       6.153  -0.603  -6.280  0.00  0.00     0.066 H 
ATOM     11  H   LIG d   1       6.018  -4.413  -4.352  0.00  0.00     0.066 H 
ATOM     12  H   LIG d   1       4.496  -5.258  -6.079  0.00  0.00     0.066 H 
ENDROOT
BRANCH   4  13
ATOM     13  O   LIG d   1       7.024  -2.000  -4.246  0.00  0.00    -0.487 OA
BRANCH  13  14
ATOM     14  C   LIG d   1       6.512  -1.931  -2.914  0.00  0.00     0.115 C 
ATOM     15  H   LIG d   1       5.989  -2.857  -2.677  0.00  0.00     0.075 H 
ATOM     16  H   LIG d   1       7.335  -1.789  -2.214  0.00  0.00     0.075 H 
BRANCH  14  17
ATOM     17  C   LIG d   1       5.555  -0.772  -2.804  0.00  0.00    -0.007 A 
ATOM     18  C   LIG d   1       4.218  -1.003  -2.539  0.00  0.00    -0.044 A 
ATOM     19  C   LIG d   1       3.341   0.061  -2.433  0.00  0.00    -0.059 A 
ATOM     20  C   LIG d   1       3.798   1.353  -2.602  0.00  0.00    -0.061 A 
ATOM     21  H   LIG d   1       2.297  -0.120  -2.221  0.00  0.00     0.062 H 
ATOM     22  C   LIG d   1       5.134   1.584  -2.873  0.00  0.00    -0.061 A 
ATOM     23  H   LIG d   1       3.112   2.184  -2.523  0.00  0.00     0.062 H 
ATOM     24  C   LIG d   1       6.012   0.522  -2.973  0.00  0.00    -0.055 A 
ATOM     25  H   LIG d   1       5.492   2.595  -3.006  0.00  0.00     0.062 H 
ATOM     26  H   LIG d   1       7.055   0.701  -3.186  0.00  0.00     0.062 H 
BRANCH  18  27
ATOM     27  C   LIG d   1       3.718  -2.413  -2.359  0.00  0.00    -0.039 C 
ATOM     28  H   LIG d   1       4.235  -2.878  -1.520  0.00  0.00     0.028 H 
ATOM     29  H   LIG d   1       2.646  -2.396  -2.160  0.00  0.00     0.028 H 
ATOM     30  H   LIG d   1       3.910  -2.985  -3.266  0.00  0.00     0.028 H 
ENDBRANCH  18  27
ENDBRANCH  14  17
ENDBRANCH  13  14
ENDBRANCH   4  13
BRANCH   1  31
ATOM     31  C   LIG d   1       4.499  -0.134  -8.928  0.00  0.00     0.344 C 
ATOM     32  O   LIG d   1       4.965   0.051 -10.036  0.00  0.00    -0.245 OA
BRANCH  31  33
ATOM     33  O   LIG d   1       4.147   0.918  -8.161  0.00  0.00    -0.461 OA
BRANCH  33  34
ATOM     34  C   LIG d   1       2.802   0.947  -7.676  0.00  0.00     0.090 C 
ATOM     35  H   LIG d   1       2.206   0.211  -8.215  0.00  0.00     0.070 H 
ATOM     36  H   LIG d   1       2.381   1.939  -7.831  0.00  0.00     0.070 H 
BRANCH  34  37
ATOM     37  C   LIG d   1       2.792   0.616  -6.182  0.00  0.00    -0.031 C 
ATOM     38  H   LIG d   1       2.072   1.258  -5.673  0.00  0.00     0.026 H 
ATOM     39  H   LIG d   1       2.511  -0.427  -6.042  0.00  0.00     0.026 H 
ATOM     40  H   LIG d   1       3.785   0.785  -5.767  0.00  0.00     0.026 H 
ENDBRANCH  34  37
ENDBRANCH  33  34
ENDBRANCH  31  33
ENDBRANCH   1  31
BRANCH   9  41
ATOM     41  C   LIG d   1       2.729  -2.372 -10.207  0.00  0.00     0.018 A 
ATOM     42  C   LIG d   1       1.645  -1.490 -10.243  0.00  0.00    -0.048 A 
ATOM     43  C   LIG d   1       0.895  -1.368 -11.391  0.00  0.00    -0.019 A 
ATOM     44  H   LIG d   1       1.399  -0.900  -9.371  0.00  0.00     0.063 H 
ATOM     45  C   LIG d   1       1.207  -2.129 -12.511  0.00  0.00     0.120 A 
ATOM     46  H   LIG d   1       0.061  -0.683 -11.420  0.00  0.00     0.065 H 
ATOM     47  C   LIG d   1       2.280  -3.014 -12.479  0.00  0.00    -0.019 A 
ATOM     48  C   LIG d   1       3.039  -3.137 -11.336  0.00  0.00    -0.048 A 
ATOM     49  H   LIG d   1       2.518  -3.604 -13.351  0.00  0.00     0.065 H 
ATOM     50  H   LIG d   1       3.872  -3.823 -11.313  0.00  0.00     0.063 H 
BRANCH  45  51
ATOM     51  O   LIG d   1       0.462  -2.011 -13.640  0.00  0.00    -0.495 OA
BRANCH  51  52
ATOM     52  C   LIG d   1      -0.958  -2.033 -13.484  0.00  0.00     0.079 C 
ATOM     53  H   LIG d   1      -1.209  -2.405 -12.491  0.00  0.00     0.066 H 
ATOM     54  H   LIG d   1      -1.353  -1.025 -13.606  0.00  0.00     0.066 H 
ATOM     55  H   LIG d   1      -1.395  -2.688 -14.238  0.00  0.00     0.066 H 
ENDBRANCH  51  52
ENDBRANCH  45  51
ENDBRANCH   9  41
TORSDOF 11
ENDMDL
MODEL 3
REMARK VINA RESULT:      -6.2      8.291     11.909
REMARK  11 active torsions:
REMARK  status: ('A' for Active; 'I' for Inactive)
REMARK    1  A    between atoms: C_1  and  C_2 
REMARK    2  A    between atoms: C_2  and  O_3 
REMARK    3  A    between atoms: O_3  and  C_4 
REMARK    4  A    between atoms: C_4  and  C_6 
REMARK    5  A    between atoms: C_9  and  O_23 
REMARK    6  A    between atoms: C_14  and  C_15 
REMARK    7  A    between atoms: C_18  and  O_21 
REMARK    8  A    between atoms: O_21  and  C_22 
REMARK    9  A    between atoms: O_23  and  C_24 
REMARK   10  A    between atoms: C_24  and  C_25 
REMARK   11  A    between atoms: C_30  and  C_31 
ROOT
ATOM      1  C   LIG d   1       4.134  -1.106 -10.775  0.00  0.00     0.112 A 
ATOM      2  C   LIG d   1       3.742  -0.177  -9.697  0.00  0.00     0.038 A 
ATOM      3  C   LIG d   1       3.491  -0.327  -8.336  0.00  0.00    -0.008 A 
ATOM      4  C   LIG d   1       3.133   0.774  -7.581  0.00  0.00     0.122 A 
ATOM      5  C   LIG d   1       3.026   2.025  -8.181  0.00  0.00    -0.016 A 
ATOM      6  C   LIG d   1       3.272   2.180  -9.528  0.00  0.00    -0.015 A 
ATOM      7  C   LIG d   1       3.634   1.084 -10.303  0.00  0.00     0.137 A 
ATOM      8  O   LIG d   1       3.928   0.947 -11.613  0.00  0.00    -0.454 OA
ATOM      9  C   LIG d   1       4.231  -0.325 -11.918  0.00  0.00     0.150 A 
ATOM     10  H   LIG d   1       3.576  -1.299  -7.872  0.00  0.00     0.066 H 
ATOM     11  H   LIG d   1       2.746   2.882  -7.586  0.00  0.00     0.066 H 
ATOM     12  H   LIG d   1       3.185   3.156  -9.983  0.00  0.00     0.066 H 
ENDROOT
BRANCH   4  13
ATOM     13  O   LIG d   1       2.887   0.636  -6.252  0.00  0.00    -0.487 OA
BRANCH  13  14
ATOM     14  C   LIG d   1       3.413  -0.529  -5.612  0.00  0.00     0.115 C 
ATOM     15  H   LIG d   1       2.672  -1.328  -5.646  0.00  0.00     0.075 H 
ATOM     16  H   LIG d   1       4.317  -0.850  -6.128  0.00  0.00     0.075 H 
BRANCH  14  17
ATOM     17  C   LIG d   1       3.741  -0.209  -4.176  0.00  0.00    -0.007 A 
ATOM     18  C   LIG d   1       4.315  -1.172  -3.368  0.00  0.00    -0.044 A 
ATOM     19  C   LIG d   1       4.620  -0.876  -2.052  0.00  0.00    -0.059 A 
ATOM     20  C   LIG d   1       4.342   0.377  -1.543  0.00  0.00    -0.061 A 
ATOM     21  H   LIG d   1       5.073  -1.628  -1.422  0.00  0.00     0.062 H 
ATOM     22  C   LIG d   1       3.762   1.338  -2.350  0.00  0.00    -0.061 A 
ATOM     23  H   LIG d   1       4.578   0.607  -0.514  0.00  0.00     0.062 H 
ATOM     24  C   LIG d   1       3.462   1.045  -3.666  0.00  0.00    -0.055 A 
ATOM     25  H   LIG d   1       3.545   2.319  -1.952  0.00  0.00     0.062 H 
ATOM     26  H   LIG d   1       3.009   1.795  -4.297  0.00  0.00     0.062 H 
BRANCH  18  27
ATOM     27  C   LIG d   1       4.614  -2.541  -3.922  0.00  0.00    -0.039 C 
ATOM     28  H   LIG d   1       5.035  -3.167  -3.136  0.00  0.00     0.028 H 
ATOM     29  H   LIG d   1       3.694  -2.992  -4.292  0.00  0.00     0.028 H 
ATOM     30  H   LIG d   1       5.330  -2.454  -4.739  0.00  0.00     0.028 H 
ENDBRANCH  18  27
ENDBRANCH  14  17
ENDBRANCH  13  14
ENDBRANCH   4  13
BRANCH   1  31
ATOM     31  C   LIG d   1       4.376  -2.545 -10.661  0.00  0.00     0.344 C 
ATOM     32  O   LIG d   1       5.453  -2.951 -10.267  0.00  0.00    -0.245 OA
BRANCH  31  33
ATOM     33  O   LIG d   1       3.405  -3.420 -10.993  0.00  0.00    -0.461 OA
BRANCH  33  34
ATOM     34  C   LIG d   1       2.396  -3.671 -10.013  0.00  0.00     0.090 C 
ATOM     35  H   LIG d   1       2.622  -3.111  -9.106  0.00  0.00     0.070 H 
ATOM     36  H   LIG d   1       2.368  -4.736  -9.784  0.00  0.00     0.070 H 
BRANCH  34  37
ATOM     37  C   LIG d   1       1.035  -3.232 -10.559  0.00  0.00    -0.031 C 
ATOM     38  H   LIG d   1       1.108  -3.081 -11.636  0.00  0.00     0.026 H 
ATOM     39  H   LIG d   1       0.293  -4.002 -10.348  0.00  0.00     0.026 H 
ATOM     40  H   LIG d   1       0.737  -2.299 -10.081  0.00  0.00     0.026 H 
ENDBRANCH  34  37
ENDBRANCH  33  34
ENDBRANCH  31  33
ENDBRANCH   1  31
BRANCH   9  41
ATOM     41  C   LIG d   1       4.604  -0.815 -13.257  0.00  0.00     0.018 A 
ATOM     42  C   LIG d   1       3.611  -1.175 -14.174  0.00  0.00    -0.048 A 
ATOM     43  C   LIG d   1       3.964  -1.626 -15.426  0.00  0.00    -0.019 A 
ATOM     44  H   LIG d   1       2.569  -1.093 -13.902  0.00  0.00     0.063 H 
ATOM     45  C   LIG d   1       5.304  -1.736 -15.774  0.00  0.00     0.120 A 
ATOM     46  H   LIG d   1       3.197  -1.900 -16.136  0.00  0.00     0.065 H 
ATOM     47  C   LIG d   1       6.296  -1.386 -14.864  0.00  0.00    -0.019 A 
ATOM     48  C   LIG d   1       5.951  -0.927 -13.612  0.00  0.00    -0.048 A 
ATOM     49  H   LIG d   1       7.336  -1.474 -15.140  0.00  0.00     0.065 H 
ATOM     50  H   LIG d   1       6.722  -0.655 -12.906  0.00  0.00     0.063 H 
BRANCH  45  51
ATOM     51  O   LIG d   1       5.648  -2.188 -17.008  0.00  0.00    -0.495 OA
BRANCH  51  52
ATOM     52  C   LIG d   1       6.211  -1.236 -17.913  0.00  0.00     0.079 C 
ATOM     53  H   LIG d   1       7.237  -1.518 -18.147  0.00  0.00     0.066 H 
ATOM     54  H   LIG d   1       5.622  -1.213 -18.830  0.00  0.00     0.066 H 
ATOM     55  H   LIG d   1       6.203  -0.248 -17.452  0.00  0.00     0.066 H 
ENDBRANCH  51  52
ENDBRANCH  45  51
ENDBRANCH   9  41
TORSDOF 11
ENDMDL
MODEL 4
REMARK VINA RESULT:      -6.2      1.188      1.985
REMARK  11 active torsions:
REMARK  status: ('A' for Active; 'I' for Inactive)
REMARK    1  A    between atoms: C_1  and  C_2 
REMARK    2  A    between atoms: C_2  and  O_3 
REMARK    3  A    between atoms: O_3  and  C_4 
REMARK    4  A    between atoms: C_4  and  C_6 
REMARK    5  A    between atoms: C_9  and  O_23 
REMARK    6  A    between atoms: C_14  and  C_15 
REMARK    7  A    between atoms: C_18  and  O_21 
REMARK    8  A    between atoms: O_21  and  C_22 
REMARK    9  A    between atoms: O_23  and  C_24 
REMARK   10  A    between atoms: C_24  and  C_25 
REMARK   11  A    between atoms: C_30  and  C_31 
ROOT
ATOM      1  C   LIG d   1       9.894   5.177  -4.089  0.00  0.00     0.112 A 
ATOM      2  C   LIG d   1       9.382   3.888  -4.594  0.00  0.00     0.038 A 
ATOM      3  C   LIG d   1       8.784   2.784  -3.994  0.00  0.00    -0.008 A 
ATOM      4  C   LIG d   1       8.409   1.703  -4.770  0.00  0.00     0.122 A 
ATOM      5  C   LIG d   1       8.629   1.722  -6.143  0.00  0.00    -0.016 A 
ATOM      6  C   LIG d   1       9.222   2.811  -6.744  0.00  0.00    -0.015 A 
ATOM      7  C   LIG d   1       9.605   3.907  -5.979  0.00  0.00     0.137 A 
ATOM      8  O   LIG d   1      10.191   5.082  -6.294  0.00  0.00    -0.454 OA
ATOM      9  C   LIG d   1      10.368   5.849  -5.207  0.00  0.00     0.150 A 
ATOM     10  H   LIG d   1       8.614   2.772  -2.927  0.00  0.00     0.066 H 
ATOM     11  H   LIG d   1       8.334   0.874  -6.744  0.00  0.00     0.066 H 
ATOM     12  H   LIG d   1       9.388   2.814  -7.811  0.00  0.00     0.066 H 
ENDROOT
BRANCH   4  13
ATOM     13  O   LIG d   1       7.824   0.621  -4.190  0.00  0.00    -0.487 OA
BRANCH  13  14
ATOM     14  C   LIG d   1       6.724   0.870  -3.312  0.00  0.00     0.115 C 
ATOM     15  H   LIG d   1       7.101   1.106  -2.316  0.00  0.00     0.075 H 
ATOM     16  H   LIG d   1       6.142   1.711  -3.688  0.00  0.00     0.075 H 
BRANCH  14  17
ATOM     17  C   LIG d   1       5.850  -0.355  -3.242  0.00  0.00    -0.007 A 
ATOM     18  C   LIG d   1       4.742  -0.366  -2.417  0.00  0.00    -0.044 A 
ATOM     19  C   LIG d   1       3.937  -1.489  -2.356  0.00  0.00    -0.059 A 
ATOM     20  C   LIG d   1       4.246  -2.603  -3.112  0.00  0.00    -0.061 A 
ATOM     21  H   LIG d   1       3.068  -1.496  -1.714  0.00  0.00     0.062 H 
ATOM     22  C   LIG d   1       5.358  -2.593  -3.934  0.00  0.00    -0.061 A 
ATOM     23  H   LIG d   1       3.619  -3.481  -3.063  0.00  0.00     0.062 H 
ATOM     24  C   LIG d   1       6.159  -1.470  -3.999  0.00  0.00    -0.055 A 
ATOM     25  H   LIG d   1       5.600  -3.464  -4.526  0.00  0.00     0.062 H 
ATOM     26  H   LIG d   1       7.028  -1.462  -4.640  0.00  0.00     0.062 H 
BRANCH  18  27
ATOM     27  C   LIG d   1       4.407   0.847  -1.587  0.00  0.00    -0.039 C 
ATOM     28  H   LIG d   1       3.904   1.585  -2.210  0.00  0.00     0.028 H 
ATOM     29  H   LIG d   1       3.751   0.556  -0.766  0.00  0.00     0.028 H 
ATOM     30  H   LIG d   1       5.324   1.275  -1.184  0.00  0.00     0.028 H 
ENDBRANCH  18  27
ENDBRANCH  14  17
ENDBRANCH  13  14
ENDBRANCH   4  13
BRANCH   1  31
ATOM     31  C   LIG d   1       9.896   5.649  -2.703  0.00  0.00     0.344 C 
ATOM     32  O   LIG d   1      10.568   5.075  -1.867  0.00  0.00    -0.245 OA
BRANCH  31  33
ATOM     33  O   LIG d   1       9.154   6.719  -2.355  0.00  0.00    -0.461 OA
BRANCH  33  34
ATOM     34  C   LIG d   1       9.634   7.515  -1.269  0.00  0.00     0.090 C 
ATOM     35  H   LIG d   1      10.301   6.918  -0.647  0.00  0.00     0.070 H 
ATOM     36  H   LIG d   1       8.791   7.859  -0.670  0.00  0.00     0.070 H 
BRANCH  34  37
ATOM     37  C   LIG d   1      10.394   8.724  -1.819  0.00  0.00    -0.031 C 
ATOM     38  H   LIG d   1      10.684   9.376  -0.995  0.00  0.00     0.026 H 
ATOM     39  H   LIG d   1      11.287   8.383  -2.344  0.00  0.00     0.026 H 
ATOM     40  H   LIG d   1       9.753   9.272  -2.508  0.00  0.00     0.026 H 
ENDBRANCH  34  37
ENDBRANCH  33  34
ENDBRANCH  31  33
ENDBRANCH   1  31
BRANCH   9  41
ATOM     41  C   LIG d   1      10.973   7.193  -5.201  0.00  0.00     0.018 A 
ATOM     42  C   LIG d   1      12.324   7.352  -4.877  0.00  0.00    -0.048 A 
ATOM     43  C   LIG d   1      12.887   8.609  -4.879  0.00  0.00    -0.019 A 
ATOM     44  H   LIG d   1      12.927   6.490  -4.631  0.00  0.00     0.063 H 
ATOM     45  C   LIG d   1      12.112   9.719  -5.190  0.00  0.00     0.120 A 
ATOM     46  H   LIG d   1      13.932   8.732  -4.633  0.00  0.00     0.065 H 
ATOM     47  C   LIG d   1      10.767   9.567  -5.506  0.00  0.00    -0.019 A 
ATOM     48  C   LIG d   1      10.197   8.313  -5.514  0.00  0.00    -0.048 A 
ATOM     49  H   LIG d   1      10.168  10.433  -5.748  0.00  0.00     0.065 H 
ATOM     50  H   LIG d   1       9.152   8.196  -5.761  0.00  0.00     0.063 H 
BRANCH  45  51
ATOM     51  O   LIG d   1      12.670  10.957  -5.185  0.00  0.00    -0.495 OA
BRANCH  51  52
ATOM     52  C   LIG d   1      11.901  12.016  -5.758  0.00  0.00     0.079 C 
ATOM     53  H   LIG d   1      12.014  12.004  -6.842  0.00  0.00     0.066 H 
ATOM     54  H   LIG d   1      10.850  11.884  -5.501  0.00  0.00     0.066 H 
ATOM     55  H   LIG d   1      12.252  12.972  -5.368  0.00  0.00     0.066 H 
ENDBRANCH  51  52
ENDBRANCH  45  51
ENDBRANCH   9  41
TORSDOF 11
ENDMDL
MODEL 5
REMARK VINA RESULT:      -6.1      4.981      6.589
REMARK  11 active torsions:
REMARK  status: ('A' for Active; 'I' for Inactive)
REMARK    1  A    between atoms: C_1  and  C_2 
REMARK    2  A    between atoms: C_2  and  O_3 
REMARK    3  A    between atoms: O_3  and  C_4 
REMARK    4  A    between atoms: C_4  and  C_6 
REMARK    5  A    between atoms: C_9  and  O_23 
REMARK    6  A    between atoms: C_14  and  C_15 
REMARK    7  A    between atoms: C_18  and  O_21 
REMARK    8  A    between atoms: O_21  and  C_22 
REMARK    9  A    between atoms: O_23  and  C_24 
REMARK   10  A    between atoms: C_24  and  C_25 
REMARK   11  A    between atoms: C_30  and  C_31 
ROOT
ATOM      1  C   LIG d   1       8.201   2.374  -8.202  0.00  0.00     0.112 A 
ATOM      2  C   LIG d   1       8.372   1.894  -6.817  0.00  0.00     0.038 A 
ATOM      3  C   LIG d   1       7.790   0.875  -6.069  0.00  0.00    -0.008 A 
ATOM      4  C   LIG d   1       8.183   0.678  -4.758  0.00  0.00     0.122 A 
ATOM      5  C   LIG d   1       9.155   1.496  -4.193  0.00  0.00    -0.016 A 
ATOM      6  C   LIG d   1       9.736   2.508  -4.927  0.00  0.00    -0.015 A 
ATOM      7  C   LIG d   1       9.353   2.719  -6.247  0.00  0.00     0.137 A 
ATOM      8  O   LIG d   1       9.744   3.612  -7.181  0.00  0.00    -0.454 OA
ATOM      9  C   LIG d   1       9.090   3.431  -8.338  0.00  0.00     0.150 A 
ATOM     10  H   LIG d   1       7.035   0.240  -6.510  0.00  0.00     0.066 H 
ATOM     11  H   LIG d   1       9.458   1.338  -3.168  0.00  0.00     0.066 H 
ATOM     12  H   LIG d   1      10.489   3.137  -4.477  0.00  0.00     0.066 H 
ENDROOT
BRANCH   4  13
ATOM     13  O   LIG d   1       7.618  -0.315  -4.021  0.00  0.00    -0.487 OA
BRANCH  13  14
ATOM     14  C   LIG d   1       6.688  -1.170  -4.689  0.00  0.00     0.115 C 
ATOM     15  H   LIG d   1       6.585  -0.854  -5.728  0.00  0.00     0.075 H 
ATOM     16  H   LIG d   1       7.049  -2.197  -4.656  0.00  0.00     0.075 H 
BRANCH  14  17
ATOM     17  C   LIG d   1       5.348  -1.087  -4.004  0.00  0.00    -0.007 A 
ATOM     18  C   LIG d   1       4.229  -0.706  -4.719  0.00  0.00    -0.044 A 
ATOM     19  C   LIG d   1       2.999  -0.634  -4.092  0.00  0.00    -0.059 A 
ATOM     20  C   LIG d   1       2.890  -0.934  -2.748  0.00  0.00    -0.061 A 
ATOM     21  H   LIG d   1       2.123  -0.340  -4.653  0.00  0.00     0.062 H 
ATOM     22  C   LIG d   1       4.011  -1.310  -2.031  0.00  0.00    -0.061 A 
ATOM     23  H   LIG d   1       1.930  -0.875  -2.256  0.00  0.00     0.062 H 
ATOM     24  C   LIG d   1       5.239  -1.387  -2.659  0.00  0.00    -0.055 A 
ATOM     25  H   LIG d   1       3.926  -1.544  -0.980  0.00  0.00     0.062 H 
ATOM     26  H   LIG d   1       6.115  -1.680  -2.099  0.00  0.00     0.062 H 
BRANCH  18  27
ATOM     27  C   LIG d   1       4.348  -0.373  -6.185  0.00  0.00    -0.039 C 
ATOM     28  H   LIG d   1       5.376  -0.093  -6.412  0.00  0.00     0.028 H 
ATOM     29  H   LIG d   1       4.070  -1.244  -6.779  0.00  0.00     0.028 H 
ATOM     30  H   LIG d   1       3.683   0.456  -6.424  0.00  0.00     0.028 H 
ENDBRANCH  18  27
ENDBRANCH  14  17
ENDBRANCH  13  14
ENDBRANCH   4  13
BRANCH   1  31
ATOM     31  C   LIG d   1       7.289   1.845  -9.218  0.00  0.00     0.344 C 
ATOM     32  O   LIG d   1       7.609   0.871  -9.873  0.00  0.00    -0.245 OA
BRANCH  31  33
ATOM     33  O   LIG d   1       6.096   2.436  -9.427  0.00  0.00    -0.461 OA
BRANCH  33  34
ATOM     34  C   LIG d   1       4.941   1.595  -9.401  0.00  0.00     0.090 C 
ATOM     35  H   LIG d   1       5.064   0.833  -8.631  0.00  0.00     0.070 H 
ATOM     36  H   LIG d   1       4.820   1.114 -10.371  0.00  0.00     0.070 H 
BRANCH  34  37
ATOM     37  C   LIG d   1       3.702   2.438  -9.092  0.00  0.00    -0.031 C 
ATOM     38  H   LIG d   1       3.950   3.183  -8.335  0.00  0.00     0.026 H 
ATOM     39  H   LIG d   1       3.367   2.938 -10.000  0.00  0.00     0.026 H 
ATOM     40  H   LIG d   1       2.907   1.792  -8.718  0.00  0.00     0.026 H 
ENDBRANCH  34  37
ENDBRANCH  33  34
ENDBRANCH  31  33
ENDBRANCH   1  31
BRANCH   9  41
ATOM     41  C   LIG d   1       9.283   4.230  -9.561  0.00  0.00     0.018 A 
ATOM     42  C   LIG d   1       8.673   5.482  -9.685  0.00  0.00    -0.048 A 
ATOM     43  C   LIG d   1       8.861   6.228 -10.826  0.00  0.00    -0.019 A 
ATOM     44  H   LIG d   1       8.058   5.866  -8.883  0.00  0.00     0.063 H 
ATOM     45  C   LIG d   1       9.646   5.734 -11.860  0.00  0.00     0.120 A 
ATOM     46  H   LIG d   1       8.393   7.198 -10.920  0.00  0.00     0.065 H 
ATOM     47  C   LIG d   1      10.250   4.487 -11.746  0.00  0.00    -0.019 A 
ATOM     48  C   LIG d   1      10.072   3.737 -10.604  0.00  0.00    -0.048 A 
ATOM     49  H   LIG d   1      10.859   4.107 -12.552  0.00  0.00     0.065 H 
ATOM     50  H   LIG d   1      10.543   2.769 -10.516  0.00  0.00     0.063 H 
BRANCH  45  51
ATOM     51  O   LIG d   1       9.824   6.471 -12.987  0.00  0.00    -0.495 OA
BRANCH  51  52
ATOM     52  C   LIG d   1       9.557   7.871 -12.895  0.00  0.00     0.079 C 
ATOM     53  H   LIG d   1      10.418   8.431 -13.258  0.00  0.00     0.066 H 
ATOM     54  H   LIG d   1       8.684   8.115 -13.499  0.00  0.00     0.066 H 
ATOM     55  H   LIG d   1       9.364   8.136 -11.855  0.00  0.00     0.066 H 
ENDBRANCH  51  52
ENDBRANCH  45  51
ENDBRANCH   9  41
TORSDOF 11
ENDMDL
MODEL 6
REMARK VINA RESULT:      -6.0      8.535     13.345
REMARK  11 active torsions:
REMARK  status: ('A' for Active; 'I' for Inactive)
REMARK    1  A    between atoms: C_1  and  C_2 
REMARK    2  A    between atoms: C_2  and  O_3 
REMARK    3  A    between atoms: O_3  and  C_4 
REMARK    4  A    between atoms: C_4  and  C_6 
REMARK    5  A    between atoms: C_9  and  O_23 
REMARK    6  A    between atoms: C_14  and  C_15 
REMARK    7  A    between atoms: C_18  and  O_21 
REMARK    8  A    between atoms: O_21  and  C_22 
REMARK    9  A    between atoms: O_23  and  C_24 
REMARK   10  A    between atoms: C_24  and  C_25 
REMARK   11  A    between atoms: C_30  and  C_31 
ROOT
ATOM      1  C   LIG d   1       2.164  -1.911 -10.535  0.00  0.00     0.112 A 
ATOM      2  C   LIG d   1       2.520  -0.836  -9.588  0.00  0.00     0.038 A 
ATOM      3  C   LIG d   1       2.607  -0.761  -8.201  0.00  0.00    -0.008 A 
ATOM      4  C   LIG d   1       2.980   0.428  -7.602  0.00  0.00     0.122 A 
ATOM      5  C   LIG d   1       3.265   1.542  -8.386  0.00  0.00    -0.016 A 
ATOM      6  C   LIG d   1       3.180   1.475  -9.760  0.00  0.00    -0.015 A 
ATOM      7  C   LIG d   1       2.808   0.287 -10.378  0.00  0.00     0.137 A 
ATOM      8  O   LIG d   1       2.647  -0.059 -11.673  0.00  0.00    -0.454 OA
ATOM      9  C   LIG d   1       2.276  -1.343 -11.796  0.00  0.00     0.150 A 
ATOM     10  H   LIG d   1       2.385  -1.627  -7.595  0.00  0.00     0.066 H 
ATOM     11  H   LIG d   1       3.556   2.469  -7.913  0.00  0.00     0.066 H 
ATOM     12  H   LIG d   1       3.404   2.346 -10.357  0.00  0.00     0.066 H 
ENDROOT
BRANCH   4  13
ATOM     13  O   LIG d   1       3.067   0.510  -6.249  0.00  0.00    -0.487 OA
BRANCH  13  14
ATOM     14  C   LIG d   1       3.793  -0.525  -5.582  0.00  0.00     0.115 C 
ATOM     15  H   LIG d   1       3.229  -1.456  -5.634  0.00  0.00     0.075 H 
ATOM     16  H   LIG d   1       4.761  -0.659  -6.064  0.00  0.00     0.075 H 
BRANCH  14  17
ATOM     17  C   LIG d   1       4.000  -0.144  -4.138  0.00  0.00    -0.007 A 
ATOM     18  C   LIG d   1       4.322  -1.112  -3.207  0.00  0.00    -0.044 A 
ATOM     19  C   LIG d   1       4.517  -0.761  -1.884  0.00  0.00    -0.059 A 
ATOM     20  C   LIG d   1       4.379   0.556  -1.491  0.00  0.00    -0.061 A 
ATOM     21  H   LIG d   1       4.773  -1.519  -1.157  0.00  0.00     0.062 H 
ATOM     22  C   LIG d   1       4.051   1.524  -2.422  0.00  0.00    -0.061 A 
ATOM     23  H   LIG d   1       4.528   0.830  -0.456  0.00  0.00     0.062 H 
ATOM     24  C   LIG d   1       3.862   1.174  -3.745  0.00  0.00    -0.055 A 
ATOM     25  H   LIG d   1       3.943   2.554  -2.114  0.00  0.00     0.062 H 
ATOM     26  H   LIG d   1       3.605   1.930  -4.472  0.00  0.00     0.062 H 
BRANCH  18  27
ATOM     27  C   LIG d   1       4.468  -2.550  -3.635  0.00  0.00    -0.039 C 
ATOM     28  H   LIG d   1       3.497  -3.043  -3.591  0.00  0.00     0.028 H 
ATOM     29  H   LIG d   1       4.850  -2.589  -4.655  0.00  0.00     0.028 H 
ATOM     30  H   LIG d   1       5.164  -3.058  -2.968  0.00  0.00     0.028 H 
ENDBRANCH  18  27
ENDBRANCH  14  17
ENDBRANCH  13  14
ENDBRANCH   4  13
BRANCH   1  31
ATOM     31  C   LIG d   1       1.781  -3.287 -10.212  0.00  0.00     0.344 C 
ATOM     32  O   LIG d   1       0.614  -3.623 -10.273  0.00  0.00    -0.245 OA
BRANCH  31  33
ATOM     33  O   LIG d   1       2.723  -4.181  -9.848  0.00  0.00    -0.461 OA
BRANCH  33  34
ATOM     34  C   LIG d   1       3.706  -4.523 -10.828  0.00  0.00     0.090 C 
ATOM     35  H   LIG d   1       4.579  -4.949 -10.333  0.00  0.00     0.070 H 
ATOM     36  H   LIG d   1       4.000  -3.628 -11.375  0.00  0.00     0.070 H 
BRANCH  34  37
ATOM     37  C   LIG d   1       3.120  -5.547 -11.802  0.00  0.00    -0.031 C 
ATOM     38  H   LIG d   1       2.987  -6.500 -11.289  0.00  0.00     0.026 H 
ATOM     39  H   LIG d   1       2.157  -5.192 -12.167  0.00  0.00     0.026 H 
ATOM     40  H   LIG d   1       3.802  -5.680 -12.642  0.00  0.00     0.026 H 
ENDBRANCH  34  37
ENDBRANCH  33  34
ENDBRANCH  31  33
ENDBRANCH   1  31
BRANCH   9  41
ATOM     41  C   LIG d   1       2.022  -2.039 -13.070  0.00  0.00     0.018 A 
ATOM     42  C   LIG d   1       3.092  -2.437 -13.877  0.00  0.00    -0.048 A 
ATOM     43  C   LIG d   1       2.851  -3.093 -15.064  0.00  0.00    -0.019 A 
ATOM     44  H   LIG d   1       4.108  -2.236 -13.568  0.00  0.00     0.063 H 
ATOM     45  C   LIG d   1       1.546  -3.349 -15.465  0.00  0.00     0.120 A 
ATOM     46  H   LIG d   1       3.678  -3.405 -15.685  0.00  0.00     0.065 H 
ATOM     47  C   LIG d   1       0.477  -2.949 -14.670  0.00  0.00    -0.019 A 
ATOM     48  C   LIG d   1       0.710  -2.298 -13.478  0.00  0.00    -0.048 A 
ATOM     49  H   LIG d   1      -0.535  -3.149 -14.986  0.00  0.00     0.065 H 
ATOM     50  H   LIG d   1      -0.120  -1.989 -12.861  0.00  0.00     0.063 H 
BRANCH  45  51
ATOM     51  O   LIG d   1       1.312  -3.990 -16.639  0.00  0.00    -0.495 OA
BRANCH  51  52
ATOM     52  C   LIG d   1      -0.046  -4.322 -16.937  0.00  0.00     0.079 C 
ATOM     53  H   LIG d   1      -0.606  -3.411 -17.143  0.00  0.00     0.066 H 
ATOM     54  H   LIG d   1      -0.078  -4.974 -17.810  0.00  0.00     0.066 H 
ATOM     55  H   LIG d   1      -0.489  -4.836 -16.084  0.00  0.00     0.066 H 
ENDBRANCH  51  52
ENDBRANCH  45  51
ENDBRANCH   9  41
TORSDOF 11
ENDMDL
MODEL 7
REMARK VINA RESULT:      -6.0      7.463     10.562
REMARK  11 active torsions:
REMARK  status: ('A' for Active; 'I' for Inactive)
REMARK    1  A    between atoms: C_1  and  C_2 
REMARK    2  A    between atoms: C_2  and  O_3 
REMARK    3  A    between atoms: O_3  and  C_4 
REMARK    4  A    between atoms: C_4  and  C_6 
REMARK    5  A    between atoms: C_9  and  O_23 
REMARK    6  A    between atoms: C_14  and  C_15 
REMARK    7  A    between atoms: C_18  and  O_21 
REMARK    8  A    between atoms: O_21  and  C_22 
REMARK    9  A    between atoms: O_23  and  C_24 
REMARK   10  A    between atoms: C_24  and  C_25 
REMARK   11  A    between atoms: C_30  and  C_31 
ROOT
ATOM      1  C   LIG d   1       5.396  -0.345  -9.100  0.00  0.00     0.112 A 
ATOM      2  C   LIG d   1       6.182  -0.805  -7.939  0.00  0.00     0.038 A 
ATOM      3  C   LIG d   1       6.446  -0.274  -6.680  0.00  0.00    -0.008 A 
ATOM      4  C   LIG d   1       7.244  -0.975  -5.795  0.00  0.00     0.122 A 
ATOM      5  C   LIG d   1       7.779  -2.205  -6.165  0.00  0.00    -0.016 A 
ATOM      6  C   LIG d   1       7.522  -2.736  -7.411  0.00  0.00    -0.015 A 
ATOM      7  C   LIG d   1       6.721  -2.045  -8.312  0.00  0.00     0.137 A 
ATOM      8  O   LIG d   1       6.311  -2.320  -9.569  0.00  0.00    -0.454 OA
ATOM      9  C   LIG d   1       5.529  -1.344 -10.055  0.00  0.00     0.150 A 
ATOM     10  H   LIG d   1       6.029   0.681  -6.395  0.00  0.00     0.066 H 
ATOM     11  H   LIG d   1       8.402  -2.748  -5.470  0.00  0.00     0.066 H 
ATOM     12  H   LIG d   1       7.944  -3.691  -7.687  0.00  0.00     0.066 H 
ENDROOT
BRANCH   4  13
ATOM     13  O   LIG d   1       7.506  -0.463  -4.564  0.00  0.00    -0.487 OA
BRANCH  13  14
ATOM     14  C   LIG d   1       7.007  -1.190  -3.439  0.00  0.00     0.115 C 
ATOM     15  H   LIG d   1       6.960  -2.251  -3.684  0.00  0.00     0.075 H 
ATOM     16  H   LIG d   1       7.671  -1.043  -2.587  0.00  0.00     0.075 H 
BRANCH  14  17
ATOM     17  C   LIG d   1       5.628  -0.693  -3.091  0.00  0.00    -0.007 A 
ATOM     18  C   LIG d   1       4.528  -1.502  -3.303  0.00  0.00    -0.044 A 
ATOM     19  C   LIG d   1       3.263  -1.048  -2.980  0.00  0.00    -0.059 A 
ATOM     20  C   LIG d   1       3.097   0.219  -2.456  0.00  0.00    -0.061 A 
ATOM     21  H   LIG d   1       2.404  -1.683  -3.141  0.00  0.00     0.062 H 
ATOM     22  C   LIG d   1       4.196   1.032  -2.250  0.00  0.00    -0.061 A 
ATOM     23  H   LIG d   1       2.108   0.576  -2.206  0.00  0.00     0.062 H 
ATOM     24  C   LIG d   1       5.461   0.576  -2.567  0.00  0.00    -0.055 A 
ATOM     25  H   LIG d   1       4.067   2.023  -1.840  0.00  0.00     0.062 H 
ATOM     26  H   LIG d   1       6.320   1.210  -2.407  0.00  0.00     0.062 H 
BRANCH  18  27
ATOM     27  C   LIG d   1       4.709  -2.883  -3.879  0.00  0.00    -0.039 C 
ATOM     28  H   LIG d   1       4.840  -3.601  -3.070  0.00  0.00     0.028 H 
ATOM     29  H   LIG d   1       3.828  -3.151  -4.463  0.00  0.00     0.028 H 
ATOM     30  H   LIG d   1       5.588  -2.896  -4.522  0.00  0.00     0.028 H 
ENDBRANCH  18  27
ENDBRANCH  14  17
ENDBRANCH  13  14
ENDBRANCH   4  13
BRANCH   1  31
ATOM     31  C   LIG d   1       4.633   0.899  -9.219  0.00  0.00     0.344 C 
ATOM     32  O   LIG d   1       4.999   1.766  -9.989  0.00  0.00    -0.245 OA
BRANCH  31  33
ATOM     33  O   LIG d   1       3.524   1.083  -8.474  0.00  0.00    -0.461 OA
BRANCH  33  34
ATOM     34  C   LIG d   1       2.690  -0.058  -8.259  0.00  0.00     0.090 C 
ATOM     35  H   LIG d   1       2.154   0.056  -7.316  0.00  0.00     0.070 H 
ATOM     36  H   LIG d   1       3.306  -0.956  -8.220  0.00  0.00     0.070 H 
BRANCH  34  37
ATOM     37  C   LIG d   1       1.685  -0.178  -9.406  0.00  0.00    -0.031 C 
ATOM     38  H   LIG d   1       1.773  -1.164  -9.864  0.00  0.00     0.026 H 
ATOM     39  H   LIG d   1       0.675  -0.045  -9.020  0.00  0.00     0.026 H 
ATOM     40  H   LIG d   1       1.893   0.589 -10.152  0.00  0.00     0.026 H 
ENDBRANCH  34  37
ENDBRANCH  33  34
ENDBRANCH  31  33
ENDBRANCH   1  31
BRANCH   9  41
ATOM     41  C   LIG d   1       4.910  -1.333 -11.393  0.00  0.00     0.018 A 
ATOM     42  C   LIG d   1       5.580  -0.745 -12.470  0.00  0.00    -0.048 A 
ATOM     43  C   LIG d   1       5.001  -0.743 -13.719  0.00  0.00    -0.019 A 
ATOM     44  H   LIG d   1       6.553  -0.298 -12.324  0.00  0.00     0.063 H 
ATOM     45  C   LIG d   1       3.748  -1.313 -13.908  0.00  0.00     0.120 A 
ATOM     46  H   LIG d   1       5.520  -0.293 -14.553  0.00  0.00     0.065 H 
ATOM     47  C   LIG d   1       3.075  -1.892 -12.839  0.00  0.00    -0.019 A 
ATOM     48  C   LIG d   1       3.649  -1.905 -11.587  0.00  0.00    -0.048 A 
ATOM     49  H   LIG d   1       2.101  -2.334 -12.990  0.00  0.00     0.065 H 
ATOM     50  H   LIG d   1       3.126  -2.357 -10.757  0.00  0.00     0.063 H 
BRANCH  45  51
ATOM     51  O   LIG d   1       3.178  -1.303 -15.141  0.00  0.00    -0.495 OA
BRANCH  51  52
ATOM     52  C   LIG d   1       3.751  -0.427 -16.112  0.00  0.00     0.079 C 
ATOM     53  H   LIG d   1       4.837  -0.442 -16.021  0.00  0.00     0.066 H 
ATOM     54  H   LIG d   1       3.466  -0.756 -17.112  0.00  0.00     0.066 H 
ATOM     55  H   LIG d   1       3.387   0.587 -15.947  0.00  0.00     0.066 H 
ENDBRANCH  51  52
ENDBRANCH  45  51
ENDBRANCH   9  41
TORSDOF 11
ENDMDL
MODEL 8
REMARK VINA RESULT:      -5.8      3.401      5.804
REMARK  11 active torsions:
REMARK  status: ('A' for Active; 'I' for Inactive)
REMARK    1  A    between atoms: C_1  and  C_2 
REMARK    2  A    between atoms: C_2  and  O_3 
REMARK    3  A    between atoms: O_3  and  C_4 
REMARK    4  A    between atoms: C_4  and  C_6 
REMARK    5  A    between atoms: C_9  and  O_23 
REMARK    6  A    between atoms: C_14  and  C_15 
REMARK    7  A    between atoms: C_18  and  O_21 
REMARK    8  A    between atoms: O_21  and  C_22 
REMARK    9  A    between atoms: O_23  and  C_24 
REMARK   10  A    between atoms: C_24  and  C_25 
REMARK   11  A    between atoms: C_30  and  C_31 
ROOT
ATOM      1  C   LIG d   1       8.883   2.310  -5.448  0.00  0.00     0.112 A 
ATOM      2  C   LIG d   1       7.884   1.230  -5.562  0.00  0.00     0.038 A 
ATOM      3  C   LIG d   1       7.454   0.419  -6.608  0.00  0.00    -0.008 A 
ATOM      4  C   LIG d   1       6.470  -0.526  -6.381  0.00  0.00     0.122 A 
ATOM      5  C   LIG d   1       5.915  -0.662  -5.113  0.00  0.00    -0.016 A 
ATOM      6  C   LIG d   1       6.335   0.139  -4.073  0.00  0.00    -0.015 A 
ATOM      7  C   LIG d   1       7.324   1.093  -4.283  0.00  0.00     0.137 A 
ATOM      8  O   LIG d   1       7.916   1.992  -3.468  0.00  0.00    -0.454 OA
ATOM      9  C   LIG d   1       8.838   2.715  -4.121  0.00  0.00     0.150 A 
ATOM     10  H   LIG d   1       7.886   0.526  -7.592  0.00  0.00     0.066 H 
ATOM     11  H   LIG d   1       5.146  -1.401  -4.942  0.00  0.00     0.066 H 
ATOM     12  H   LIG d   1       5.896   0.024  -3.093  0.00  0.00     0.066 H 
ENDROOT
BRANCH   4  13
ATOM     13  O   LIG d   1       6.045  -1.322  -7.398  0.00  0.00    -0.487 OA
BRANCH  13  14
ATOM     14  C   LIG d   1       4.639  -1.348  -7.657  0.00  0.00     0.115 C 
ATOM     15  H   LIG d   1       4.402  -2.206  -8.286  0.00  0.00     0.075 H 
ATOM     16  H   LIG d   1       4.097  -1.428  -6.715  0.00  0.00     0.075 H 
BRANCH  14  17
ATOM     17  C   LIG d   1       4.234  -0.080  -8.362  0.00  0.00    -0.007 A 
ATOM     18  C   LIG d   1       3.309   0.767  -7.783  0.00  0.00    -0.044 A 
ATOM     19  C   LIG d   1       2.940   1.934  -8.428  0.00  0.00    -0.059 A 
ATOM     20  C   LIG d   1       3.490   2.247  -9.656  0.00  0.00    -0.061 A 
ATOM     21  H   LIG d   1       2.220   2.598  -7.973  0.00  0.00     0.062 H 
ATOM     22  C   LIG d   1       4.412   1.397 -10.238  0.00  0.00    -0.061 A 
ATOM     23  H   LIG d   1       3.201   3.157 -10.162  0.00  0.00     0.062 H 
ATOM     24  C   LIG d   1       4.784   0.234  -9.591  0.00  0.00    -0.055 A 
ATOM     25  H   LIG d   1       4.842   1.642 -11.199  0.00  0.00     0.062 H 
ATOM     26  H   LIG d   1       5.503  -0.431 -10.046  0.00  0.00     0.062 H 
BRANCH  18  27
ATOM     27  C   LIG d   1       2.705   0.423  -6.446  0.00  0.00    -0.039 C 
ATOM     28  H   LIG d   1       2.561  -0.654  -6.378  0.00  0.00     0.028 H 
ATOM     29  H   LIG d   1       3.374   0.751  -5.650  0.00  0.00     0.028 H 
ATOM     30  H   LIG d   1       1.744   0.926  -6.342  0.00  0.00     0.028 H 
ENDBRANCH  18  27
ENDBRANCH  14  17
ENDBRANCH  13  14
ENDBRANCH   4  13
BRANCH   1  31
ATOM     31  C   LIG d   1       9.745   2.837  -6.507  0.00  0.00     0.344 C 
ATOM     32  O   LIG d   1      10.897   2.459  -6.599  0.00  0.00    -0.245 OA
BRANCH  31  33
ATOM     33  O   LIG d   1       9.260   3.742  -7.382  0.00  0.00    -0.461 OA
BRANCH  33  34
ATOM     34  C   LIG d   1       9.965   4.980  -7.492  0.00  0.00     0.090 C 
ATOM     35  H   LIG d   1      11.031   4.783  -7.608  0.00  0.00     0.070 H 
ATOM     36  H   LIG d   1       9.802   5.572  -6.592  0.00  0.00     0.070 H 
BRANCH  34  37
ATOM     37  C   LIG d   1       9.454   5.752  -8.710  0.00  0.00    -0.031 C 
ATOM     38  H   LIG d   1       9.377   6.811  -8.463  0.00  0.00     0.026 H 
ATOM     39  H   LIG d   1      10.147   5.622  -9.541  0.00  0.00     0.026 H 
ATOM     40  H   LIG d   1       8.472   5.373  -8.993  0.00  0.00     0.026 H 
ENDBRANCH  34  37
ENDBRANCH  33  34
ENDBRANCH  31  33
ENDBRANCH   1  31
BRANCH   9  41
ATOM     41  C   LIG d   1       9.670   3.776  -3.525  0.00  0.00     0.018 A 
ATOM     42  C   LIG d   1      10.694   3.446  -2.632  0.00  0.00    -0.048 A 
ATOM     43  C   LIG d   1      11.472   4.440  -2.083  0.00  0.00    -0.019 A 
ATOM     44  H   LIG d   1      10.878   2.413  -2.378  0.00  0.00     0.063 H 
ATOM     45  C   LIG d   1      11.233   5.771  -2.405  0.00  0.00     0.120 A 
ATOM     46  H   LIG d   1      12.267   4.186  -1.397  0.00  0.00     0.065 H 
ATOM     47  C   LIG d   1      10.212   6.105  -3.286  0.00  0.00    -0.019 A 
ATOM     48  C   LIG d   1       9.432   5.116  -3.846  0.00  0.00    -0.048 A 
ATOM     49  H   LIG d   1      10.029   7.140  -3.533  0.00  0.00     0.065 H 
ATOM     50  H   LIG d   1       8.640   5.377  -4.532  0.00  0.00     0.063 H 
BRANCH  45  51
ATOM     51  O   LIG d   1      12.000   6.748  -1.856  0.00  0.00    -0.495 OA
BRANCH  51  52
ATOM     52  C   LIG d   1      11.319   7.898  -1.351  0.00  0.00     0.079 C 
ATOM     53  H   LIG d   1      10.499   8.160  -2.020  0.00  0.00     0.066 H 
ATOM     54  H   LIG d   1      10.922   7.680  -0.359  0.00  0.00     0.066 H 
ATOM     55  H   LIG d   1      12.016   8.734  -1.287  0.00  0.00     0.066 H 
ENDBRANCH  51  52
ENDBRANCH  45  51
ENDBRANCH   9  41
TORSDOF 11
ENDMDL
MODEL 9
REMARK VINA RESULT:      -5.8      2.514      3.491
REMARK  11 active torsions:
REMARK  status: ('A' for Active; 'I' for Inactive)
REMARK    1  A    between atoms: C_1  and  C_2 
REMARK    2  A    between atoms: C_2  and  O_3 
REMARK    3  A    between atoms: O_3  and  C_4 
REMARK    4  A    between atoms: C_4  and  C_6 
REMARK    5  A    between atoms: C_9  and  O_23 
REMARK    6  A    between atoms: C_14  and  C_15 
REMARK    7  A    between atoms: C_18  and  O_21 
REMARK    8  A    between atoms: O_21  and  C_22 
REMARK    9  A    between atoms: O_23  and  C_24 
REMARK   10  A    between atoms: C_24  and  C_25 
REMARK   11  A    between atoms: C_30  and  C_31 
ROOT
ATOM      1  C   LIG d   1      10.616   4.882  -3.030  0.00  0.00     0.112 A 
ATOM      2  C   LIG d   1      10.067   3.641  -3.610  0.00  0.00     0.038 A 
ATOM      3  C   LIG d   1       8.792   3.235  -3.995  0.00  0.00    -0.008 A 
ATOM      4  C   LIG d   1       8.606   1.970  -4.520  0.00  0.00     0.122 A 
ATOM      5  C   LIG d   1       9.690   1.109  -4.662  0.00  0.00    -0.016 A 
ATOM      6  C   LIG d   1      10.955   1.504  -4.283  0.00  0.00    -0.015 A 
ATOM      7  C   LIG d   1      11.160   2.772  -3.753  0.00  0.00     0.137 A 
ATOM      8  O   LIG d   1      12.264   3.411  -3.309  0.00  0.00    -0.454 OA
ATOM      9  C   LIG d   1      11.977   4.651  -2.885  0.00  0.00     0.150 A 
ATOM     10  H   LIG d   1       7.953   3.906  -3.884  0.00  0.00     0.066 H 
ATOM     11  H   LIG d   1       9.538   0.122  -5.073  0.00  0.00     0.066 H 
ATOM     12  H   LIG d   1      11.788   0.826  -4.397  0.00  0.00     0.066 H 
ENDROOT
BRANCH   4  13
ATOM     13  O   LIG d   1       7.364   1.567  -4.898  0.00  0.00    -0.487 OA
BRANCH  13  14
ATOM     14  C   LIG d   1       7.074   0.172  -4.789  0.00  0.00     0.115 C 
ATOM     15  H   LIG d   1       6.651  -0.186  -5.728  0.00  0.00     0.075 H 
ATOM     16  H   LIG d   1       7.991  -0.375  -4.572  0.00  0.00     0.075 H 
BRANCH  14  17
ATOM     17  C   LIG d   1       6.083  -0.049  -3.676  0.00  0.00    -0.007 A 
ATOM     18  C   LIG d   1       5.656  -1.329  -3.375  0.00  0.00    -0.044 A 
ATOM     19  C   LIG d   1       4.750  -1.532  -2.350  0.00  0.00    -0.059 A 
ATOM     20  C   LIG d   1       4.263  -0.456  -1.634  0.00  0.00    -0.061 A 
ATOM     21  H   LIG d   1       4.420  -2.533  -2.113  0.00  0.00     0.062 H 
ATOM     22  C   LIG d   1       4.686   0.825  -1.939  0.00  0.00    -0.061 A 
ATOM     23  H   LIG d   1       3.553  -0.614  -0.836  0.00  0.00     0.062 H 
ATOM     24  C   LIG d   1       5.596   1.028  -2.959  0.00  0.00    -0.055 A 
ATOM     25  H   LIG d   1       4.306   1.667  -1.379  0.00  0.00     0.062 H 
ATOM     26  H   LIG d   1       5.926   2.028  -3.198  0.00  0.00     0.062 H 
BRANCH  18  27
ATOM     27  C   LIG d   1       6.182  -2.503  -4.160  0.00  0.00    -0.039 C 
ATOM     28  H   LIG d   1       5.622  -2.600  -5.089  0.00  0.00     0.028 H 
ATOM     29  H   LIG d   1       7.237  -2.346  -4.385  0.00  0.00     0.028 H 
ATOM     30  H   LIG d   1       6.069  -3.413  -3.571  0.00  0.00     0.028 H 
ENDBRANCH  18  27
ENDBRANCH  14  17
ENDBRANCH  13  14
ENDBRANCH   4  13
BRANCH   1  31
ATOM     31  C   LIG d   1       9.882   6.101  -2.687  0.00  0.00     0.344 C 
ATOM     32  O   LIG d   1       9.822   6.469  -1.529  0.00  0.00    -0.245 OA
BRANCH  31  33
ATOM     33  O   LIG d   1       9.272   6.816  -3.655  0.00  0.00    -0.461 OA
BRANCH  33  34
ATOM     34  C   LIG d   1      10.026   7.077  -4.841  0.00  0.00     0.090 C 
ATOM     35  H   LIG d   1       9.866   6.272  -5.558  0.00  0.00     0.070 H 
ATOM     36  H   LIG d   1      11.085   7.137  -4.592  0.00  0.00     0.070 H 
BRANCH  34  37
ATOM     37  C   LIG d   1       9.571   8.403  -5.453  0.00  0.00    -0.031 C 
ATOM     38  H   LIG d   1      10.242   8.677  -6.267  0.00  0.00     0.026 H 
ATOM     39  H   LIG d   1       8.556   8.297  -5.837  0.00  0.00     0.026 H 
ATOM     40  H   LIG d   1       9.591   9.181  -4.689  0.00  0.00     0.026 H 
ENDBRANCH  34  37
ENDBRANCH  33  34
ENDBRANCH  31  33
ENDBRANCH   1  31
BRANCH   9  41
ATOM     41  C   LIG d   1      12.952   5.614  -2.345  0.00  0.00     0.018 A 
ATOM     42  C   LIG d   1      13.444   6.644  -3.154  0.00  0.00    -0.048 A 
ATOM     43  C   LIG d   1      14.350   7.545  -2.643  0.00  0.00    -0.019 A 
ATOM     44  H   LIG d   1      13.108   6.734  -4.177  0.00  0.00     0.063 H 
ATOM     45  C   LIG d   1      14.786   7.427  -1.329  0.00  0.00     0.120 A 
ATOM     46  H   LIG d   1      14.726   8.343  -3.266  0.00  0.00     0.065 H 
ATOM     47  C   LIG d   1      14.306   6.402  -0.522  0.00  0.00    -0.019 A 
ATOM     48  C   LIG d   1      13.393   5.499  -1.023  0.00  0.00    -0.048 A 
ATOM     49  H   LIG d   1      14.647   6.313   0.498  0.00  0.00     0.065 H 
ATOM     50  H   LIG d   1      13.020   4.704  -0.395  0.00  0.00     0.063 H 
BRANCH  45  51
ATOM     51  O   LIG d   1      15.684   8.315  -0.831  0.00  0.00    -0.495 OA
BRANCH  51  52
ATOM     52  C   LIG d   1      16.406   7.920   0.337  0.00  0.00     0.079 C 
ATOM     53  H   LIG d   1      17.085   7.105   0.087  0.00  0.00     0.066 H 
ATOM     54  H   LIG d   1      16.979   8.767   0.714  0.00  0.00     0.066 H 
ATOM     55  H   LIG d   1      15.705   7.587   1.102  0.00  0.00     0.066 H 
ENDBRANCH  51  52
ENDBRANCH  45  51
ENDBRANCH   9  41
TORSDOF 11
ENDMDL
