MODEL 1
REMARK VINA RESULT:      -6.1      0.000      0.000
REMARK  6 active torsions:
REMARK  status: ('A' for Active; 'I' for Inactive)
REMARK    1  A    between atoms: C_1  and  O_2 
REMARK    2  A    between atoms: O_2  and  C_3 
REMARK    3  A    between atoms: C_3  and  C_5 
REMARK    4  A    between atoms: N_10  and  C_13 
REMARK    5  A    between atoms: C_13  and  C_14 
REMARK       I    between atoms: N_22  and  C_23 
REMARK    6  A    between atoms: C_23  and  C_25 
ROOT
ATOM      1  C   LIG d   1       2.708  -3.501 -11.253  0.00  0.00     0.129 C 
ATOM      2  H   LIG d   1       3.588  -3.917 -11.742  0.00  0.00     0.062 H 
ATOM      3  C   LIG d   1       2.149  -4.517 -10.249  0.00  0.00     0.020 C 
ATOM      4  C   LIG d   1       3.050  -4.552  -9.039  0.00  0.00     0.066 A 
ATOM      5  C   LIG d   1       3.940  -3.588  -8.723  0.00  0.00     0.059 A 
ATOM      6  N   LIG d   1       4.556  -3.969  -7.572  0.00  0.00    -0.328 N 
ATOM      7  C   LIG d   1       4.025  -5.162  -7.217  0.00  0.00     0.097 A 
ATOM      8  N   LIG d   1       3.126  -5.502  -8.102  0.00  0.00    -0.240 NA
ATOM      9  C   LIG d   1       4.166  -2.342  -9.543  0.00  0.00     0.058 C 
ATOM     10  N   LIG d   1       3.080  -2.270 -10.538  0.00  0.00    -0.278 N 
ATOM     11  C   LIG d   1       2.446  -1.109 -10.787  0.00  0.00     0.254 C 
ATOM     12  O   LIG d   1       1.535  -1.072 -11.593  0.00  0.00    -0.269 OA
ATOM     13  H   LIG d   1       1.145  -4.220  -9.949  0.00  0.00     0.035 H 
ATOM     14  H   LIG d   1       2.115  -5.505 -10.710  0.00  0.00     0.035 H 
ATOM     15  H   LIG d   1       4.300  -5.738  -6.345  0.00  0.00     0.103 H 
ATOM     16  H   LIG d   1       4.137  -1.464  -8.898  0.00  0.00     0.053 H 
ATOM     17  H   LIG d   1       5.131  -2.400 -10.048  0.00  0.00     0.053 H 
ENDROOT
BRANCH   6  18
ATOM     18  C   LIG d   1       5.596  -3.228  -6.853  0.00  0.00     0.050 C 
ATOM     19  H   LIG d   1       6.296  -3.932  -6.402  0.00  0.00     0.054 H 
ATOM     20  H   LIG d   1       6.129  -2.582  -7.551  0.00  0.00     0.054 H 
BRANCH  18  21
ATOM     21  C   LIG d   1       4.961  -2.389  -5.774  0.00  0.00    -0.028 A 
ATOM     22  C   LIG d   1       4.511  -1.114  -6.066  0.00  0.00    -0.056 A 
ATOM     23  C   LIG d   1       3.930  -0.344  -5.077  0.00  0.00    -0.043 A 
ATOM     24  H   LIG d   1       4.614  -0.721  -7.067  0.00  0.00     0.062 H 
ATOM     25  C   LIG d   1       3.798  -0.848  -3.795  0.00  0.00     0.041 A 
ATOM     26  H   LIG d   1       3.579   0.651  -5.304  0.00  0.00     0.063 H 
ATOM     27  C   LIG d   1       4.249  -2.124  -3.505  0.00  0.00    -0.043 A 
ATOM     28 CL   LIG d   1       3.068   0.119  -2.552  0.00  0.00    -0.084 Cl
ATOM     29  C   LIG d   1       4.825  -2.895  -4.496  0.00  0.00    -0.056 A 
ATOM     30  H   LIG d   1       4.146  -2.518  -2.504  0.00  0.00     0.063 H 
ATOM     31  H   LIG d   1       5.173  -3.892  -4.270  0.00  0.00     0.062 H 
ENDBRANCH  18  21
ENDBRANCH   6  18
BRANCH   1  32
ATOM     32  C   LIG d   1       1.659  -3.185 -12.287  0.00  0.00     0.328 C 
ATOM     33  O   LIG d   1       1.988  -2.809 -13.386  0.00  0.00    -0.249 OA
BRANCH  32  34
ATOM     34  O   LIG d   1       0.357  -3.318 -11.985  0.00  0.00    -0.467 OA
BRANCH  34  35
ATOM     35  C   LIG d   1      -0.564  -3.476 -13.096  0.00  0.00     0.082 C 
ATOM     36  H   LIG d   1      -0.686  -4.535 -13.319  0.00  0.00     0.066 H 
ATOM     37  H   LIG d   1      -1.530  -3.046 -12.830  0.00  0.00     0.066 H 
ATOM     38  H   LIG d   1      -0.167  -2.963 -13.972  0.00  0.00     0.066 H 
ENDBRANCH  34  35
ENDBRANCH  32  34
ENDBRANCH   1  32
BRANCH  11  39
ATOM     39  C   LIG d   1       2.852   0.113 -10.084  0.00  0.00     0.074 A 
ATOM     40  S   LIG d   1       4.022   1.362 -10.586  0.00  0.00    -0.092 SA
ATOM     41  C   LIG d   1       3.889   2.410  -9.210  0.00  0.00    -0.024 A 
ATOM     42  C   LIG d   1       2.978   1.778  -8.426  0.00  0.00    -0.054 A 
ATOM     43  H   LIG d   1       4.409   3.337  -9.021  0.00  0.00     0.069 H 
ATOM     44  C   LIG d   1       2.430   0.595  -8.855  0.00  0.00    -0.043 A 
ATOM     45  H   LIG d   1       2.687   2.202  -7.476  0.00  0.00     0.062 H 
ATOM     46  H   LIG d   1       1.702   0.063  -8.260  0.00  0.00     0.063 H 
ENDBRANCH  11  39
TORSDOF 6
ENDMDL
MODEL 2
REMARK VINA RESULT:      -5.8      5.032      7.757
REMARK  6 active torsions:
REMARK  status: ('A' for Active; 'I' for Inactive)
REMARK    1  A    between atoms: C_1  and  O_2 
REMARK    2  A    between atoms: O_2  and  C_3 
REMARK    3  A    between atoms: C_3  and  C_5 
REMARK    4  A    between atoms: N_10  and  C_13 
REMARK    5  A    between atoms: C_13  and  C_14 
REMARK       I    between atoms: N_22  and  C_23 
REMARK    6  A    between atoms: C_23  and  C_25 
ROOT
ATOM      1  C   LIG d   1       8.149   0.020  -7.000  0.00  0.00     0.129 C 
ATOM      2  H   LIG d   1       8.144  -0.909  -7.569  0.00  0.00     0.062 H 
ATOM      3  C   LIG d   1       7.903   1.203  -7.944  0.00  0.00     0.020 C 
ATOM      4  C   LIG d   1       6.447   1.219  -8.336  0.00  0.00     0.066 A 
ATOM      5  C   LIG d   1       5.470   0.570  -7.667  0.00  0.00     0.059 A 
ATOM      6  N   LIG d   1       4.301   0.823  -8.313  0.00  0.00    -0.328 N 
ATOM      7  C   LIG d   1       4.597   1.622  -9.366  0.00  0.00     0.097 A 
ATOM      8  N   LIG d   1       5.883   1.851  -9.370  0.00  0.00    -0.240 NA
ATOM      9  C   LIG d   1       5.701  -0.273  -6.438  0.00  0.00     0.058 C 
ATOM     10  N   LIG d   1       7.082  -0.020  -5.987  0.00  0.00    -0.278 N 
ATOM     11  C   LIG d   1       7.361   0.170  -4.683  0.00  0.00     0.254 C 
ATOM     12  O   LIG d   1       8.502   0.402  -4.331  0.00  0.00    -0.269 OA
ATOM     13  H   LIG d   1       8.156   2.134  -7.437  0.00  0.00     0.035 H 
ATOM     14  H   LIG d   1       8.522   1.093  -8.836  0.00  0.00     0.035 H 
ATOM     15  H   LIG d   1       3.886   2.006 -10.083  0.00  0.00     0.103 H 
ATOM     16  H   LIG d   1       4.998   0.012  -5.656  0.00  0.00     0.053 H 
ATOM     17  H   LIG d   1       5.577  -1.329  -6.682  0.00  0.00     0.053 H 
ENDROOT
BRANCH   6  18
ATOM     18  C   LIG d   1       2.973   0.327  -7.942  0.00  0.00     0.050 C 
ATOM     19  H   LIG d   1       3.001  -0.055  -6.921  0.00  0.00     0.054 H 
ATOM     20  H   LIG d   1       2.251   1.141  -8.005  0.00  0.00     0.054 H 
BRANCH  18  21
ATOM     21  C   LIG d   1       2.568  -0.779  -8.881  0.00  0.00    -0.028 A 
ATOM     22  C   LIG d   1       1.616  -0.544  -9.855  0.00  0.00    -0.056 A 
ATOM     23  C   LIG d   1       1.243  -1.558 -10.717  0.00  0.00    -0.043 A 
ATOM     24  H   LIG d   1       1.163   0.433  -9.943  0.00  0.00     0.062 H 
ATOM     25  C   LIG d   1       1.823  -2.809 -10.604  0.00  0.00     0.041 A 
ATOM     26  H   LIG d   1       0.500  -1.375 -11.477  0.00  0.00     0.063 H 
ATOM     27  C   LIG d   1       2.776  -3.044  -9.628  0.00  0.00    -0.043 A 
ATOM     28 CL   LIG d   1       1.356  -4.084 -11.686  0.00  0.00    -0.084 Cl
ATOM     29  C   LIG d   1       3.152  -2.027  -8.771  0.00  0.00    -0.056 A 
ATOM     30  H   LIG d   1       3.230  -4.020  -9.540  0.00  0.00     0.063 H 
ATOM     31  H   LIG d   1       3.898  -2.209  -8.012  0.00  0.00     0.062 H 
ENDBRANCH  18  21
ENDBRANCH   6  18
BRANCH   1  32
ATOM     32  C   LIG d   1       9.483   0.187  -6.319  0.00  0.00     0.328 C 
ATOM     33  O   LIG d   1       9.943   1.292  -6.156  0.00  0.00    -0.249 OA
BRANCH  32  34
ATOM     34  O   LIG d   1      10.161  -0.892  -5.896  0.00  0.00    -0.467 OA
BRANCH  34  35
ATOM     35  C   LIG d   1       9.886  -2.148  -6.570  0.00  0.00     0.082 C 
ATOM     36  H   LIG d   1      10.703  -2.845  -6.386  0.00  0.00     0.066 H 
ATOM     37  H   LIG d   1       8.956  -2.569  -6.188  0.00  0.00     0.066 H 
ATOM     38  H   LIG d   1       9.792  -1.973  -7.641  0.00  0.00     0.066 H 
ENDBRANCH  34  35
ENDBRANCH  32  34
ENDBRANCH   1  32
BRANCH  11  39
ATOM     39  C   LIG d   1       6.287   0.097  -3.687  0.00  0.00     0.074 A 
ATOM     40  S   LIG d   1       5.454  -1.338  -3.034  0.00  0.00    -0.092 SA
ATOM     41  C   LIG d   1       4.367  -0.536  -1.947  0.00  0.00    -0.024 A 
ATOM     42  C   LIG d   1       4.667   0.777  -2.122  0.00  0.00    -0.054 A 
ATOM     43  H   LIG d   1       3.628  -0.975  -1.293  0.00  0.00     0.069 H 
ATOM     44  C   LIG d   1       5.651   1.127  -3.011  0.00  0.00    -0.043 A 
ATOM     45  H   LIG d   1       4.136   1.537  -1.566  0.00  0.00     0.062 H 
ATOM     46  H   LIG d   1       5.918   2.161  -3.178  0.00  0.00     0.063 H 
ENDBRANCH  11  39
TORSDOF 6
ENDMDL
MODEL 3
REMARK VINA RESULT:      -5.7      4.574      7.839
REMARK  6 active torsions:
REMARK  status: ('A' for Active; 'I' for Inactive)
REMARK    1  A    between atoms: C_1  and  O_2 
REMARK    2  A    between atoms: O_2  and  C_3 
REMARK    3  A    between atoms: C_3  and  C_5 
REMARK    4  A    between atoms: N_10  and  C_13 
REMARK    5  A    between atoms: C_13  and  C_14 
REMARK       I    between atoms: N_22  and  C_23 
REMARK    6  A    between atoms: C_23  and  C_25 
ROOT
ATOM      1  C   LIG d   1       3.962  -0.088  -4.380  0.00  0.00     0.129 C 
ATOM      2  H   LIG d   1       4.735   0.673  -4.276  0.00  0.00     0.062 H 
ATOM      3  C   LIG d   1       2.793   0.477  -5.196  0.00  0.00     0.020 C 
ATOM      4  C   LIG d   1       3.200   0.546  -6.648  0.00  0.00     0.066 A 
ATOM      5  C   LIG d   1       4.237  -0.135  -7.181  0.00  0.00     0.059 A 
ATOM      6  N   LIG d   1       4.287   0.178  -8.504  0.00  0.00    -0.328 N 
ATOM      7  C   LIG d   1       3.277   1.048  -8.742  0.00  0.00     0.097 A 
ATOM      8  N   LIG d   1       2.634   1.262  -7.624  0.00  0.00    -0.240 NA
ATOM      9  C   LIG d   1       5.140  -1.054  -6.398  0.00  0.00     0.058 C 
ATOM     10  N   LIG d   1       4.517  -1.258  -5.078  0.00  0.00    -0.278 N 
ATOM     11  C   LIG d   1       4.458  -2.485  -4.523  0.00  0.00     0.254 C 
ATOM     12  O   LIG d   1       3.918  -2.640  -3.444  0.00  0.00    -0.269 OA
ATOM     13  H   LIG d   1       1.925  -0.174  -5.091  0.00  0.00     0.035 H 
ATOM     14  H   LIG d   1       2.546   1.476  -4.837  0.00  0.00     0.035 H 
ATOM     15  H   LIG d   1       3.042   1.492  -9.698  0.00  0.00     0.103 H 
ATOM     16  H   LIG d   1       5.236  -2.009  -6.915  0.00  0.00     0.053 H 
ATOM     17  H   LIG d   1       6.123  -0.596  -6.279  0.00  0.00     0.053 H 
ENDROOT
BRANCH   6  18
ATOM     18  C   LIG d   1       5.250  -0.329  -9.484  0.00  0.00     0.050 C 
ATOM     19  H   LIG d   1       5.948   0.464  -9.752  0.00  0.00     0.054 H 
ATOM     20  H   LIG d   1       5.799  -1.166  -9.054  0.00  0.00     0.054 H 
BRANCH  18  21
ATOM     21  C   LIG d   1       4.516  -0.790 -10.718  0.00  0.00    -0.028 A 
ATOM     22  C   LIG d   1       4.644  -0.085 -11.901  0.00  0.00    -0.056 A 
ATOM     23  C   LIG d   1       3.971  -0.507 -13.032  0.00  0.00    -0.043 A 
ATOM     24  H   LIG d   1       5.270   0.795 -11.941  0.00  0.00     0.062 H 
ATOM     25  C   LIG d   1       3.170  -1.633 -12.981  0.00  0.00     0.041 A 
ATOM     26  H   LIG d   1       4.071   0.043 -13.956  0.00  0.00     0.063 H 
ATOM     27  C   LIG d   1       3.042  -2.337 -11.796  0.00  0.00    -0.043 A 
ATOM     28 CL   LIG d   1       2.324  -2.163 -14.401  0.00  0.00    -0.084 Cl
ATOM     29  C   LIG d   1       3.720  -1.918 -10.667  0.00  0.00    -0.056 A 
ATOM     30  H   LIG d   1       2.417  -3.217 -11.755  0.00  0.00     0.063 H 
ATOM     31  H   LIG d   1       3.624  -2.470  -9.744  0.00  0.00     0.062 H 
ENDBRANCH  18  21
ENDBRANCH   6  18
BRANCH   1  32
ATOM     32  C   LIG d   1       3.471  -0.500  -3.016  0.00  0.00     0.328 C 
ATOM     33  O   LIG d   1       2.352  -0.933  -2.883  0.00  0.00    -0.249 OA
BRANCH  32  34
ATOM     34  O   LIG d   1       4.278  -0.384  -1.949  0.00  0.00    -0.467 OA
BRANCH  34  35
ATOM     35  C   LIG d   1       4.668   0.960  -1.562  0.00  0.00     0.082 C 
ATOM     36  H   LIG d   1       5.139   1.460  -2.408  0.00  0.00     0.066 H 
ATOM     37  H   LIG d   1       3.785   1.520  -1.254  0.00  0.00     0.066 H 
ATOM     38  H   LIG d   1       5.373   0.908  -0.732  0.00  0.00     0.066 H 
ENDBRANCH  34  35
ENDBRANCH  32  34
ENDBRANCH   1  32
BRANCH  11  39
ATOM     39  C   LIG d   1       5.043  -3.633  -5.222  0.00  0.00     0.074 A 
ATOM     40  S   LIG d   1       4.299  -4.714  -6.430  0.00  0.00    -0.092 SA
ATOM     41  C   LIG d   1       5.654  -5.757  -6.717  0.00  0.00    -0.024 A 
ATOM     42  C   LIG d   1       6.609  -5.258  -5.889  0.00  0.00    -0.054 A 
ATOM     43  H   LIG d   1       5.721  -6.601  -7.387  0.00  0.00     0.069 H 
ATOM     44  C   LIG d   1       6.318  -4.166  -5.111  0.00  0.00    -0.043 A 
ATOM     45  H   LIG d   1       7.587  -5.716  -5.845  0.00  0.00     0.062 H 
ATOM     46  H   LIG d   1       7.051  -3.741  -4.441  0.00  0.00     0.063 H 
ENDBRANCH  11  39
TORSDOF 6
ENDMDL
MODEL 4
REMARK VINA RESULT:      -5.7      4.847      7.389
REMARK  6 active torsions:
REMARK  status: ('A' for Active; 'I' for Inactive)
REMARK    1  A    between atoms: C_1  and  O_2 
REMARK    2  A    between atoms: O_2  and  C_3 
REMARK    3  A    between atoms: C_3  and  C_5 
REMARK    4  A    between atoms: N_10  and  C_13 
REMARK    5  A    between atoms: C_13  and  C_14 
REMARK       I    between atoms: N_22  and  C_23 
REMARK    6  A    between atoms: C_23  and  C_25 
ROOT
ATOM      1  C   LIG d   1       7.271  -2.387  -6.200  0.00  0.00     0.129 C 
ATOM      2  H   LIG d   1       6.773  -3.095  -6.861  0.00  0.00     0.062 H 
ATOM      3  C   LIG d   1       8.216  -1.498  -7.018  0.00  0.00     0.020 C 
ATOM      4  C   LIG d   1       7.393  -0.499  -7.795  0.00  0.00     0.066 A 
ATOM      5  C   LIG d   1       6.112  -0.183  -7.511  0.00  0.00     0.059 A 
ATOM      6  N   LIG d   1       5.716   0.748  -8.420  0.00  0.00    -0.328 N 
ATOM      7  C   LIG d   1       6.771   0.974  -9.239  0.00  0.00     0.097 A 
ATOM      8  N   LIG d   1       7.768   0.222  -8.856  0.00  0.00    -0.240 NA
ATOM      9  C   LIG d   1       5.318  -0.792  -6.383  0.00  0.00     0.058 C 
ATOM     10  N   LIG d   1       6.265  -1.543  -5.538  0.00  0.00    -0.278 N 
ATOM     11  C   LIG d   1       6.210  -1.458  -4.195  0.00  0.00     0.254 C 
ATOM     12  O   LIG d   1       7.015  -2.065  -3.513  0.00  0.00    -0.269 OA
ATOM     13  H   LIG d   1       8.894  -0.971  -6.347  0.00  0.00     0.035 H 
ATOM     14  H   LIG d   1       8.791  -2.115  -7.709  0.00  0.00     0.035 H 
ATOM     15  H   LIG d   1       6.784   1.662 -10.071  0.00  0.00     0.103 H 
ATOM     16  H   LIG d   1       4.842  -0.005  -5.798  0.00  0.00     0.053 H 
ATOM     17  H   LIG d   1       4.561  -1.467  -6.784  0.00  0.00     0.053 H 
ENDROOT
BRANCH   6  18
ATOM     18  C   LIG d   1       4.400   1.386  -8.498  0.00  0.00     0.050 C 
ATOM     19  H   LIG d   1       3.955   1.426  -7.503  0.00  0.00     0.054 H 
ATOM     20  H   LIG d   1       4.510   2.398  -8.887  0.00  0.00     0.054 H 
BRANCH  18  21
ATOM     21  C   LIG d   1       3.507   0.589  -9.415  0.00  0.00    -0.028 A 
ATOM     22  C   LIG d   1       2.385  -0.040  -8.910  0.00  0.00    -0.056 A 
ATOM     23  C   LIG d   1       1.566  -0.772  -9.750  0.00  0.00    -0.043 A 
ATOM     24  H   LIG d   1       2.146   0.040  -7.859  0.00  0.00     0.062 H 
ATOM     25  C   LIG d   1       1.871  -0.875 -11.095  0.00  0.00     0.041 A 
ATOM     26  H   LIG d   1       0.690  -1.263  -9.356  0.00  0.00     0.063 H 
ATOM     27  C   LIG d   1       2.996  -0.245 -11.599  0.00  0.00    -0.043 A 
ATOM     28 CL   LIG d   1       0.844  -1.794 -12.151  0.00  0.00    -0.084 Cl
ATOM     29  C   LIG d   1       3.810   0.491 -10.760  0.00  0.00    -0.056 A 
ATOM     30  H   LIG d   1       3.234  -0.324 -12.649  0.00  0.00     0.063 H 
ATOM     31  H   LIG d   1       4.685   0.986 -11.154  0.00  0.00     0.062 H 
ENDBRANCH  18  21
ENDBRANCH   6  18
BRANCH   1  32
ATOM     32  C   LIG d   1       8.062  -3.138  -5.160  0.00  0.00     0.328 C 
ATOM     33  O   LIG d   1       9.111  -2.693  -4.761  0.00  0.00    -0.249 OA
BRANCH  32  34
ATOM     34  O   LIG d   1       7.600  -4.303  -4.678  0.00  0.00    -0.467 OA
BRANCH  34  35
ATOM     35  C   LIG d   1       6.855  -5.147  -5.595  0.00  0.00     0.082 C 
ATOM     36  H   LIG d   1       7.020  -6.193  -5.341  0.00  0.00     0.066 H 
ATOM     37  H   LIG d   1       5.792  -4.917  -5.517  0.00  0.00     0.066 H 
ATOM     38  H   LIG d   1       7.193  -4.962  -6.614  0.00  0.00     0.066 H 
ENDBRANCH  34  35
ENDBRANCH  32  34
ENDBRANCH   1  32
BRANCH  11  39
ATOM     39  C   LIG d   1       5.180  -0.633  -3.554  0.00  0.00     0.074 A 
ATOM     40  S   LIG d   1       5.301   1.034  -2.931  0.00  0.00    -0.092 SA
ATOM     41  C   LIG d   1       3.673   1.218  -2.364  0.00  0.00    -0.024 A 
ATOM     42  C   LIG d   1       3.105   0.019  -2.658  0.00  0.00    -0.054 A 
ATOM     43  H   LIG d   1       3.222   2.076  -1.888  0.00  0.00     0.069 H 
ATOM     44  C   LIG d   1       3.861  -0.949  -3.270  0.00  0.00    -0.043 A 
ATOM     45  H   LIG d   1       2.070  -0.169  -2.412  0.00  0.00     0.062 H 
ATOM     46  H   LIG d   1       3.445  -1.914  -3.520  0.00  0.00     0.063 H 
ENDBRANCH  11  39
TORSDOF 6
ENDMDL
MODEL 5
REMARK VINA RESULT:      -5.6      4.600      7.409
REMARK  6 active torsions:
REMARK  status: ('A' for Active; 'I' for Inactive)
REMARK    1  A    between atoms: C_1  and  O_2 
REMARK    2  A    between atoms: O_2  and  C_3 
REMARK    3  A    between atoms: C_3  and  C_5 
REMARK    4  A    between atoms: N_10  and  C_13 
REMARK    5  A    between atoms: C_13  and  C_14 
REMARK       I    between atoms: N_22  and  C_23 
REMARK    6  A    between atoms: C_23  and  C_25 
ROOT
ATOM      1  C   LIG d   1       3.868  -0.161  -4.445  0.00  0.00     0.129 C 
ATOM      2  H   LIG d   1       4.548   0.684  -4.342  0.00  0.00     0.062 H 
ATOM      3  C   LIG d   1       2.740   0.203  -5.418  0.00  0.00     0.020 C 
ATOM      4  C   LIG d   1       3.286   0.190  -6.824  0.00  0.00     0.066 A 
ATOM      5  C   LIG d   1       4.434  -0.420  -7.190  0.00  0.00     0.059 A 
ATOM      6  N   LIG d   1       4.590  -0.219  -8.526  0.00  0.00    -0.328 N 
ATOM      7  C   LIG d   1       3.529   0.515  -8.941  0.00  0.00     0.097 A 
ATOM      8  N   LIG d   1       2.757   0.754  -7.915  0.00  0.00    -0.240 NA
ATOM      9  C   LIG d   1       5.337  -1.167  -6.241  0.00  0.00     0.058 C 
ATOM     10  N   LIG d   1       4.604  -1.321  -4.971  0.00  0.00    -0.278 N 
ATOM     11  C   LIG d   1       4.608  -2.494  -4.309  0.00  0.00     0.254 C 
ATOM     12  O   LIG d   1       3.977  -2.613  -3.275  0.00  0.00    -0.269 OA
ATOM     13  H   LIG d   1       1.934  -0.525  -5.332  0.00  0.00     0.035 H 
ATOM     14  H   LIG d   1       2.361   1.198  -5.181  0.00  0.00     0.035 H 
ATOM     15  H   LIG d   1       3.352   0.847  -9.953  0.00  0.00     0.103 H 
ATOM     16  H   LIG d   1       5.579  -2.146  -6.652  0.00  0.00     0.053 H 
ATOM     17  H   LIG d   1       6.253  -0.598  -6.075  0.00  0.00     0.053 H 
ENDROOT
BRANCH   6  18
ATOM     18  C   LIG d   1       5.693  -0.703  -9.359  0.00  0.00     0.050 C 
ATOM     19  H   LIG d   1       5.596  -0.294 -10.365  0.00  0.00     0.054 H 
ATOM     20  H   LIG d   1       6.641  -0.382  -8.927  0.00  0.00     0.054 H 
BRANCH  18  21
ATOM     21  C   LIG d   1       5.653  -2.208  -9.422  0.00  0.00    -0.028 A 
ATOM     22  C   LIG d   1       4.489  -2.853  -9.798  0.00  0.00    -0.056 A 
ATOM     23  C   LIG d   1       4.451  -4.234  -9.856  0.00  0.00    -0.043 A 
ATOM     24  H   LIG d   1       3.610  -2.278 -10.048  0.00  0.00     0.062 H 
ATOM     25  C   LIG d   1       5.578  -4.970  -9.536  0.00  0.00     0.041 A 
ATOM     26  H   LIG d   1       3.543  -4.737 -10.149  0.00  0.00     0.063 H 
ATOM     27  C   LIG d   1       6.742  -4.323  -9.158  0.00  0.00    -0.043 A 
ATOM     28 CL   LIG d   1       5.532  -6.704  -9.607  0.00  0.00    -0.084 Cl
ATOM     29  C   LIG d   1       6.781  -2.943  -9.107  0.00  0.00    -0.056 A 
ATOM     30  H   LIG d   1       7.622  -4.898  -8.909  0.00  0.00     0.063 H 
ATOM     31  H   LIG d   1       7.690  -2.439  -8.817  0.00  0.00     0.062 H 
ENDBRANCH  18  21
ENDBRANCH   6  18
BRANCH   1  32
ATOM     32  C   LIG d   1       3.282  -0.504  -3.100  0.00  0.00     0.328 C 
ATOM     33  O   LIG d   1       2.141  -0.892  -3.020  0.00  0.00    -0.249 OA
BRANCH  32  34
ATOM     34  O   LIG d   1       4.027  -0.375  -1.990  0.00  0.00    -0.467 OA
BRANCH  34  35
ATOM     35  C   LIG d   1       4.619   0.927  -1.742  0.00  0.00     0.082 C 
ATOM     36  H   LIG d   1       5.072   1.301  -2.660  0.00  0.00     0.066 H 
ATOM     37  H   LIG d   1       3.847   1.620  -1.409  0.00  0.00     0.066 H 
ATOM     38  H   LIG d   1       5.384   0.837  -0.970  0.00  0.00     0.066 H 
ENDBRANCH  34  35
ENDBRANCH  32  34
ENDBRANCH   1  32
BRANCH  11  39
ATOM     39  C   LIG d   1       5.371  -3.630  -4.835  0.00  0.00     0.074 A 
ATOM     40  S   LIG d   1       7.136  -3.892  -4.844  0.00  0.00    -0.092 SA
ATOM     41  C   LIG d   1       7.166  -5.437  -5.630  0.00  0.00    -0.024 A 
ATOM     42  C   LIG d   1       5.852  -5.693  -5.861  0.00  0.00    -0.054 A 
ATOM     43  H   LIG d   1       8.022  -6.046  -5.879  0.00  0.00     0.069 H 
ATOM     44  C   LIG d   1       4.911  -4.778  -5.461  0.00  0.00    -0.043 A 
ATOM     45  H   LIG d   1       5.552  -6.606  -6.354  0.00  0.00     0.062 H 
ATOM     46  H   LIG d   1       3.856  -4.946  -5.627  0.00  0.00     0.063 H 
ENDBRANCH  11  39
TORSDOF 6
ENDMDL
MODEL 6
REMARK VINA RESULT:      -5.6      4.954      7.528
REMARK  6 active torsions:
REMARK  status: ('A' for Active; 'I' for Inactive)
REMARK    1  A    between atoms: C_1  and  O_2 
REMARK    2  A    between atoms: O_2  and  C_3 
REMARK    3  A    between atoms: C_3  and  C_5 
REMARK    4  A    between atoms: N_10  and  C_13 
REMARK    5  A    between atoms: C_13  and  C_14 
REMARK       I    between atoms: N_22  and  C_23 
REMARK    6  A    between atoms: C_23  and  C_25 
ROOT
ATOM      1  C   LIG d   1       3.794  -0.087  -4.417  0.00  0.00     0.129 C 
ATOM      2  H   LIG d   1       4.439   0.782  -4.294  0.00  0.00     0.062 H 
ATOM      3  C   LIG d   1       2.679   0.236  -5.418  0.00  0.00     0.020 C 
ATOM      4  C   LIG d   1       3.263   0.247  -6.810  0.00  0.00     0.066 A 
ATOM      5  C   LIG d   1       4.442  -0.318  -7.146  0.00  0.00     0.059 A 
ATOM      6  N   LIG d   1       4.625  -0.108  -8.477  0.00  0.00    -0.328 N 
ATOM      7  C   LIG d   1       3.549   0.586  -8.919  0.00  0.00     0.097 A 
ATOM      8  N   LIG d   1       2.742   0.794  -7.912  0.00  0.00    -0.240 NA
ATOM      9  C   LIG d   1       5.347  -1.033  -6.174  0.00  0.00     0.058 C 
ATOM     10  N   LIG d   1       4.587  -1.218  -4.924  0.00  0.00    -0.278 N 
ATOM     11  C   LIG d   1       4.617  -2.392  -4.264  0.00  0.00     0.254 C 
ATOM     12  O   LIG d   1       3.965  -2.537  -3.248  0.00  0.00    -0.269 OA
ATOM     13  H   LIG d   1       1.899  -0.522  -5.355  0.00  0.00     0.035 H 
ATOM     14  H   LIG d   1       2.257   1.215  -5.190  0.00  0.00     0.035 H 
ATOM     15  H   LIG d   1       3.386   0.914  -9.935  0.00  0.00     0.103 H 
ATOM     16  H   LIG d   1       5.636  -2.002  -6.580  0.00  0.00     0.053 H 
ATOM     17  H   LIG d   1       6.236  -0.431  -5.983  0.00  0.00     0.053 H 
ENDROOT
BRANCH   6  18
ATOM     18  C   LIG d   1       5.768  -0.548  -9.281  0.00  0.00     0.050 C 
ATOM     19  H   LIG d   1       5.995  -1.590  -9.049  0.00  0.00     0.054 H 
ATOM     20  H   LIG d   1       5.524  -0.457 -10.339  0.00  0.00     0.054 H 
BRANCH  18  21
ATOM     21  C   LIG d   1       6.966   0.310  -8.965  0.00  0.00    -0.028 A 
ATOM     22  C   LIG d   1       8.146  -0.279  -8.549  0.00  0.00    -0.056 A 
ATOM     23  C   LIG d   1       9.245   0.507  -8.258  0.00  0.00    -0.043 A 
ATOM     24  H   LIG d   1       8.209  -1.353  -8.451  0.00  0.00     0.062 H 
ATOM     25  C   LIG d   1       9.164   1.883  -8.382  0.00  0.00     0.041 A 
ATOM     26  H   LIG d   1      10.166   0.048  -7.933  0.00  0.00     0.063 H 
ATOM     27  C   LIG d   1       7.982   2.470  -8.799  0.00  0.00    -0.043 A 
ATOM     28 CL   LIG d   1      10.544   2.871  -8.017  0.00  0.00    -0.084 Cl
ATOM     29  C   LIG d   1       6.885   1.683  -9.094  0.00  0.00    -0.056 A 
ATOM     30  H   LIG d   1       7.918   3.544  -8.897  0.00  0.00     0.063 H 
ATOM     31  H   LIG d   1       5.965   2.142  -9.423  0.00  0.00     0.062 H 
ENDBRANCH  18  21
ENDBRANCH   6  18
BRANCH   1  32
ATOM     32  C   LIG d   1       3.186  -0.456  -3.088  0.00  0.00     0.328 C 
ATOM     33  O   LIG d   1       2.068  -0.909  -3.040  0.00  0.00    -0.249 OA
BRANCH  32  34
ATOM     34  O   LIG d   1       3.886  -0.277  -1.956  0.00  0.00    -0.467 OA
BRANCH  34  35
ATOM     35  C   LIG d   1       4.717   0.911  -1.877  0.00  0.00     0.082 C 
ATOM     36  H   LIG d   1       5.409   0.928  -2.718  0.00  0.00     0.066 H 
ATOM     37  H   LIG d   1       4.085   1.799  -1.907  0.00  0.00     0.066 H 
ATOM     38  H   LIG d   1       5.280   0.898  -0.943  0.00  0.00     0.066 H 
ENDBRANCH  34  35
ENDBRANCH  32  34
ENDBRANCH   1  32
BRANCH  11  39
ATOM     39  C   LIG d   1       5.437  -3.497  -4.772  0.00  0.00     0.074 A 
ATOM     40  S   LIG d   1       7.210  -3.692  -4.735  0.00  0.00    -0.092 SA
ATOM     41  C   LIG d   1       7.319  -5.233  -5.522  0.00  0.00    -0.024 A 
ATOM     42  C   LIG d   1       6.022  -5.538  -5.787  0.00  0.00    -0.054 A 
ATOM     43  H   LIG d   1       8.203  -5.808  -5.749  0.00  0.00     0.069 H 
ATOM     44  C   LIG d   1       5.036  -4.660  -5.411  0.00  0.00    -0.043 A 
ATOM     45  H   LIG d   1       5.769  -6.461  -6.288  0.00  0.00     0.062 H 
ATOM     46  H   LIG d   1       3.994  -4.867  -5.604  0.00  0.00     0.063 H 
ENDBRANCH  11  39
TORSDOF 6
ENDMDL
MODEL 7
REMARK VINA RESULT:      -5.5      9.407     11.908
REMARK  6 active torsions:
REMARK  status: ('A' for Active; 'I' for Inactive)
REMARK    1  A    between atoms: C_1  and  O_2 
REMARK    2  A    between atoms: O_2  and  C_3 
REMARK    3  A    between atoms: C_3  and  C_5 
REMARK    4  A    between atoms: N_10  and  C_13 
REMARK    5  A    between atoms: C_13  and  C_14 
REMARK       I    between atoms: N_22  and  C_23 
REMARK    6  A    between atoms: C_23  and  C_25 
ROOT
ATOM      1  C   LIG d   1       9.892   7.143  -2.468  0.00  0.00     0.129 C 
ATOM      2  H   LIG d   1       8.919   6.993  -2.001  0.00  0.00     0.062 H 
ATOM      3  C   LIG d   1      10.874   6.081  -1.960  0.00  0.00     0.020 C 
ATOM      4  C   LIG d   1      10.544   4.760  -2.611  0.00  0.00     0.066 A 
ATOM      5  C   LIG d   1       9.795   4.627  -3.727  0.00  0.00     0.059 A 
ATOM      6  N   LIG d   1       9.723   3.298  -4.008  0.00  0.00    -0.328 N 
ATOM      7  C   LIG d   1      10.430   2.653  -3.050  0.00  0.00     0.097 A 
ATOM      8  N   LIG d   1      10.916   3.538  -2.219  0.00  0.00    -0.240 NA
ATOM      9  C   LIG d   1       9.176   5.781  -4.475  0.00  0.00     0.058 C 
ATOM     10  N   LIG d   1       9.759   7.020  -3.928  0.00  0.00    -0.278 N 
ATOM     11  C   LIG d   1      10.161   8.014  -4.744  0.00  0.00     0.254 C 
ATOM     12  O   LIG d   1      10.664   9.019  -4.278  0.00  0.00    -0.269 OA
ATOM     13  H   LIG d   1      11.893   6.371  -2.219  0.00  0.00     0.035 H 
ATOM     14  H   LIG d   1      10.784   5.988  -0.877  0.00  0.00     0.035 H 
ATOM     15  H   LIG d   1      10.569   1.584  -2.984  0.00  0.00     0.103 H 
ATOM     16  H   LIG d   1       9.404   5.700  -5.537  0.00  0.00     0.053 H 
ATOM     17  H   LIG d   1       8.095   5.782  -4.326  0.00  0.00     0.053 H 
ENDROOT
BRANCH   6  18
ATOM     18  C   LIG d   1       9.016   2.682  -5.133  0.00  0.00     0.050 C 
ATOM     19  H   LIG d   1       8.360   3.419  -5.597  0.00  0.00     0.054 H 
ATOM     20  H   LIG d   1       9.740   2.328  -5.866  0.00  0.00     0.054 H 
BRANCH  18  21
ATOM     21  C   LIG d   1       8.194   1.521  -4.635  0.00  0.00    -0.028 A 
ATOM     22  C   LIG d   1       7.148   1.740  -3.759  0.00  0.00    -0.056 A 
ATOM     23  C   LIG d   1       6.394   0.676  -3.301  0.00  0.00    -0.043 A 
ATOM     24  H   LIG d   1       6.919   2.744  -3.431  0.00  0.00     0.062 H 
ATOM     25  C   LIG d   1       6.688  -0.610  -3.720  0.00  0.00     0.041 A 
ATOM     26  H   LIG d   1       5.578   0.847  -2.617  0.00  0.00     0.063 H 
ATOM     27  C   LIG d   1       7.735  -0.828  -4.598  0.00  0.00    -0.043 A 
ATOM     28 CL   LIG d   1       5.742  -1.948  -3.146  0.00  0.00    -0.084 Cl
ATOM     29  C   LIG d   1       8.484   0.237  -5.059  0.00  0.00    -0.056 A 
ATOM     30  H   LIG d   1       7.965  -1.831  -4.926  0.00  0.00     0.063 H 
ATOM     31  H   LIG d   1       9.299   0.067  -5.746  0.00  0.00     0.062 H 
ENDBRANCH  18  21
ENDBRANCH   6  18
BRANCH   1  32
ATOM     32  C   LIG d   1      10.411   8.515  -2.124  0.00  0.00     0.328 C 
ATOM     33  O   LIG d   1      11.596   8.691  -1.971  0.00  0.00    -0.249 OA
BRANCH  32  34
ATOM     34  O   LIG d   1       9.556   9.541  -1.984  0.00  0.00    -0.467 OA
BRANCH  34  35
ATOM     35  C   LIG d   1       8.735   9.555  -0.786  0.00  0.00     0.082 C 
ATOM     36  H   LIG d   1       9.209  10.177  -0.028  0.00  0.00     0.066 H 
ATOM     37  H   LIG d   1       7.751   9.960  -1.025  0.00  0.00     0.066 H 
ATOM     38  H   LIG d   1       8.627   8.539  -0.408  0.00  0.00     0.066 H 
ENDBRANCH  34  35
ENDBRANCH  32  34
ENDBRANCH   1  32
BRANCH  11  39
ATOM     39  C   LIG d   1       9.993   7.883  -6.195  0.00  0.00     0.074 A 
ATOM     40  S   LIG d   1      10.982   6.967  -7.364  0.00  0.00    -0.092 SA
ATOM     41  C   LIG d   1      10.100   7.350  -8.807  0.00  0.00    -0.024 A 
ATOM     42  C   LIG d   1       9.103   8.155  -8.356  0.00  0.00    -0.054 A 
ATOM     43  H   LIG d   1      10.299   7.030  -9.819  0.00  0.00     0.069 H 
ATOM     44  C   LIG d   1       9.027   8.443  -7.017  0.00  0.00    -0.043 A 
ATOM     45  H   LIG d   1       8.378   8.563  -9.045  0.00  0.00     0.062 H 
ATOM     46  H   LIG d   1       8.249   9.079  -6.620  0.00  0.00     0.063 H 
ENDBRANCH  11  39
TORSDOF 6
ENDMDL
MODEL 8
REMARK VINA RESULT:      -5.5      7.349      9.526
REMARK  6 active torsions:
REMARK  status: ('A' for Active; 'I' for Inactive)
REMARK    1  A    between atoms: C_1  and  O_2 
REMARK    2  A    between atoms: O_2  and  C_3 
REMARK    3  A    between atoms: C_3  and  C_5 
REMARK    4  A    between atoms: N_10  and  C_13 
REMARK    5  A    between atoms: C_13  and  C_14 
REMARK       I    between atoms: N_22  and  C_23 
REMARK    6  A    between atoms: C_23  and  C_25 
ROOT
ATOM      1  C   LIG d   1       5.327 -10.582  -3.724  0.00  0.00     0.129 C 
ATOM      2  H   LIG d   1       5.736 -11.545  -4.027  0.00  0.00     0.062 H 
ATOM      3  C   LIG d   1       5.441 -10.432  -2.202  0.00  0.00     0.020 C 
ATOM      4  C   LIG d   1       6.881 -10.156  -1.847  0.00  0.00     0.066 A 
ATOM      5  C   LIG d   1       7.812  -9.720  -2.722  0.00  0.00     0.059 A 
ATOM      6  N   LIG d   1       8.979  -9.585  -2.037  0.00  0.00    -0.328 N 
ATOM      7  C   LIG d   1       8.728  -9.945  -0.756  0.00  0.00     0.097 A 
ATOM      8  N   LIG d   1       7.470 -10.286  -0.654  0.00  0.00    -0.240 NA
ATOM      9  C   LIG d   1       7.544  -9.458  -4.183  0.00  0.00     0.058 C 
ATOM     10  N   LIG d   1       6.083  -9.501  -4.375  0.00  0.00    -0.278 N 
ATOM     11  C   LIG d   1       5.456  -8.575  -5.126  0.00  0.00     0.254 C 
ATOM     12  O   LIG d   1       4.247  -8.610  -5.253  0.00  0.00    -0.269 OA
ATOM     13  H   LIG d   1       4.817  -9.603  -1.868  0.00  0.00     0.035 H 
ATOM     14  H   LIG d   1       5.114 -11.353  -1.719  0.00  0.00     0.035 H 
ATOM     15  H   LIG d   1       9.449  -9.950   0.048  0.00  0.00     0.103 H 
ATOM     16  H   LIG d   1       7.926  -8.476  -4.460  0.00  0.00     0.053 H 
ATOM     17  H   LIG d   1       8.022 -10.227  -4.792  0.00  0.00     0.053 H 
ENDROOT
BRANCH   6  18
ATOM     18  C   LIG d   1      10.262  -9.134  -2.580  0.00  0.00     0.050 C 
ATOM     19  H   LIG d   1      11.044  -9.279  -1.833  0.00  0.00     0.054 H 
ATOM     20  H   LIG d   1      10.501  -9.711  -3.473  0.00  0.00     0.054 H 
BRANCH  18  21
ATOM     21  C   LIG d   1      10.173  -7.672  -2.935  0.00  0.00    -0.028 A 
ATOM     22  C   LIG d   1       9.787  -6.751  -1.979  0.00  0.00    -0.056 A 
ATOM     23  C   LIG d   1       9.704  -5.410  -2.304  0.00  0.00    -0.043 A 
ATOM     24  H   LIG d   1       9.551  -7.079  -0.977  0.00  0.00     0.062 H 
ATOM     25  C   LIG d   1      10.006  -4.990  -3.587  0.00  0.00     0.041 A 
ATOM     26  H   LIG d   1       9.403  -4.691  -1.557  0.00  0.00     0.063 H 
ATOM     27  C   LIG d   1      10.391  -5.913  -4.544  0.00  0.00    -0.043 A 
ATOM     28 CL   LIG d   1       9.902  -3.306  -3.997  0.00  0.00    -0.084 Cl
ATOM     29  C   LIG d   1      10.480  -7.252  -4.216  0.00  0.00    -0.056 A 
ATOM     30  H   LIG d   1      10.628  -5.586  -5.545  0.00  0.00     0.063 H 
ATOM     31  H   LIG d   1      10.784  -7.972  -4.961  0.00  0.00     0.062 H 
ENDBRANCH  18  21
ENDBRANCH   6  18
BRANCH   1  32
ATOM     32  C   LIG d   1       3.878 -10.498  -4.131  0.00  0.00     0.328 C 
ATOM     33  O   LIG d   1       3.095  -9.879  -3.451  0.00  0.00    -0.249 OA
BRANCH  32  34
ATOM     34  O   LIG d   1       3.457 -11.115  -5.247  0.00  0.00    -0.467 OA
BRANCH  34  35
ATOM     35  C   LIG d   1       4.255 -12.229  -5.725  0.00  0.00     0.082 C 
ATOM     36  H   LIG d   1       3.743 -12.713  -6.556  0.00  0.00     0.066 H 
ATOM     37  H   LIG d   1       5.227 -11.864  -6.059  0.00  0.00     0.066 H 
ATOM     38  H   LIG d   1       4.396 -12.948  -4.917  0.00  0.00     0.066 H 
ENDBRANCH  34  35
ENDBRANCH  32  34
ENDBRANCH   1  32
BRANCH  11  39
ATOM     39  C   LIG d   1       6.233  -7.523  -5.789  0.00  0.00     0.074 A 
ATOM     40  S   LIG d   1       7.101  -7.578  -7.346  0.00  0.00    -0.092 SA
ATOM     41  C   LIG d   1       7.718  -5.957  -7.358  0.00  0.00    -0.024 A 
ATOM     42  C   LIG d   1       7.253  -5.441  -6.191  0.00  0.00    -0.054 A 
ATOM     43  H   LIG d   1       8.327  -5.478  -8.110  0.00  0.00     0.069 H 
ATOM     44  C   LIG d   1       6.487  -6.227  -5.367  0.00  0.00    -0.043 A 
ATOM     45  H   LIG d   1       7.485  -4.422  -5.914  0.00  0.00     0.062 H 
ATOM     46  H   LIG d   1       6.100  -5.852  -4.431  0.00  0.00     0.063 H 
ENDBRANCH  11  39
TORSDOF 6
ENDMDL
MODEL 9
REMARK VINA RESULT:      -5.5      4.275      7.517
REMARK  6 active torsions:
REMARK  status: ('A' for Active; 'I' for Inactive)
REMARK    1  A    between atoms: C_1  and  O_2 
REMARK    2  A    between atoms: O_2  and  C_3 
REMARK    3  A    between atoms: C_3  and  C_5 
REMARK    4  A    between atoms: N_10  and  C_13 
REMARK    5  A    between atoms: C_13  and  C_14 
REMARK       I    between atoms: N_22  and  C_23 
REMARK    6  A    between atoms: C_23  and  C_25 
ROOT
ATOM      1  C   LIG d   1       4.805  -1.075  -4.819  0.00  0.00     0.129 C 
ATOM      2  H   LIG d   1       5.713  -0.485  -4.932  0.00  0.00     0.062 H 
ATOM      3  C   LIG d   1       3.579  -0.181  -5.039  0.00  0.00     0.020 C 
ATOM      4  C   LIG d   1       3.444   0.105  -6.515  0.00  0.00     0.066 A 
ATOM      5  C   LIG d   1       4.041  -0.615  -7.488  0.00  0.00     0.059 A 
ATOM      6  N   LIG d   1       3.684  -0.060  -8.677  0.00  0.00    -0.328 N 
ATOM      7  C   LIG d   1       2.876   0.990  -8.396  0.00  0.00     0.097 A 
ATOM      8  N   LIG d   1       2.741   1.080  -7.099  0.00  0.00    -0.240 NA
ATOM      9  C   LIG d   1       4.936  -1.803  -7.237  0.00  0.00     0.058 C 
ATOM     10  N   LIG d   1       4.798  -2.160  -5.813  0.00  0.00    -0.278 N 
ATOM     11  C   LIG d   1       4.668  -3.446  -5.432  0.00  0.00     0.254 C 
ATOM     12  O   LIG d   1       4.531  -3.721  -4.255  0.00  0.00    -0.269 OA
ATOM     13  H   LIG d   1       2.684  -0.693  -4.684  0.00  0.00     0.035 H 
ATOM     14  H   LIG d   1       3.706   0.754  -4.494  0.00  0.00     0.035 H 
ATOM     15  H   LIG d   1       2.420   1.645  -9.123  0.00  0.00     0.103 H 
ATOM     16  H   LIG d   1       4.625  -2.640  -7.862  0.00  0.00     0.053 H 
ATOM     17  H   LIG d   1       5.971  -1.541  -7.456  0.00  0.00     0.053 H 
ENDROOT
BRANCH   6  18
ATOM     18  C   LIG d   1       4.092  -0.512 -10.009  0.00  0.00     0.050 C 
ATOM     19  H   LIG d   1       4.287   0.354 -10.643  0.00  0.00     0.054 H 
ATOM     20  H   LIG d   1       4.999  -1.112  -9.926  0.00  0.00     0.054 H 
BRANCH  18  21
ATOM     21  C   LIG d   1       2.993  -1.344 -10.618  0.00  0.00    -0.028 A 
ATOM     22  C   LIG d   1       2.233  -0.833 -11.653  0.00  0.00    -0.056 A 
ATOM     23  C   LIG d   1       1.223  -1.595 -12.212  0.00  0.00    -0.043 A 
ATOM     24  H   LIG d   1       2.427   0.163 -12.026  0.00  0.00     0.062 H 
ATOM     25  C   LIG d   1       0.974  -2.869 -11.734  0.00  0.00     0.041 A 
ATOM     26  H   LIG d   1       0.630  -1.196 -13.020  0.00  0.00     0.063 H 
ATOM     27  C   LIG d   1       1.736  -3.379 -10.697  0.00  0.00    -0.043 A 
ATOM     28 CL   LIG d   1      -0.293  -3.827 -12.434  0.00  0.00    -0.084 Cl
ATOM     29  C   LIG d   1       2.748  -2.619 -10.143  0.00  0.00    -0.056 A 
ATOM     30  H   LIG d   1       1.542  -4.374 -10.323  0.00  0.00     0.063 H 
ATOM     31  H   LIG d   1       3.345  -3.019  -9.337  0.00  0.00     0.062 H 
ENDBRANCH  18  21
ENDBRANCH   6  18
BRANCH   1  32
ATOM     32  C   LIG d   1       4.756  -1.664  -3.432  0.00  0.00     0.328 C 
ATOM     33  O   LIG d   1       3.691  -1.874  -2.902  0.00  0.00    -0.249 OA
BRANCH  32  34
ATOM     34  O   LIG d   1       5.896  -1.951  -2.784  0.00  0.00    -0.467 OA
BRANCH  34  35
ATOM     35  C   LIG d   1       7.128  -1.448  -3.364  0.00  0.00     0.082 C 
ATOM     36  H   LIG d   1       7.892  -1.378  -2.590  0.00  0.00     0.066 H 
ATOM     37  H   LIG d   1       7.465  -2.128  -4.147  0.00  0.00     0.066 H 
ATOM     38  H   LIG d   1       6.952  -0.461  -3.791  0.00  0.00     0.066 H 
ENDBRANCH  34  35
ENDBRANCH  32  34
ENDBRANCH   1  32
BRANCH  11  39
ATOM     39  C   LIG d   1       4.693  -4.513  -6.437  0.00  0.00     0.074 A 
ATOM     40  S   LIG d   1       6.070  -5.501  -6.994  0.00  0.00    -0.092 SA
ATOM     41  C   LIG d   1       5.232  -6.484  -8.153  0.00  0.00    -0.024 A 
ATOM     42  C   LIG d   1       3.955  -6.027  -8.080  0.00  0.00    -0.054 A 
ATOM     43  H   LIG d   1       5.631  -7.265  -8.782  0.00  0.00     0.069 H 
ATOM     44  C   LIG d   1       3.653  -5.014  -7.205  0.00  0.00    -0.043 A 
ATOM     45  H   LIG d   1       3.185  -6.457  -8.705  0.00  0.00     0.062 H 
ATOM     46  H   LIG d   1       2.650  -4.624  -7.119  0.00  0.00     0.063 H 
ENDBRANCH  11  39
TORSDOF 6
ENDMDL
MODEL 10
REMARK VINA RESULT:      -5.5      4.203      6.722
REMARK  6 active torsions:
REMARK  status: ('A' for Active; 'I' for Inactive)
REMARK    1  A    between atoms: C_1  and  O_2 
REMARK    2  A    between atoms: O_2  and  C_3 
REMARK    3  A    between atoms: C_3  and  C_5 
REMARK    4  A    between atoms: N_10  and  C_13 
REMARK    5  A    between atoms: C_13  and  C_14 
REMARK       I    between atoms: N_22  and  C_23 
REMARK    6  A    between atoms: C_23  and  C_25 
ROOT
ATOM      1  C   LIG d   1       4.313  -1.434  -4.155  0.00  0.00     0.129 C 
ATOM      2  H   LIG d   1       3.782  -2.244  -3.659  0.00  0.00     0.062 H 
ATOM      3  C   LIG d   1       5.699  -1.262  -3.520  0.00  0.00     0.020 C 
ATOM      4  C   LIG d   1       6.588  -2.392  -3.978  0.00  0.00     0.066 A 
ATOM      5  C   LIG d   1       6.340  -3.169  -5.054  0.00  0.00     0.059 A 
ATOM      6  N   LIG d   1       7.358  -4.065  -5.148  0.00  0.00    -0.328 N 
ATOM      7  C   LIG d   1       8.203  -3.811  -4.121  0.00  0.00     0.097 A 
ATOM      8  N   LIG d   1       7.732  -2.809  -3.427  0.00  0.00    -0.240 NA
ATOM      9  C   LIG d   1       5.131  -3.022  -5.945  0.00  0.00     0.058 C 
ATOM     10  N   LIG d   1       4.473  -1.754  -5.583  0.00  0.00    -0.278 N 
ATOM     11  C   LIG d   1       4.028  -0.909  -6.533  0.00  0.00     0.254 C 
ATOM     12  O   LIG d   1       3.509   0.145  -6.218  0.00  0.00    -0.269 OA
ATOM     13  H   LIG d   1       6.128  -0.310  -3.831  0.00  0.00     0.035 H 
ATOM     14  H   LIG d   1       5.607  -1.285  -2.434  0.00  0.00     0.035 H 
ATOM     15  H   LIG d   1       9.116  -4.349  -3.910  0.00  0.00     0.103 H 
ATOM     16  H   LIG d   1       5.442  -2.995  -6.989  0.00  0.00     0.053 H 
ATOM     17  H   LIG d   1       4.448  -3.856  -5.782  0.00  0.00     0.053 H 
ENDROOT
BRANCH   6  18
ATOM     18  C   LIG d   1       7.513  -5.106  -6.167  0.00  0.00     0.050 C 
ATOM     19  H   LIG d   1       6.981  -4.810  -7.072  0.00  0.00     0.054 H 
ATOM     20  H   LIG d   1       8.571  -5.237  -6.394  0.00  0.00     0.054 H 
BRANCH  18  21
ATOM     21  C   LIG d   1       6.945  -6.403  -5.651  0.00  0.00    -0.028 A 
ATOM     22  C   LIG d   1       7.767  -7.309  -5.007  0.00  0.00    -0.056 A 
ATOM     23  C   LIG d   1       7.247  -8.500  -4.535  0.00  0.00    -0.043 A 
ATOM     24  H   LIG d   1       8.816  -7.087  -4.873  0.00  0.00     0.062 H 
ATOM     25  C   LIG d   1       5.904  -8.784  -4.707  0.00  0.00     0.041 A 
ATOM     26  H   LIG d   1       7.888  -9.207  -4.032  0.00  0.00     0.063 H 
ATOM     27  C   LIG d   1       5.082  -7.876  -5.352  0.00  0.00    -0.043 A 
ATOM     28 CL   LIG d   1       5.249 -10.279  -4.114  0.00  0.00    -0.084 Cl
ATOM     29  C   LIG d   1       5.602  -6.684  -5.819  0.00  0.00    -0.056 A 
ATOM     30  H   LIG d   1       4.033  -8.097  -5.486  0.00  0.00     0.063 H 
ATOM     31  H   LIG d   1       4.960  -5.974  -6.319  0.00  0.00     0.062 H 
ENDBRANCH  18  21
ENDBRANCH   6  18
BRANCH   1  32
ATOM     32  C   LIG d   1       3.531  -0.154  -4.011  0.00  0.00     0.328 C 
ATOM     33  O   LIG d   1       2.325  -0.173  -4.070  0.00  0.00    -0.249 OA
BRANCH  32  34
ATOM     34  O   LIG d   1       4.175   1.009  -3.819  0.00  0.00    -0.467 OA
BRANCH  34  35
ATOM     35  C   LIG d   1       3.888   1.726  -2.590  0.00  0.00     0.082 C 
ATOM     36  H   LIG d   1       3.060   1.243  -2.072  0.00  0.00     0.066 H 
ATOM     37  H   LIG d   1       4.771   1.719  -1.951  0.00  0.00     0.066 H 
ATOM     38  H   LIG d   1       3.618   2.755  -2.825  0.00  0.00     0.066 H 
ENDBRANCH  34  35
ENDBRANCH  32  34
ENDBRANCH   1  32
BRANCH  11  39
ATOM     39  C   LIG d   1       4.170  -1.261  -7.950  0.00  0.00     0.074 A 
ATOM     40  S   LIG d   1       5.562  -1.010  -9.037  0.00  0.00    -0.092 SA
ATOM     41  C   LIG d   1       4.894  -1.701 -10.480  0.00  0.00    -0.024 A 
ATOM     42  C   LIG d   1       3.651  -2.087 -10.091  0.00  0.00    -0.054 A 
ATOM     43  H   LIG d   1       5.353  -1.797 -11.452  0.00  0.00     0.069 H 
ATOM     44  C   LIG d   1       3.256  -1.872  -8.795  0.00  0.00    -0.043 A 
ATOM     45  H   LIG d   1       2.980  -2.559 -10.795  0.00  0.00     0.062 H 
ATOM     46  H   LIG d   1       2.276  -2.164  -8.448  0.00  0.00     0.063 H 
ENDBRANCH  11  39
TORSDOF 6
ENDMDL
