MODEL 1
REMARK VINA RESULT:      -6.5      0.000      0.000
REMARK  7 active torsions:
REMARK  status: ('A' for Active; 'I' for Inactive)
REMARK    1  A    between atoms: C_1  and  C_2 
REMARK       I    between atoms: C_2  and  N_4 
REMARK    2  A    between atoms: N_4  and  C_5 
REMARK    3  A    between atoms: C_9  and  N_11 
REMARK       I    between atoms: N_11  and  C_12 
REMARK    4  A    between atoms: C_12  and  C_14 
REMARK    5  A    between atoms: C_14  and  C_15 
REMARK    6  A    between atoms: C_15  and  C_16 
REMARK    7  A    between atoms: C_16  and  C_17 
ROOT
ATOM      1  C   LIG d   1       4.494   0.415  -1.602  0.00  0.00     0.025 C 
ATOM      2  H   LIG d   1       4.802   0.803  -0.631  0.00  0.00     0.036 H 
ATOM      3  H   LIG d   1       3.446   0.655  -1.774  0.00  0.00     0.036 H 
ENDROOT
BRANCH   1   4
ATOM      4  C   LIG d   1       5.337   1.040  -2.683  0.00  0.00     0.217 C 
ATOM      5  N   LIG d   1       6.532   0.504  -3.001  0.00  0.00    -0.285 N 
ATOM      6  H   LIG d   1       6.880  -0.243  -2.488  0.00  0.00     0.155 HD
ATOM      7  O   LIG d   1       4.940   2.025  -3.269  0.00  0.00    -0.276 OA
BRANCH   5   8
ATOM      8  C   LIG d   1       7.274   1.028  -4.064  0.00  0.00     0.035 A 
ATOM      9  C   LIG d   1       8.108   2.121  -3.859  0.00  0.00    -0.040 A 
ATOM     10  C   LIG d   1       8.841   2.640  -4.909  0.00  0.00    -0.058 A 
ATOM     11  H   LIG d   1       8.182   2.565  -2.877  0.00  0.00     0.064 H 
ATOM     12  C   LIG d   1       8.748   2.075  -6.166  0.00  0.00    -0.040 A 
ATOM     13  H   LIG d   1       9.489   3.488  -4.747  0.00  0.00     0.062 H 
ATOM     14  C   LIG d   1       7.915   0.982  -6.378  0.00  0.00     0.035 A 
ATOM     15  H   LIG d   1       9.321   2.483  -6.985  0.00  0.00     0.064 H 
ATOM     16  C   LIG d   1       7.182   0.455  -5.325  0.00  0.00    -0.019 A 
ATOM     17  H   LIG d   1       6.539  -0.396  -5.487  0.00  0.00     0.066 H 
BRANCH  14  18
ATOM     18  N   LIG d   1       7.821   0.411  -7.652  0.00  0.00    -0.286 N 
ATOM     19  C   LIG d   1       7.009   0.959  -8.578  0.00  0.00     0.214 C 
ATOM     20  O   LIG d   1       6.300   1.898  -8.283  0.00  0.00    -0.276 OA
ATOM     21  H   LIG d   1       8.339  -0.380  -7.869  0.00  0.00     0.155 HD
BRANCH  19  22
ATOM     22  C   LIG d   1       6.986   0.409  -9.980  0.00  0.00     0.013 C 
ATOM     23  H   LIG d   1       6.220   0.923 -10.560  0.00  0.00     0.032 H 
ATOM     24  H   LIG d   1       7.959   0.562 -10.447  0.00  0.00     0.032 H 
ATOM     25  H   LIG d   1       6.763  -0.658  -9.949  0.00  0.00     0.032 H 
ENDBRANCH  19  22
ENDBRANCH  14  18
ENDBRANCH   5   8
ENDBRANCH   1   4
BRANCH   1  26
ATOM     26  C   LIG d   1       4.681  -1.104  -1.625  0.00  0.00    -0.041 C 
ATOM     27  H   LIG d   1       5.654  -1.344  -2.053  0.00  0.00     0.027 H 
ATOM     28  H   LIG d   1       4.626  -1.493  -0.609  0.00  0.00     0.027 H 
BRANCH  26  29
ATOM     29  C   LIG d   1       3.579  -1.740  -2.474  0.00  0.00    -0.025 C 
ATOM     30  H   LIG d   1       3.258  -2.674  -2.013  0.00  0.00     0.031 H 
ATOM     31  H   LIG d   1       2.731  -1.059  -2.541  0.00  0.00     0.031 H 
BRANCH  29  32
ATOM     32  C   LIG d   1       4.108  -2.019  -3.858  0.00  0.00    -0.022 A 
ATOM     33  C   LIG d   1       3.810  -1.259  -5.074  0.00  0.00     0.003 A 
ATOM     34  C   LIG d   1       4.525  -1.887  -6.110  0.00  0.00     0.047 A 
ATOM     35  C   LIG d   1       3.023  -0.139  -5.350  0.00  0.00    -0.052 A 
ATOM     36  N   LIG d   1       5.201  -2.948  -5.551  0.00  0.00    -0.360 N 
ATOM     37  C   LIG d   1       4.436  -1.381  -7.403  0.00  0.00    -0.038 A 
ATOM     38  C   LIG d   1       4.945  -3.008  -4.208  0.00  0.00     0.006 A 
ATOM     39  H   LIG d   1       5.777  -3.560  -6.037  0.00  0.00     0.165 HD
ATOM     40  H   LIG d   1       5.353  -3.744  -3.532  0.00  0.00     0.081 H 
ATOM     41  C   LIG d   1       3.655  -0.275  -7.653  0.00  0.00    -0.060 A 
ATOM     42  H   LIG d   1       4.979  -1.854  -8.208  0.00  0.00     0.064 H 
ATOM     43  C   LIG d   1       2.951   0.341  -6.627  0.00  0.00    -0.061 A 
ATOM     44  H   LIG d   1       3.588   0.116  -8.657  0.00  0.00     0.062 H 
ATOM     45  H   LIG d   1       2.342   1.207  -6.841  0.00  0.00     0.062 H 
ATOM     46  H   LIG d   1       2.473   0.346  -4.557  0.00  0.00     0.062 H 
ENDBRANCH  29  32
ENDBRANCH  26  29
ENDBRANCH   1  26
TORSDOF 7
ENDMDL
MODEL 2
REMARK VINA RESULT:      -6.5      2.077      4.046
REMARK  7 active torsions:
REMARK  status: ('A' for Active; 'I' for Inactive)
REMARK    1  A    between atoms: C_1  and  C_2 
REMARK       I    between atoms: C_2  and  N_4 
REMARK    2  A    between atoms: N_4  and  C_5 
REMARK    3  A    between atoms: C_9  and  N_11 
REMARK       I    between atoms: N_11  and  C_12 
REMARK    4  A    between atoms: C_12  and  C_14 
REMARK    5  A    between atoms: C_14  and  C_15 
REMARK    6  A    between atoms: C_15  and  C_16 
REMARK    7  A    between atoms: C_16  and  C_17 
ROOT
ATOM      1  C   LIG d   1       2.436  -0.163  -3.667  0.00  0.00     0.025 C 
ATOM      2  H   LIG d   1       1.412   0.153  -3.471  0.00  0.00     0.036 H 
ATOM      3  H   LIG d   1       2.510  -1.245  -3.559  0.00  0.00     0.036 H 
ENDROOT
BRANCH   1   4
ATOM      4  C   LIG d   1       2.824   0.228  -5.070  0.00  0.00     0.217 C 
ATOM      5  N   LIG d   1       3.207  -0.716  -5.952  0.00  0.00    -0.285 N 
ATOM      6  H   LIG d   1       3.298  -1.638  -5.666  0.00  0.00     0.155 HD
ATOM      7  O   LIG d   1       2.791   1.393  -5.405  0.00  0.00    -0.276 OA
BRANCH   5   8
ATOM      8  C   LIG d   1       3.480  -0.365  -7.279  0.00  0.00     0.035 A 
ATOM      9  C   LIG d   1       2.436  -0.118  -8.162  0.00  0.00    -0.040 A 
ATOM     10  C   LIG d   1       2.705   0.228  -9.472  0.00  0.00    -0.058 A 
ATOM     11  H   LIG d   1       1.413  -0.197  -7.823  0.00  0.00     0.064 H 
ATOM     12  C   LIG d   1       4.011   0.329  -9.909  0.00  0.00    -0.040 A 
ATOM     13  H   LIG d   1       1.892   0.419 -10.157  0.00  0.00     0.062 H 
ATOM     14  C   LIG d   1       5.060   0.083  -9.030  0.00  0.00     0.035 A 
ATOM     15  H   LIG d   1       4.218   0.598 -10.934  0.00  0.00     0.064 H 
ATOM     16  C   LIG d   1       4.794  -0.259  -7.712  0.00  0.00    -0.019 A 
ATOM     17  H   LIG d   1       5.607  -0.446  -7.028  0.00  0.00     0.066 H 
BRANCH  14  18
ATOM     18  N   LIG d   1       6.384   0.185  -9.474  0.00  0.00    -0.286 N 
ATOM     19  C   LIG d   1       7.023   1.369  -9.419  0.00  0.00     0.214 C 
ATOM     20  O   LIG d   1       6.427   2.364  -9.063  0.00  0.00    -0.276 OA
ATOM     21  H   LIG d   1       6.840  -0.598  -9.821  0.00  0.00     0.155 HD
BRANCH  19  22
ATOM     22  C   LIG d   1       8.479   1.458  -9.797  0.00  0.00     0.013 C 
ATOM     23  H   LIG d   1       8.705   0.704 -10.551  0.00  0.00     0.032 H 
ATOM     24  H   LIG d   1       8.690   2.449 -10.200  0.00  0.00     0.032 H 
ATOM     25  H   LIG d   1       9.095   1.286  -8.915  0.00  0.00     0.032 H 
ENDBRANCH  19  22
ENDBRANCH  14  18
ENDBRANCH   5   8
ENDBRANCH   1   4
BRANCH   1  26
ATOM     26  C   LIG d   1       3.378   0.515  -2.670  0.00  0.00    -0.041 C 
ATOM     27  H   LIG d   1       4.019   1.222  -3.198  0.00  0.00     0.027 H 
ATOM     28  H   LIG d   1       2.793   1.045  -1.920  0.00  0.00     0.027 H 
BRANCH  26  29
ATOM     29  C   LIG d   1       4.245  -0.544  -1.986  0.00  0.00    -0.025 C 
ATOM     30  H   LIG d   1       4.591  -0.165  -1.025  0.00  0.00     0.031 H 
ATOM     31  H   LIG d   1       3.658  -1.449  -1.829  0.00  0.00     0.031 H 
BRANCH  29  32
ATOM     32  C   LIG d   1       5.432  -0.863  -2.858  0.00  0.00    -0.022 A 
ATOM     33  C   LIG d   1       5.581  -2.025  -3.737  0.00  0.00     0.003 A 
ATOM     34  C   LIG d   1       6.844  -1.895  -4.343  0.00  0.00     0.047 A 
ATOM     35  C   LIG d   1       4.770  -3.119  -4.044  0.00  0.00    -0.052 A 
ATOM     36  N   LIG d   1       7.409  -0.738  -3.858  0.00  0.00    -0.360 N 
ATOM     37  C   LIG d   1       7.271  -2.865  -5.244  0.00  0.00    -0.038 A 
ATOM     38  C   LIG d   1       6.553  -0.134  -2.978  0.00  0.00     0.006 A 
ATOM     39  H   LIG d   1       8.285  -0.399  -4.105  0.00  0.00     0.165 HD
ATOM     40  H   LIG d   1       6.750   0.791  -2.457  0.00  0.00     0.081 H 
ATOM     41  C   LIG d   1       6.455  -3.937  -5.533  0.00  0.00    -0.060 A 
ATOM     42  H   LIG d   1       8.238  -2.779  -5.715  0.00  0.00     0.064 H 
ATOM     43  C   LIG d   1       5.209  -4.061  -4.933  0.00  0.00    -0.061 A 
ATOM     44  H   LIG d   1       6.788  -4.689  -6.233  0.00  0.00     0.062 H 
ATOM     45  H   LIG d   1       4.582  -4.908  -5.169  0.00  0.00     0.062 H 
ATOM     46  H   LIG d   1       3.799  -3.222  -3.582  0.00  0.00     0.062 H 
ENDBRANCH  29  32
ENDBRANCH  26  29
ENDBRANCH   1  26
TORSDOF 7
ENDMDL
MODEL 3
REMARK VINA RESULT:      -6.5      4.078      8.048
REMARK  7 active torsions:
REMARK  status: ('A' for Active; 'I' for Inactive)
REMARK    1  A    between atoms: C_1  and  C_2 
REMARK       I    between atoms: C_2  and  N_4 
REMARK    2  A    between atoms: N_4  and  C_5 
REMARK    3  A    between atoms: C_9  and  N_11 
REMARK       I    between atoms: N_11  and  C_12 
REMARK    4  A    between atoms: C_12  and  C_14 
REMARK    5  A    between atoms: C_14  and  C_15 
REMARK    6  A    between atoms: C_15  and  C_16 
REMARK    7  A    between atoms: C_16  and  C_17 
ROOT
ATOM      1  C   LIG d   1       9.398   1.819  -3.716  0.00  0.00     0.025 C 
ATOM      2  H   LIG d   1       9.689   1.478  -2.723  0.00  0.00     0.036 H 
ATOM      3  H   LIG d   1       9.959   1.268  -4.469  0.00  0.00     0.036 H 
ENDROOT
BRANCH   1   4
ATOM      4  C   LIG d   1       7.924   1.584  -3.916  0.00  0.00     0.217 C 
ATOM      5  N   LIG d   1       7.303   0.590  -3.249  0.00  0.00    -0.285 N 
ATOM      6  H   LIG d   1       7.818  -0.015  -2.693  0.00  0.00     0.155 HD
ATOM      7  O   LIG d   1       7.294   2.289  -4.676  0.00  0.00    -0.276 OA
BRANCH   5   8
ATOM      8  C   LIG d   1       5.918   0.428  -3.364  0.00  0.00     0.035 A 
ATOM      9  C   LIG d   1       5.087   0.773  -2.307  0.00  0.00    -0.040 A 
ATOM     10  C   LIG d   1       3.720   0.613  -2.419  0.00  0.00    -0.058 A 
ATOM     11  H   LIG d   1       5.511   1.168  -1.394  0.00  0.00     0.064 H 
ATOM     12  C   LIG d   1       3.174   0.107  -3.583  0.00  0.00    -0.040 A 
ATOM     13  H   LIG d   1       3.075   0.883  -1.595  0.00  0.00     0.062 H 
ATOM     14  C   LIG d   1       4.000  -0.240  -4.645  0.00  0.00     0.035 A 
ATOM     15  H   LIG d   1       2.105  -0.018  -3.668  0.00  0.00     0.064 H 
ATOM     16  C   LIG d   1       5.373  -0.075  -4.538  0.00  0.00    -0.019 A 
ATOM     17  H   LIG d   1       6.016  -0.340  -5.363  0.00  0.00     0.066 H 
BRANCH  14  18
ATOM     18  N   LIG d   1       3.447  -0.753  -5.824  0.00  0.00    -0.286 N 
ATOM     19  C   LIG d   1       3.010   0.086  -6.783  0.00  0.00     0.214 C 
ATOM     20  O   LIG d   1       3.021   1.284  -6.593  0.00  0.00    -0.276 OA
ATOM     21  H   LIG d   1       3.377  -1.712  -5.950  0.00  0.00     0.155 HD
BRANCH  19  22
ATOM     22  C   LIG d   1       2.512  -0.463  -8.095  0.00  0.00     0.013 C 
ATOM     23  H   LIG d   1       3.059  -1.374  -8.339  0.00  0.00     0.032 H 
ATOM     24  H   LIG d   1       1.448  -0.689  -8.013  0.00  0.00     0.032 H 
ATOM     25  H   LIG d   1       2.666   0.276  -8.881  0.00  0.00     0.032 H 
ENDBRANCH  19  22
ENDBRANCH  14  18
ENDBRANCH   5   8
ENDBRANCH   1   4
BRANCH   1  26
ATOM     26  C   LIG d   1       9.698   3.314  -3.848  0.00  0.00    -0.041 C 
ATOM     27  H   LIG d   1      10.313   3.485  -4.732  0.00  0.00     0.027 H 
ATOM     28  H   LIG d   1       8.764   3.866  -3.944  0.00  0.00     0.027 H 
BRANCH  26  29
ATOM     29  C   LIG d   1      10.449   3.795  -2.605  0.00  0.00    -0.025 C 
ATOM     30  H   LIG d   1      10.124   3.219  -1.738  0.00  0.00     0.031 H 
ATOM     31  H   LIG d   1      11.521   3.657  -2.751  0.00  0.00     0.031 H 
BRANCH  29  32
ATOM     32  C   LIG d   1      10.159   5.256  -2.376  0.00  0.00    -0.022 A 
ATOM     33  C   LIG d   1      10.511   6.037  -1.188  0.00  0.00     0.003 A 
ATOM     34  C   LIG d   1      10.040   7.342  -1.427  0.00  0.00     0.047 A 
ATOM     35  C   LIG d   1      11.163   5.741   0.011  0.00  0.00    -0.052 A 
ATOM     36  N   LIG d   1       9.449   7.337  -2.669  0.00  0.00    -0.360 N 
ATOM     37  C   LIG d   1      10.232   8.323  -0.460  0.00  0.00    -0.038 A 
ATOM     38  C   LIG d   1       9.533   6.088  -3.222  0.00  0.00     0.006 A 
ATOM     39  H   LIG d   1       9.036   8.107  -3.093  0.00  0.00     0.165 HD
ATOM     40  H   LIG d   1       9.150   5.813  -4.193  0.00  0.00     0.081 H 
ATOM     41  C   LIG d   1      10.879   8.010   0.715  0.00  0.00    -0.060 A 
ATOM     42  H   LIG d   1       9.875   9.328  -0.630  0.00  0.00     0.064 H 
ATOM     43  C   LIG d   1      11.341   6.721   0.947  0.00  0.00    -0.061 A 
ATOM     44  H   LIG d   1      11.027   8.773   1.464  0.00  0.00     0.062 H 
ATOM     45  H   LIG d   1      11.845   6.492   1.874  0.00  0.00     0.062 H 
ATOM     46  H   LIG d   1      11.527   4.742   0.198  0.00  0.00     0.062 H 
ENDBRANCH  29  32
ENDBRANCH  26  29
ENDBRANCH   1  26
TORSDOF 7
ENDMDL
MODEL 4
REMARK VINA RESULT:      -6.4      2.717      5.144
REMARK  7 active torsions:
REMARK  status: ('A' for Active; 'I' for Inactive)
REMARK    1  A    between atoms: C_1  and  C_2 
REMARK       I    between atoms: C_2  and  N_4 
REMARK    2  A    between atoms: N_4  and  C_5 
REMARK    3  A    between atoms: C_9  and  N_11 
REMARK       I    between atoms: N_11  and  C_12 
REMARK    4  A    between atoms: C_12  and  C_14 
REMARK    5  A    between atoms: C_14  and  C_15 
REMARK    6  A    between atoms: C_15  and  C_16 
REMARK    7  A    between atoms: C_16  and  C_17 
ROOT
ATOM      1  C   LIG d   1       6.596  -4.024  -5.305  0.00  0.00     0.025 C 
ATOM      2  H   LIG d   1       6.319  -4.550  -4.391  0.00  0.00     0.036 H 
ATOM      3  H   LIG d   1       6.933  -4.744  -6.050  0.00  0.00     0.036 H 
ENDROOT
BRANCH   1   4
ATOM      4  C   LIG d   1       5.402  -3.274  -5.835  0.00  0.00     0.217 C 
ATOM      5  N   LIG d   1       5.579  -2.171  -6.588  0.00  0.00    -0.285 N 
ATOM      6  H   LIG d   1       6.473  -1.821  -6.733  0.00  0.00     0.155 HD
ATOM      7  O   LIG d   1       4.281  -3.662  -5.584  0.00  0.00    -0.276 OA
BRANCH   5   8
ATOM      8  C   LIG d   1       4.475  -1.525  -7.155  0.00  0.00     0.035 A 
ATOM      9  C   LIG d   1       3.880  -0.457  -6.497  0.00  0.00    -0.040 A 
ATOM     10  C   LIG d   1       2.790   0.182  -7.055  0.00  0.00    -0.058 A 
ATOM     11  H   LIG d   1       4.271  -0.124  -5.545  0.00  0.00     0.064 H 
ATOM     12  C   LIG d   1       2.287  -0.241  -8.271  0.00  0.00    -0.040 A 
ATOM     13  H   LIG d   1       2.329   1.012  -6.542  0.00  0.00     0.062 H 
ATOM     14  C   LIG d   1       2.878  -1.309  -8.935  0.00  0.00     0.035 A 
ATOM     15  H   LIG d   1       1.434   0.259  -8.705  0.00  0.00     0.064 H 
ATOM     16  C   LIG d   1       3.976  -1.948  -8.379  0.00  0.00    -0.019 A 
ATOM     17  H   LIG d   1       4.439  -2.775  -8.896  0.00  0.00     0.066 H 
BRANCH  14  18
ATOM     18  N   LIG d   1       2.367  -1.737 -10.166  0.00  0.00    -0.286 N 
ATOM     19  C   LIG d   1       2.703  -1.086 -11.297  0.00  0.00     0.214 C 
ATOM     20  O   LIG d   1       3.381  -0.082 -11.241  0.00  0.00    -0.276 OA
ATOM     21  H   LIG d   1       1.771  -2.501 -10.204  0.00  0.00     0.155 HD
BRANCH  19  22
ATOM     22  C   LIG d   1       2.240  -1.608 -12.633  0.00  0.00     0.013 C 
ATOM     23  H   LIG d   1       2.393  -0.844 -13.394  0.00  0.00     0.032 H 
ATOM     24  H   LIG d   1       2.811  -2.500 -12.892  0.00  0.00     0.032 H 
ATOM     25  H   LIG d   1       1.180  -1.860 -12.577  0.00  0.00     0.032 H 
ENDBRANCH  19  22
ENDBRANCH  14  18
ENDBRANCH   5   8
ENDBRANCH   1   4
BRANCH   1  26
ATOM     26  C   LIG d   1       7.725  -3.036  -5.001  0.00  0.00    -0.041 C 
ATOM     27  H   LIG d   1       8.687  -3.530  -5.139  0.00  0.00     0.027 H 
ATOM     28  H   LIG d   1       7.653  -2.184  -5.675  0.00  0.00     0.027 H 
BRANCH  26  29
ATOM     29  C   LIG d   1       7.603  -2.554  -3.554  0.00  0.00    -0.025 C 
ATOM     30  H   LIG d   1       6.986  -3.252  -2.989  0.00  0.00     0.031 H 
ATOM     31  H   LIG d   1       8.595  -2.500  -3.104  0.00  0.00     0.031 H 
BRANCH  29  32
ATOM     32  C   LIG d   1       6.967  -1.188  -3.531  0.00  0.00    -0.022 A 
ATOM     33  C   LIG d   1       5.589  -0.875  -3.144  0.00  0.00     0.003 A 
ATOM     34  C   LIG d   1       5.454   0.519  -3.280  0.00  0.00     0.047 A 
ATOM     35  C   LIG d   1       4.505  -1.641  -2.711  0.00  0.00    -0.052 A 
ATOM     36  N   LIG d   1       6.666   1.003  -3.718  0.00  0.00    -0.360 N 
ATOM     37  C   LIG d   1       4.235   1.117  -2.979  0.00  0.00    -0.038 A 
ATOM     38  C   LIG d   1       7.556  -0.027  -3.857  0.00  0.00     0.006 A 
ATOM     39  H   LIG d   1       6.861   1.937  -3.898  0.00  0.00     0.165 HD
ATOM     40  H   LIG d   1       8.580   0.079  -4.183  0.00  0.00     0.081 H 
ATOM     41  C   LIG d   1       3.179   0.343  -2.552  0.00  0.00    -0.060 A 
ATOM     42  H   LIG d   1       4.117   2.186  -3.079  0.00  0.00     0.064 H 
ATOM     43  C   LIG d   1       3.317  -1.032  -2.420  0.00  0.00    -0.061 A 
ATOM     44  H   LIG d   1       2.234   0.810  -2.319  0.00  0.00     0.062 H 
ATOM     45  H   LIG d   1       2.479  -1.625  -2.086  0.00  0.00     0.062 H 
ATOM     46  H   LIG d   1       4.606  -2.711  -2.605  0.00  0.00     0.062 H 
ENDBRANCH  29  32
ENDBRANCH  26  29
ENDBRANCH   1  26
TORSDOF 7
ENDMDL
MODEL 5
REMARK VINA RESULT:      -6.4      3.822      8.049
REMARK  7 active torsions:
REMARK  status: ('A' for Active; 'I' for Inactive)
REMARK    1  A    between atoms: C_1  and  C_2 
REMARK       I    between atoms: C_2  and  N_4 
REMARK    2  A    between atoms: N_4  and  C_5 
REMARK    3  A    between atoms: C_9  and  N_11 
REMARK       I    between atoms: N_11  and  C_12 
REMARK    4  A    between atoms: C_12  and  C_14 
REMARK    5  A    between atoms: C_14  and  C_15 
REMARK    6  A    between atoms: C_15  and  C_16 
REMARK    7  A    between atoms: C_16  and  C_17 
ROOT
ATOM      1  C   LIG d   1       8.208   2.523  -4.463  0.00  0.00     0.025 C 
ATOM      2  H   LIG d   1       8.672   2.304  -5.424  0.00  0.00     0.036 H 
ATOM      3  H   LIG d   1       7.530   3.369  -4.571  0.00  0.00     0.036 H 
ENDROOT
BRANCH   1   4
ATOM      4  C   LIG d   1       7.438   1.318  -3.991  0.00  0.00     0.217 C 
ATOM      5  N   LIG d   1       6.112   1.411  -3.766  0.00  0.00    -0.285 N 
ATOM      6  H   LIG d   1       5.666   2.269  -3.844  0.00  0.00     0.155 HD
ATOM      7  O   LIG d   1       8.010   0.264  -3.812  0.00  0.00    -0.276 OA
BRANCH   5   8
ATOM      8  C   LIG d   1       5.379   0.272  -3.415  0.00  0.00     0.035 A 
ATOM      9  C   LIG d   1       5.016   0.059  -2.091  0.00  0.00    -0.040 A 
ATOM     10  C   LIG d   1       4.294  -1.065  -1.742  0.00  0.00    -0.058 A 
ATOM     11  H   LIG d   1       5.300   0.775  -1.332  0.00  0.00     0.064 H 
ATOM     12  C   LIG d   1       3.930  -1.983  -2.708  0.00  0.00    -0.040 A 
ATOM     13  H   LIG d   1       4.012  -1.228  -0.712  0.00  0.00     0.062 H 
ATOM     14  C   LIG d   1       4.290  -1.776  -4.035  0.00  0.00     0.035 A 
ATOM     15  H   LIG d   1       3.366  -2.861  -2.433  0.00  0.00     0.064 H 
ATOM     16  C   LIG d   1       5.011  -0.645  -4.389  0.00  0.00    -0.019 A 
ATOM     17  H   LIG d   1       5.288  -0.481  -5.419  0.00  0.00     0.066 H 
BRANCH  14  18
ATOM     18  N   LIG d   1       3.922  -2.707  -5.013  0.00  0.00    -0.286 N 
ATOM     19  C   LIG d   1       4.740  -3.737  -5.304  0.00  0.00     0.214 C 
ATOM     20  O   LIG d   1       5.830  -3.814  -4.778  0.00  0.00    -0.276 OA
ATOM     21  H   LIG d   1       3.079  -2.609  -5.483  0.00  0.00     0.155 HD
BRANCH  19  22
ATOM     22  C   LIG d   1       4.299  -4.797  -6.281  0.00  0.00     0.013 C 
ATOM     23  H   LIG d   1       3.215  -4.903  -6.237  0.00  0.00     0.032 H 
ATOM     24  H   LIG d   1       4.594  -4.507  -7.290  0.00  0.00     0.032 H 
ATOM     25  H   LIG d   1       4.768  -5.747  -6.025  0.00  0.00     0.032 H 
ENDBRANCH  19  22
ENDBRANCH  14  18
ENDBRANCH   5   8
ENDBRANCH   1   4
BRANCH   1  26
ATOM     26  C   LIG d   1       9.294   2.867  -3.440  0.00  0.00    -0.041 C 
ATOM     27  H   LIG d   1       8.828   3.207  -2.516  0.00  0.00     0.027 H 
ATOM     28  H   LIG d   1       9.897   1.982  -3.239  0.00  0.00     0.027 H 
BRANCH  26  29
ATOM     29  C   LIG d   1      10.187   3.976  -3.999  0.00  0.00    -0.025 C 
ATOM     30  H   LIG d   1      11.234   3.695  -3.880  0.00  0.00     0.031 H 
ATOM     31  H   LIG d   1       9.969   4.121  -5.057  0.00  0.00     0.031 H 
BRANCH  29  32
ATOM     32  C   LIG d   1       9.924   5.258  -3.252  0.00  0.00    -0.022 A 
ATOM     33  C   LIG d   1      10.429   5.611  -1.923  0.00  0.00     0.003 A 
ATOM     34  C   LIG d   1       9.924   6.895  -1.643  0.00  0.00     0.047 A 
ATOM     35  C   LIG d   1      11.238   4.962  -0.989  0.00  0.00    -0.052 A 
ATOM     36  N   LIG d   1       9.170   7.279  -2.729  0.00  0.00    -0.360 N 
ATOM     37  C   LIG d   1      10.240   7.502  -0.433  0.00  0.00    -0.038 A 
ATOM     38  C   LIG d   1       9.185   6.294  -3.679  0.00  0.00     0.006 A 
ATOM     39  H   LIG d   1       8.700   8.124  -2.810  0.00  0.00     0.165 HD
ATOM     40  H   LIG d   1       8.676   6.342  -4.630  0.00  0.00     0.081 H 
ATOM     41  C   LIG d   1      11.041   6.844   0.475  0.00  0.00    -0.060 A 
ATOM     42  H   LIG d   1       9.859   8.486  -0.205  0.00  0.00     0.064 H 
ATOM     43  C   LIG d   1      11.536   5.578   0.195  0.00  0.00    -0.061 A 
ATOM     44  H   LIG d   1      11.285   7.318   1.414  0.00  0.00     0.062 H 
ATOM     45  H   LIG d   1      12.162   5.076   0.918  0.00  0.00     0.062 H 
ATOM     46  H   LIG d   1      11.628   3.978  -1.200  0.00  0.00     0.062 H 
ENDBRANCH  29  32
ENDBRANCH  26  29
ENDBRANCH   1  26
TORSDOF 7
ENDMDL
MODEL 6
REMARK VINA RESULT:      -6.4      2.675      4.737
REMARK  7 active torsions:
REMARK  status: ('A' for Active; 'I' for Inactive)
REMARK    1  A    between atoms: C_1  and  C_2 
REMARK       I    between atoms: C_2  and  N_4 
REMARK    2  A    between atoms: N_4  and  C_5 
REMARK    3  A    between atoms: C_9  and  N_11 
REMARK       I    between atoms: N_11  and  C_12 
REMARK    4  A    between atoms: C_12  and  C_14 
REMARK    5  A    between atoms: C_14  and  C_15 
REMARK    6  A    between atoms: C_15  and  C_16 
REMARK    7  A    between atoms: C_16  and  C_17 
ROOT
ATOM      1  C   LIG d   1       2.476  -0.452  -3.419  0.00  0.00     0.025 C 
ATOM      2  H   LIG d   1       1.396  -0.326  -3.338  0.00  0.00     0.036 H 
ATOM      3  H   LIG d   1       2.732  -1.501  -3.281  0.00  0.00     0.036 H 
ENDROOT
BRANCH   1   4
ATOM      4  C   LIG d   1       2.933   0.002  -4.781  0.00  0.00     0.217 C 
ATOM      5  N   LIG d   1       3.544  -0.867  -5.611  0.00  0.00    -0.285 N 
ATOM      6  H   LIG d   1       3.749  -1.766  -5.307  0.00  0.00     0.155 HD
ATOM      7  O   LIG d   1       2.752   1.148  -5.132  0.00  0.00    -0.276 OA
BRANCH   5   8
ATOM      8  C   LIG d   1       3.888  -0.473  -6.909  0.00  0.00     0.035 A 
ATOM      9  C   LIG d   1       5.190  -0.085  -7.196  0.00  0.00    -0.040 A 
ATOM     10  C   LIG d   1       5.531   0.305  -8.476  0.00  0.00    -0.058 A 
ATOM     11  H   LIG d   1       5.938  -0.089  -6.415  0.00  0.00     0.064 H 
ATOM     12  C   LIG d   1       4.578   0.312  -9.476  0.00  0.00    -0.040 A 
ATOM     13  H   LIG d   1       6.545   0.605  -8.697  0.00  0.00     0.062 H 
ATOM     14  C   LIG d   1       3.273  -0.075  -9.196  0.00  0.00     0.035 A 
ATOM     15  H   LIG d   1       4.847   0.618 -10.476  0.00  0.00     0.064 H 
ATOM     16  C   LIG d   1       2.928  -0.473  -7.912  0.00  0.00    -0.019 A 
ATOM     17  H   LIG d   1       1.916  -0.777  -7.693  0.00  0.00     0.066 H 
BRANCH  14  18
ATOM     18  N   LIG d   1       2.307  -0.067 -10.209  0.00  0.00    -0.286 N 
ATOM     19  C   LIG d   1       2.062  -1.188 -10.914  0.00  0.00     0.214 C 
ATOM     20  O   LIG d   1       2.733  -2.181 -10.728  0.00  0.00    -0.276 OA
ATOM     21  H   LIG d   1       1.815   0.746 -10.403  0.00  0.00     0.155 HD
BRANCH  19  22
ATOM     22  C   LIG d   1       0.951  -1.210 -11.932  0.00  0.00     0.013 C 
ATOM     23  H   LIG d   1       0.015  -0.922 -11.455  0.00  0.00     0.032 H 
ATOM     24  H   LIG d   1       1.181  -0.509 -12.735  0.00  0.00     0.032 H 
ATOM     25  H   LIG d   1       0.855  -2.215 -12.344  0.00  0.00     0.032 H 
ENDBRANCH  19  22
ENDBRANCH  14  18
ENDBRANCH   5   8
ENDBRANCH   1   4
BRANCH   1  26
ATOM     26  C   LIG d   1       3.168   0.389  -2.344  0.00  0.00    -0.041 C 
ATOM     27  H   LIG d   1       3.406   1.373  -2.749  0.00  0.00     0.027 H 
ATOM     28  H   LIG d   1       2.506   0.500  -1.486  0.00  0.00     0.027 H 
BRANCH  26  29
ATOM     29  C   LIG d   1       4.458  -0.307  -1.905  0.00  0.00    -0.025 C 
ATOM     30  H   LIG d   1       4.677  -0.048  -0.869  0.00  0.00     0.031 H 
ATOM     31  H   LIG d   1       4.336  -1.387  -1.991  0.00  0.00     0.031 H 
BRANCH  29  32
ATOM     32  C   LIG d   1       5.596   0.141  -2.786  0.00  0.00    -0.022 A 
ATOM     33  C   LIG d   1       6.533  -0.725  -3.505  0.00  0.00     0.003 A 
ATOM     34  C   LIG d   1       7.412   0.136  -4.188  0.00  0.00     0.047 A 
ATOM     35  C   LIG d   1       6.687  -2.108  -3.617  0.00  0.00    -0.052 A 
ATOM     36  N   LIG d   1       7.026   1.425  -3.895  0.00  0.00    -0.360 N 
ATOM     37  C   LIG d   1       8.428  -0.405  -4.968  0.00  0.00    -0.038 A 
ATOM     38  C   LIG d   1       5.940   1.409  -3.062  0.00  0.00     0.006 A 
ATOM     39  H   LIG d   1       7.459   2.226  -4.231  0.00  0.00     0.165 HD
ATOM     40  H   LIG d   1       5.437   2.284  -2.683  0.00  0.00     0.081 H 
ATOM     41  C   LIG d   1       8.561  -1.773  -5.066  0.00  0.00    -0.060 A 
ATOM     42  H   LIG d   1       9.110   0.244  -5.497  0.00  0.00     0.064 H 
ATOM     43  C   LIG d   1       7.691  -2.619  -4.391  0.00  0.00    -0.061 A 
ATOM     44  H   LIG d   1       9.349  -2.192  -5.673  0.00  0.00     0.062 H 
ATOM     45  H   LIG d   1       7.810  -3.689  -4.477  0.00  0.00     0.062 H 
ATOM     46  H   LIG d   1       6.014  -2.772  -3.096  0.00  0.00     0.062 H 
ENDBRANCH  29  32
ENDBRANCH  26  29
ENDBRANCH   1  26
TORSDOF 7
ENDMDL
MODEL 7
REMARK VINA RESULT:      -6.3      5.224      7.204
REMARK  7 active torsions:
REMARK  status: ('A' for Active; 'I' for Inactive)
REMARK    1  A    between atoms: C_1  and  C_2 
REMARK       I    between atoms: C_2  and  N_4 
REMARK    2  A    between atoms: N_4  and  C_5 
REMARK    3  A    between atoms: C_9  and  N_11 
REMARK       I    between atoms: N_11  and  C_12 
REMARK    4  A    between atoms: C_12  and  C_14 
REMARK    5  A    between atoms: C_14  and  C_15 
REMARK    6  A    between atoms: C_15  and  C_16 
REMARK    7  A    between atoms: C_16  and  C_17 
ROOT
ATOM      1  C   LIG d   1      10.298   3.248  -4.194  0.00  0.00     0.025 C 
ATOM      2  H   LIG d   1       9.948   3.451  -5.205  0.00  0.00     0.036 H 
ATOM      3  H   LIG d   1      11.256   2.733  -4.237  0.00  0.00     0.036 H 
ENDROOT
BRANCH   1   4
ATOM      4  C   LIG d   1      10.459   4.547  -3.448  0.00  0.00     0.217 C 
ATOM      5  N   LIG d   1       9.907   4.697  -2.228  0.00  0.00    -0.285 N 
ATOM      6  H   LIG d   1       9.349   3.994  -1.858  0.00  0.00     0.155 HD
ATOM      7  O   LIG d   1      11.086   5.459  -3.945  0.00  0.00    -0.276 OA
BRANCH   5   8
ATOM      8  C   LIG d   1      10.131   5.869  -1.496  0.00  0.00     0.035 A 
ATOM      9  C   LIG d   1      11.000   5.857  -0.413  0.00  0.00    -0.040 A 
ATOM     10  C   LIG d   1      11.222   7.012   0.311  0.00  0.00    -0.058 A 
ATOM     11  H   LIG d   1      11.504   4.941  -0.135  0.00  0.00     0.064 H 
ATOM     12  C   LIG d   1      10.580   8.184  -0.040  0.00  0.00    -0.040 A 
ATOM     13  H   LIG d   1      11.899   7.001   1.152  0.00  0.00     0.062 H 
ATOM     14  C   LIG d   1       9.708   8.203  -1.123  0.00  0.00     0.035 A 
ATOM     15  H   LIG d   1      10.754   9.086   0.528  0.00  0.00     0.064 H 
ATOM     16  C   LIG d   1       9.488   7.045  -1.855  0.00  0.00    -0.019 A 
ATOM     17  H   LIG d   1       8.815   7.059  -2.698  0.00  0.00     0.066 H 
BRANCH  14  18
ATOM     18  N   LIG d   1       9.057   9.390  -1.477  0.00  0.00    -0.286 N 
ATOM     19  C   LIG d   1       9.626  10.232  -2.362  0.00  0.00     0.214 C 
ATOM     20  O   LIG d   1      10.737  10.002  -2.790  0.00  0.00    -0.276 OA
ATOM     21  H   LIG d   1       8.197   9.607  -1.084  0.00  0.00     0.155 HD
BRANCH  19  22
ATOM     22  C   LIG d   1       8.879  11.457  -2.823  0.00  0.00     0.013 C 
ATOM     23  H   LIG d   1       9.326  11.828  -3.746  0.00  0.00     0.032 H 
ATOM     24  H   LIG d   1       7.835  11.200  -3.003  0.00  0.00     0.032 H 
ATOM     25  H   LIG d   1       8.936  12.228  -2.056  0.00  0.00     0.032 H 
ENDBRANCH  19  22
ENDBRANCH  14  18
ENDBRANCH   5   8
ENDBRANCH   1   4
BRANCH   1  26
ATOM     26  C   LIG d   1       9.277   2.368  -3.469  0.00  0.00    -0.041 C 
ATOM     27  H   LIG d   1       9.730   1.406  -3.230  0.00  0.00     0.027 H 
ATOM     28  H   LIG d   1       8.961   2.860  -2.549  0.00  0.00     0.027 H 
BRANCH  26  29
ATOM     29  C   LIG d   1       8.062   2.148  -4.372  0.00  0.00    -0.025 C 
ATOM     30  H   LIG d   1       7.308   2.906  -4.159  0.00  0.00     0.031 H 
ATOM     31  H   LIG d   1       8.366   2.223  -5.416  0.00  0.00     0.031 H 
BRANCH  29  32
ATOM     32  C   LIG d   1       7.485   0.780  -4.115  0.00  0.00    -0.022 A 
ATOM     33  C   LIG d   1       6.316   0.470  -3.288  0.00  0.00     0.003 A 
ATOM     34  C   LIG d   1       6.159  -0.927  -3.345  0.00  0.00     0.047 A 
ATOM     35  C   LIG d   1       5.428   1.240  -2.535  0.00  0.00    -0.052 A 
ATOM     36  N   LIG d   1       7.164  -1.415  -4.149  0.00  0.00    -0.360 N 
ATOM     37  C   LIG d   1       5.116  -1.525  -2.646  0.00  0.00    -0.038 A 
ATOM     38  C   LIG d   1       7.941  -0.384  -4.602  0.00  0.00     0.006 A 
ATOM     39  H   LIG d   1       7.300  -2.352  -4.365  0.00  0.00     0.165 HD
ATOM     40  H   LIG d   1       8.795  -0.491  -5.253  0.00  0.00     0.081 H 
ATOM     41  C   LIG d   1       4.250  -0.747  -1.910  0.00  0.00    -0.060 A 
ATOM     42  H   LIG d   1       4.984  -2.597  -2.681  0.00  0.00     0.064 H 
ATOM     43  C   LIG d   1       4.409   0.631  -1.856  0.00  0.00    -0.061 A 
ATOM     44  H   LIG d   1       3.441  -1.213  -1.368  0.00  0.00     0.062 H 
ATOM     45  H   LIG d   1       3.723   1.227  -1.273  0.00  0.00     0.062 H 
ATOM     46  H   LIG d   1       5.544   2.312  -2.489  0.00  0.00     0.062 H 
ENDBRANCH  29  32
ENDBRANCH  26  29
ENDBRANCH   1  26
TORSDOF 7
ENDMDL
MODEL 8
REMARK VINA RESULT:      -6.3      2.439      4.595
REMARK  7 active torsions:
REMARK  status: ('A' for Active; 'I' for Inactive)
REMARK    1  A    between atoms: C_1  and  C_2 
REMARK       I    between atoms: C_2  and  N_4 
REMARK    2  A    between atoms: N_4  and  C_5 
REMARK    3  A    between atoms: C_9  and  N_11 
REMARK       I    between atoms: N_11  and  C_12 
REMARK    4  A    between atoms: C_12  and  C_14 
REMARK    5  A    between atoms: C_14  and  C_15 
REMARK    6  A    between atoms: C_15  and  C_16 
REMARK    7  A    between atoms: C_16  and  C_17 
ROOT
ATOM      1  C   LIG d   1       8.055  -0.655  -5.436  0.00  0.00     0.025 C 
ATOM      2  H   LIG d   1       9.033  -0.474  -5.882  0.00  0.00     0.036 H 
ATOM      3  H   LIG d   1       7.992  -0.144  -4.477  0.00  0.00     0.036 H 
ENDROOT
BRANCH   1   4
ATOM      4  C   LIG d   1       6.980  -0.134  -6.355  0.00  0.00     0.217 C 
ATOM      5  N   LIG d   1       6.119  -0.991  -6.938  0.00  0.00    -0.285 N 
ATOM      6  H   LIG d   1       6.232  -1.947  -6.821  0.00  0.00     0.155 HD
ATOM      7  O   LIG d   1       6.890   1.056  -6.569  0.00  0.00    -0.276 OA
BRANCH   5   8
ATOM      8  C   LIG d   1       5.066  -0.502  -7.719  0.00  0.00     0.035 A 
ATOM      9  C   LIG d   1       3.844  -0.204  -7.130  0.00  0.00    -0.040 A 
ATOM     10  C   LIG d   1       2.803   0.279  -7.900  0.00  0.00    -0.058 A 
ATOM     11  H   LIG d   1       3.707  -0.349  -6.068  0.00  0.00     0.064 H 
ATOM     12  C   LIG d   1       2.973   0.465  -9.258  0.00  0.00    -0.040 A 
ATOM     13  H   LIG d   1       1.854   0.511  -7.440  0.00  0.00     0.062 H 
ATOM     14  C   LIG d   1       4.193   0.167  -9.854  0.00  0.00     0.035 A 
ATOM     15  H   LIG d   1       2.158   0.841  -9.857  0.00  0.00     0.064 H 
ATOM     16  C   LIG d   1       5.242  -0.311  -9.082  0.00  0.00    -0.019 A 
ATOM     17  H   LIG d   1       6.192  -0.539  -9.542  0.00  0.00     0.066 H 
BRANCH  14  18
ATOM     18  N   LIG d   1       4.365   0.355 -11.230  0.00  0.00    -0.286 N 
ATOM     19  C   LIG d   1       4.179  -0.674 -12.079  0.00  0.00     0.214 C 
ATOM     20  O   LIG d   1       3.944  -1.783 -11.646  0.00  0.00    -0.276 OA
ATOM     21  H   LIG d   1       4.619   1.227 -11.572  0.00  0.00     0.155 HD
BRANCH  19  22
ATOM     22  C   LIG d   1       4.261  -0.448 -13.566  0.00  0.00     0.013 C 
ATOM     23  H   LIG d   1       5.167   0.111 -13.800  0.00  0.00     0.032 H 
ATOM     24  H   LIG d   1       4.286  -1.410 -14.079  0.00  0.00     0.032 H 
ATOM     25  H   LIG d   1       3.389   0.116 -13.897  0.00  0.00     0.032 H 
ENDBRANCH  19  22
ENDBRANCH  14  18
ENDBRANCH   5   8
ENDBRANCH   1   4
BRANCH   1  26
ATOM     26  C   LIG d   1       7.862  -2.159  -5.228  0.00  0.00    -0.041 C 
ATOM     27  H   LIG d   1       7.131  -2.535  -5.945  0.00  0.00     0.027 H 
ATOM     28  H   LIG d   1       8.812  -2.672  -5.375  0.00  0.00     0.027 H 
BRANCH  26  29
ATOM     29  C   LIG d   1       7.359  -2.416  -3.806  0.00  0.00    -0.025 C 
ATOM     30  H   LIG d   1       7.577  -3.446  -3.523  0.00  0.00     0.031 H 
ATOM     31  H   LIG d   1       7.858  -1.737  -3.115  0.00  0.00     0.031 H 
BRANCH  29  32
ATOM     32  C   LIG d   1       5.871  -2.185  -3.750  0.00  0.00    -0.022 A 
ATOM     33  C   LIG d   1       5.193  -1.001  -3.216  0.00  0.00     0.003 A 
ATOM     34  C   LIG d   1       3.815  -1.237  -3.375  0.00  0.00     0.047 A 
ATOM     35  C   LIG d   1       5.633   0.192  -2.639  0.00  0.00    -0.052 A 
ATOM     36  N   LIG d   1       3.681  -2.475  -3.962  0.00  0.00    -0.360 N 
ATOM     37  C   LIG d   1       2.905  -0.273  -2.953  0.00  0.00    -0.038 A 
ATOM     38  C   LIG d   1       4.915  -3.023  -4.182  0.00  0.00     0.006 A 
ATOM     39  H   LIG d   1       2.836  -2.895  -4.189  0.00  0.00     0.165 HD
ATOM     40  H   LIG d   1       5.095  -3.986  -4.634  0.00  0.00     0.081 H 
ATOM     41  C   LIG d   1       3.361   0.898  -2.387  0.00  0.00    -0.060 A 
ATOM     42  H   LIG d   1       1.845  -0.441  -3.069  0.00  0.00     0.064 H 
ATOM     43  C   LIG d   1       4.721   1.125  -2.231  0.00  0.00    -0.061 A 
ATOM     44  H   LIG d   1       2.653   1.644  -2.061  0.00  0.00     0.062 H 
ATOM     45  H   LIG d   1       5.062   2.048  -1.785  0.00  0.00     0.062 H 
ATOM     46  H   LIG d   1       6.690   0.377  -2.516  0.00  0.00     0.062 H 
ENDBRANCH  29  32
ENDBRANCH  26  29
ENDBRANCH   1  26
TORSDOF 7
ENDMDL
MODEL 9
REMARK VINA RESULT:      -6.1      5.106      8.339
REMARK  7 active torsions:
REMARK  status: ('A' for Active; 'I' for Inactive)
REMARK    1  A    between atoms: C_1  and  C_2 
REMARK       I    between atoms: C_2  and  N_4 
REMARK    2  A    between atoms: N_4  and  C_5 
REMARK    3  A    between atoms: C_9  and  N_11 
REMARK       I    between atoms: N_11  and  C_12 
REMARK    4  A    between atoms: C_12  and  C_14 
REMARK    5  A    between atoms: C_14  and  C_15 
REMARK    6  A    between atoms: C_15  and  C_16 
REMARK    7  A    between atoms: C_16  and  C_17 
ROOT
ATOM      1  C   LIG d   1       4.527  -3.450  -6.790  0.00  0.00     0.025 C 
ATOM      2  H   LIG d   1       4.482  -3.116  -7.827  0.00  0.00     0.036 H 
ATOM      3  H   LIG d   1       3.768  -2.929  -6.207  0.00  0.00     0.036 H 
ENDROOT
BRANCH   1   4
ATOM      4  C   LIG d   1       4.276  -4.934  -6.729  0.00  0.00     0.217 C 
ATOM      5  N   LIG d   1       5.147  -5.789  -7.300  0.00  0.00    -0.285 N 
ATOM      6  H   LIG d   1       5.900  -5.447  -7.808  0.00  0.00     0.155 HD
ATOM      7  O   LIG d   1       3.290  -5.360  -6.166  0.00  0.00    -0.276 OA
BRANCH   5   8
ATOM      8  C   LIG d   1       4.964  -7.170  -7.167  0.00  0.00     0.035 A 
ATOM      9  C   LIG d   1       4.401  -7.900  -8.206  0.00  0.00    -0.040 A 
ATOM     10  C   LIG d   1       4.219  -9.263  -8.075  0.00  0.00    -0.058 A 
ATOM     11  H   LIG d   1       4.106  -7.401  -9.118  0.00  0.00     0.064 H 
ATOM     12  C   LIG d   1       4.594  -9.905  -6.910  0.00  0.00    -0.040 A 
ATOM     13  H   LIG d   1       3.782  -9.829  -8.885  0.00  0.00     0.062 H 
ATOM     14  C   LIG d   1       5.157  -9.179  -5.867  0.00  0.00     0.035 A 
ATOM     15  H   LIG d   1       4.449 -10.970  -6.811  0.00  0.00     0.064 H 
ATOM     16  C   LIG d   1       5.347  -7.811  -5.997  0.00  0.00    -0.019 A 
ATOM     17  H   LIG d   1       5.787  -7.247  -5.190  0.00  0.00     0.066 H 
BRANCH  14  18
ATOM     18  N   LIG d   1       5.536  -9.830  -4.687  0.00  0.00    -0.286 N 
ATOM     19  C   LIG d   1       4.640 -10.002  -3.695  0.00  0.00     0.214 C 
ATOM     20  O   LIG d   1       3.530  -9.523  -3.790  0.00  0.00    -0.276 OA
ATOM     21  H   LIG d   1       6.444 -10.155  -4.583  0.00  0.00     0.155 HD
BRANCH  19  22
ATOM     22  C   LIG d   1       5.016 -10.793  -2.469  0.00  0.00     0.013 C 
ATOM     23  H   LIG d   1       4.710 -11.831  -2.598  0.00  0.00     0.032 H 
ATOM     24  H   LIG d   1       6.096 -10.748  -2.325  0.00  0.00     0.032 H 
ATOM     25  H   LIG d   1       4.517 -10.372  -1.597  0.00  0.00     0.032 H 
ENDBRANCH  19  22
ENDBRANCH  14  18
ENDBRANCH   5   8
ENDBRANCH   1   4
BRANCH   1  26
ATOM     26  C   LIG d   1       5.912  -3.143  -6.217  0.00  0.00    -0.041 C 
ATOM     27  H   LIG d   1       6.646  -3.818  -6.658  0.00  0.00     0.027 H 
ATOM     28  H   LIG d   1       6.181  -2.113  -6.446  0.00  0.00     0.027 H 
BRANCH  26  29
ATOM     29  C   LIG d   1       5.890  -3.338  -4.700  0.00  0.00    -0.025 C 
ATOM     30  H   LIG d   1       4.920  -3.733  -4.398  0.00  0.00     0.031 H 
ATOM     31  H   LIG d   1       6.673  -4.040  -4.411  0.00  0.00     0.031 H 
BRANCH  29  32
ATOM     32  C   LIG d   1       6.127  -2.015  -4.019  0.00  0.00    -0.022 A 
ATOM     33  C   LIG d   1       5.105  -1.134  -3.449  0.00  0.00     0.003 A 
ATOM     34  C   LIG d   1       5.796  -0.024  -2.926  0.00  0.00     0.047 A 
ATOM     35  C   LIG d   1       3.714  -1.200  -3.345  0.00  0.00    -0.052 A 
ATOM     36  N   LIG d   1       7.135  -0.230  -3.169  0.00  0.00    -0.360 N 
ATOM     37  C   LIG d   1       5.079   0.997  -2.312  0.00  0.00    -0.038 A 
ATOM     38  C   LIG d   1       7.314  -1.422  -3.816  0.00  0.00     0.006 A 
ATOM     39  H   LIG d   1       7.847   0.379  -2.916  0.00  0.00     0.165 HD
ATOM     40  H   LIG d   1       8.268  -1.825  -4.121  0.00  0.00     0.081 H 
ATOM     41  C   LIG d   1       3.707   0.912  -2.220  0.00  0.00    -0.060 A 
ATOM     42  H   LIG d   1       5.596   1.854  -1.908  0.00  0.00     0.064 H 
ATOM     43  C   LIG d   1       3.030  -0.184  -2.737  0.00  0.00    -0.061 A 
ATOM     44  H   LIG d   1       3.153   1.706  -1.743  0.00  0.00     0.062 H 
ATOM     45  H   LIG d   1       1.954  -0.236  -2.658  0.00  0.00     0.062 H 
ATOM     46  H   LIG d   1       3.181  -2.050  -3.744  0.00  0.00     0.062 H 
ENDBRANCH  29  32
ENDBRANCH  26  29
ENDBRANCH   1  26
TORSDOF 7
ENDMDL
MODEL 10
REMARK VINA RESULT:      -6.1      2.223      4.595
REMARK  7 active torsions:
REMARK  status: ('A' for Active; 'I' for Inactive)
REMARK    1  A    between atoms: C_1  and  C_2 
REMARK       I    between atoms: C_2  and  N_4 
REMARK    2  A    between atoms: N_4  and  C_5 
REMARK    3  A    between atoms: C_9  and  N_11 
REMARK       I    between atoms: N_11  and  C_12 
REMARK    4  A    between atoms: C_12  and  C_14 
REMARK    5  A    between atoms: C_14  and  C_15 
REMARK    6  A    between atoms: C_15  and  C_16 
REMARK    7  A    between atoms: C_16  and  C_17 
ROOT
ATOM      1  C   LIG d   1       4.291  -3.919  -6.962  0.00  0.00     0.025 C 
ATOM      2  H   LIG d   1       3.384  -4.051  -6.372  0.00  0.00     0.036 H 
ATOM      3  H   LIG d   1       4.386  -4.741  -7.670  0.00  0.00     0.036 H 
ENDROOT
BRANCH   1   4
ATOM      4  C   LIG d   1       4.216  -2.616  -7.713  0.00  0.00     0.217 C 
ATOM      5  N   LIG d   1       3.958  -1.470  -7.052  0.00  0.00    -0.285 N 
ATOM      6  H   LIG d   1       3.754  -1.493  -6.103  0.00  0.00     0.155 HD
ATOM      7  O   LIG d   1       4.388  -2.596  -8.914  0.00  0.00    -0.276 OA
BRANCH   5   8
ATOM      8  C   LIG d   1       3.977  -0.248  -7.733  0.00  0.00     0.035 A 
ATOM      9  C   LIG d   1       2.790   0.432  -7.974  0.00  0.00    -0.040 A 
ATOM     10  C   LIG d   1       2.808   1.639  -8.647  0.00  0.00    -0.058 A 
ATOM     11  H   LIG d   1       1.852   0.017  -7.636  0.00  0.00     0.064 H 
ATOM     12  C   LIG d   1       4.005   2.173  -9.082  0.00  0.00    -0.040 A 
ATOM     13  H   LIG d   1       1.884   2.166  -8.833  0.00  0.00     0.062 H 
ATOM     14  C   LIG d   1       5.196   1.497  -8.844  0.00  0.00     0.035 A 
ATOM     15  H   LIG d   1       4.016   3.115  -9.609  0.00  0.00     0.064 H 
ATOM     16  C   LIG d   1       5.182   0.288  -8.164  0.00  0.00    -0.019 A 
ATOM     17  H   LIG d   1       6.107  -0.236  -7.974  0.00  0.00     0.066 H 
BRANCH  14  18
ATOM     18  N   LIG d   1       6.409   2.038  -9.286  0.00  0.00    -0.286 N 
ATOM     19  C   LIG d   1       7.458   2.116  -8.444  0.00  0.00     0.214 C 
ATOM     20  O   LIG d   1       7.329   1.794  -7.282  0.00  0.00    -0.276 OA
ATOM     21  H   LIG d   1       6.493   2.358 -10.198  0.00  0.00     0.155 HD
BRANCH  19  22
ATOM     22  C   LIG d   1       8.793   2.601  -8.947  0.00  0.00     0.013 C 
ATOM     23  H   LIG d   1       8.887   3.669  -8.756  0.00  0.00     0.032 H 
ATOM     24  H   LIG d   1       9.591   2.067  -8.431  0.00  0.00     0.032 H 
ATOM     25  H   LIG d   1       8.867   2.415 -10.019  0.00  0.00     0.032 H 
ENDBRANCH  19  22
ENDBRANCH  14  18
ENDBRANCH   5   8
ENDBRANCH   1   4
BRANCH   1  26
ATOM     26  C   LIG d   1       5.506  -3.902  -6.032  0.00  0.00    -0.041 C 
ATOM     27  H   LIG d   1       6.074  -4.823  -6.158  0.00  0.00     0.027 H 
ATOM     28  H   LIG d   1       6.138  -3.049  -6.275  0.00  0.00     0.027 H 
BRANCH  26  29
ATOM     29  C   LIG d   1       5.034  -3.790  -4.580  0.00  0.00    -0.025 C 
ATOM     30  H   LIG d   1       3.945  -3.765  -4.553  0.00  0.00     0.031 H 
ATOM     31  H   LIG d   1       5.392  -4.650  -4.014  0.00  0.00     0.031 H 
BRANCH  29  32
ATOM     32  C   LIG d   1       5.581  -2.525  -3.970  0.00  0.00    -0.022 A 
ATOM     33  C   LIG d   1       4.800  -1.419  -3.413  0.00  0.00     0.003 A 
ATOM     34  C   LIG d   1       5.735  -0.469  -2.964  0.00  0.00     0.047 A 
ATOM     35  C   LIG d   1       3.433  -1.173  -3.266  0.00  0.00    -0.052 A 
ATOM     36  N   LIG d   1       6.987  -0.973  -3.236  0.00  0.00    -0.360 N 
ATOM     37  C   LIG d   1       5.284   0.709  -2.378  0.00  0.00    -0.038 A 
ATOM     38  C   LIG d   1       6.876  -2.201  -3.830  0.00  0.00     0.006 A 
ATOM     39  H   LIG d   1       7.825  -0.526  -3.032  0.00  0.00     0.165 HD
ATOM     40  H   LIG d   1       7.706  -2.816  -4.143  0.00  0.00     0.081 H 
ATOM     41  C   LIG d   1       3.931   0.931  -2.243  0.00  0.00    -0.060 A 
ATOM     42  H   LIG d   1       5.991   1.447  -2.030  0.00  0.00     0.064 H 
ATOM     43  C   LIG d   1       3.011  -0.009  -2.687  0.00  0.00    -0.061 A 
ATOM     44  H   LIG d   1       3.582   1.846  -1.787  0.00  0.00     0.062 H 
ATOM     45  H   LIG d   1       1.954   0.181  -2.575  0.00  0.00     0.062 H 
ATOM     46  H   LIG d   1       2.712  -1.900  -3.609  0.00  0.00     0.062 H 
ENDBRANCH  29  32
ENDBRANCH  26  29
ENDBRANCH   1  26
TORSDOF 7
ENDMDL
