MODEL 1
REMARK VINA RESULT:      -4.9      0.000      0.000
REMARK  8 active torsions:
REMARK  status: ('A' for Active; 'I' for Inactive)
REMARK    1  A    between atoms: C_1  and  C_2 
REMARK    2  A    between atoms: C_2  and  C_3 
REMARK    3  A    between atoms: C_3  and  C_4 
REMARK       I    between atoms: C_4  and  N_6 
REMARK    4  A    between atoms: C_8  and  C_22 
REMARK       I    between atoms: N_10  and  C_17 
REMARK    5  A    between atoms: C_12  and  C_16 
REMARK    6  A    between atoms: C_17  and  C_19 
REMARK    7  A    between atoms: C_19  and  C_20 
REMARK    8  A    between atoms: C_20  and  C_21 
ROOT
ATOM      1  C   LIG d   1       6.399  -0.258  -5.330  0.00  0.00     0.216 C 
ATOM      2  O   LIG d   1       5.342   0.311  -5.157  0.00  0.00    -0.276 OA
ATOM      3  N   LIG d   1       6.505  -1.209  -6.278  0.00  0.00    -0.299 N 
ATOM      4  C   LIG d   1       7.790  -1.880  -6.511  0.00  0.00     0.028 C 
ATOM      5  C   LIG d   1       7.588  -3.396  -6.354  0.00  0.00     0.058 C 
ATOM      6  C   LIG d   1       7.198  -3.703  -4.900  0.00  0.00     0.028 C 
ATOM      7  N   LIG d   1       5.896  -3.084  -4.621  0.00  0.00    -0.299 N 
ATOM      8  C   LIG d   1       4.730  -3.434  -5.469  0.00  0.00     0.028 C 
ATOM      9  C   LIG d   1       5.091  -3.105  -6.926  0.00  0.00     0.058 C 
ATOM     10  C   LIG d   1       5.319  -1.591  -7.058  0.00  0.00     0.028 C 
ATOM     11  C   LIG d   1       6.413  -3.792  -7.233  0.00  0.00     0.151 C 
ATOM     12  O   LIG d   1       6.522  -4.602  -8.121  0.00  0.00    -0.296 OA
ATOM     13  C   LIG d   1       5.762  -2.216  -3.598  0.00  0.00     0.216 C 
ATOM     14  O   LIG d   1       6.736  -1.877  -2.961  0.00  0.00    -0.276 OA
ATOM     15  H   LIG d   1       8.521  -1.531  -5.782  0.00  0.00     0.047 H 
ATOM     16  H   LIG d   1       8.143  -1.661  -7.517  0.00  0.00     0.047 H 
ATOM     17  H   LIG d   1       7.129  -4.781  -4.760  0.00  0.00     0.047 H 
ATOM     18  H   LIG d   1       7.951  -3.294  -4.225  0.00  0.00     0.047 H 
ATOM     19  H   LIG d   1       3.871  -2.837  -5.162  0.00  0.00     0.047 H 
ATOM     20  H   LIG d   1       4.492  -4.494  -5.382  0.00  0.00     0.047 H 
ATOM     21  H   LIG d   1       5.500  -1.338  -8.102  0.00  0.00     0.047 H 
ATOM     22  H   LIG d   1       4.440  -1.057  -6.697  0.00  0.00     0.047 H 
ENDROOT
BRANCH   1  23
ATOM     23  C   LIG d   1       7.594   0.101  -4.485  0.00  0.00     0.024 C 
ATOM     24  H   LIG d   1       7.757  -0.676  -3.738  0.00  0.00     0.036 H 
ATOM     25  H   LIG d   1       8.476   0.185  -5.120  0.00  0.00     0.036 H 
BRANCH  23  26
ATOM     26  C   LIG d   1       7.341   1.437  -3.784  0.00  0.00    -0.048 C 
ATOM     27  H   LIG d   1       6.574   1.991  -4.325  0.00  0.00     0.027 H 
ATOM     28  H   LIG d   1       7.004   1.253  -2.764  0.00  0.00     0.027 H 
BRANCH  26  29
ATOM     29  C   LIG d   1       8.636   2.251  -3.754  0.00  0.00    -0.065 C 
ATOM     30  H   LIG d   1       8.397   3.311  -3.666  0.00  0.00     0.023 H 
ATOM     31  H   LIG d   1       9.239   1.942  -2.900  0.00  0.00     0.023 H 
ATOM     32  H   LIG d   1       9.194   2.079  -4.674  0.00  0.00     0.023 H 
ENDBRANCH  26  29
ENDBRANCH  23  26
ENDBRANCH   1  23
BRANCH   9  33
ATOM     33  C   LIG d   1       3.993  -3.579  -7.882  0.00  0.00    -0.050 C 
ATOM     34  H   LIG d   1       3.114  -3.870  -7.309  0.00  0.00     0.024 H 
ATOM     35  H   LIG d   1       4.354  -4.433  -8.454  0.00  0.00     0.024 H 
ATOM     36  H   LIG d   1       3.732  -2.768  -8.563  0.00  0.00     0.024 H 
ENDBRANCH   9  33
BRANCH   5  37
ATOM     37  C   LIG d   1       8.852  -4.159  -6.753  0.00  0.00    -0.050 C 
ATOM     38  H   LIG d   1       9.608  -3.455  -7.102  0.00  0.00     0.024 H 
ATOM     39  H   LIG d   1       9.236  -4.704  -5.891  0.00  0.00     0.024 H 
ATOM     40  H   LIG d   1       8.615  -4.862  -7.552  0.00  0.00     0.024 H 
ENDBRANCH   5  37
BRANCH  13  41
ATOM     41  C   LIG d   1       4.403  -1.668  -3.250  0.00  0.00     0.024 C 
ATOM     42  H   LIG d   1       4.147  -0.864  -3.940  0.00  0.00     0.036 H 
ATOM     43  H   LIG d   1       3.660  -2.462  -3.325  0.00  0.00     0.036 H 
BRANCH  41  44
ATOM     44  C   LIG d   1       4.425  -1.124  -1.819  0.00  0.00    -0.048 C 
ATOM     45  H   LIG d   1       3.571  -1.518  -1.267  0.00  0.00     0.027 H 
ATOM     46  H   LIG d   1       5.348  -1.431  -1.328  0.00  0.00     0.027 H 
BRANCH  44  47
ATOM     47  C   LIG d   1       4.347   0.403  -1.853  0.00  0.00    -0.065 C 
ATOM     48  H   LIG d   1       4.282   0.741  -2.888  0.00  0.00     0.023 H 
ATOM     49  H   LIG d   1       3.464   0.735  -1.307  0.00  0.00     0.023 H 
ATOM     50  H   LIG d   1       5.241   0.823  -1.391  0.00  0.00     0.023 H 
ENDBRANCH  44  47
ENDBRANCH  41  44
ENDBRANCH  13  41
TORSDOF 8
ENDMDL
MODEL 2
REMARK VINA RESULT:      -4.8      1.718      5.212
REMARK  8 active torsions:
REMARK  status: ('A' for Active; 'I' for Inactive)
REMARK    1  A    between atoms: C_1  and  C_2 
REMARK    2  A    between atoms: C_2  and  C_3 
REMARK    3  A    between atoms: C_3  and  C_4 
REMARK       I    between atoms: C_4  and  N_6 
REMARK    4  A    between atoms: C_8  and  C_22 
REMARK       I    between atoms: N_10  and  C_17 
REMARK    5  A    between atoms: C_12  and  C_16 
REMARK    6  A    between atoms: C_17  and  C_19 
REMARK    7  A    between atoms: C_19  and  C_20 
REMARK    8  A    between atoms: C_20  and  C_21 
ROOT
ATOM      1  C   LIG d   1       5.539  -1.672  -6.602  0.00  0.00     0.216 C 
ATOM      2  O   LIG d   1       6.570  -1.826  -7.221  0.00  0.00    -0.276 OA
ATOM      3  N   LIG d   1       5.418  -0.644  -5.738  0.00  0.00    -0.299 N 
ATOM      4  C   LIG d   1       4.161  -0.437  -5.008  0.00  0.00     0.028 C 
ATOM      5  C   LIG d   1       4.464  -0.430  -3.501  0.00  0.00     0.058 C 
ATOM      6  C   LIG d   1       4.980  -1.816  -3.086  0.00  0.00     0.028 C 
ATOM      7  N   LIG d   1       6.260  -2.064  -3.761  0.00  0.00    -0.299 N 
ATOM      8  C   LIG d   1       7.378  -1.108  -3.570  0.00  0.00     0.028 C 
ATOM      9  C   LIG d   1       6.890   0.282  -4.009  0.00  0.00     0.058 C 
ATOM     10  C   LIG d   1       6.563   0.249  -5.510  0.00  0.00     0.028 C 
ATOM     11  C   LIG d   1       5.591   0.563  -3.268  0.00  0.00     0.151 C 
ATOM     12  O   LIG d   1       5.465   1.516  -2.538  0.00  0.00    -0.296 OA
ATOM     13  C   LIG d   1       6.419  -3.155  -4.537  0.00  0.00     0.216 C 
ATOM     14  O   LIG d   1       5.477  -3.889  -4.749  0.00  0.00    -0.276 OA
ATOM     15  H   LIG d   1       3.468  -1.245  -5.238  0.00  0.00     0.047 H 
ATOM     16  H   LIG d   1       3.722   0.517  -5.296  0.00  0.00     0.047 H 
ATOM     17  H   LIG d   1       5.123  -1.845  -2.007  0.00  0.00     0.047 H 
ATOM     18  H   LIG d   1       4.256  -2.579  -3.379  0.00  0.00     0.047 H 
ATOM     19  H   LIG d   1       8.221  -1.411  -4.191  0.00  0.00     0.047 H 
ATOM     20  H   LIG d   1       7.684  -1.074  -2.525  0.00  0.00     0.047 H 
ATOM     21  H   LIG d   1       6.290   1.248  -5.847  0.00  0.00     0.047 H 
ATOM     22  H   LIG d   1       7.433  -0.101  -6.065  0.00  0.00     0.047 H 
ENDROOT
BRANCH   1  23
ATOM     23  C   LIG d   1       4.391  -2.628  -6.800  0.00  0.00     0.024 C 
ATOM     24  H   LIG d   1       4.711  -3.638  -6.542  0.00  0.00     0.036 H 
ATOM     25  H   LIG d   1       3.559  -2.335  -6.160  0.00  0.00     0.036 H 
BRANCH  23  26
ATOM     26  C   LIG d   1       3.944  -2.593  -8.263  0.00  0.00    -0.048 C 
ATOM     27  H   LIG d   1       4.822  -2.602  -8.910  0.00  0.00     0.027 H 
ATOM     28  H   LIG d   1       3.327  -3.466  -8.476  0.00  0.00     0.027 H 
BRANCH  26  29
ATOM     29  C   LIG d   1       3.134  -1.321  -8.520  0.00  0.00    -0.065 C 
ATOM     30  H   LIG d   1       3.692  -0.662  -9.184  0.00  0.00     0.023 H 
ATOM     31  H   LIG d   1       2.183  -1.584  -8.984  0.00  0.00     0.023 H 
ATOM     32  H   LIG d   1       2.948  -0.812  -7.574  0.00  0.00     0.023 H 
ENDBRANCH  26  29
ENDBRANCH  23  26
ENDBRANCH   1  23
BRANCH   9  33
ATOM     33  C   LIG d   1       7.939   1.353  -3.701  0.00  0.00    -0.050 C 
ATOM     34  H   LIG d   1       8.151   1.923  -4.604  0.00  0.00     0.024 H 
ATOM     35  H   LIG d   1       8.852   0.876  -3.347  0.00  0.00     0.024 H 
ATOM     36  H   LIG d   1       7.557   2.023  -2.930  0.00  0.00     0.024 H 
ENDBRANCH   9  33
BRANCH   5  37
ATOM     37  C   LIG d   1       3.221  -0.046  -2.696  0.00  0.00    -0.050 C 
ATOM     38  H   LIG d   1       2.376   0.087  -3.373  0.00  0.00     0.024 H 
ATOM     39  H   LIG d   1       2.992  -0.836  -1.981  0.00  0.00     0.024 H 
ATOM     40  H   LIG d   1       3.408   0.886  -2.162  0.00  0.00     0.024 H 
ENDBRANCH   5  37
BRANCH  13  41
ATOM     41  C   LIG d   1       7.765  -3.461  -5.139  0.00  0.00     0.024 C 
ATOM     42  H   LIG d   1       7.655  -3.633  -6.210  0.00  0.00     0.036 H 
ATOM     43  H   LIG d   1       8.438  -2.619  -4.973  0.00  0.00     0.036 H 
BRANCH  41  44
ATOM     44  C   LIG d   1       8.345  -4.715  -4.479  0.00  0.00    -0.048 C 
ATOM     45  H   LIG d   1       7.531  -5.349  -4.125  0.00  0.00     0.027 H 
ATOM     46  H   LIG d   1       8.943  -5.264  -5.206  0.00  0.00     0.027 H 
BRANCH  44  47
ATOM     47  C   LIG d   1       9.225  -4.308  -3.296  0.00  0.00    -0.065 C 
ATOM     48  H   LIG d   1       8.605  -3.861  -2.518  0.00  0.00     0.023 H 
ATOM     49  H   LIG d   1       9.727  -5.190  -2.897  0.00  0.00     0.023 H 
ATOM     50  H   LIG d   1       9.969  -3.584  -3.628  0.00  0.00     0.023 H 
ENDBRANCH  44  47
ENDBRANCH  41  44
ENDBRANCH  13  41
TORSDOF 8
ENDMDL
MODEL 3
REMARK VINA RESULT:      -4.8      0.181      3.598
REMARK  8 active torsions:
REMARK  status: ('A' for Active; 'I' for Inactive)
REMARK    1  A    between atoms: C_1  and  C_2 
REMARK    2  A    between atoms: C_2  and  C_3 
REMARK    3  A    between atoms: C_3  and  C_4 
REMARK       I    between atoms: C_4  and  N_6 
REMARK    4  A    between atoms: C_8  and  C_22 
REMARK       I    between atoms: N_10  and  C_17 
REMARK    5  A    between atoms: C_12  and  C_16 
REMARK    6  A    between atoms: C_17  and  C_19 
REMARK    7  A    between atoms: C_19  and  C_20 
REMARK    8  A    between atoms: C_20  and  C_21 
ROOT
ATOM      1  C   LIG d   1       5.770  -2.134  -3.604  0.00  0.00     0.216 C 
ATOM      2  O   LIG d   1       6.724  -1.916  -2.888  0.00  0.00    -0.276 OA
ATOM      3  N   LIG d   1       5.869  -3.029  -4.606  0.00  0.00    -0.299 N 
ATOM      4  C   LIG d   1       4.708  -3.317  -5.458  0.00  0.00     0.028 C 
ATOM      5  C   LIG d   1       5.096  -3.055  -6.922  0.00  0.00     0.058 C 
ATOM      6  C   LIG d   1       5.402  -1.560  -7.101  0.00  0.00     0.028 C 
ATOM      7  N   LIG d   1       6.583  -1.222  -6.297  0.00  0.00    -0.299 N 
ATOM      8  C   LIG d   1       7.851  -1.958  -6.525  0.00  0.00     0.028 C 
ATOM      9  C   LIG d   1       7.571  -3.454  -6.320  0.00  0.00     0.058 C 
ATOM     10  C   LIG d   1       7.156  -3.693  -4.860  0.00  0.00     0.028 C 
ATOM     11  C   LIG d   1       6.381  -3.819  -7.195  0.00  0.00     0.151 C 
ATOM     12  O   LIG d   1       6.455  -4.662  -8.056  0.00  0.00    -0.296 OA
ATOM     13  C   LIG d   1       6.516  -0.246  -5.370  0.00  0.00     0.216 C 
ATOM     14  O   LIG d   1       5.457   0.296  -5.137  0.00  0.00    -0.276 OA
ATOM     15  H   LIG d   1       3.880  -2.666  -5.177  0.00  0.00     0.047 H 
ATOM     16  H   LIG d   1       4.413  -4.358  -5.339  0.00  0.00     0.047 H 
ATOM     17  H   LIG d   1       5.602  -1.351  -8.151  0.00  0.00     0.047 H 
ATOM     18  H   LIG d   1       4.548  -0.969  -6.767  0.00  0.00     0.047 H 
ATOM     19  H   LIG d   1       8.595  -1.623  -5.801  0.00  0.00     0.047 H 
ATOM     20  H   LIG d   1       8.219  -1.790  -7.536  0.00  0.00     0.047 H 
ATOM     21  H   LIG d   1       7.029  -4.761  -4.685  0.00  0.00     0.047 H 
ATOM     22  H   LIG d   1       7.923  -3.300  -4.193  0.00  0.00     0.047 H 
ENDROOT
BRANCH   1  23
ATOM     23  C   LIG d   1       4.472  -1.404  -3.372  0.00  0.00     0.024 C 
ATOM     24  H   LIG d   1       4.433  -0.520  -4.009  0.00  0.00     0.036 H 
ATOM     25  H   LIG d   1       3.637  -2.062  -3.611  0.00  0.00     0.036 H 
BRANCH  23  26
ATOM     26  C   LIG d   1       4.381  -0.978  -1.905  0.00  0.00    -0.048 C 
ATOM     27  H   LIG d   1       3.446  -1.343  -1.478  0.00  0.00     0.027 H 
ATOM     28  H   LIG d   1       5.221  -1.399  -1.352  0.00  0.00     0.027 H 
BRANCH  26  29
ATOM     29  C   LIG d   1       4.424   0.548  -1.813  0.00  0.00    -0.065 C 
ATOM     30  H   LIG d   1       3.407   0.941  -1.802  0.00  0.00     0.023 H 
ATOM     31  H   LIG d   1       4.937   0.842  -0.897  0.00  0.00     0.023 H 
ATOM     32  H   LIG d   1       4.959   0.949  -2.674  0.00  0.00     0.023 H 
ENDBRANCH  26  29
ENDBRANCH  23  26
ENDBRANCH   1  23
BRANCH   9  33
ATOM     33  C   LIG d   1       8.797  -4.296  -6.685  0.00  0.00    -0.050 C 
ATOM     34  H   LIG d   1       8.494  -5.114  -7.338  0.00  0.00     0.024 H 
ATOM     35  H   LIG d   1       9.242  -4.700  -5.776  0.00  0.00     0.024 H 
ATOM     36  H   LIG d   1       9.526  -3.670  -7.200  0.00  0.00     0.024 H 
ENDBRANCH   9  33
BRANCH   5  37
ATOM     37  C   LIG d   1       3.981  -3.502  -7.870  0.00  0.00    -0.050 C 
ATOM     38  H   LIG d   1       3.831  -2.743  -8.638  0.00  0.00     0.024 H 
ATOM     39  H   LIG d   1       4.260  -4.444  -8.340  0.00  0.00     0.024 H 
ATOM     40  H   LIG d   1       3.057  -3.636  -7.307  0.00  0.00     0.024 H 
ENDBRANCH   5  37
BRANCH  13  41
ATOM     41  C   LIG d   1       7.757   0.170  -4.624  0.00  0.00     0.024 C 
ATOM     42  H   LIG d   1       8.057  -0.626  -3.943  0.00  0.00     0.036 H 
ATOM     43  H   LIG d   1       8.561   0.363  -5.334  0.00  0.00     0.036 H 
BRANCH  41  44
ATOM     44  C   LIG d   1       7.468   1.443  -3.824  0.00  0.00    -0.048 C 
ATOM     45  H   LIG d   1       6.448   1.773  -4.023  0.00  0.00     0.027 H 
ATOM     46  H   LIG d   1       7.581   1.237  -2.760  0.00  0.00     0.027 H 
BRANCH  44  47
ATOM     47  C   LIG d   1       8.449   2.541  -4.239  0.00  0.00    -0.065 C 
ATOM     48  H   LIG d   1       8.002   3.518  -4.053  0.00  0.00     0.023 H 
ATOM     49  H   LIG d   1       9.367   2.446  -3.659  0.00  0.00     0.023 H 
ATOM     50  H   LIG d   1       8.677   2.442  -5.300  0.00  0.00     0.023 H 
ENDBRANCH  44  47
ENDBRANCH  41  44
ENDBRANCH  13  41
TORSDOF 8
ENDMDL
MODEL 4
REMARK VINA RESULT:      -4.8      1.740      4.997
REMARK  8 active torsions:
REMARK  status: ('A' for Active; 'I' for Inactive)
REMARK    1  A    between atoms: C_1  and  C_2 
REMARK    2  A    between atoms: C_2  and  C_3 
REMARK    3  A    between atoms: C_3  and  C_4 
REMARK       I    between atoms: C_4  and  N_6 
REMARK    4  A    between atoms: C_8  and  C_22 
REMARK       I    between atoms: N_10  and  C_17 
REMARK    5  A    between atoms: C_12  and  C_16 
REMARK    6  A    between atoms: C_17  and  C_19 
REMARK    7  A    between atoms: C_19  and  C_20 
REMARK    8  A    between atoms: C_20  and  C_21 
ROOT
ATOM      1  C   LIG d   1       6.303  -3.180  -4.555  0.00  0.00     0.216 C 
ATOM      2  O   LIG d   1       5.374  -3.949  -4.681  0.00  0.00    -0.276 OA
ATOM      3  N   LIG d   1       6.173  -2.088  -3.777  0.00  0.00    -0.299 N 
ATOM      4  C   LIG d   1       7.305  -1.170  -3.598  0.00  0.00     0.028 C 
ATOM      5  C   LIG d   1       6.865   0.241  -4.019  0.00  0.00     0.058 C 
ATOM      6  C   LIG d   1       6.545   0.240  -5.521  0.00  0.00     0.028 C 
ATOM      7  N   LIG d   1       5.391  -0.637  -5.756  0.00  0.00    -0.299 N 
ATOM      8  C   LIG d   1       4.120  -0.372  -5.039  0.00  0.00     0.028 C 
ATOM      9  C   LIG d   1       4.415  -0.396  -3.531  0.00  0.00     0.058 C 
ATOM     10  C   LIG d   1       4.883  -1.805  -3.134  0.00  0.00     0.028 C 
ATOM     11  C   LIG d   1       5.575   0.555  -3.279  0.00  0.00     0.151 C 
ATOM     12  O   LIG d   1       5.476   1.502  -2.537  0.00  0.00    -0.296 OA
ATOM     13  C   LIG d   1       5.485  -1.666  -6.622  0.00  0.00     0.216 C 
ATOM     14  O   LIG d   1       6.550  -1.922  -7.144  0.00  0.00    -0.276 OA
ATOM     15  H   LIG d   1       8.140  -1.493  -4.220  0.00  0.00     0.047 H 
ATOM     16  H   LIG d   1       7.610  -1.160  -2.552  0.00  0.00     0.047 H 
ATOM     17  H   LIG d   1       6.307   1.253  -5.846  0.00  0.00     0.047 H 
ATOM     18  H   LIG d   1       7.407  -0.129  -6.079  0.00  0.00     0.047 H 
ATOM     19  H   LIG d   1       3.399  -1.154  -5.283  0.00  0.00     0.047 H 
ATOM     20  H   LIG d   1       3.715   0.601  -5.316  0.00  0.00     0.047 H 
ATOM     21  H   LIG d   1       5.021  -1.854  -2.054  0.00  0.00     0.047 H 
ATOM     22  H   LIG d   1       4.137  -2.538  -3.442  0.00  0.00     0.047 H 
ENDROOT
BRANCH   1  23
ATOM     23  C   LIG d   1       7.605  -3.449  -5.265  0.00  0.00     0.024 C 
ATOM     24  H   LIG d   1       7.420  -3.551  -6.335  0.00  0.00     0.036 H 
ATOM     25  H   LIG d   1       8.291  -2.620  -5.093  0.00  0.00     0.036 H 
BRANCH  23  26
ATOM     26  C   LIG d   1       8.222  -4.743  -4.729  0.00  0.00    -0.048 C 
ATOM     27  H   LIG d   1       7.427  -5.433  -4.447  0.00  0.00     0.027 H 
ATOM     28  H   LIG d   1       8.841  -5.197  -5.503  0.00  0.00     0.027 H 
BRANCH  26  29
ATOM     29  C   LIG d   1       9.084  -4.428  -3.506  0.00  0.00    -0.065 C 
ATOM     30  H   LIG d   1       8.522  -4.648  -2.598  0.00  0.00     0.023 H 
ATOM     31  H   LIG d   1       9.987  -5.040  -3.531  0.00  0.00     0.023 H 
ATOM     32  H   LIG d   1       9.359  -3.374  -3.516  0.00  0.00     0.023 H 
ENDBRANCH  26  29
ENDBRANCH  23  26
ENDBRANCH   1  23
BRANCH   9  33
ATOM     33  C   LIG d   1       3.181   0.018  -2.725  0.00  0.00    -0.050 C 
ATOM     34  H   LIG d   1       2.407  -0.740  -2.832  0.00  0.00     0.024 H 
ATOM     35  H   LIG d   1       2.810   0.974  -3.095  0.00  0.00     0.024 H 
ATOM     36  H   LIG d   1       3.452   0.116  -1.673  0.00  0.00     0.024 H 
ENDBRANCH   9  33
BRANCH   5  37
ATOM     37  C   LIG d   1       7.948   1.271  -3.692  0.00  0.00    -0.050 C 
ATOM     38  H   LIG d   1       8.616   0.868  -2.931  0.00  0.00     0.024 H 
ATOM     39  H   LIG d   1       8.518   1.498  -4.593  0.00  0.00     0.024 H 
ATOM     40  H   LIG d   1       7.481   2.183  -3.319  0.00  0.00     0.024 H 
ENDBRANCH   5  37
BRANCH  13  41
ATOM     41  C   LIG d   1       4.269  -2.496  -6.940  0.00  0.00     0.024 C 
ATOM     42  H   LIG d   1       4.494  -3.550  -6.773  0.00  0.00     0.036 H 
ATOM     43  H   LIG d   1       3.444  -2.194  -6.296  0.00  0.00     0.036 H 
BRANCH  41  44
ATOM     44  C   LIG d   1       3.877  -2.285  -8.405  0.00  0.00    -0.048 C 
ATOM     45  H   LIG d   1       4.774  -2.113  -9.000  0.00  0.00     0.027 H 
ATOM     46  H   LIG d   1       3.361  -3.170  -8.774  0.00  0.00     0.027 H 
BRANCH  44  47
ATOM     47  C   LIG d   1       2.953  -1.070  -8.516  0.00  0.00    -0.065 C 
ATOM     48  H   LIG d   1       1.991  -1.382  -8.923  0.00  0.00     0.023 H 
ATOM     49  H   LIG d   1       2.805  -0.635  -7.527  0.00  0.00     0.023 H 
ATOM     50  H   LIG d   1       3.404  -0.329  -9.176  0.00  0.00     0.023 H 
ENDBRANCH  44  47
ENDBRANCH  41  44
ENDBRANCH  13  41
TORSDOF 8
ENDMDL
MODEL 5
REMARK VINA RESULT:      -4.8      1.962      3.883
REMARK  8 active torsions:
REMARK  status: ('A' for Active; 'I' for Inactive)
REMARK    1  A    between atoms: C_1  and  C_2 
REMARK    2  A    between atoms: C_2  and  C_3 
REMARK    3  A    between atoms: C_3  and  C_4 
REMARK       I    between atoms: C_4  and  N_6 
REMARK    4  A    between atoms: C_8  and  C_22 
REMARK       I    between atoms: N_10  and  C_17 
REMARK    5  A    between atoms: C_12  and  C_16 
REMARK    6  A    between atoms: C_17  and  C_19 
REMARK    7  A    between atoms: C_19  and  C_20 
REMARK    8  A    between atoms: C_20  and  C_21 
ROOT
ATOM      1  C   LIG d   1       6.014  -0.543  -3.727  0.00  0.00     0.216 C 
ATOM      2  O   LIG d   1       5.734   0.578  -4.095  0.00  0.00    -0.276 OA
ATOM      3  N   LIG d   1       7.238  -1.049  -3.977  0.00  0.00    -0.299 N 
ATOM      4  C   LIG d   1       7.591  -2.395  -3.509  0.00  0.00     0.028 C 
ATOM      5  C   LIG d   1       8.035  -3.235  -4.716  0.00  0.00     0.058 C 
ATOM      6  C   LIG d   1       6.846  -3.409  -5.672  0.00  0.00     0.028 C 
ATOM      7  N   LIG d   1       6.472  -2.093  -6.204  0.00  0.00    -0.299 N 
ATOM      8  C   LIG d   1       7.489  -1.282  -6.916  0.00  0.00     0.028 C 
ATOM      9  C   LIG d   1       8.676  -1.071  -5.964  0.00  0.00     0.058 C 
ATOM     10  C   LIG d   1       8.206  -0.256  -4.748  0.00  0.00     0.028 C 
ATOM     11  C   LIG d   1       9.100  -2.440  -5.455  0.00  0.00     0.151 C 
ATOM     12  O   LIG d   1      10.215  -2.870  -5.629  0.00  0.00    -0.296 OA
ATOM     13  C   LIG d   1       5.214  -1.633  -6.053  0.00  0.00     0.216 C 
ATOM     14  O   LIG d   1       4.411  -2.268  -5.402  0.00  0.00    -0.276 OA
ATOM     15  H   LIG d   1       6.722  -2.858  -3.041  0.00  0.00     0.047 H 
ATOM     16  H   LIG d   1       8.404  -2.332  -2.788  0.00  0.00     0.047 H 
ATOM     17  H   LIG d   1       7.129  -4.068  -6.493  0.00  0.00     0.047 H 
ATOM     18  H   LIG d   1       6.002  -3.841  -5.132  0.00  0.00     0.047 H 
ATOM     19  H   LIG d   1       7.057  -0.316  -7.181  0.00  0.00     0.047 H 
ATOM     20  H   LIG d   1       7.830  -1.792  -7.817  0.00  0.00     0.047 H 
ATOM     21  H   LIG d   1       9.057  -0.036  -4.104  0.00  0.00     0.047 H 
ATOM     22  H   LIG d   1       7.750   0.674  -5.086  0.00  0.00     0.047 H 
ENDROOT
BRANCH   1  23
ATOM     23  C   LIG d   1       4.994  -1.370  -2.988  0.00  0.00     0.024 C 
ATOM     24  H   LIG d   1       4.469  -2.015  -3.694  0.00  0.00     0.036 H 
ATOM     25  H   LIG d   1       5.495  -1.983  -2.239  0.00  0.00     0.036 H 
BRANCH  23  26
ATOM     26  C   LIG d   1       3.988  -0.445  -2.299  0.00  0.00    -0.048 C 
ATOM     27  H   LIG d   1       3.942  -0.686  -1.237  0.00  0.00     0.027 H 
ATOM     28  H   LIG d   1       4.305   0.591  -2.423  0.00  0.00     0.027 H 
BRANCH  26  29
ATOM     29  C   LIG d   1       2.607  -0.635  -2.927  0.00  0.00    -0.065 C 
ATOM     30  H   LIG d   1       1.855  -0.696  -2.141  0.00  0.00     0.023 H 
ATOM     31  H   LIG d   1       2.384   0.212  -3.577  0.00  0.00     0.023 H 
ATOM     32  H   LIG d   1       2.597  -1.554  -3.513  0.00  0.00     0.023 H 
ENDBRANCH  26  29
ENDBRANCH  23  26
ENDBRANCH   1  23
BRANCH   9  33
ATOM     33  C   LIG d   1       9.834  -0.369  -6.678  0.00  0.00    -0.050 C 
ATOM     34  H   LIG d   1      10.041   0.580  -6.186  0.00  0.00     0.024 H 
ATOM     35  H   LIG d   1       9.563  -0.190  -7.718  0.00  0.00     0.024 H 
ATOM     36  H   LIG d   1      10.721  -1.001  -6.637  0.00  0.00     0.024 H 
ENDBRANCH   9  33
BRANCH   5  37
ATOM     37  C   LIG d   1       8.579  -4.592  -4.267  0.00  0.00    -0.050 C 
ATOM     38  H   LIG d   1       9.531  -4.786  -4.762  0.00  0.00     0.024 H 
ATOM     39  H   LIG d   1       8.727  -4.585  -3.187  0.00  0.00     0.024 H 
ATOM     40  H   LIG d   1       7.867  -5.374  -4.531  0.00  0.00     0.024 H 
ENDBRANCH   5  37
BRANCH  13  41
ATOM     41  C   LIG d   1       4.806  -0.331  -6.693  0.00  0.00     0.024 C 
ATOM     42  H   LIG d   1       5.335   0.492  -6.211  0.00  0.00     0.036 H 
ATOM     43  H   LIG d   1       5.057  -0.353  -7.753  0.00  0.00     0.036 H 
BRANCH  41  44
ATOM     44  C   LIG d   1       3.297  -0.133  -6.529  0.00  0.00    -0.048 C 
ATOM     45  H   LIG d   1       2.890  -0.936  -5.913  0.00  0.00     0.027 H 
ATOM     46  H   LIG d   1       3.107   0.826  -6.048  0.00  0.00     0.027 H 
BRANCH  44  47
ATOM     47  C   LIG d   1       2.627  -0.156  -7.904  0.00  0.00    -0.065 C 
ATOM     48  H   LIG d   1       2.589   0.856  -8.307  0.00  0.00     0.023 H 
ATOM     49  H   LIG d   1       3.202  -0.793  -8.577  0.00  0.00     0.023 H 
ATOM     50  H   LIG d   1       1.614  -0.547  -7.808  0.00  0.00     0.023 H 
ENDBRANCH  44  47
ENDBRANCH  41  44
ENDBRANCH  13  41
TORSDOF 8
ENDMDL
MODEL 6
REMARK VINA RESULT:      -4.7      1.978      3.513
REMARK  8 active torsions:
REMARK  status: ('A' for Active; 'I' for Inactive)
REMARK    1  A    between atoms: C_1  and  C_2 
REMARK    2  A    between atoms: C_2  and  C_3 
REMARK    3  A    between atoms: C_3  and  C_4 
REMARK       I    between atoms: C_4  and  N_6 
REMARK    4  A    between atoms: C_8  and  C_22 
REMARK       I    between atoms: N_10  and  C_17 
REMARK    5  A    between atoms: C_12  and  C_16 
REMARK    6  A    between atoms: C_17  and  C_19 
REMARK    7  A    between atoms: C_19  and  C_20 
REMARK    8  A    between atoms: C_20  and  C_21 
ROOT
ATOM      1  C   LIG d   1       5.205  -1.696  -5.985  0.00  0.00     0.216 C 
ATOM      2  O   LIG d   1       4.389  -2.384  -5.408  0.00  0.00    -0.276 OA
ATOM      3  N   LIG d   1       6.461  -2.148  -6.164  0.00  0.00    -0.299 N 
ATOM      4  C   LIG d   1       7.444  -1.330  -6.887  0.00  0.00     0.028 C 
ATOM      5  C   LIG d   1       8.664  -1.111  -5.979  0.00  0.00     0.058 C 
ATOM      6  C   LIG d   1       8.237  -0.289  -4.754  0.00  0.00     0.028 C 
ATOM      7  N   LIG d   1       7.278  -1.076  -3.969  0.00  0.00    -0.299 N 
ATOM      8  C   LIG d   1       7.671  -2.419  -3.478  0.00  0.00     0.028 C 
ATOM      9  C   LIG d   1       8.074  -3.267  -4.694  0.00  0.00     0.058 C 
ATOM     10  C   LIG d   1       6.850  -3.451  -5.606  0.00  0.00     0.028 C 
ATOM     11  C   LIG d   1       9.109  -2.476  -5.479  0.00  0.00     0.151 C 
ATOM     12  O   LIG d   1      10.218  -2.905  -5.689  0.00  0.00    -0.296 OA
ATOM     13  C   LIG d   1       6.057  -0.577  -3.691  0.00  0.00     0.216 C 
ATOM     14  O   LIG d   1       5.716   0.487  -4.162  0.00  0.00    -0.276 OA
ATOM     15  H   LIG d   1       7.000  -0.368  -7.143  0.00  0.00     0.047 H 
ATOM     16  H   LIG d   1       7.753  -1.844  -7.797  0.00  0.00     0.047 H 
ATOM     17  H   LIG d   1       9.110  -0.062  -4.143  0.00  0.00     0.047 H 
ATOM     18  H   LIG d   1       7.769   0.641  -5.081  0.00  0.00     0.047 H 
ATOM     19  H   LIG d   1       6.821  -2.882  -2.976  0.00  0.00     0.047 H 
ATOM     20  H   LIG d   1       8.512  -2.348  -2.788  0.00  0.00     0.047 H 
ATOM     21  H   LIG d   1       7.105  -4.114  -6.432  0.00  0.00     0.047 H 
ATOM     22  H   LIG d   1       6.028  -3.877  -5.032  0.00  0.00     0.047 H 
ENDROOT
BRANCH   1  23
ATOM     23  C   LIG d   1       4.811  -0.337  -6.503  0.00  0.00     0.024 C 
ATOM     24  H   LIG d   1       5.246   0.434  -5.865  0.00  0.00     0.036 H 
ATOM     25  H   LIG d   1       5.178  -0.216  -7.521  0.00  0.00     0.036 H 
BRANCH  23  26
ATOM     26  C   LIG d   1       3.287  -0.207  -6.490  0.00  0.00    -0.048 C 
ATOM     27  H   LIG d   1       2.844  -1.160  -6.199  0.00  0.00     0.027 H 
ATOM     28  H   LIG d   1       2.993   0.563  -5.776  0.00  0.00     0.027 H 
BRANCH  26  29
ATOM     29  C   LIG d   1       2.796   0.179  -7.886  0.00  0.00    -0.065 C 
ATOM     30  H   LIG d   1       3.451  -0.262  -8.637  0.00  0.00     0.023 H 
ATOM     31  H   LIG d   1       1.780  -0.191  -8.029  0.00  0.00     0.023 H 
ATOM     32  H   LIG d   1       2.805   1.264  -7.988  0.00  0.00     0.023 H 
ENDBRANCH  26  29
ENDBRANCH  23  26
ENDBRANCH   1  23
BRANCH   9  33
ATOM     33  C   LIG d   1       8.637  -4.621  -4.256  0.00  0.00    -0.050 C 
ATOM     34  H   LIG d   1       8.855  -4.595  -3.189  0.00  0.00     0.024 H 
ATOM     35  H   LIG d   1       9.552  -4.830  -4.810  0.00  0.00     0.024 H 
ATOM     36  H   LIG d   1       7.903  -5.402  -4.458  0.00  0.00     0.024 H 
ENDBRANCH   9  33
BRANCH   5  37
ATOM     37  C   LIG d   1       9.792  -0.412  -6.740  0.00  0.00    -0.050 C 
ATOM     38  H   LIG d   1       9.390   0.443  -7.283  0.00  0.00     0.024 H 
ATOM     39  H   LIG d   1      10.549  -0.070  -6.034  0.00  0.00     0.024 H 
ATOM     40  H   LIG d   1      10.242  -1.111  -7.445  0.00  0.00     0.024 H 
ENDBRANCH   5  37
BRANCH  13  41
ATOM     41  C   LIG d   1       5.117  -1.343  -2.796  0.00  0.00     0.024 C 
ATOM     42  H   LIG d   1       4.636  -2.136  -3.368  0.00  0.00     0.036 H 
ATOM     43  H   LIG d   1       5.676  -1.778  -1.969  0.00  0.00     0.036 H 
BRANCH  41  44
ATOM     44  C   LIG d   1       4.050  -0.392  -2.247  0.00  0.00    -0.048 C 
ATOM     45  H   LIG d   1       3.988  -0.502  -1.164  0.00  0.00     0.027 H 
ATOM     46  H   LIG d   1       4.317   0.635  -2.493  0.00  0.00     0.027 H 
BRANCH  44  47
ATOM     47  C   LIG d   1       2.695  -0.731  -2.871  0.00  0.00    -0.065 C 
ATOM     48  H   LIG d   1       2.519  -0.083  -3.730  0.00  0.00     0.023 H 
ATOM     49  H   LIG d   1       2.694  -1.772  -3.195  0.00  0.00     0.023 H 
ATOM     50  H   LIG d   1       1.907  -0.578  -2.134  0.00  0.00     0.023 H 
ENDBRANCH  44  47
ENDBRANCH  41  44
ENDBRANCH  13  41
TORSDOF 8
ENDMDL
MODEL 7
REMARK VINA RESULT:      -4.6      2.683      3.886
REMARK  8 active torsions:
REMARK  status: ('A' for Active; 'I' for Inactive)
REMARK    1  A    between atoms: C_1  and  C_2 
REMARK    2  A    between atoms: C_2  and  C_3 
REMARK    3  A    between atoms: C_3  and  C_4 
REMARK       I    between atoms: C_4  and  N_6 
REMARK    4  A    between atoms: C_8  and  C_22 
REMARK       I    between atoms: N_10  and  C_17 
REMARK    5  A    between atoms: C_12  and  C_16 
REMARK    6  A    between atoms: C_17  and  C_19 
REMARK    7  A    between atoms: C_19  and  C_20 
REMARK    8  A    between atoms: C_20  and  C_21 
ROOT
ATOM      1  C   LIG d   1       6.443  -0.289  -6.399  0.00  0.00     0.216 C 
ATOM      2  O   LIG d   1       6.474   0.666  -5.653  0.00  0.00    -0.276 OA
ATOM      3  N   LIG d   1       6.033  -0.137  -7.673  0.00  0.00    -0.299 N 
ATOM      4  C   LIG d   1       6.021  -1.285  -8.588  0.00  0.00     0.028 C 
ATOM      5  C   LIG d   1       4.600  -1.453  -9.148  0.00  0.00     0.058 C 
ATOM      6  C   LIG d   1       3.645  -1.808  -7.998  0.00  0.00     0.028 C 
ATOM      7  N   LIG d   1       3.588  -0.674  -7.067  0.00  0.00    -0.299 N 
ATOM      8  C   LIG d   1       3.185   0.661  -7.572  0.00  0.00     0.028 C 
ATOM      9  C   LIG d   1       4.149   1.047  -8.705  0.00  0.00     0.058 C 
ATOM     10  C   LIG d   1       5.569   1.180  -8.133  0.00  0.00     0.028 C 
ATOM     11  C   LIG d   1       4.167  -0.104  -9.700  0.00  0.00     0.151 C 
ATOM     12  O   LIG d   1       3.854   0.045 -10.856  0.00  0.00    -0.296 OA
ATOM     13  C   LIG d   1       3.889  -0.850  -5.765  0.00  0.00     0.216 C 
ATOM     14  O   LIG d   1       4.292  -1.926  -5.377  0.00  0.00    -0.276 OA
ATOM     15  H   LIG d   1       6.309  -2.186  -8.046  0.00  0.00     0.047 H 
ATOM     16  H   LIG d   1       6.718  -1.111  -9.406  0.00  0.00     0.047 H 
ATOM     17  H   LIG d   1       2.650  -2.005  -8.396  0.00  0.00     0.047 H 
ATOM     18  H   LIG d   1       4.012  -2.694  -7.478  0.00  0.00     0.047 H 
ATOM     19  H   LIG d   1       3.261   1.389  -6.764  0.00  0.00     0.047 H 
ATOM     20  H   LIG d   1       2.164   0.639  -7.953  0.00  0.00     0.047 H 
ATOM     21  H   LIG d   1       6.247   1.528  -8.912  0.00  0.00     0.047 H 
ATOM     22  H   LIG d   1       5.565   1.890  -7.306  0.00  0.00     0.047 H 
ENDROOT
BRANCH   1  23
ATOM     23  C   LIG d   1       6.866  -1.648  -5.901  0.00  0.00     0.024 C 
ATOM     24  H   LIG d   1       5.981  -2.231  -5.643  0.00  0.00     0.036 H 
ATOM     25  H   LIG d   1       7.426  -2.162  -6.680  0.00  0.00     0.036 H 
BRANCH  23  26
ATOM     26  C   LIG d   1       7.747  -1.485  -4.661  0.00  0.00    -0.048 C 
ATOM     27  H   LIG d   1       8.678  -2.034  -4.803  0.00  0.00     0.027 H 
ATOM     28  H   LIG d   1       7.968  -0.428  -4.508  0.00  0.00     0.027 H 
BRANCH  26  29
ATOM     29  C   LIG d   1       7.013  -2.034  -3.437  0.00  0.00    -0.065 C 
ATOM     30  H   LIG d   1       7.489  -1.663  -2.530  0.00  0.00     0.023 H 
ATOM     31  H   LIG d   1       5.973  -1.707  -3.461  0.00  0.00     0.023 H 
ATOM     32  H   LIG d   1       7.052  -3.123  -3.448  0.00  0.00     0.023 H 
ENDBRANCH  26  29
ENDBRANCH  23  26
ENDBRANCH   1  23
BRANCH   9  33
ATOM     33  C   LIG d   1       3.707   2.347  -9.380  0.00  0.00    -0.050 C 
ATOM     34  H   LIG d   1       3.318   3.033  -8.628  0.00  0.00     0.024 H 
ATOM     35  H   LIG d   1       2.929   2.130 -10.112  0.00  0.00     0.024 H 
ATOM     36  H   LIG d   1       4.561   2.804  -9.881  0.00  0.00     0.024 H 
ENDBRANCH   9  33
BRANCH   5  37
ATOM     37  C   LIG d   1       4.566  -2.526 -10.238  0.00  0.00    -0.050 C 
ATOM     38  H   LIG d   1       4.606  -2.050 -11.218  0.00  0.00     0.024 H 
ATOM     39  H   LIG d   1       5.422  -3.190 -10.122  0.00  0.00     0.024 H 
ATOM     40  H   LIG d   1       3.644  -3.102 -10.151  0.00  0.00     0.024 H 
ENDBRANCH   5  37
BRANCH  13  41
ATOM     41  C   LIG d   1       3.725   0.290  -4.793  0.00  0.00     0.024 C 
ATOM     42  H   LIG d   1       4.656   0.854  -4.735  0.00  0.00     0.036 H 
ATOM     43  H   LIG d   1       2.923   0.944  -5.133  0.00  0.00     0.036 H 
BRANCH  41  44
ATOM     44  C   LIG d   1       3.378  -0.266  -3.410  0.00  0.00    -0.048 C 
ATOM     45  H   LIG d   1       2.296  -0.344  -3.310  0.00  0.00     0.027 H 
ATOM     46  H   LIG d   1       3.826  -1.252  -3.292  0.00  0.00     0.027 H 
BRANCH  44  47
ATOM     47  C   LIG d   1       3.922   0.673  -2.332  0.00  0.00    -0.065 C 
ATOM     48  H   LIG d   1       3.788   1.708  -2.650  0.00  0.00     0.023 H 
ATOM     49  H   LIG d   1       3.383   0.507  -1.399  0.00  0.00     0.023 H 
ATOM     50  H   LIG d   1       4.984   0.475  -2.179  0.00  0.00     0.023 H 
ENDBRANCH  44  47
ENDBRANCH  41  44
ENDBRANCH  13  41
TORSDOF 8
ENDMDL
MODEL 8
REMARK VINA RESULT:      -4.5      9.188     13.052
REMARK  8 active torsions:
REMARK  status: ('A' for Active; 'I' for Inactive)
REMARK    1  A    between atoms: C_1  and  C_2 
REMARK    2  A    between atoms: C_2  and  C_3 
REMARK    3  A    between atoms: C_3  and  C_4 
REMARK       I    between atoms: C_4  and  N_6 
REMARK    4  A    between atoms: C_8  and  C_22 
REMARK       I    between atoms: N_10  and  C_17 
REMARK    5  A    between atoms: C_12  and  C_16 
REMARK    6  A    between atoms: C_17  and  C_19 
REMARK    7  A    between atoms: C_19  and  C_20 
REMARK    8  A    between atoms: C_20  and  C_21 
ROOT
ATOM      1  C   LIG d   1      11.246   7.732  -2.896  0.00  0.00     0.216 C 
ATOM      2  O   LIG d   1      12.231   7.172  -2.463  0.00  0.00    -0.276 OA
ATOM      3  N   LIG d   1      11.234   9.073  -3.023  0.00  0.00    -0.299 N 
ATOM      4  C   LIG d   1      10.054   9.753  -3.573  0.00  0.00     0.028 C 
ATOM      5  C   LIG d   1       9.566  10.792  -2.552  0.00  0.00     0.058 C 
ATOM      6  C   LIG d   1       9.093  10.067  -1.284  0.00  0.00     0.028 C 
ATOM      7  N   LIG d   1      10.245   9.397  -0.667  0.00  0.00    -0.299 N 
ATOM      8  C   LIG d   1      11.436  10.198  -0.294  0.00  0.00     0.028 C 
ATOM      9  C   LIG d   1      11.942  10.909  -1.559  0.00  0.00     0.058 C 
ATOM     10  C   LIG d   1      12.398   9.854  -2.579  0.00  0.00     0.028 C 
ATOM     11  C   LIG d   1      10.761  11.649  -2.168  0.00  0.00     0.151 C 
ATOM     12  O   LIG d   1      10.773  12.845  -2.335  0.00  0.00    -0.296 OA
ATOM     13  C   LIG d   1      10.213   8.070  -0.435  0.00  0.00     0.216 C 
ATOM     14  O   LIG d   1       9.268   7.411  -0.814  0.00  0.00    -0.276 OA
ATOM     15  H   LIG d   1       9.266   9.023  -3.758  0.00  0.00     0.047 H 
ATOM     16  H   LIG d   1      10.318  10.251  -4.505  0.00  0.00     0.047 H 
ATOM     17  H   LIG d   1       8.672  10.790  -0.585  0.00  0.00     0.047 H 
ATOM     18  H   LIG d   1       8.334   9.328  -1.545  0.00  0.00     0.047 H 
ATOM     19  H   LIG d   1      12.212   9.533   0.086  0.00  0.00     0.047 H 
ATOM     20  H   LIG d   1      11.182  10.939   0.464  0.00  0.00     0.047 H 
ATOM     21  H   LIG d   1      12.829  10.348  -3.449  0.00  0.00     0.047 H 
ATOM     22  H   LIG d   1      13.140   9.200  -2.122  0.00  0.00     0.047 H 
ENDROOT
BRANCH   1  23
ATOM     23  C   LIG d   1      10.036   6.927  -3.294  0.00  0.00     0.024 C 
ATOM     24  H   LIG d   1       9.363   6.837  -2.440  0.00  0.00     0.036 H 
ATOM     25  H   LIG d   1       9.520   7.426  -4.113  0.00  0.00     0.036 H 
BRANCH  23  26
ATOM     26  C   LIG d   1      10.477   5.532  -3.744  0.00  0.00    -0.048 C 
ATOM     27  H   LIG d   1      10.063   5.321  -4.730  0.00  0.00     0.027 H 
ATOM     28  H   LIG d   1      11.565   5.492  -3.790  0.00  0.00     0.027 H 
BRANCH  26  29
ATOM     29  C   LIG d   1       9.970   4.490  -2.745  0.00  0.00    -0.065 C 
ATOM     30  H   LIG d   1       9.675   4.986  -1.820  0.00  0.00     0.023 H 
ATOM     31  H   LIG d   1       9.110   3.970  -3.168  0.00  0.00     0.023 H 
ATOM     32  H   LIG d   1      10.763   3.772  -2.536  0.00  0.00     0.023 H 
ENDBRANCH  26  29
ENDBRANCH  23  26
ENDBRANCH   1  23
BRANCH   9  33
ATOM     33  C   LIG d   1      13.081  11.875  -1.225  0.00  0.00    -0.050 C 
ATOM     34  H   LIG d   1      14.008  11.316  -1.108  0.00  0.00     0.024 H 
ATOM     35  H   LIG d   1      12.852  12.400  -0.298  0.00  0.00     0.024 H 
ATOM     36  H   LIG d   1      13.192  12.598  -2.034  0.00  0.00     0.024 H 
ENDBRANCH   9  33
BRANCH   5  37
ATOM     37  C   LIG d   1       8.444  11.650  -3.142  0.00  0.00    -0.050 C 
ATOM     38  H   LIG d   1       8.786  12.682  -3.236  0.00  0.00     0.024 H 
ATOM     39  H   LIG d   1       8.172  11.268  -4.125  0.00  0.00     0.024 H 
ATOM     40  H   LIG d   1       7.576  11.615  -2.484  0.00  0.00     0.024 H 
ENDBRANCH   5  37
BRANCH  13  41
ATOM     41  C   LIG d   1      11.352   7.406   0.295  0.00  0.00     0.024 C 
ATOM     42  H   LIG d   1      12.256   7.464  -0.312  0.00  0.00     0.036 H 
ATOM     43  H   LIG d   1      11.519   7.913   1.245  0.00  0.00     0.036 H 
BRANCH  41  44
ATOM     44  C   LIG d   1      11.004   5.938   0.553  0.00  0.00    -0.048 C 
ATOM     45  H   LIG d   1      10.046   5.704   0.090  0.00  0.00     0.027 H 
ATOM     46  H   LIG d   1      11.779   5.301   0.127  0.00  0.00     0.027 H 
BRANCH  44  47
ATOM     47  C   LIG d   1      10.914   5.693   2.061  0.00  0.00    -0.065 C 
ATOM     48  H   LIG d   1       9.881   5.817   2.388  0.00  0.00     0.023 H 
ATOM     49  H   LIG d   1      11.247   4.679   2.284  0.00  0.00     0.023 H 
ATOM     50  H   LIG d   1      11.549   6.408   2.584  0.00  0.00     0.023 H 
ENDBRANCH  44  47
ENDBRANCH  41  44
ENDBRANCH  13  41
TORSDOF 8
ENDMDL
MODEL 9
REMARK VINA RESULT:      -4.5      9.251     13.041
REMARK  8 active torsions:
REMARK  status: ('A' for Active; 'I' for Inactive)
REMARK    1  A    between atoms: C_1  and  C_2 
REMARK    2  A    between atoms: C_2  and  C_3 
REMARK    3  A    between atoms: C_3  and  C_4 
REMARK       I    between atoms: C_4  and  N_6 
REMARK    4  A    between atoms: C_8  and  C_22 
REMARK       I    between atoms: N_10  and  C_17 
REMARK    5  A    between atoms: C_12  and  C_16 
REMARK    6  A    between atoms: C_17  and  C_19 
REMARK    7  A    between atoms: C_19  and  C_20 
REMARK    8  A    between atoms: C_20  and  C_21 
ROOT
ATOM      1  C   LIG d   1      10.195   8.024  -0.400  0.00  0.00     0.216 C 
ATOM      2  O   LIG d   1       9.241   7.362  -0.749  0.00  0.00    -0.276 OA
ATOM      3  N   LIG d   1      10.193   9.359  -0.586  0.00  0.00    -0.299 N 
ATOM      4  C   LIG d   1      11.334  10.168  -0.140  0.00  0.00     0.028 C 
ATOM      5  C   LIG d   1      11.879  10.954  -1.343  0.00  0.00     0.058 C 
ATOM      6  C   LIG d   1      12.432   9.965  -2.380  0.00  0.00     0.028 C 
ATOM      7  N   LIG d   1      11.323   9.150  -2.891  0.00  0.00    -0.299 N 
ATOM      8  C   LIG d   1      10.153   9.821  -3.508  0.00  0.00     0.028 C 
ATOM      9  C   LIG d   1       9.567  10.794  -2.473  0.00  0.00     0.058 C 
ATOM     10  C   LIG d   1       9.055   9.994  -1.265  0.00  0.00     0.028 C 
ATOM     11  C   LIG d   1      10.705  11.677  -1.983  0.00  0.00     0.151 C 
ATOM     12  O   LIG d   1      10.678  12.878  -2.098  0.00  0.00    -0.296 OA
ATOM     13  C   LIG d   1      11.374   7.806  -2.809  0.00  0.00     0.216 C 
ATOM     14  O   LIG d   1      12.297   7.269  -2.234  0.00  0.00    -0.276 OA
ATOM     15  H   LIG d   1      12.113   9.515   0.254  0.00  0.00     0.047 H 
ATOM     16  H   LIG d   1      11.012  10.863   0.635  0.00  0.00     0.047 H 
ATOM     17  H   LIG d   1      12.891  10.515  -3.201  0.00  0.00     0.047 H 
ATOM     18  H   LIG d   1      13.176   9.321  -1.911  0.00  0.00     0.047 H 
ATOM     19  H   LIG d   1       9.404   9.072  -3.769  0.00  0.00     0.047 H 
ATOM     20  H   LIG d   1      10.448  10.372  -4.401  0.00  0.00     0.047 H 
ATOM     21  H   LIG d   1       8.569  10.667  -0.559  0.00  0.00     0.047 H 
ATOM     22  H   LIG d   1       8.345   9.239  -1.601  0.00  0.00     0.047 H 
ENDROOT
BRANCH   1  23
ATOM     23  C   LIG d   1      11.382   7.355   0.243  0.00  0.00     0.024 C 
ATOM     24  H   LIG d   1      12.226   7.369  -0.449  0.00  0.00     0.036 H 
ATOM     25  H   LIG d   1      11.651   7.887   1.154  0.00  0.00     0.036 H 
BRANCH  23  26
ATOM     26  C   LIG d   1      11.029   5.905   0.584  0.00  0.00    -0.048 C 
ATOM     27  H   LIG d   1      10.076   5.646   0.121  0.00  0.00     0.027 H 
ATOM     28  H   LIG d   1      11.808   5.243   0.207  0.00  0.00     0.027 H 
BRANCH  26  29
ATOM     29  C   LIG d   1      10.918   5.751   2.101  0.00  0.00    -0.065 C 
ATOM     30  H   LIG d   1       9.921   5.394   2.359  0.00  0.00     0.023 H 
ATOM     31  H   LIG d   1      11.661   5.032   2.448  0.00  0.00     0.023 H 
ATOM     32  H   LIG d   1      11.094   6.714   2.579  0.00  0.00     0.023 H 
ENDBRANCH  26  29
ENDBRANCH  23  26
ENDBRANCH   1  23
BRANCH   9  33
ATOM     33  C   LIG d   1       8.446  11.637  -3.086  0.00  0.00    -0.050 C 
ATOM     34  H   LIG d   1       7.483  11.273  -2.730  0.00  0.00     0.024 H 
ATOM     35  H   LIG d   1       8.486  11.559  -4.173  0.00  0.00     0.024 H 
ATOM     36  H   LIG d   1       8.572  12.679  -2.791  0.00  0.00     0.024 H 
ENDBRANCH   9  33
BRANCH   5  37
ATOM     37  C   LIG d   1      12.958  11.945  -0.904  0.00  0.00    -0.050 C 
ATOM     38  H   LIG d   1      13.828  11.848  -1.554  0.00  0.00     0.024 H 
ATOM     39  H   LIG d   1      12.568  12.961  -0.969  0.00  0.00     0.024 H 
ATOM     40  H   LIG d   1      13.249  11.733   0.126  0.00  0.00     0.024 H 
ENDBRANCH   5  37
BRANCH  13  41
ATOM     41  C   LIG d   1      10.285   6.971  -3.431  0.00  0.00     0.024 C 
ATOM     42  H   LIG d   1       9.417   6.956  -2.772  0.00  0.00     0.036 H 
ATOM     43  H   LIG d   1      10.004   7.398  -4.393  0.00  0.00     0.036 H 
BRANCH  41  44
ATOM     44  C   LIG d   1      10.793   5.541  -3.635  0.00  0.00    -0.048 C 
ATOM     45  H   LIG d   1      10.684   5.263  -4.684  0.00  0.00     0.027 H 
ATOM     46  H   LIG d   1      11.844   5.485  -3.352  0.00  0.00     0.027 H 
BRANCH  44  47
ATOM     47  C   LIG d   1       9.978   4.581  -2.766  0.00  0.00    -0.065 C 
ATOM     48  H   LIG d   1       9.890   4.989  -1.759  0.00  0.00     0.023 H 
ATOM     49  H   LIG d   1       8.984   4.457  -3.196  0.00  0.00     0.023 H 
ATOM     50  H   LIG d   1      10.480   3.614  -2.724  0.00  0.00     0.023 H 
ENDBRANCH  44  47
ENDBRANCH  41  44
ENDBRANCH  13  41
TORSDOF 8
ENDMDL
MODEL 10
REMARK VINA RESULT:      -4.5      2.475      5.159
REMARK  8 active torsions:
REMARK  status: ('A' for Active; 'I' for Inactive)
REMARK    1  A    between atoms: C_1  and  C_2 
REMARK    2  A    between atoms: C_2  and  C_3 
REMARK    3  A    between atoms: C_3  and  C_4 
REMARK       I    between atoms: C_4  and  N_6 
REMARK    4  A    between atoms: C_8  and  C_22 
REMARK       I    between atoms: N_10  and  C_17 
REMARK    5  A    between atoms: C_12  and  C_16 
REMARK    6  A    between atoms: C_17  and  C_19 
REMARK    7  A    between atoms: C_19  and  C_20 
REMARK    8  A    between atoms: C_20  and  C_21 
ROOT
ATOM      1  C   LIG d   1       3.762  -0.539  -6.912  0.00  0.00     0.216 C 
ATOM      2  O   LIG d   1       3.522   0.649  -6.904  0.00  0.00    -0.276 OA
ATOM      3  N   LIG d   1       4.419  -1.101  -5.878  0.00  0.00    -0.299 N 
ATOM      4  C   LIG d   1       4.686  -2.545  -5.869  0.00  0.00     0.028 C 
ATOM      5  C   LIG d   1       6.200  -2.762  -5.719  0.00  0.00     0.058 C 
ATOM      6  C   LIG d   1       6.914  -2.199  -6.957  0.00  0.00     0.028 C 
ATOM      7  N   LIG d   1       6.711  -0.745  -6.997  0.00  0.00    -0.299 N 
ATOM      8  C   LIG d   1       7.132   0.078  -5.837  0.00  0.00     0.028 C 
ATOM      9  C   LIG d   1       6.404  -0.452  -4.593  0.00  0.00     0.058 C 
ATOM     10  C   LIG d   1       4.891  -0.254  -4.773  0.00  0.00     0.028 C 
ATOM     11  C   LIG d   1       6.660  -1.950  -4.519  0.00  0.00     0.151 C 
ATOM     12  O   LIG d   1       7.197  -2.461  -3.567  0.00  0.00    -0.296 OA
ATOM     13  C   LIG d   1       6.157  -0.167  -8.081  0.00  0.00     0.216 C 
ATOM     14  O   LIG d   1       5.745  -0.856  -8.990  0.00  0.00    -0.276 OA
ATOM     15  H   LIG d   1       4.345  -2.985  -6.806  0.00  0.00     0.047 H 
ATOM     16  H   LIG d   1       4.166  -3.011  -5.034  0.00  0.00     0.047 H 
ATOM     17  H   LIG d   1       7.980  -2.418  -6.896  0.00  0.00     0.047 H 
ATOM     18  H   LIG d   1       6.499  -2.653  -7.857  0.00  0.00     0.047 H 
ATOM     19  H   LIG d   1       6.848   1.117  -6.012  0.00  0.00     0.047 H 
ATOM     20  H   LIG d   1       8.209   0.012  -5.686  0.00  0.00     0.047 H 
ATOM     21  H   LIG d   1       4.371  -0.556  -3.864  0.00  0.00     0.047 H 
ATOM     22  H   LIG d   1       4.682   0.794  -4.984  0.00  0.00     0.047 H 
ENDROOT
BRANCH   1  23
ATOM     23  C   LIG d   1       3.325  -1.389  -8.077  0.00  0.00     0.024 C 
ATOM     24  H   LIG d   1       4.163  -1.526  -8.761  0.00  0.00     0.036 H 
ATOM     25  H   LIG d   1       2.989  -2.360  -7.713  0.00  0.00     0.036 H 
BRANCH  23  26
ATOM     26  C   LIG d   1       2.176  -0.695  -8.812  0.00  0.00    -0.048 C 
ATOM     27  H   LIG d   1       1.263  -1.278  -8.690  0.00  0.00     0.027 H 
ATOM     28  H   LIG d   1       2.028   0.302  -8.396  0.00  0.00     0.027 H 
BRANCH  26  29
ATOM     29  C   LIG d   1       2.516  -0.582 -10.299  0.00  0.00    -0.065 C 
ATOM     30  H   LIG d   1       3.584  -0.398 -10.415  0.00  0.00     0.023 H 
ATOM     31  H   LIG d   1       2.251  -1.511 -10.803  0.00  0.00     0.023 H 
ATOM     32  H   LIG d   1       1.955   0.243 -10.738  0.00  0.00     0.023 H 
ENDBRANCH  26  29
ENDBRANCH  23  26
ENDBRANCH   1  23
BRANCH   9  33
ATOM     33  C   LIG d   1       6.901   0.251  -3.327  0.00  0.00    -0.050 C 
ATOM     34  H   LIG d   1       7.930   0.576  -3.473  0.00  0.00     0.024 H 
ATOM     35  H   LIG d   1       6.853  -0.441  -2.485  0.00  0.00     0.024 H 
ATOM     36  H   LIG d   1       6.271   1.116  -3.122  0.00  0.00     0.024 H 
ENDBRANCH   9  33
BRANCH   5  37
ATOM     37  C   LIG d   1       6.522  -4.246  -5.531  0.00  0.00    -0.050 C 
ATOM     38  H   LIG d   1       5.692  -4.737  -5.023  0.00  0.00     0.024 H 
ATOM     39  H   LIG d   1       6.678  -4.711  -6.504  0.00  0.00     0.024 H 
ATOM     40  H   LIG d   1       7.426  -4.348  -4.930  0.00  0.00     0.024 H 
ENDBRANCH   5  37
BRANCH  13  41
ATOM     41  C   LIG d   1       6.049   1.333  -8.161  0.00  0.00     0.024 C 
ATOM     42  H   LIG d   1       5.386   1.694  -7.375  0.00  0.00     0.036 H 
ATOM     43  H   LIG d   1       7.037   1.776  -8.035  0.00  0.00     0.036 H 
BRANCH  41  44
ATOM     44  C   LIG d   1       5.483   1.731  -9.527  0.00  0.00    -0.048 C 
ATOM     45  H   LIG d   1       6.240   2.280 -10.088  0.00  0.00     0.027 H 
ATOM     46  H   LIG d   1       5.201   0.834 -10.078  0.00  0.00     0.027 H 
BRANCH  44  47
ATOM     47  C   LIG d   1       4.252   2.617  -9.330  0.00  0.00    -0.065 C 
ATOM     48  H   LIG d   1       4.559   3.581  -8.922  0.00  0.00     0.023 H 
ATOM     49  H   LIG d   1       3.758   2.771 -10.290  0.00  0.00     0.023 H 
ATOM     50  H   LIG d   1       3.562   2.133  -8.638  0.00  0.00     0.023 H 
ENDBRANCH  44  47
ENDBRANCH  41  44
ENDBRANCH  13  41
TORSDOF 8
ENDMDL
