MODEL 1
REMARK VINA RESULT:      -5.7      0.000      0.000
REMARK  8 active torsions:
REMARK  status: ('A' for Active; 'I' for Inactive)
REMARK    1  A    between atoms: C_1  and  C_2 
REMARK    2  A    between atoms: C_6  and  O_8 
REMARK    3  A    between atoms: C_14  and  O_21 
REMARK    4  A    between atoms: C_15  and  C_18 
REMARK    5  A    between atoms: C_16  and  O_17 
REMARK    6  A    between atoms: C_18  and  N_41 
REMARK    7  A    between atoms: C_19  and  N_41 
REMARK    8  A    between atoms: C_20  and  N_41 
ROOT
ATOM      1  C   LIG d   1       4.659  -0.047  -2.894  0.00  0.00    -0.046 A 
ATOM      2  C   LIG d   1       3.990   0.433  -4.010  0.00  0.00    -0.047 A 
ATOM      3  C   LIG d   1       4.005  -0.295  -5.194  0.00  0.00     0.037 A 
ATOM      4  C   LIG d   1       4.705  -1.516  -5.256  0.00  0.00     0.074 A 
ATOM      5  C   LIG d   1       5.379  -1.984  -4.126  0.00  0.00     0.129 A 
ATOM      6  C   LIG d   1       5.351  -1.238  -2.950  0.00  0.00    -0.017 A 
ATOM      7  C   LIG d   1       4.718  -2.288  -6.513  0.00  0.00     0.202 C 
ATOM      8  O   LIG d   1       5.507  -3.201  -6.665  0.00  0.00    -0.286 OA
ATOM      9  C   LIG d   1       3.767  -1.942  -7.583  0.00  0.00     0.075 A 
ATOM     10  C   LIG d   1       3.066  -0.719  -7.526  0.00  0.00     0.040 A 
ATOM     11  C   LIG d   1       2.171  -0.390  -8.534  0.00  0.00    -0.008 A 
ATOM     12  C   LIG d   1       1.966  -1.268  -9.597  0.00  0.00     0.129 A 
ATOM     13  C   LIG d   1       2.651  -2.471  -9.655  0.00  0.00     0.080 A 
ATOM     14  C   LIG d   1       3.552  -2.815  -8.654  0.00  0.00     0.140 A 
ATOM     15  C   LIG d   1       3.292   0.201  -6.391  0.00  0.00     0.195 C 
ATOM     16  O   LIG d   1       2.896   1.349  -6.441  0.00  0.00    -0.287 OA
ATOM     17  H   LIG d   1       3.454   1.370  -3.957  0.00  0.00     0.063 H 
ATOM     18  H   LIG d   1       5.872  -1.598  -2.074  0.00  0.00     0.066 H 
ATOM     19  H   LIG d   1       1.634   0.546  -8.495  0.00  0.00     0.066 H 
ENDROOT
BRANCH  13  20
ATOM     20  C   LIG d   1       2.418  -3.411 -10.810  0.00  0.00     0.001 C 
ATOM     21  H   LIG d   1       1.878  -2.889 -11.599  0.00  0.00     0.087 H 
ATOM     22  H   LIG d   1       3.377  -3.758 -11.194  0.00  0.00     0.087 H 
BRANCH  20  23
ATOM     23  N   LIG d   1       1.641  -4.573 -10.330  0.00  0.00     0.234 N 
ATOM     24  H   LIG d   1       1.760  -4.656  -9.313  0.00  0.00     0.203 HD
BRANCH  23  25
ATOM     25  C   LIG d   1       0.207  -4.380 -10.631  0.00  0.00    -0.043 C 
ATOM     26  H   LIG d   1      -0.141  -5.137 -11.334  0.00  0.00     0.078 H 
ATOM     27  H   LIG d   1      -0.363  -4.455  -9.705  0.00  0.00     0.078 H 
ATOM     28  H   LIG d   1       0.067  -3.389 -11.065  0.00  0.00     0.078 H 
ENDBRANCH  23  25
BRANCH  23  29
ATOM     29  C   LIG d   1       2.131  -5.809 -10.974  0.00  0.00    -0.043 C 
ATOM     30  H   LIG d   1       2.852  -5.543 -11.748  0.00  0.00     0.078 H 
ATOM     31  H   LIG d   1       2.618  -6.431 -10.223  0.00  0.00     0.078 H 
ATOM     32  H   LIG d   1       1.304  -6.360 -11.421  0.00  0.00     0.078 H 
ENDBRANCH  23  29
ENDBRANCH  20  23
ENDBRANCH  13  20
BRANCH  12  33
ATOM     33  O   LIG d   1       1.090  -0.943 -10.581  0.00  0.00    -0.506 OA
ATOM     34  H   LIG d   1       0.799  -1.697 -11.113  0.00  0.00     0.292 HD
ENDBRANCH  12  33
BRANCH  14  35
ATOM     35  O   LIG d   1       4.220  -3.993  -8.716  0.00  0.00    -0.505 OA
ATOM     36  H   LIG d   1       3.667  -4.769  -8.550  0.00  0.00     0.292 HD
ENDBRANCH  14  35
BRANCH   5  37
ATOM     37  O   LIG d   1       6.056  -3.158  -4.175  0.00  0.00    -0.506 OA
ATOM     38  H   LIG d   1       5.697  -3.792  -4.808  0.00  0.00     0.292 HD
ENDBRANCH   5  37
BRANCH   1  39
ATOM     39  C   LIG d   1       4.634   0.743  -1.611  0.00  0.00    -0.040 C 
ATOM     40  H   LIG d   1       3.824   0.383  -0.977  0.00  0.00     0.028 H 
ATOM     41  H   LIG d   1       5.584   0.621  -1.091  0.00  0.00     0.028 H 
ATOM     42  H   LIG d   1       4.477   1.798  -1.837  0.00  0.00     0.028 H 
ENDBRANCH   1  39
TORSDOF 8
ENDMDL
MODEL 2
REMARK VINA RESULT:      -5.6     10.411     13.626
REMARK  8 active torsions:
REMARK  status: ('A' for Active; 'I' for Inactive)
REMARK    1  A    between atoms: C_1  and  C_2 
REMARK    2  A    between atoms: C_6  and  O_8 
REMARK    3  A    between atoms: C_14  and  O_21 
REMARK    4  A    between atoms: C_15  and  C_18 
REMARK    5  A    between atoms: C_16  and  O_17 
REMARK    6  A    between atoms: C_18  and  N_41 
REMARK    7  A    between atoms: C_19  and  N_41 
REMARK    8  A    between atoms: C_20  and  N_41 
ROOT
ATOM      1  C   LIG d   1      11.984  10.573   2.156  0.00  0.00    -0.046 A 
ATOM      2  C   LIG d   1      11.968   9.191   2.055  0.00  0.00    -0.047 A 
ATOM      3  C   LIG d   1      11.309   8.580   0.994  0.00  0.00     0.037 A 
ATOM      4  C   LIG d   1      10.655   9.370   0.029  0.00  0.00     0.074 A 
ATOM      5  C   LIG d   1      10.673  10.761   0.147  0.00  0.00     0.129 A 
ATOM      6  C   LIG d   1      11.339  11.352   1.219  0.00  0.00    -0.017 A 
ATOM      7  C   LIG d   1       9.957   8.720  -1.097  0.00  0.00     0.202 C 
ATOM      8  O   LIG d   1       9.186   9.356  -1.791  0.00  0.00    -0.286 OA
ATOM      9  C   LIG d   1      10.203   7.294  -1.372  0.00  0.00     0.075 A 
ATOM     10  C   LIG d   1      10.855   6.499  -0.407  0.00  0.00     0.040 A 
ATOM     11  C   LIG d   1      11.086   5.155  -0.664  0.00  0.00    -0.008 A 
ATOM     12  C   LIG d   1      10.674   4.596  -1.872  0.00  0.00     0.129 A 
ATOM     13  C   LIG d   1      10.034   5.374  -2.823  0.00  0.00     0.080 A 
ATOM     14  C   LIG d   1       9.795   6.722  -2.581  0.00  0.00     0.140 A 
ATOM     15  C   LIG d   1      11.289   7.106   0.869  0.00  0.00     0.195 C 
ATOM     16  O   LIG d   1      11.625   6.404   1.803  0.00  0.00    -0.287 OA
ATOM     17  H   LIG d   1      12.472   8.589   2.797  0.00  0.00     0.063 H 
ATOM     18  H   LIG d   1      11.354  12.428   1.312  0.00  0.00     0.066 H 
ATOM     19  H   LIG d   1      11.584   4.542   0.074  0.00  0.00     0.066 H 
ENDROOT
BRANCH  13  20
ATOM     20  C   LIG d   1       9.596   4.757  -4.126  0.00  0.00     0.001 C 
ATOM     21  H   LIG d   1       9.562   3.672  -4.020  0.00  0.00     0.087 H 
ATOM     22  H   LIG d   1       8.605   5.127  -4.388  0.00  0.00     0.087 H 
BRANCH  20  23
ATOM     23  N   LIG d   1      10.552   5.145  -5.183  0.00  0.00     0.234 N 
ATOM     24  H   LIG d   1      11.123   5.929  -4.845  0.00  0.00     0.203 HD
BRANCH  23  25
ATOM     25  C   LIG d   1      11.440   4.007  -5.503  0.00  0.00    -0.043 C 
ATOM     26  H   LIG d   1      11.576   3.370  -4.630  0.00  0.00     0.078 H 
ATOM     27  H   LIG d   1      10.995   3.427  -6.311  0.00  0.00     0.078 H 
ATOM     28  H   LIG d   1      12.408   4.394  -5.825  0.00  0.00     0.078 H 
ENDBRANCH  23  25
BRANCH  23  29
ATOM     29  C   LIG d   1       9.820   5.571  -6.395  0.00  0.00    -0.043 C 
ATOM     30  H   LIG d   1       8.958   4.919  -6.534  0.00  0.00     0.078 H 
ATOM     31  H   LIG d   1       9.482   6.598  -6.261  0.00  0.00     0.078 H 
ATOM     32  H   LIG d   1      10.466   5.512  -7.271  0.00  0.00     0.078 H 
ENDBRANCH  23  29
ENDBRANCH  20  23
ENDBRANCH  13  20
BRANCH  12  33
ATOM     33  O   LIG d   1      10.902   3.281  -2.119  0.00  0.00    -0.506 OA
ATOM     34  H   LIG d   1      11.822   3.076  -2.338  0.00  0.00     0.292 HD
ENDBRANCH  12  33
BRANCH  14  35
ATOM     35  O   LIG d   1       9.168   7.480  -3.515  0.00  0.00    -0.505 OA
ATOM     36  H   LIG d   1       8.485   8.062  -3.156  0.00  0.00     0.292 HD
ENDBRANCH  14  35
BRANCH   5  37
ATOM     37  O   LIG d   1      10.046  11.532  -0.775  0.00  0.00    -0.506 OA
ATOM     38  H   LIG d   1       9.247  11.132  -1.143  0.00  0.00     0.292 HD
ENDBRANCH   5  37
BRANCH   1  39
ATOM     39  C   LIG d   1      12.705  11.230   3.305  0.00  0.00    -0.040 C 
ATOM     40  H   LIG d   1      13.714  10.826   3.380  0.00  0.00     0.028 H 
ATOM     41  H   LIG d   1      12.756  12.306   3.135  0.00  0.00     0.028 H 
ATOM     42  H   LIG d   1      12.165  11.035   4.231  0.00  0.00     0.028 H 
ENDBRANCH   1  39
TORSDOF 8
ENDMDL
MODEL 3
REMARK VINA RESULT:      -5.5     11.456     14.886
REMARK  8 active torsions:
REMARK  status: ('A' for Active; 'I' for Inactive)
REMARK    1  A    between atoms: C_1  and  C_2 
REMARK    2  A    between atoms: C_6  and  O_8 
REMARK    3  A    between atoms: C_14  and  O_21 
REMARK    4  A    between atoms: C_15  and  C_18 
REMARK    5  A    between atoms: C_16  and  O_17 
REMARK    6  A    between atoms: C_18  and  N_41 
REMARK    7  A    between atoms: C_19  and  N_41 
REMARK    8  A    between atoms: C_20  and  N_41 
ROOT
ATOM      1  C   LIG d   1      11.924  12.822   1.403  0.00  0.00    -0.046 A 
ATOM      2  C   LIG d   1      12.055  11.491   1.770  0.00  0.00    -0.047 A 
ATOM      3  C   LIG d   1      11.409  10.502   1.039  0.00  0.00     0.037 A 
ATOM      4  C   LIG d   1      10.619  10.857  -0.072  0.00  0.00     0.074 A 
ATOM      5  C   LIG d   1      10.490  12.201  -0.427  0.00  0.00     0.129 A 
ATOM      6  C   LIG d   1      11.146  13.176   0.321  0.00  0.00    -0.017 A 
ATOM      7  C   LIG d   1       9.936   9.805  -0.849  0.00  0.00     0.202 C 
ATOM      8  O   LIG d   1       9.062  10.098  -1.643  0.00  0.00    -0.286 OA
ATOM      9  C   LIG d   1      10.321   8.397  -0.653  0.00  0.00     0.075 A 
ATOM     10  C   LIG d   1      11.110   8.037   0.459  0.00  0.00     0.040 A 
ATOM     11  C   LIG d   1      11.473   6.711   0.647  0.00  0.00    -0.008 A 
ATOM     12  C   LIG d   1      11.058   5.740  -0.264  0.00  0.00     0.129 A 
ATOM     13  C   LIG d   1      10.284   6.090  -1.358  0.00  0.00     0.080 A 
ATOM     14  C   LIG d   1       9.912   7.414  -1.560  0.00  0.00     0.140 A 
ATOM     15  C   LIG d   1      11.545   9.078   1.415  0.00  0.00     0.195 C 
ATOM     16  O   LIG d   1      12.008   8.768   2.495  0.00  0.00    -0.287 OA
ATOM     17  H   LIG d   1      12.663  11.224   2.623  0.00  0.00     0.063 H 
ATOM     18  H   LIG d   1      11.048  14.217   0.048  0.00  0.00     0.066 H 
ATOM     19  H   LIG d   1      12.075   6.431   1.499  0.00  0.00     0.066 H 
ENDROOT
BRANCH  13  20
ATOM     20  C   LIG d   1       9.845   5.030  -2.335  0.00  0.00     0.001 C 
ATOM     21  H   LIG d   1       9.181   4.327  -1.832  0.00  0.00     0.087 H 
ATOM     22  H   LIG d   1       9.316   5.498  -3.165  0.00  0.00     0.087 H 
BRANCH  20  23
ATOM     23  N   LIG d   1      11.041   4.334  -2.854  0.00  0.00     0.234 N 
ATOM     24  H   LIG d   1      11.794   4.402  -2.158  0.00  0.00     0.203 HD
BRANCH  23  25
ATOM     25  C   LIG d   1      10.732   2.909  -3.091  0.00  0.00    -0.043 C 
ATOM     26  H   LIG d   1      10.395   2.755  -4.115  0.00  0.00     0.078 H 
ATOM     27  H   LIG d   1      11.630   2.317  -2.911  0.00  0.00     0.078 H 
ATOM     28  H   LIG d   1       9.948   2.597  -2.399  0.00  0.00     0.078 H 
ENDBRANCH  23  25
BRANCH  23  29
ATOM     29  C   LIG d   1      11.489   4.970  -4.110  0.00  0.00    -0.043 C 
ATOM     30  H   LIG d   1      11.386   6.051  -4.016  0.00  0.00     0.078 H 
ATOM     31  H   LIG d   1      12.535   4.718  -4.281  0.00  0.00     0.078 H 
ATOM     32  H   LIG d   1      10.890   4.620  -4.950  0.00  0.00     0.078 H 
ENDBRANCH  23  29
ENDBRANCH  20  23
ENDBRANCH  13  20
BRANCH  12  33
ATOM     33  O   LIG d   1      11.415   4.444  -0.077  0.00  0.00    -0.506 OA
ATOM     34  H   LIG d   1      11.864   4.278   0.764  0.00  0.00     0.292 HD
ENDBRANCH  12  33
BRANCH  14  35
ATOM     35  O   LIG d   1       9.154   7.751  -2.633  0.00  0.00    -0.505 OA
ATOM     36  H   LIG d   1       8.874   6.998  -3.169  0.00  0.00     0.292 HD
ENDBRANCH  14  35
BRANCH   5  37
ATOM     37  O   LIG d   1       9.731  12.554  -1.494  0.00  0.00    -0.506 OA
ATOM     38  H   LIG d   1       9.996  13.387  -1.906  0.00  0.00     0.292 HD
ENDBRANCH   5  37
BRANCH   1  39
ATOM     39  C   LIG d   1      12.631  13.890   2.196  0.00  0.00    -0.040 C 
ATOM     40  H   LIG d   1      13.351  14.401   1.558  0.00  0.00     0.028 H 
ATOM     41  H   LIG d   1      11.901  14.609   2.569  0.00  0.00     0.028 H 
ATOM     42  H   LIG d   1      13.151  13.432   3.038  0.00  0.00     0.028 H 
ENDBRANCH   1  39
TORSDOF 8
ENDMDL
MODEL 4
REMARK VINA RESULT:      -5.5     10.319     13.595
REMARK  8 active torsions:
REMARK  status: ('A' for Active; 'I' for Inactive)
REMARK    1  A    between atoms: C_1  and  C_2 
REMARK    2  A    between atoms: C_6  and  O_8 
REMARK    3  A    between atoms: C_14  and  O_21 
REMARK    4  A    between atoms: C_15  and  C_18 
REMARK    5  A    between atoms: C_16  and  O_17 
REMARK    6  A    between atoms: C_18  and  N_41 
REMARK    7  A    between atoms: C_19  and  N_41 
REMARK    8  A    between atoms: C_20  and  N_41 
ROOT
ATOM      1  C   LIG d   1       9.310   6.074  -8.945  0.00  0.00    -0.046 A 
ATOM      2  C   LIG d   1       9.703   5.452  -7.770  0.00  0.00    -0.047 A 
ATOM      3  C   LIG d   1       9.862   6.199  -6.609  0.00  0.00     0.037 A 
ATOM      4  C   LIG d   1       9.628   7.588  -6.633  0.00  0.00     0.074 A 
ATOM      5  C   LIG d   1       9.238   8.202  -7.825  0.00  0.00     0.129 A 
ATOM      6  C   LIG d   1       9.085   7.434  -8.977  0.00  0.00    -0.017 A 
ATOM      7  C   LIG d   1       9.795   8.378  -5.399  0.00  0.00     0.202 C 
ATOM      8  O   LIG d   1       9.843   9.593  -5.450  0.00  0.00    -0.286 OA
ATOM      9  C   LIG d   1       9.905   7.683  -4.105  0.00  0.00     0.075 A 
ATOM     10  C   LIG d   1      10.142   6.294  -4.076  0.00  0.00     0.040 A 
ATOM     11  C   LIG d   1      10.248   5.637  -2.858  0.00  0.00    -0.008 A 
ATOM     12  C   LIG d   1      10.117   6.352  -1.669  0.00  0.00     0.129 A 
ATOM     13  C   LIG d   1       9.882   7.717  -1.693  0.00  0.00     0.080 A 
ATOM     14  C   LIG d   1       9.775   8.390  -2.905  0.00  0.00     0.140 A 
ATOM     15  C   LIG d   1      10.276   5.548  -5.347  0.00  0.00     0.195 C 
ATOM     16  O   LIG d   1      10.718   4.417  -5.353  0.00  0.00    -0.287 OA
ATOM     17  H   LIG d   1       9.881   4.386  -7.756  0.00  0.00     0.063 H 
ATOM     18  H   LIG d   1       8.784   7.907  -9.900  0.00  0.00     0.066 H 
ATOM     19  H   LIG d   1      10.432   4.573  -2.833  0.00  0.00     0.066 H 
ENDROOT
BRANCH  13  20
ATOM     20  C   LIG d   1       9.742   8.476  -0.399  0.00  0.00     0.001 C 
ATOM     21  H   LIG d   1       8.834   9.078  -0.428  0.00  0.00     0.087 H 
ATOM     22  H   LIG d   1       9.684   7.771   0.431  0.00  0.00     0.087 H 
BRANCH  20  23
ATOM     23  N   LIG d   1      10.930   9.336  -0.219  0.00  0.00     0.234 N 
ATOM     24  H   LIG d   1      11.355   9.514  -1.138  0.00  0.00     0.203 HD
BRANCH  23  25
ATOM     25  C   LIG d   1      10.533  10.626   0.384  0.00  0.00    -0.043 C 
ATOM     26  H   LIG d   1      11.413  11.211   0.650  0.00  0.00     0.078 H 
ATOM     27  H   LIG d   1       9.931  11.182  -0.334  0.00  0.00     0.078 H 
ATOM     28  H   LIG d   1       9.943  10.430   1.280  0.00  0.00     0.078 H 
ENDBRANCH  23  25
BRANCH  23  29
ATOM     29  C   LIG d   1      11.920   8.658   0.644  0.00  0.00    -0.043 C 
ATOM     30  H   LIG d   1      11.413   7.884   1.222  0.00  0.00     0.078 H 
ATOM     31  H   LIG d   1      12.683   8.200   0.015  0.00  0.00     0.078 H 
ATOM     32  H   LIG d   1      12.387   9.371   1.322  0.00  0.00     0.078 H 
ENDBRANCH  23  29
ENDBRANCH  20  23
ENDBRANCH  13  20
BRANCH  12  33
ATOM     33  O   LIG d   1      10.221   5.706  -0.480  0.00  0.00    -0.506 OA
ATOM     34  H   LIG d   1      10.562   6.257   0.238  0.00  0.00     0.292 HD
ENDBRANCH  12  33
BRANCH  14  35
ATOM     35  O   LIG d   1       9.545   9.726  -2.923  0.00  0.00    -0.505 OA
ATOM     36  H   LIG d   1       8.667   9.970  -3.244  0.00  0.00     0.292 HD
ENDBRANCH  14  35
BRANCH   5  37
ATOM     37  O   LIG d   1       9.010   9.538  -7.860  0.00  0.00    -0.506 OA
ATOM     38  H   LIG d   1       8.478   9.865  -7.122  0.00  0.00     0.292 HD
ENDBRANCH   5  37
BRANCH   1  39
ATOM     39  C   LIG d   1       9.133   5.258 -10.200  0.00  0.00    -0.040 C 
ATOM     40  H   LIG d   1      10.009   5.378 -10.838  0.00  0.00     0.028 H 
ATOM     41  H   LIG d   1       9.018   4.207  -9.936  0.00  0.00     0.028 H 
ATOM     42  H   LIG d   1       8.245   5.598 -10.732  0.00  0.00     0.028 H 
ENDBRANCH   1  39
TORSDOF 8
ENDMDL
MODEL 5
REMARK VINA RESULT:      -5.4     12.442     16.514
REMARK  8 active torsions:
REMARK  status: ('A' for Active; 'I' for Inactive)
REMARK    1  A    between atoms: C_1  and  C_2 
REMARK    2  A    between atoms: C_6  and  O_8 
REMARK    3  A    between atoms: C_14  and  O_21 
REMARK    4  A    between atoms: C_15  and  C_18 
REMARK    5  A    between atoms: C_16  and  O_17 
REMARK    6  A    between atoms: C_18  and  N_41 
REMARK    7  A    between atoms: C_19  and  N_41 
REMARK    8  A    between atoms: C_20  and  N_41 
ROOT
ATOM      1  C   LIG d   1       9.868   5.958  -2.992  0.00  0.00    -0.046 A 
ATOM      2  C   LIG d   1       9.722   7.306  -2.706  0.00  0.00    -0.047 A 
ATOM      3  C   LIG d   1      10.129   7.802  -1.473  0.00  0.00     0.037 A 
ATOM      4  C   LIG d   1      10.684   6.929  -0.517  0.00  0.00     0.074 A 
ATOM      5  C   LIG d   1      10.819   5.572  -0.816  0.00  0.00     0.129 A 
ATOM      6  C   LIG d   1      10.404   5.096  -2.058  0.00  0.00    -0.017 A 
ATOM      7  C   LIG d   1      11.117   7.457   0.791  0.00  0.00     0.202 C 
ATOM      8  O   LIG d   1      11.362   6.698   1.710  0.00  0.00    -0.286 OA
ATOM      9  C   LIG d   1      11.251   8.913   0.974  0.00  0.00     0.075 A 
ATOM     10  C   LIG d   1      10.694   9.790   0.020  0.00  0.00     0.040 A 
ATOM     11  C   LIG d   1      10.817  11.162   0.191  0.00  0.00    -0.008 A 
ATOM     12  C   LIG d   1      11.491  11.667   1.302  0.00  0.00     0.129 A 
ATOM     13  C   LIG d   1      12.040  10.808   2.240  0.00  0.00     0.080 A 
ATOM     14  C   LIG d   1      11.924   9.432   2.084  0.00  0.00     0.140 A 
ATOM     15  C   LIG d   1       9.985   9.239  -1.155  0.00  0.00     0.195 C 
ATOM     16  O   LIG d   1       9.295   9.958  -1.850  0.00  0.00    -0.287 OA
ATOM     17  H   LIG d   1       9.297   7.972  -3.443  0.00  0.00     0.063 H 
ATOM     18  H   LIG d   1      10.507   4.047  -2.292  0.00  0.00     0.066 H 
ATOM     19  H   LIG d   1      10.391  11.837  -0.536  0.00  0.00     0.066 H 
ENDROOT
BRANCH  13  20
ATOM     20  C   LIG d   1      12.766  11.369   3.436  0.00  0.00     0.001 C 
ATOM     21  H   LIG d   1      12.670  12.455   3.442  0.00  0.00     0.087 H 
ATOM     22  H   LIG d   1      12.332  10.961   4.348  0.00  0.00     0.087 H 
BRANCH  20  23
ATOM     23  N   LIG d   1      14.188  10.975   3.358  0.00  0.00     0.234 N 
ATOM     24  H   LIG d   1      14.262  10.094   2.835  0.00  0.00     0.203 HD
BRANCH  23  25
ATOM     25  C   LIG d   1      14.963  12.018   2.654  0.00  0.00    -0.043 C 
ATOM     26  H   LIG d   1      14.551  13.005   2.859  0.00  0.00     0.078 H 
ATOM     27  H   LIG d   1      15.998  11.979   2.994  0.00  0.00     0.078 H 
ATOM     28  H   LIG d   1      14.925  11.823   1.582  0.00  0.00     0.078 H 
ENDBRANCH  23  25
BRANCH  23  29
ATOM     29  C   LIG d   1      14.731  10.772   4.718  0.00  0.00    -0.043 C 
ATOM     30  H   LIG d   1      13.901  10.639   5.413  0.00  0.00     0.078 H 
ATOM     31  H   LIG d   1      15.354   9.879   4.721  0.00  0.00     0.078 H 
ATOM     32  H   LIG d   1      15.326  11.632   5.023  0.00  0.00     0.078 H 
ENDBRANCH  23  29
ENDBRANCH  20  23
ENDBRANCH  13  20
BRANCH  12  33
ATOM     33  O   LIG d   1      11.609  13.009   1.466  0.00  0.00    -0.506 OA
ATOM     34  H   LIG d   1      12.465  13.365   1.189  0.00  0.00     0.292 HD
ENDBRANCH  12  33
BRANCH  14  35
ATOM     35  O   LIG d   1      12.464   8.595   3.005  0.00  0.00    -0.505 OA
ATOM     36  H   LIG d   1      11.915   7.825   3.207  0.00  0.00     0.292 HD
ENDBRANCH  14  35
BRANCH   5  37
ATOM     37  O   LIG d   1      11.351   4.722   0.097  0.00  0.00    -0.506 OA
ATOM     38  H   LIG d   1      10.764   4.526   0.839  0.00  0.00     0.292 HD
ENDBRANCH   5  37
BRANCH   1  39
ATOM     39  C   LIG d   1       9.430   5.427  -4.333  0.00  0.00    -0.040 C 
ATOM     40  H   LIG d   1       9.527   4.341  -4.344  0.00  0.00     0.028 H 
ATOM     41  H   LIG d   1       8.389   5.700  -4.510  0.00  0.00     0.028 H 
ATOM     42  H   LIG d   1      10.056   5.856  -5.115  0.00  0.00     0.028 H 
ENDBRANCH   1  39
TORSDOF 8
ENDMDL
MODEL 6
REMARK VINA RESULT:      -5.2      4.609      7.701
REMARK  8 active torsions:
REMARK  status: ('A' for Active; 'I' for Inactive)
REMARK    1  A    between atoms: C_1  and  C_2 
REMARK    2  A    between atoms: C_6  and  O_8 
REMARK    3  A    between atoms: C_14  and  O_21 
REMARK    4  A    between atoms: C_15  and  C_18 
REMARK    5  A    between atoms: C_16  and  O_17 
REMARK    6  A    between atoms: C_18  and  N_41 
REMARK    7  A    between atoms: C_19  and  N_41 
REMARK    8  A    between atoms: C_20  and  N_41 
ROOT
ATOM      1  C   LIG d   1       7.308  -9.061  -5.562  0.00  0.00    -0.046 A 
ATOM      2  C   LIG d   1       8.002  -7.892  -5.290  0.00  0.00    -0.047 A 
ATOM      3  C   LIG d   1       7.346  -6.668  -5.336  0.00  0.00     0.037 A 
ATOM      4  C   LIG d   1       5.977  -6.620  -5.664  0.00  0.00     0.074 A 
ATOM      5  C   LIG d   1       5.291  -7.804  -5.941  0.00  0.00     0.129 A 
ATOM      6  C   LIG d   1       5.969  -9.020  -5.890  0.00  0.00    -0.017 A 
ATOM      7  C   LIG d   1       5.281  -5.319  -5.710  0.00  0.00     0.202 C 
ATOM      8  O   LIG d   1       4.183  -5.229  -6.227  0.00  0.00    -0.286 OA
ATOM      9  C   LIG d   1       5.929  -4.132  -5.127  0.00  0.00     0.075 A 
ATOM     10  C   LIG d   1       7.300  -4.175  -4.800  0.00  0.00     0.040 A 
ATOM     11  C   LIG d   1       7.913  -3.058  -4.251  0.00  0.00    -0.008 A 
ATOM     12  C   LIG d   1       7.173  -1.899  -4.024  0.00  0.00     0.129 A 
ATOM     13  C   LIG d   1       5.825  -1.854  -4.343  0.00  0.00     0.080 A 
ATOM     14  C   LIG d   1       5.196  -2.964  -4.894  0.00  0.00     0.140 A 
ATOM     15  C   LIG d   1       8.072  -5.413  -5.043  0.00  0.00     0.195 C 
ATOM     16  O   LIG d   1       9.287  -5.399  -5.003  0.00  0.00    -0.287 OA
ATOM     17  H   LIG d   1       9.052  -7.933  -5.039  0.00  0.00     0.063 H 
ATOM     18  H   LIG d   1       5.440  -9.938  -6.104  0.00  0.00     0.066 H 
ATOM     19  H   LIG d   1       8.963  -3.086  -4.001  0.00  0.00     0.066 H 
ENDROOT
BRANCH  13  20
ATOM     20  C   LIG d   1       5.037  -0.594  -4.091  0.00  0.00     0.001 C 
ATOM     21  H   LIG d   1       5.418   0.205  -4.727  0.00  0.00     0.087 H 
ATOM     22  H   LIG d   1       3.987  -0.771  -4.320  0.00  0.00     0.087 H 
BRANCH  20  23
ATOM     23  N   LIG d   1       5.166  -0.228  -2.665  0.00  0.00     0.234 N 
ATOM     24  H   LIG d   1       6.140  -0.373  -2.370  0.00  0.00     0.203 HD
BRANCH  23  25
ATOM     25  C   LIG d   1       4.814   1.194  -2.475  0.00  0.00    -0.043 C 
ATOM     26  H   LIG d   1       3.871   1.286  -1.936  0.00  0.00     0.078 H 
ATOM     27  H   LIG d   1       5.606   1.683  -1.907  0.00  0.00     0.078 H 
ATOM     28  H   LIG d   1       4.721   1.669  -3.452  0.00  0.00     0.078 H 
ENDBRANCH  23  25
BRANCH  23  29
ATOM     29  C   LIG d   1       4.284  -1.082  -1.843  0.00  0.00    -0.043 C 
ATOM     30  H   LIG d   1       3.612  -0.445  -1.267  0.00  0.00     0.078 H 
ATOM     31  H   LIG d   1       3.700  -1.726  -2.501  0.00  0.00     0.078 H 
ATOM     32  H   LIG d   1       4.873  -1.697  -1.163  0.00  0.00     0.078 H 
ENDBRANCH  23  29
ENDBRANCH  20  23
ENDBRANCH  13  20
BRANCH  12  33
ATOM     33  O   LIG d   1       7.776  -0.808  -3.488  0.00  0.00    -0.506 OA
ATOM     34  H   LIG d   1       8.560  -1.012  -2.960  0.00  0.00     0.292 HD
ENDBRANCH  12  33
BRANCH  14  35
ATOM     35  O   LIG d   1       3.877  -2.915  -5.204  0.00  0.00    -0.505 OA
ATOM     36  H   LIG d   1       3.428  -2.119  -4.888  0.00  0.00     0.292 HD
ENDBRANCH  14  35
BRANCH   5  37
ATOM     37  O   LIG d   1       3.973  -7.770  -6.259  0.00  0.00    -0.506 OA
ATOM     38  H   LIG d   1       3.792  -7.908  -7.198  0.00  0.00     0.292 HD
ENDBRANCH   5  37
BRANCH   1  39
ATOM     39  C   LIG d   1       8.023 -10.385  -5.505  0.00  0.00    -0.040 C 
ATOM     40  H   LIG d   1       8.235 -10.640  -4.466  0.00  0.00     0.028 H 
ATOM     41  H   LIG d   1       7.393 -11.158  -5.946  0.00  0.00     0.028 H 
ATOM     42  H   LIG d   1       8.958 -10.317  -6.061  0.00  0.00     0.028 H 
ENDBRANCH   1  39
TORSDOF 8
ENDMDL
MODEL 7
REMARK VINA RESULT:      -4.9     11.577     14.617
REMARK  8 active torsions:
REMARK  status: ('A' for Active; 'I' for Inactive)
REMARK    1  A    between atoms: C_1  and  C_2 
REMARK    2  A    between atoms: C_6  and  O_8 
REMARK    3  A    between atoms: C_14  and  O_21 
REMARK    4  A    between atoms: C_15  and  C_18 
REMARK    5  A    between atoms: C_16  and  O_17 
REMARK    6  A    between atoms: C_18  and  N_41 
REMARK    7  A    between atoms: C_19  and  N_41 
REMARK    8  A    between atoms: C_20  and  N_41 
ROOT
ATOM      1  C   LIG d   1       9.549   5.273  -8.201  0.00  0.00    -0.046 A 
ATOM      2  C   LIG d   1       9.843   5.642  -6.897  0.00  0.00    -0.047 A 
ATOM      3  C   LIG d   1       9.900   6.988  -6.553  0.00  0.00     0.037 A 
ATOM      4  C   LIG d   1       9.663   7.971  -7.534  0.00  0.00     0.074 A 
ATOM      5  C   LIG d   1       9.373   7.585  -8.844  0.00  0.00     0.129 A 
ATOM      6  C   LIG d   1       9.322   6.230  -9.167  0.00  0.00    -0.017 A 
ATOM      7  C   LIG d   1       9.721   9.399  -7.166  0.00  0.00     0.202 C 
ATOM      8  O   LIG d   1       9.768  10.254  -8.030  0.00  0.00    -0.286 OA
ATOM      9  C   LIG d   1       9.723   9.779  -5.743  0.00  0.00     0.075 A 
ATOM     10  C   LIG d   1       9.962   8.798  -4.758  0.00  0.00     0.040 A 
ATOM     11  C   LIG d   1       9.966   9.154  -3.417  0.00  0.00    -0.008 A 
ATOM     12  C   LIG d   1       9.732  10.477  -3.048  0.00  0.00     0.129 A 
ATOM     13  C   LIG d   1       9.494  11.443  -4.012  0.00  0.00     0.080 A 
ATOM     14  C   LIG d   1       9.488  11.103  -5.360  0.00  0.00     0.140 A 
ATOM     15  C   LIG d   1      10.207   7.397  -5.165  0.00  0.00     0.195 C 
ATOM     16  O   LIG d   1      10.653   6.594  -4.370  0.00  0.00    -0.287 OA
ATOM     17  H   LIG d   1      10.024   4.885  -6.148  0.00  0.00     0.063 H 
ATOM     18  H   LIG d   1       9.099   5.929 -10.180  0.00  0.00     0.066 H 
ATOM     19  H   LIG d   1      10.152   8.406  -2.661  0.00  0.00     0.066 H 
ENDROOT
BRANCH  13  20
ATOM     20  C   LIG d   1       9.241  12.870  -3.597  0.00  0.00     0.001 C 
ATOM     21  H   LIG d   1       8.974  13.460  -4.473  0.00  0.00     0.087 H 
ATOM     22  H   LIG d   1       8.424  12.899  -2.876  0.00  0.00     0.087 H 
BRANCH  20  23
ATOM     23  N   LIG d   1      10.464  13.406  -2.964  0.00  0.00     0.234 N 
ATOM     24  H   LIG d   1      10.998  12.628  -2.558  0.00  0.00     0.203 HD
BRANCH  23  25
ATOM     25  C   LIG d   1      11.299  14.087  -3.975  0.00  0.00    -0.043 C 
ATOM     26  H   LIG d   1      11.083  15.154  -3.995  0.00  0.00     0.078 H 
ATOM     27  H   LIG d   1      12.350  13.934  -3.728  0.00  0.00     0.078 H 
ATOM     28  H   LIG d   1      11.090  13.655  -4.955  0.00  0.00     0.078 H 
ENDBRANCH  23  25
BRANCH  23  29
ATOM     29  C   LIG d   1      10.101  14.353  -1.888  0.00  0.00    -0.043 C 
ATOM     30  H   LIG d   1      10.448  15.349  -2.162  0.00  0.00     0.078 H 
ATOM     31  H   LIG d   1       9.018  14.363  -1.775  0.00  0.00     0.078 H 
ATOM     32  H   LIG d   1      10.562  14.054  -0.946  0.00  0.00     0.078 H 
ENDBRANCH  23  29
ENDBRANCH  20  23
ENDBRANCH  13  20
BRANCH  12  33
ATOM     33  O   LIG d   1       9.736  10.822  -1.735  0.00  0.00    -0.506 OA
ATOM     34  H   LIG d   1       8.872  11.096  -1.398  0.00  0.00     0.292 HD
ENDBRANCH  12  33
BRANCH  14  35
ATOM     35  O   LIG d   1       9.255  12.052  -6.300  0.00  0.00    -0.505 OA
ATOM     36  H   LIG d   1       9.982  12.678  -6.416  0.00  0.00     0.292 HD
ENDBRANCH  14  35
BRANCH   5  37
ATOM     37  O   LIG d   1       9.144   8.522  -9.796  0.00  0.00    -0.506 OA
ATOM     38  H   LIG d   1       9.397   9.417  -9.534  0.00  0.00     0.292 HD
ENDBRANCH   5  37
BRANCH   1  39
ATOM     39  C   LIG d   1       9.483   3.812  -8.566  0.00  0.00    -0.040 C 
ATOM     40  H   LIG d   1       9.964   3.221  -7.788  0.00  0.00     0.028 H 
ATOM     41  H   LIG d   1       8.441   3.508  -8.662  0.00  0.00     0.028 H 
ATOM     42  H   LIG d   1       9.997   3.652  -9.514  0.00  0.00     0.028 H 
ENDBRANCH   1  39
TORSDOF 8
ENDMDL
MODEL 8
REMARK VINA RESULT:      -4.8      3.009      6.742
REMARK  8 active torsions:
REMARK  status: ('A' for Active; 'I' for Inactive)
REMARK    1  A    between atoms: C_1  and  C_2 
REMARK    2  A    between atoms: C_6  and  O_8 
REMARK    3  A    between atoms: C_14  and  O_21 
REMARK    4  A    between atoms: C_15  and  C_18 
REMARK    5  A    between atoms: C_16  and  O_17 
REMARK    6  A    between atoms: C_18  and  N_41 
REMARK    7  A    between atoms: C_19  and  N_41 
REMARK    8  A    between atoms: C_20  and  N_41 
ROOT
ATOM      1  C   LIG d   1       4.556  -0.832 -12.679  0.00  0.00    -0.046 A 
ATOM      2  C   LIG d   1       3.665  -0.435 -11.693  0.00  0.00    -0.047 A 
ATOM      3  C   LIG d   1       3.922  -0.741 -10.362  0.00  0.00     0.037 A 
ATOM      4  C   LIG d   1       5.085  -1.459 -10.021  0.00  0.00     0.074 A 
ATOM      5  C   LIG d   1       5.970  -1.857 -11.024  0.00  0.00     0.129 A 
ATOM      6  C   LIG d   1       5.693  -1.541 -12.352  0.00  0.00    -0.017 A 
ATOM      7  C   LIG d   1       5.357  -1.780  -8.606  0.00  0.00     0.202 C 
ATOM      8  O   LIG d   1       6.207  -2.600  -8.316  0.00  0.00    -0.286 OA
ATOM      9  C   LIG d   1       4.587  -1.100  -7.550  0.00  0.00     0.075 A 
ATOM     10  C   LIG d   1       3.421  -0.383  -7.887  0.00  0.00     0.040 A 
ATOM     11  C   LIG d   1       2.694   0.257  -6.894  0.00  0.00    -0.008 A 
ATOM     12  C   LIG d   1       3.119   0.191  -5.568  0.00  0.00     0.129 A 
ATOM     13  C   LIG d   1       4.265  -0.511  -5.234  0.00  0.00     0.080 A 
ATOM     14  C   LIG d   1       5.004  -1.158  -6.217  0.00  0.00     0.140 A 
ATOM     15  C   LIG d   1       2.984  -0.319  -9.299  0.00  0.00     0.195 C 
ATOM     16  O   LIG d   1       1.870   0.075  -9.581  0.00  0.00    -0.287 OA
ATOM     17  H   LIG d   1       2.774   0.115 -11.960  0.00  0.00     0.063 H 
ATOM     18  H   LIG d   1       6.376  -1.848 -13.130  0.00  0.00     0.066 H 
ATOM     19  H   LIG d   1       1.799   0.805  -7.148  0.00  0.00     0.066 H 
ENDROOT
BRANCH  13  20
ATOM     20  C   LIG d   1       4.713  -0.572  -3.796  0.00  0.00     0.001 C 
ATOM     21  H   LIG d   1       3.906  -0.968  -3.181  0.00  0.00     0.087 H 
ATOM     22  H   LIG d   1       5.584  -1.223  -3.715  0.00  0.00     0.087 H 
BRANCH  20  23
ATOM     23  N   LIG d   1       5.083   0.788  -3.353  0.00  0.00     0.234 N 
ATOM     24  H   LIG d   1       4.598   1.475  -3.944  0.00  0.00     0.203 HD
BRANCH  23  25
ATOM     25  C   LIG d   1       4.674   0.990  -1.947  0.00  0.00    -0.043 C 
ATOM     26  H   LIG d   1       3.588   1.003  -1.863  0.00  0.00     0.078 H 
ATOM     27  H   LIG d   1       5.076   0.178  -1.341  0.00  0.00     0.078 H 
ATOM     28  H   LIG d   1       5.078   1.940  -1.595  0.00  0.00     0.078 H 
ENDBRANCH  23  25
BRANCH  23  29
ATOM     29  C   LIG d   1       6.542   0.984  -3.488  0.00  0.00    -0.043 C 
ATOM     30  H   LIG d   1       6.768   1.260  -4.518  0.00  0.00     0.078 H 
ATOM     31  H   LIG d   1       6.855   1.786  -2.820  0.00  0.00     0.078 H 
ATOM     32  H   LIG d   1       7.075   0.069  -3.231  0.00  0.00     0.078 H 
ENDBRANCH  23  29
ENDBRANCH  20  23
ENDBRANCH  13  20
BRANCH  12  33
ATOM     33  O   LIG d   1       2.405   0.818  -4.600  0.00  0.00    -0.506 OA
ATOM     34  H   LIG d   1       2.077   0.227  -3.908  0.00  0.00     0.292 HD
ENDBRANCH  12  33
BRANCH  14  35
ATOM     35  O   LIG d   1       6.126  -1.844  -5.884  0.00  0.00    -0.505 OA
ATOM     36  H   LIG d   1       5.960  -2.746  -5.579  0.00  0.00     0.292 HD
ENDBRANCH  14  35
BRANCH   5  37
ATOM     37  O   LIG d   1       7.093  -2.549 -10.707  0.00  0.00    -0.506 OA
ATOM     38  H   LIG d   1       7.134  -2.827  -9.783  0.00  0.00     0.292 HD
ENDBRANCH   5  37
BRANCH   1  39
ATOM     39  C   LIG d   1       4.275  -0.493 -14.120  0.00  0.00    -0.040 C 
ATOM     40  H   LIG d   1       4.004   0.559 -14.200  0.00  0.00     0.028 H 
ATOM     41  H   LIG d   1       5.166  -0.685 -14.718  0.00  0.00     0.028 H 
ATOM     42  H   LIG d   1       3.454  -1.109 -14.485  0.00  0.00     0.028 H 
ENDBRANCH   1  39
TORSDOF 8
ENDMDL
MODEL 9
REMARK VINA RESULT:      -4.8     10.017     11.251
REMARK  8 active torsions:
REMARK  status: ('A' for Active; 'I' for Inactive)
REMARK    1  A    between atoms: C_1  and  C_2 
REMARK    2  A    between atoms: C_6  and  O_8 
REMARK    3  A    between atoms: C_14  and  O_21 
REMARK    4  A    between atoms: C_15  and  C_18 
REMARK    5  A    between atoms: C_16  and  O_17 
REMARK    6  A    between atoms: C_18  and  N_41 
REMARK    7  A    between atoms: C_19  and  N_41 
REMARK    8  A    between atoms: C_20  and  N_41 
ROOT
ATOM      1  C   LIG d   1       9.948   8.591  -1.353  0.00  0.00    -0.046 A 
ATOM      2  C   LIG d   1      10.002   9.189  -2.602  0.00  0.00    -0.047 A 
ATOM      3  C   LIG d   1      10.064   8.403  -3.746  0.00  0.00     0.037 A 
ATOM      4  C   LIG d   1      10.076   6.999  -3.630  0.00  0.00     0.074 A 
ATOM      5  C   LIG d   1      10.027   6.409  -2.366  0.00  0.00     0.129 A 
ATOM      6  C   LIG d   1       9.966   7.217  -1.232  0.00  0.00    -0.017 A 
ATOM      7  C   LIG d   1      10.139   6.166  -4.847  0.00  0.00     0.202 C 
ATOM      8  O   LIG d   1      10.400   4.980  -4.766  0.00  0.00    -0.286 OA
ATOM      9  C   LIG d   1       9.884   6.784  -6.159  0.00  0.00     0.075 A 
ATOM     10  C   LIG d   1       9.874   8.188  -6.280  0.00  0.00     0.040 A 
ATOM     11  C   LIG d   1       9.636   8.773  -7.516  0.00  0.00    -0.008 A 
ATOM     12  C   LIG d   1       9.406   7.970  -8.632  0.00  0.00     0.129 A 
ATOM     13  C   LIG d   1       9.414   6.589  -8.517  0.00  0.00     0.080 A 
ATOM     14  C   LIG d   1       9.652   5.989  -7.286  0.00  0.00     0.140 A 
ATOM     15  C   LIG d   1      10.116   9.027  -5.086  0.00  0.00     0.195 C 
ATOM     16  O   LIG d   1      10.355  10.213  -5.205  0.00  0.00    -0.287 OA
ATOM     17  H   LIG d   1       9.992  10.266  -2.686  0.00  0.00     0.063 H 
ATOM     18  H   LIG d   1       9.928   6.763  -0.252  0.00  0.00     0.066 H 
ATOM     19  H   LIG d   1       9.630   9.848  -7.613  0.00  0.00     0.066 H 
ENDROOT
BRANCH  13  20
ATOM     20  C   LIG d   1       9.163   5.735  -9.733  0.00  0.00     0.001 C 
ATOM     21  H   LIG d   1       9.162   4.684  -9.444  0.00  0.00     0.087 H 
ATOM     22  H   LIG d   1       8.197   5.994 -10.165  0.00  0.00     0.087 H 
BRANCH  20  23
ATOM     23  N   LIG d   1      10.224   5.997 -10.728  0.00  0.00     0.234 N 
ATOM     24  H   LIG d   1      10.550   6.966 -10.620  0.00  0.00     0.203 HD
BRANCH  23  25
ATOM     25  C   LIG d   1      11.361   5.080 -10.507  0.00  0.00    -0.043 C 
ATOM     26  H   LIG d   1      11.343   4.685  -9.492  0.00  0.00     0.078 H 
ATOM     27  H   LIG d   1      11.294   4.256 -11.218  0.00  0.00     0.078 H 
ATOM     28  H   LIG d   1      12.292   5.625 -10.670  0.00  0.00     0.078 H 
ENDBRANCH  23  25
BRANCH  23  29
ATOM     29  C   LIG d   1       9.689   5.821 -12.095  0.00  0.00    -0.043 C 
ATOM     30  H   LIG d   1       8.655   6.165 -12.117  0.00  0.00     0.078 H 
ATOM     31  H   LIG d   1      10.285   6.415 -12.787  0.00  0.00     0.078 H 
ATOM     32  H   LIG d   1       9.730   4.772 -12.387  0.00  0.00     0.078 H 
ENDBRANCH  23  29
ENDBRANCH  20  23
ENDBRANCH  13  20
BRANCH  12  33
ATOM     33  O   LIG d   1       9.174   8.545  -9.839  0.00  0.00    -0.506 OA
ATOM     34  H   LIG d   1       8.325   8.301 -10.234  0.00  0.00     0.292 HD
ENDBRANCH  12  33
BRANCH  14  35
ATOM     35  O   LIG d   1       9.658   4.637  -7.179  0.00  0.00    -0.505 OA
ATOM     36  H   LIG d   1       9.060   4.293  -6.502  0.00  0.00     0.292 HD
ENDBRANCH  14  35
BRANCH   5  37
ATOM     37  O   LIG d   1      10.038   5.059  -2.242  0.00  0.00    -0.506 OA
ATOM     38  H   LIG d   1       9.163   4.669  -2.121  0.00  0.00     0.292 HD
ENDBRANCH   5  37
BRANCH   1  39
ATOM     39  C   LIG d   1       9.875   9.448  -0.116  0.00  0.00    -0.040 C 
ATOM     40  H   LIG d   1       8.962  10.043  -0.139  0.00  0.00     0.028 H 
ATOM     41  H   LIG d   1       9.871   8.811   0.769  0.00  0.00     0.028 H 
ATOM     42  H   LIG d   1      10.740  10.110  -0.082  0.00  0.00     0.028 H 
ENDBRANCH   1  39
TORSDOF 8
ENDMDL
MODEL 10
REMARK VINA RESULT:      -4.7      8.321     10.344
REMARK  8 active torsions:
REMARK  status: ('A' for Active; 'I' for Inactive)
REMARK    1  A    between atoms: C_1  and  C_2 
REMARK    2  A    between atoms: C_6  and  O_8 
REMARK    3  A    between atoms: C_14  and  O_21 
REMARK    4  A    between atoms: C_15  and  C_18 
REMARK    5  A    between atoms: C_16  and  O_17 
REMARK    6  A    between atoms: C_18  and  N_41 
REMARK    7  A    between atoms: C_19  and  N_41 
REMARK    8  A    between atoms: C_20  and  N_41 
ROOT
ATOM      1  C   LIG d   1      10.035   8.941  -1.395  0.00  0.00    -0.046 A 
ATOM      2  C   LIG d   1      10.048   8.591  -2.737  0.00  0.00    -0.047 A 
ATOM      3  C   LIG d   1      10.182   7.258  -3.105  0.00  0.00     0.037 A 
ATOM      4  C   LIG d   1      10.309   6.267  -2.112  0.00  0.00     0.074 A 
ATOM      5  C   LIG d   1      10.301   6.634  -0.764  0.00  0.00     0.129 A 
ATOM      6  C   LIG d   1      10.166   7.977  -0.418  0.00  0.00    -0.017 A 
ATOM      7  C   LIG d   1      10.448   4.852  -2.505  0.00  0.00     0.202 C 
ATOM      8  O   LIG d   1      10.806   4.021  -1.691  0.00  0.00    -0.286 OA
ATOM      9  C   LIG d   1      10.152   4.455  -3.892  0.00  0.00     0.075 A 
ATOM     10  C   LIG d   1      10.027   5.443  -4.889  0.00  0.00     0.040 A 
ATOM     11  C   LIG d   1       9.749   5.071  -6.197  0.00  0.00    -0.008 A 
ATOM     12  C   LIG d   1       9.593   3.724  -6.519  0.00  0.00     0.129 A 
ATOM     13  C   LIG d   1       9.714   2.750  -5.541  0.00  0.00     0.080 A 
ATOM     14  C   LIG d   1       9.993   3.106  -4.227  0.00  0.00     0.140 A 
ATOM     15  C   LIG d   1      10.191   6.869  -4.532  0.00  0.00     0.195 C 
ATOM     16  O   LIG d   1      10.332   7.709  -5.399  0.00  0.00    -0.287 OA
ATOM     17  H   LIG d   1       9.950   9.355  -3.495  0.00  0.00     0.063 H 
ATOM     18  H   LIG d   1      10.160   8.263   0.624  0.00  0.00     0.066 H 
ATOM     19  H   LIG d   1       9.654   5.825  -6.965  0.00  0.00     0.066 H 
ENDROOT
BRANCH  13  20
ATOM     20  C   LIG d   1       9.542   1.298  -5.905  0.00  0.00     0.001 C 
ATOM     21  H   LIG d   1       8.689   0.887  -5.366  0.00  0.00     0.087 H 
ATOM     22  H   LIG d   1       9.371   1.210  -6.978  0.00  0.00     0.087 H 
BRANCH  20  23
ATOM     23  N   LIG d   1      10.778   0.568  -5.551  0.00  0.00     0.234 N 
ATOM     24  H   LIG d   1      11.156   0.957  -4.679  0.00  0.00     0.203 HD
BRANCH  23  25
ATOM     25  C   LIG d   1      10.478  -0.865  -5.349  0.00  0.00    -0.043 C 
ATOM     26  H   LIG d   1      10.754  -1.175  -4.342  0.00  0.00     0.078 H 
ATOM     27  H   LIG d   1       9.411  -1.028  -5.500  0.00  0.00     0.078 H 
ATOM     28  H   LIG d   1      11.042  -1.449  -6.077  0.00  0.00     0.078 H 
ENDBRANCH  23  25
BRANCH  23  29
ATOM     29  C   LIG d   1      11.783   0.728  -6.623  0.00  0.00    -0.043 C 
ATOM     30  H   LIG d   1      11.797  -0.176  -7.233  0.00  0.00     0.078 H 
ATOM     31  H   LIG d   1      11.507   1.581  -7.244  0.00  0.00     0.078 H 
ATOM     32  H   LIG d   1      12.772   0.895  -6.197  0.00  0.00     0.078 H 
ENDBRANCH  23  29
ENDBRANCH  20  23
ENDBRANCH  13  20
BRANCH  12  33
ATOM     33  O   LIG d   1       9.322   3.364  -7.799  0.00  0.00    -0.506 OA
ATOM     34  H   LIG d   1      10.083   3.005  -8.276  0.00  0.00     0.292 HD
ENDBRANCH  12  33
BRANCH  14  35
ATOM     35  O   LIG d   1      10.110   2.149  -3.274  0.00  0.00    -0.505 OA
ATOM     36  H   LIG d   1      10.081   1.246  -3.617  0.00  0.00     0.292 HD
ENDBRANCH  14  35
BRANCH   5  37
ATOM     37  O   LIG d   1      10.423   5.689   0.200  0.00  0.00    -0.506 OA
ATOM     38  H   LIG d   1       9.582   5.412   0.587  0.00  0.00     0.292 HD
ENDBRANCH   5  37
BRANCH   1  39
ATOM     39  C   LIG d   1       9.885  10.388  -1.002  0.00  0.00    -0.040 C 
ATOM     40  H   LIG d   1       8.898  10.545  -0.566  0.00  0.00     0.028 H 
ATOM     41  H   LIG d   1      10.650  10.647  -0.270  0.00  0.00     0.028 H 
ATOM     42  H   LIG d   1       9.998  11.018  -1.884  0.00  0.00     0.028 H 
ENDBRANCH   1  39
TORSDOF 8
ENDMDL
