MODEL 1
REMARK VINA RESULT:      -6.3      0.000      0.000
REMARK  18 active torsions:
REMARK  status: ('A' for Active; 'I' for Inactive)
REMARK    1  A    between atoms: C_1  and  C_2 
REMARK    2  A    between atoms: C_2  and  O_4 
REMARK    3  A    between atoms: O_4  and  C_5 
REMARK    4  A    between atoms: C_5  and  C_6 
REMARK    5  A    between atoms: C_5  and  C_7 
REMARK    6  A    between atoms: C_5  and  C_37 
REMARK    7  A    between atoms: C_9  and  O_36 
REMARK    8  A    between atoms: C_12  and  C_35 
REMARK    9  A    between atoms: C_13  and  C_34 
REMARK   10  A    between atoms: C_17  and  C_33 
REMARK   11  A    between atoms: C_26  and  O_32 
REMARK   12  A    between atoms: C_29  and  C_30 
REMARK   13  A    between atoms: C_29  and  C_31 
REMARK   14  A    between atoms: C_37  and  C_39 
REMARK   15  A    between atoms: C_40  and  C_41 
REMARK   16  A    between atoms: C_41  and  C_42 
REMARK   17  A    between atoms: C_41  and  C_43 
REMARK   18  A    between atoms: C_41  and  O_44 
ROOT
ATOM      1  C   LIG d   1       6.074  -1.214  -5.144  0.00  0.00     0.038 C 
ATOM      2  H   LIG d   1       6.558  -0.815  -6.022  0.00  0.00     0.037 H 
ATOM      3  C   LIG d   1       7.027  -1.223  -3.923  0.00  0.00     0.063 C 
ATOM      4  H   LIG d   1       6.508  -0.841  -3.042  0.00  0.00     0.060 H 
ATOM      5  C   LIG d   1       7.439  -2.704  -3.696  0.00  0.00    -0.020 C 
ATOM      6  C   LIG d   1       7.078  -3.368  -5.046  0.00  0.00    -0.019 C 
ATOM      7  C   LIG d   1       5.719  -2.703  -5.333  0.00  0.00    -0.010 C 
ATOM      8  C   LIG d   1       5.214  -3.071  -6.703  0.00  0.00     0.013 C 
ATOM      9  C   LIG d   1       5.639  -4.484  -7.062  0.00  0.00     0.141 C 
ATOM     10  O   LIG d   1       5.636  -4.827  -8.238  0.00  0.00    -0.297 OA
ATOM     11  C   LIG d   1       6.062  -5.466  -6.006  0.00  0.00     0.040 C 
ATOM     12  C   LIG d   1       7.012  -4.875  -4.988  0.00  0.00    -0.019 C 
ATOM     13  H   LIG d   1       6.652  -5.161  -3.980  0.00  0.00     0.032 H 
ATOM     14  C   LIG d   1       8.419  -5.462  -5.149  0.00  0.00    -0.030 C 
ATOM     15  C   LIG d   1       8.339  -6.966  -5.032  0.00  0.00    -0.083 C 
ATOM     16  C   LIG d   1       7.424  -7.584  -5.738  0.00  0.00    -0.052 C 
ATOM     17  C   LIG d   1       6.541  -6.768  -6.627  0.00  0.00     0.015 C 
ATOM     18  H   LIG d   1       7.160  -6.467  -7.474  0.00  0.00     0.040 H 
ATOM     19  C   LIG d   1       5.390  -7.528  -7.206  0.00  0.00    -0.031 C 
ATOM     20  C   LIG d   1       5.068  -8.764  -6.841  0.00  0.00     0.157 C 
ATOM     21  C   LIG d   1       5.854  -9.471  -5.828  0.00  0.00     0.206 C 
ATOM     22  O   LIG d   1       5.377 -10.356  -5.155  0.00  0.00    -0.288 OA
ATOM     23  C   LIG d   1       7.313  -9.089  -5.669  0.00  0.00     0.052 C 
ATOM     24  H   LIG d   1       8.517  -2.776  -3.535  0.00  0.00     0.030 H 
ATOM     25  H   LIG d   1       6.895  -3.157  -2.876  0.00  0.00     0.030 H 
ATOM     26  H   LIG d   1       4.114  -2.997  -6.727  0.00  0.00     0.035 H 
ATOM     27  H   LIG d   1       5.590  -2.363  -7.459  0.00  0.00     0.035 H 
ATOM     28  H   LIG d   1       8.814  -5.258  -6.146  0.00  0.00     0.031 H 
ATOM     29  H   LIG d   1       9.083  -5.076  -4.382  0.00  0.00     0.031 H 
ATOM     30  H   LIG d   1       9.036  -7.472  -4.403  0.00  0.00     0.057 H 
ATOM     31  H   LIG d   1       4.775  -7.055  -7.960  0.00  0.00     0.062 H 
ENDROOT
BRANCH   1  32
ATOM     32  C   LIG d   1       4.804  -0.426  -4.814  0.00  0.00     0.177 C 
BRANCH  32  33
ATOM     33  O   LIG d   1       5.155   0.781  -4.136  0.00  0.00    -0.450 OA
BRANCH  33  34
ATOM     34  C   LIG d   1       4.320   1.206  -3.174  0.00  0.00     0.305 C 
ATOM     35  O   LIG d   1       3.368   1.891  -3.460  0.00  0.00    -0.251 OA
BRANCH  34  36
ATOM     36  C   LIG d   1       4.571   0.826  -1.737  0.00  0.00     0.033 C 
ATOM     37  H   LIG d   1       3.638   0.891  -1.177  0.00  0.00     0.034 H 
ATOM     38  H   LIG d   1       4.953  -0.193  -1.692  0.00  0.00     0.034 H 
ATOM     39  H   LIG d   1       5.302   1.510  -1.304  0.00  0.00     0.034 H 
ENDBRANCH  34  36
ENDBRANCH  33  34
ENDBRANCH  32  33
BRANCH  32  40
ATOM     40  C   LIG d   1       3.898  -1.271  -3.915  0.00  0.00    -0.017 C 
ATOM     41  H   LIG d   1       4.508  -1.948  -3.320  0.00  0.00     0.027 H 
ATOM     42  H   LIG d   1       3.330  -0.615  -3.255  0.00  0.00     0.027 H 
ATOM     43  H   LIG d   1       3.210  -1.848  -4.533  0.00  0.00     0.027 H 
ENDBRANCH  32  40
BRANCH  32  44
ATOM     44  C   LIG d   1       4.075  -0.091  -6.090  0.00  0.00     0.199 C 
ATOM     45  O   LIG d   1       2.862  -0.132  -6.124  0.00  0.00    -0.288 OA
BRANCH  44  46
ATOM     46  C   LIG d   1       4.827   0.282  -7.286  0.00  0.00    -0.016 C 
ATOM     47  C   LIG d   1       4.202   0.850  -8.319  0.00  0.00    -0.050 C 
ATOM     48  H   LIG d   1       3.139   1.035  -8.271  0.00  0.00     0.060 H 
ATOM     49  H   LIG d   1       5.891   0.098  -7.334  0.00  0.00     0.065 H 
BRANCH  47  50
ATOM     50  C   LIG d   1       4.978   1.235  -9.552  0.00  0.00     0.079 C 
BRANCH  50  51
ATOM     51  C   LIG d   1       6.067   0.194  -9.815  0.00  0.00    -0.033 C 
ATOM     52  H   LIG d   1       6.063  -0.078 -10.869  0.00  0.00     0.026 H 
ATOM     53  H   LIG d   1       7.040   0.612  -9.552  0.00  0.00     0.026 H 
ATOM     54  H   LIG d   1       5.877  -0.692  -9.209  0.00  0.00     0.026 H 
ENDBRANCH  50  51
BRANCH  50  55
ATOM     55  C   LIG d   1       4.031   1.298 -10.752  0.00  0.00    -0.033 C 
ATOM     56  H   LIG d   1       4.612   1.412 -11.667  0.00  0.00     0.026 H 
ATOM     57  H   LIG d   1       3.450   0.377 -10.804  0.00  0.00     0.026 H 
ATOM     58  H   LIG d   1       3.357   2.147 -10.640  0.00  0.00     0.026 H 
ENDBRANCH  50  55
BRANCH  50  59
ATOM     59  O   LIG d   1       5.580   2.516  -9.354  0.00  0.00    -0.385 OA
ATOM     60  H   LIG d   1       5.014   3.260  -9.598  0.00  0.00     0.211 HD
ENDBRANCH  50  59
ENDBRANCH  47  50
ENDBRANCH  44  46
ENDBRANCH  32  44
ENDBRANCH   1  32
BRANCH   7  61
ATOM     61  C   LIG d   1       4.680  -3.023  -4.252  0.00  0.00    -0.058 C 
ATOM     62  H   LIG d   1       4.679  -4.095  -4.055  0.00  0.00     0.024 H 
ATOM     63  H   LIG d   1       4.929  -2.486  -3.338  0.00  0.00     0.024 H 
ATOM     64  H   LIG d   1       3.691  -2.717  -4.596  0.00  0.00     0.024 H 
ENDBRANCH   7  61
BRANCH   3  65
ATOM     65  O   LIG d   1       8.186  -0.430  -4.193  0.00  0.00    -0.391 OA
ATOM     66  H   LIG d   1       9.021  -0.907  -4.090  0.00  0.00     0.210 HD
ENDBRANCH   3  65
BRANCH   6  67
ATOM     67  C   LIG d   1       8.107  -2.910  -6.087  0.00  0.00    -0.059 C 
ATOM     68  H   LIG d   1       7.901  -1.879  -6.373  0.00  0.00     0.024 H 
ATOM     69  H   LIG d   1       9.107  -2.977  -5.660  0.00  0.00     0.024 H 
ATOM     70  H   LIG d   1       8.043  -3.551  -6.966  0.00  0.00     0.024 H 
ENDBRANCH   6  67
BRANCH  11  71
ATOM     71  C   LIG d   1       4.791  -5.896  -5.249  0.00  0.00    -0.052 C 
ATOM     72  H   LIG d   1       4.294  -6.695  -5.797  0.00  0.00     0.024 H 
ATOM     73  H   LIG d   1       5.063  -6.252  -4.256  0.00  0.00     0.024 H 
ATOM     74  H   LIG d   1       4.117  -5.044  -5.158  0.00  0.00     0.024 H 
ENDBRANCH  11  71
BRANCH  23  75
ATOM     75  C   LIG d   1       7.817  -9.629  -4.325  0.00  0.00    -0.049 C 
ATOM     76  H   LIG d   1       8.645 -10.317  -4.497  0.00  0.00     0.024 H 
ATOM     77  H   LIG d   1       8.156  -8.800  -3.704  0.00  0.00     0.024 H 
ATOM     78  H   LIG d   1       7.007 -10.154  -3.818  0.00  0.00     0.024 H 
ENDBRANCH  23  75
BRANCH  23  79
ATOM     79  C   LIG d   1       8.131  -9.724  -6.802  0.00  0.00    -0.049 C 
ATOM     80  H   LIG d   1       8.201  -9.025  -7.635  0.00  0.00     0.024 H 
ATOM     81  H   LIG d   1       9.132  -9.959  -6.440  0.00  0.00     0.024 H 
ATOM     82  H   LIG d   1       7.641 -10.638  -7.135  0.00  0.00     0.024 H 
ENDBRANCH  23  79
BRANCH  20  83
ATOM     83  O   LIG d   1       4.009  -9.389  -7.417  0.00  0.00    -0.504 OA
ATOM     84  H   LIG d   1       4.187 -10.304  -7.675  0.00  0.00     0.292 HD
ENDBRANCH  20  83
TORSDOF 18
ENDMDL
MODEL 2
REMARK VINA RESULT:      -5.9      4.321      7.311
REMARK  18 active torsions:
REMARK  status: ('A' for Active; 'I' for Inactive)
REMARK    1  A    between atoms: C_1  and  C_2 
REMARK    2  A    between atoms: C_2  and  O_4 
REMARK    3  A    between atoms: O_4  and  C_5 
REMARK    4  A    between atoms: C_5  and  C_6 
REMARK    5  A    between atoms: C_5  and  C_7 
REMARK    6  A    between atoms: C_5  and  C_37 
REMARK    7  A    between atoms: C_9  and  O_36 
REMARK    8  A    between atoms: C_12  and  C_35 
REMARK    9  A    between atoms: C_13  and  C_34 
REMARK   10  A    between atoms: C_17  and  C_33 
REMARK   11  A    between atoms: C_26  and  O_32 
REMARK   12  A    between atoms: C_29  and  C_30 
REMARK   13  A    between atoms: C_29  and  C_31 
REMARK   14  A    between atoms: C_37  and  C_39 
REMARK   15  A    between atoms: C_40  and  C_41 
REMARK   16  A    between atoms: C_41  and  C_42 
REMARK   17  A    between atoms: C_41  and  C_43 
REMARK   18  A    between atoms: C_41  and  O_44 
ROOT
ATOM      1  C   LIG d   1       6.748   0.669  -7.604  0.00  0.00     0.038 C 
ATOM      2  H   LIG d   1       6.269   1.576  -7.269  0.00  0.00     0.037 H 
ATOM      3  C   LIG d   1       7.704   0.938  -8.793  0.00  0.00     0.063 C 
ATOM      4  H   LIG d   1       8.651   0.417  -8.634  0.00  0.00     0.060 H 
ATOM      5  C   LIG d   1       6.999   0.383 -10.061  0.00  0.00    -0.020 C 
ATOM      6  C   LIG d   1       5.526   0.258  -9.603  0.00  0.00    -0.019 C 
ATOM      7  C   LIG d   1       5.719  -0.320  -8.189  0.00  0.00    -0.010 C 
ATOM      8  C   LIG d   1       4.409  -0.390  -7.449  0.00  0.00     0.013 C 
ATOM      9  C   LIG d   1       3.272  -0.682  -8.413  0.00  0.00     0.141 C 
ATOM     10  O   LIG d   1       2.122  -0.429  -8.073  0.00  0.00    -0.297 OA
ATOM     11  C   LIG d   1       3.528  -1.271  -9.772  0.00  0.00     0.040 C 
ATOM     12  C   LIG d   1       4.679  -0.612 -10.500  0.00  0.00    -0.019 C 
ATOM     13  H   LIG d   1       5.326  -1.412 -10.909  0.00  0.00     0.032 H 
ATOM     14  C   LIG d   1       4.171   0.210 -11.691  0.00  0.00    -0.030 C 
ATOM     15  C   LIG d   1       3.374  -0.691 -12.604  0.00  0.00    -0.083 C 
ATOM     16  C   LIG d   1       2.457  -1.454 -12.059  0.00  0.00    -0.052 C 
ATOM     17  C   LIG d   1       2.246  -1.364 -10.581  0.00  0.00     0.015 C 
ATOM     18  H   LIG d   1       1.731  -0.418 -10.406  0.00  0.00     0.040 H 
ATOM     19  C   LIG d   1       1.352  -2.429 -10.029  0.00  0.00    -0.031 C 
ATOM     20  C   LIG d   1       0.919  -3.465 -10.738  0.00  0.00     0.157 C 
ATOM     21  C   LIG d   1       1.297  -3.617 -12.145  0.00  0.00     0.206 C 
ATOM     22  O   LIG d   1       1.322  -4.699 -12.685  0.00  0.00    -0.288 OA
ATOM     23  C   LIG d   1       1.621  -2.361 -12.930  0.00  0.00     0.052 C 
ATOM     24  H   LIG d   1       7.063   1.107 -10.877  0.00  0.00     0.030 H 
ATOM     25  H   LIG d   1       7.400  -0.576 -10.364  0.00  0.00     0.030 H 
ATOM     26  H   LIG d   1       4.456  -1.182  -6.682  0.00  0.00     0.035 H 
ATOM     27  H   LIG d   1       4.214   0.552  -6.913  0.00  0.00     0.035 H 
ATOM     28  H   LIG d   1       3.483   0.989 -11.360  0.00  0.00     0.031 H 
ATOM     29  H   LIG d   1       5.004   0.637 -12.242  0.00  0.00     0.031 H 
ATOM     30  H   LIG d   1       3.565  -0.661 -13.653  0.00  0.00     0.057 H 
ATOM     31  H   LIG d   1       1.040  -2.368  -8.995  0.00  0.00     0.062 H 
ENDROOT
BRANCH   1  32
ATOM     32  C   LIG d   1       7.507  -0.005  -6.459  0.00  0.00     0.177 C 
BRANCH  32  33
ATOM     33  O   LIG d   1       8.867   0.435  -6.465  0.00  0.00    -0.450 OA
BRANCH  33  34
ATOM     34  C   LIG d   1       9.810  -0.495  -6.243  0.00  0.00     0.305 C 
ATOM     35  O   LIG d   1      10.049  -0.855  -5.115  0.00  0.00    -0.251 OA
BRANCH  34  36
ATOM     36  C   LIG d   1      10.570  -1.088  -7.401  0.00  0.00     0.033 C 
ATOM     37  H   LIG d   1      11.009  -2.039  -7.097  0.00  0.00     0.034 H 
ATOM     38  H   LIG d   1       9.891  -1.252  -8.236  0.00  0.00     0.034 H 
ATOM     39  H   LIG d   1      11.362  -0.403  -7.704  0.00  0.00     0.034 H 
ENDBRANCH  34  36
ENDBRANCH  33  34
ENDBRANCH  32  33
BRANCH  32  40
ATOM     40  C   LIG d   1       7.463  -1.524  -6.641  0.00  0.00    -0.017 C 
ATOM     41  H   LIG d   1       7.658  -1.770  -7.684  0.00  0.00     0.027 H 
ATOM     42  H   LIG d   1       8.220  -1.987  -6.009  0.00  0.00     0.027 H 
ATOM     43  H   LIG d   1       6.477  -1.894  -6.358  0.00  0.00     0.027 H 
ENDBRANCH  32  40
BRANCH  32  44
ATOM     44  C   LIG d   1       6.867   0.363  -5.146  0.00  0.00     0.199 C 
ATOM     45  O   LIG d   1       7.067   1.456  -4.658  0.00  0.00    -0.288 OA
BRANCH  44  46
ATOM     46  C   LIG d   1       6.004  -0.597  -4.458  0.00  0.00    -0.016 C 
ATOM     47  C   LIG d   1       4.777  -0.238  -4.075  0.00  0.00    -0.050 C 
ATOM     48  H   LIG d   1       4.421   0.763  -4.273  0.00  0.00     0.060 H 
ATOM     49  H   LIG d   1       6.360  -1.598  -4.261  0.00  0.00     0.065 H 
BRANCH  47  50
ATOM     50  C   LIG d   1       3.888  -1.227  -3.368  0.00  0.00     0.079 C 
BRANCH  50  51
ATOM     51  C   LIG d   1       4.471  -1.541  -1.989  0.00  0.00    -0.033 C 
ATOM     52  H   LIG d   1       5.558  -1.575  -2.053  0.00  0.00     0.026 H 
ATOM     53  H   LIG d   1       4.173  -0.765  -1.283  0.00  0.00     0.026 H 
ATOM     54  H   LIG d   1       4.096  -2.506  -1.647  0.00  0.00     0.026 H 
ENDBRANCH  50  51
BRANCH  50  55
ATOM     55  C   LIG d   1       2.488  -0.630  -3.206  0.00  0.00    -0.033 C 
ATOM     56  H   LIG d   1       2.158  -0.754  -2.175  0.00  0.00     0.026 H 
ATOM     57  H   LIG d   1       2.515   0.431  -3.453  0.00  0.00     0.026 H 
ATOM     58  H   LIG d   1       1.795  -1.142  -3.874  0.00  0.00     0.026 H 
ENDBRANCH  50  55
BRANCH  50  59
ATOM     59  O   LIG d   1       3.807  -2.429  -4.137  0.00  0.00    -0.385 OA
ATOM     60  H   LIG d   1       4.538  -3.042  -3.986  0.00  0.00     0.211 HD
ENDBRANCH  50  59
ENDBRANCH  47  50
ENDBRANCH  44  46
ENDBRANCH  32  44
ENDBRANCH   1  32
BRANCH   7  61
ATOM     61  C   LIG d   1       6.419  -1.684  -8.212  0.00  0.00    -0.058 C 
ATOM     62  H   LIG d   1       7.470  -1.556  -7.950  0.00  0.00     0.024 H 
ATOM     63  H   LIG d   1       5.943  -2.349  -7.493  0.00  0.00     0.024 H 
ATOM     64  H   LIG d   1       6.344  -2.114  -9.211  0.00  0.00     0.024 H 
ENDBRANCH   7  61
BRANCH   3  65
ATOM     65  O   LIG d   1       7.934   2.341  -8.936  0.00  0.00    -0.391 OA
ATOM     66  H   LIG d   1       8.171   2.787  -8.112  0.00  0.00     0.210 HD
ENDBRANCH   3  65
BRANCH   6  67
ATOM     67  C   LIG d   1       4.940   1.672  -9.509  0.00  0.00    -0.059 C 
ATOM     68  H   LIG d   1       3.889   1.649  -9.799  0.00  0.00     0.024 H 
ATOM     69  H   LIG d   1       5.027   2.032  -8.484  0.00  0.00     0.024 H 
ATOM     70  H   LIG d   1       5.487   2.336 -10.176  0.00  0.00     0.024 H 
ENDBRANCH   6  67
BRANCH  11  71
ATOM     71  C   LIG d   1       3.908  -2.749  -9.561  0.00  0.00    -0.052 C 
ATOM     72  H   LIG d   1       3.152  -3.387 -10.017  0.00  0.00     0.024 H 
ATOM     73  H   LIG d   1       4.875  -2.945 -10.025  0.00  0.00     0.024 H 
ATOM     74  H   LIG d   1       3.968  -2.960  -8.494  0.00  0.00     0.024 H 
ENDBRANCH  11  71
BRANCH  23  75
ATOM     75  C   LIG d   1       2.371  -2.761 -14.207  0.00  0.00    -0.049 C 
ATOM     76  H   LIG d   1       1.749  -2.548 -15.076  0.00  0.00     0.024 H 
ATOM     77  H   LIG d   1       3.299  -2.196 -14.277  0.00  0.00     0.024 H 
ATOM     78  H   LIG d   1       2.597  -3.828 -14.176  0.00  0.00     0.024 H 
ENDBRANCH  23  75
BRANCH  23  79
ATOM     79  C   LIG d   1       0.316  -1.652 -13.318  0.00  0.00    -0.049 C 
ATOM     80  H   LIG d   1      -0.500  -2.375 -13.330  0.00  0.00     0.024 H 
ATOM     81  H   LIG d   1       0.097  -0.869 -12.592  0.00  0.00     0.024 H 
ATOM     82  H   LIG d   1       0.424  -1.209 -14.308  0.00  0.00     0.024 H 
ENDBRANCH  23  79
BRANCH  20  83
ATOM     83  O   LIG d   1       0.106  -4.390 -10.165  0.00  0.00    -0.504 OA
ATOM     84  H   LIG d   1       0.537  -5.239  -9.995  0.00  0.00     0.292 HD
ENDBRANCH  20  83
TORSDOF 18
ENDMDL
MODEL 3
REMARK VINA RESULT:      -5.8      2.602      3.820
REMARK  18 active torsions:
REMARK  status: ('A' for Active; 'I' for Inactive)
REMARK    1  A    between atoms: C_1  and  C_2 
REMARK    2  A    between atoms: C_2  and  O_4 
REMARK    3  A    between atoms: O_4  and  C_5 
REMARK    4  A    between atoms: C_5  and  C_6 
REMARK    5  A    between atoms: C_5  and  C_7 
REMARK    6  A    between atoms: C_5  and  C_37 
REMARK    7  A    between atoms: C_9  and  O_36 
REMARK    8  A    between atoms: C_12  and  C_35 
REMARK    9  A    between atoms: C_13  and  C_34 
REMARK   10  A    between atoms: C_17  and  C_33 
REMARK   11  A    between atoms: C_26  and  O_32 
REMARK   12  A    between atoms: C_29  and  C_30 
REMARK   13  A    between atoms: C_29  and  C_31 
REMARK   14  A    between atoms: C_37  and  C_39 
REMARK   15  A    between atoms: C_40  and  C_41 
REMARK   16  A    between atoms: C_41  and  C_42 
REMARK   17  A    between atoms: C_41  and  C_43 
REMARK   18  A    between atoms: C_41  and  O_44 
ROOT
ATOM      1  C   LIG d   1       5.797  -0.919  -5.507  0.00  0.00     0.038 C 
ATOM      2  H   LIG d   1       5.264  -1.264  -6.379  0.00  0.00     0.037 H 
ATOM      3  C   LIG d   1       6.792   0.214  -5.860  0.00  0.00     0.063 C 
ATOM      4  H   LIG d   1       6.711   1.021  -5.129  0.00  0.00     0.060 H 
ATOM      5  C   LIG d   1       8.212  -0.412  -5.804  0.00  0.00    -0.020 C 
ATOM      6  C   LIG d   1       7.918  -1.930  -5.879  0.00  0.00    -0.019 C 
ATOM      7  C   LIG d   1       6.705  -2.029  -4.936  0.00  0.00    -0.010 C 
ATOM      8  C   LIG d   1       6.113  -3.413  -4.958  0.00  0.00     0.013 C 
ATOM      9  C   LIG d   1       7.202  -4.451  -5.165  0.00  0.00     0.141 C 
ATOM     10  O   LIG d   1       6.894  -5.569  -5.559  0.00  0.00    -0.297 OA
ATOM     11  C   LIG d   1       8.647  -4.134  -4.897  0.00  0.00     0.040 C 
ATOM     12  C   LIG d   1       9.079  -2.799  -5.462  0.00  0.00    -0.019 C 
ATOM     13  H   LIG d   1       9.641  -2.262  -4.673  0.00  0.00     0.032 H 
ATOM     14  C   LIG d   1      10.035  -2.992  -6.646  0.00  0.00    -0.030 C 
ATOM     15  C   LIG d   1      11.217  -3.816  -6.193  0.00  0.00    -0.083 C 
ATOM     16  C   LIG d   1      10.970  -4.919  -5.526  0.00  0.00    -0.052 C 
ATOM     17  C   LIG d   1       9.545  -5.298  -5.283  0.00  0.00     0.015 C 
ATOM     18  H   LIG d   1       9.157  -5.649  -6.240  0.00  0.00     0.040 H 
ATOM     19  C   LIG d   1       9.373  -6.434  -4.325  0.00  0.00    -0.031 C 
ATOM     20  C   LIG d   1      10.368  -6.955  -3.616  0.00  0.00     0.157 C 
ATOM     21  C   LIG d   1      11.730  -6.434  -3.749  0.00  0.00     0.206 C 
ATOM     22  O   LIG d   1      12.542  -6.537  -2.857  0.00  0.00    -0.288 OA
ATOM     23  C   LIG d   1      12.116  -5.787  -5.065  0.00  0.00     0.052 C 
ATOM     24  H   LIG d   1       8.792  -0.113  -6.680  0.00  0.00     0.030 H 
ATOM     25  H   LIG d   1       8.735  -0.158  -4.890  0.00  0.00     0.030 H 
ATOM     26  H   LIG d   1       5.590  -3.610  -4.007  0.00  0.00     0.035 H 
ATOM     27  H   LIG d   1       5.356  -3.500  -5.754  0.00  0.00     0.035 H 
ATOM     28  H   LIG d   1       9.556  -3.563  -7.442  0.00  0.00     0.031 H 
ATOM     29  H   LIG d   1      10.385  -2.032  -7.012  0.00  0.00     0.031 H 
ATOM     30  H   LIG d   1      12.200  -3.490  -6.445  0.00  0.00     0.057 H 
ATOM     31  H   LIG d   1       8.388  -6.859  -4.187  0.00  0.00     0.062 H 
ENDROOT
BRANCH   1  32
ATOM     32  C   LIG d   1       4.826  -0.449  -4.421  0.00  0.00     0.177 C 
BRANCH  32  33
ATOM     33  O   LIG d   1       5.291   0.784  -3.868  0.00  0.00    -0.450 OA
BRANCH  33  34
ATOM     34  C   LIG d   1       4.509   1.373  -2.949  0.00  0.00     0.305 C 
ATOM     35  O   LIG d   1       3.752   2.255  -3.277  0.00  0.00    -0.251 OA
BRANCH  34  36
ATOM     36  C   LIG d   1       4.579   0.935  -1.509  0.00  0.00     0.033 C 
ATOM     37  H   LIG d   1       4.967  -0.083  -1.458  0.00  0.00     0.034 H 
ATOM     38  H   LIG d   1       5.238   1.604  -0.957  0.00  0.00     0.034 H 
ATOM     39  H   LIG d   1       3.580   0.965  -1.072  0.00  0.00     0.034 H 
ENDBRANCH  34  36
ENDBRANCH  33  34
ENDBRANCH  32  33
BRANCH  32  40
ATOM     40  C   LIG d   1       4.744  -1.505  -3.317  0.00  0.00    -0.017 C 
ATOM     41  H   LIG d   1       4.155  -1.117  -2.487  0.00  0.00     0.027 H 
ATOM     42  H   LIG d   1       4.272  -2.405  -3.710  0.00  0.00     0.027 H 
ATOM     43  H   LIG d   1       5.749  -1.744  -2.969  0.00  0.00     0.027 H 
ENDBRANCH  32  40
BRANCH  32  44
ATOM     44  C   LIG d   1       3.460  -0.245  -5.023  0.00  0.00     0.199 C 
ATOM     45  O   LIG d   1       2.470  -0.586  -4.410  0.00  0.00    -0.288 OA
BRANCH  44  46
ATOM     46  C   LIG d   1       3.326   0.364  -6.346  0.00  0.00    -0.016 C 
ATOM     47  C   LIG d   1       3.114  -0.404  -7.417  0.00  0.00    -0.050 C 
ATOM     48  H   LIG d   1       3.040  -1.476  -7.306  0.00  0.00     0.060 H 
ATOM     49  H   LIG d   1       3.399   1.436  -6.456  0.00  0.00     0.065 H 
BRANCH  47  50
ATOM     50  C   LIG d   1       2.976   0.223  -8.780  0.00  0.00     0.079 C 
BRANCH  50  51
ATOM     51  C   LIG d   1       1.768  -0.382  -9.499  0.00  0.00    -0.033 C 
ATOM     52  H   LIG d   1       2.095  -1.218 -10.116  0.00  0.00     0.026 H 
ATOM     53  H   LIG d   1       1.046  -0.736  -8.761  0.00  0.00     0.026 H 
ATOM     54  H   LIG d   1       1.302   0.376 -10.129  0.00  0.00     0.026 H 
ENDBRANCH  50  51
BRANCH  50  55
ATOM     55  C   LIG d   1       2.776   1.733  -8.629  0.00  0.00    -0.033 C 
ATOM     56  H   LIG d   1       3.010   2.029  -7.607  0.00  0.00     0.026 H 
ATOM     57  H   LIG d   1       3.438   2.257  -9.319  0.00  0.00     0.026 H 
ATOM     58  H   LIG d   1       1.741   1.987  -8.854  0.00  0.00     0.026 H 
ENDBRANCH  50  55
BRANCH  50  59
ATOM     59  O   LIG d   1       4.159  -0.028  -9.541  0.00  0.00    -0.385 OA
ATOM     60  H   LIG d   1       4.965  -0.080  -9.010  0.00  0.00     0.211 HD
ENDBRANCH  50  59
ENDBRANCH  47  50
ENDBRANCH  44  46
ENDBRANCH  32  44
ENDBRANCH   1  32
BRANCH   7  61
ATOM     61  C   LIG d   1       7.047  -1.591  -3.507  0.00  0.00    -0.058 C 
ATOM     62  H   LIG d   1       7.663  -0.692  -3.540  0.00  0.00     0.024 H 
ATOM     63  H   LIG d   1       6.128  -1.382  -2.961  0.00  0.00     0.024 H 
ATOM     64  H   LIG d   1       7.595  -2.388  -3.004  0.00  0.00     0.024 H 
ENDBRANCH   7  61
BRANCH   3  65
ATOM     65  O   LIG d   1       6.529   0.713  -7.173  0.00  0.00    -0.391 OA
ATOM     66  H   LIG d   1       6.944   0.198  -7.879  0.00  0.00     0.210 HD
ENDBRANCH   3  65
BRANCH   6  67
ATOM     67  C   LIG d   1       7.486  -2.255  -7.314  0.00  0.00    -0.059 C 
ATOM     68  H   LIG d   1       6.407  -2.128  -7.406  0.00  0.00     0.024 H 
ATOM     69  H   LIG d   1       7.992  -1.583  -8.006  0.00  0.00     0.024 H 
ATOM     70  H   LIG d   1       7.751  -3.286  -7.548  0.00  0.00     0.024 H 
ENDBRANCH   6  67
BRANCH  11  71
ATOM     71  C   LIG d   1       8.820  -4.061  -3.368  0.00  0.00    -0.052 C 
ATOM     72  H   LIG d   1       8.043  -3.425  -2.945  0.00  0.00     0.024 H 
ATOM     73  H   LIG d   1       8.741  -5.062  -2.945  0.00  0.00     0.024 H 
ATOM     74  H   LIG d   1       9.799  -3.643  -3.133  0.00  0.00     0.024 H 
ENDBRANCH  11  71
BRANCH  23  75
ATOM     75  C   LIG d   1      13.394  -4.966  -4.851  0.00  0.00    -0.049 C 
ATOM     76  H   LIG d   1      13.899  -4.824  -5.807  0.00  0.00     0.024 H 
ATOM     77  H   LIG d   1      13.137  -3.995  -4.429  0.00  0.00     0.024 H 
ATOM     78  H   LIG d   1      14.056  -5.496  -4.166  0.00  0.00     0.024 H 
ENDBRANCH  23  75
BRANCH  23  79
ATOM     79  C   LIG d   1      12.393  -6.881  -6.107  0.00  0.00    -0.049 C 
ATOM     80  H   LIG d   1      12.443  -7.850  -5.611  0.00  0.00     0.024 H 
ATOM     81  H   LIG d   1      11.592  -6.891  -6.845  0.00  0.00     0.024 H 
ATOM     82  H   LIG d   1      13.342  -6.678  -6.603  0.00  0.00     0.024 H 
ENDBRANCH  23  79
BRANCH  20  83
ATOM     83  O   LIG d   1      10.132  -7.989  -2.769  0.00  0.00    -0.504 OA
ATOM     84  H   LIG d   1      10.428  -8.847  -3.105  0.00  0.00     0.292 HD
ENDBRANCH  20  83
TORSDOF 18
ENDMDL
MODEL 4
REMARK VINA RESULT:      -5.8      1.712      3.814
REMARK  18 active torsions:
REMARK  status: ('A' for Active; 'I' for Inactive)
REMARK    1  A    between atoms: C_1  and  C_2 
REMARK    2  A    between atoms: C_2  and  O_4 
REMARK    3  A    between atoms: O_4  and  C_5 
REMARK    4  A    between atoms: C_5  and  C_6 
REMARK    5  A    between atoms: C_5  and  C_7 
REMARK    6  A    between atoms: C_5  and  C_37 
REMARK    7  A    between atoms: C_9  and  O_36 
REMARK    8  A    between atoms: C_12  and  C_35 
REMARK    9  A    between atoms: C_13  and  C_34 
REMARK   10  A    between atoms: C_17  and  C_33 
REMARK   11  A    between atoms: C_26  and  O_32 
REMARK   12  A    between atoms: C_29  and  C_30 
REMARK   13  A    between atoms: C_29  and  C_31 
REMARK   14  A    between atoms: C_37  and  C_39 
REMARK   15  A    between atoms: C_40  and  C_41 
REMARK   16  A    between atoms: C_41  and  C_42 
REMARK   17  A    between atoms: C_41  and  C_43 
REMARK   18  A    between atoms: C_41  and  O_44 
ROOT
ATOM      1  C   LIG d   1       6.566  -2.472  -7.427  0.00  0.00     0.038 C 
ATOM      2  H   LIG d   1       7.185  -2.580  -8.304  0.00  0.00     0.037 H 
ATOM      3  C   LIG d   1       7.369  -1.906  -6.229  0.00  0.00     0.063 C 
ATOM      4  H   LIG d   1       6.796  -1.118  -5.736  0.00  0.00     0.060 H 
ATOM      5  C   LIG d   1       7.595  -3.091  -5.250  0.00  0.00    -0.020 C 
ATOM      6  C   LIG d   1       7.321  -4.326  -6.143  0.00  0.00    -0.019 C 
ATOM      7  C   LIG d   1       6.080  -3.845  -6.917  0.00  0.00    -0.010 C 
ATOM      8  C   LIG d   1       5.699  -4.827  -7.992  0.00  0.00     0.013 C 
ATOM      9  C   LIG d   1       6.010  -6.245  -7.548  0.00  0.00     0.141 C 
ATOM     10  O   LIG d   1       6.105  -7.128  -8.393  0.00  0.00    -0.297 OA
ATOM     11  C   LIG d   1       6.206  -6.587  -6.098  0.00  0.00     0.040 C 
ATOM     12  C   LIG d   1       7.091  -5.600  -5.367  0.00  0.00    -0.019 C 
ATOM     13  H   LIG d   1       6.592  -5.335  -4.415  0.00  0.00     0.032 H 
ATOM     14  C   LIG d   1       8.439  -6.239  -5.009  0.00  0.00    -0.030 C 
ATOM     15  C   LIG d   1       8.189  -7.482  -4.187  0.00  0.00    -0.083 C 
ATOM     16  C   LIG d   1       7.299  -8.337  -4.631  0.00  0.00    -0.052 C 
ATOM     17  C   LIG d   1       6.614  -8.040  -5.926  0.00  0.00     0.015 C 
ATOM     18  H   LIG d   1       7.352  -8.222  -6.708  0.00  0.00     0.040 H 
ATOM     19  C   LIG d   1       5.462  -8.947  -6.226  0.00  0.00    -0.031 C 
ATOM     20  C   LIG d   1       4.973  -9.825  -5.358  0.00  0.00     0.157 C 
ATOM     21  C   LIG d   1       5.561  -9.962  -4.024  0.00  0.00     0.206 C 
ATOM     22  O   LIG d   1       4.921 -10.378  -3.085  0.00  0.00    -0.288 OA
ATOM     23  C   LIG d   1       7.024  -9.603  -3.855  0.00  0.00     0.052 C 
ATOM     24  H   LIG d   1       8.634  -3.111  -4.914  0.00  0.00     0.030 H 
ATOM     25  H   LIG d   1       6.917  -3.058  -4.406  0.00  0.00     0.030 H 
ATOM     26  H   LIG d   1       4.621  -4.737  -8.214  0.00  0.00     0.035 H 
ATOM     27  H   LIG d   1       6.230  -4.602  -8.931  0.00  0.00     0.035 H 
ATOM     28  H   LIG d   1       8.962  -6.572  -5.906  0.00  0.00     0.031 H 
ATOM     29  H   LIG d   1       9.048  -5.546  -4.438  0.00  0.00     0.031 H 
ATOM     30  H   LIG d   1       8.753  -7.631  -3.294  0.00  0.00     0.057 H 
ATOM     31  H   LIG d   1       4.989  -8.890  -7.197  0.00  0.00     0.062 H 
ENDROOT
BRANCH   1  32
ATOM     32  C   LIG d   1       5.356  -1.581  -7.718  0.00  0.00     0.177 C 
BRANCH  32  33
ATOM     33  O   LIG d   1       4.168  -2.375  -7.715  0.00  0.00    -0.450 OA
BRANCH  33  34
ATOM     34  C   LIG d   1       3.265  -2.125  -8.676  0.00  0.00     0.305 C 
ATOM     35  O   LIG d   1       2.577  -1.133  -8.615  0.00  0.00    -0.251 OA
BRANCH  34  36
ATOM     36  C   LIG d   1       3.107  -3.081  -9.830  0.00  0.00     0.033 C 
ATOM     37  H   LIG d   1       3.663  -3.996  -9.620  0.00  0.00     0.034 H 
ATOM     38  H   LIG d   1       2.053  -3.319  -9.964  0.00  0.00     0.034 H 
ATOM     39  H   LIG d   1       3.496  -2.621 -10.738  0.00  0.00     0.034 H 
ENDBRANCH  34  36
ENDBRANCH  33  34
ENDBRANCH  32  33
BRANCH  32  40
ATOM     40  C   LIG d   1       5.525  -0.922  -9.089  0.00  0.00    -0.017 C 
ATOM     41  H   LIG d   1       5.474   0.161  -8.981  0.00  0.00     0.027 H 
ATOM     42  H   LIG d   1       6.492  -1.201  -9.509  0.00  0.00     0.027 H 
ATOM     43  H   LIG d   1       4.730  -1.260  -9.754  0.00  0.00     0.027 H 
ENDBRANCH  32  40
BRANCH  32  44
ATOM     44  C   LIG d   1       5.250  -0.515  -6.659  0.00  0.00     0.199 C 
ATOM     45  O   LIG d   1       5.999   0.439  -6.681  0.00  0.00    -0.288 OA
BRANCH  44  46
ATOM     46  C   LIG d   1       4.243  -0.630  -5.604  0.00  0.00    -0.016 C 
ATOM     47  C   LIG d   1       4.581  -0.411  -4.331  0.00  0.00    -0.050 C 
ATOM     48  H   LIG d   1       5.599  -0.149  -4.080  0.00  0.00     0.060 H 
ATOM     49  H   LIG d   1       3.226  -0.891  -5.855  0.00  0.00     0.065 H 
BRANCH  47  50
ATOM     50  C   LIG d   1       3.545  -0.528  -3.244  0.00  0.00     0.079 C 
BRANCH  50  51
ATOM     51  C   LIG d   1       3.847  -1.755  -2.382  0.00  0.00    -0.033 C 
ATOM     52  H   LIG d   1       4.920  -1.815  -2.199  0.00  0.00     0.026 H 
ATOM     53  H   LIG d   1       3.321  -1.668  -1.430  0.00  0.00     0.026 H 
ATOM     54  H   LIG d   1       3.515  -2.655  -2.900  0.00  0.00     0.026 H 
ENDBRANCH  50  51
BRANCH  50  55
ATOM     55  C   LIG d   1       3.574   0.729  -2.373  0.00  0.00    -0.033 C 
ATOM     56  H   LIG d   1       4.607   1.049  -2.234  0.00  0.00     0.026 H 
ATOM     57  H   LIG d   1       3.010   1.523  -2.861  0.00  0.00     0.026 H 
ATOM     58  H   LIG d   1       3.128   0.509  -1.403  0.00  0.00     0.026 H 
ENDBRANCH  50  55
BRANCH  50  59
ATOM     59  O   LIG d   1       2.251  -0.668  -3.835  0.00  0.00    -0.385 OA
ATOM     60  H   LIG d   1       1.532  -0.747  -3.194  0.00  0.00     0.211 HD
ENDBRANCH  50  59
ENDBRANCH  47  50
ENDBRANCH  44  46
ENDBRANCH  32  44
ENDBRANCH   1  32
BRANCH   7  61
ATOM     61  C   LIG d   1       4.898  -3.548  -5.988  0.00  0.00    -0.058 C 
ATOM     62  H   LIG d   1       4.047  -4.168  -6.273  0.00  0.00     0.024 H 
ATOM     63  H   LIG d   1       5.179  -3.769  -4.959  0.00  0.00     0.024 H 
ATOM     64  H   LIG d   1       4.624  -2.496  -6.072  0.00  0.00     0.024 H 
ENDBRANCH   7  61
BRANCH   3  65
ATOM     65  O   LIG d   1       8.627  -1.394  -6.674  0.00  0.00    -0.391 OA
ATOM     66  H   LIG d   1       8.763  -1.459  -7.629  0.00  0.00     0.210 HD
ENDBRANCH   3  65
BRANCH   6  67
ATOM     67  C   LIG d   1       8.504  -4.482  -7.106  0.00  0.00    -0.059 C 
ATOM     68  H   LIG d   1       8.251  -5.213  -7.874  0.00  0.00     0.024 H 
ATOM     69  H   LIG d   1       8.720  -3.522  -7.573  0.00  0.00     0.024 H 
ATOM     70  H   LIG d   1       9.378  -4.824  -6.553  0.00  0.00     0.024 H 
ENDBRANCH   6  67
BRANCH  11  71
ATOM     71  C   LIG d   1       4.820  -6.538  -5.429  0.00  0.00    -0.052 C 
ATOM     72  H   LIG d   1       4.931  -6.252  -4.383  0.00  0.00     0.024 H 
ATOM     73  H   LIG d   1       4.195  -5.806  -5.940  0.00  0.00     0.024 H 
ATOM     74  H   LIG d   1       4.352  -7.521  -5.489  0.00  0.00     0.024 H 
ENDBRANCH  11  71
BRANCH  23  75
ATOM     75  C   LIG d   1       7.314  -9.420  -2.359  0.00  0.00    -0.049 C 
ATOM     76  H   LIG d   1       7.434  -8.359  -2.139  0.00  0.00     0.024 H 
ATOM     77  H   LIG d   1       6.485  -9.821  -1.777  0.00  0.00     0.024 H 
ATOM     78  H   LIG d   1       8.230  -9.951  -2.099  0.00  0.00     0.024 H 
ENDBRANCH  23  75
BRANCH  23  79
ATOM     79  C   LIG d   1       7.894 -10.746  -4.396  0.00  0.00    -0.049 C 
ATOM     80  H   LIG d   1       8.222 -10.504  -5.408  0.00  0.00     0.024 H 
ATOM     81  H   LIG d   1       8.765 -10.875  -3.754  0.00  0.00     0.024 H 
ATOM     82  H   LIG d   1       7.314 -11.667  -4.413  0.00  0.00     0.024 H 
ENDBRANCH  23  79
BRANCH  20  83
ATOM     83  O   LIG d   1       3.926 -10.617  -5.708  0.00  0.00    -0.504 OA
ATOM     84  H   LIG d   1       3.969 -11.509  -5.336  0.00  0.00     0.292 HD
ENDBRANCH  20  83
TORSDOF 18
ENDMDL
MODEL 5
REMARK VINA RESULT:      -5.8      3.388      7.863
REMARK  18 active torsions:
REMARK  status: ('A' for Active; 'I' for Inactive)
REMARK    1  A    between atoms: C_1  and  C_2 
REMARK    2  A    between atoms: C_2  and  O_4 
REMARK    3  A    between atoms: O_4  and  C_5 
REMARK    4  A    between atoms: C_5  and  C_6 
REMARK    5  A    between atoms: C_5  and  C_7 
REMARK    6  A    between atoms: C_5  and  C_37 
REMARK    7  A    between atoms: C_9  and  O_36 
REMARK    8  A    between atoms: C_12  and  C_35 
REMARK    9  A    between atoms: C_13  and  C_34 
REMARK   10  A    between atoms: C_17  and  C_33 
REMARK   11  A    between atoms: C_26  and  O_32 
REMARK   12  A    between atoms: C_29  and  C_30 
REMARK   13  A    between atoms: C_29  and  C_31 
REMARK   14  A    between atoms: C_37  and  C_39 
REMARK   15  A    between atoms: C_40  and  C_41 
REMARK   16  A    between atoms: C_41  and  C_42 
REMARK   17  A    between atoms: C_41  and  C_43 
REMARK   18  A    between atoms: C_41  and  O_44 
ROOT
ATOM      1  C   LIG d   1       4.802  -2.558  -5.956  0.00  0.00     0.038 C 
ATOM      2  H   LIG d   1       3.893  -2.017  -6.169  0.00  0.00     0.037 H 
ATOM      3  C   LIG d   1       4.920  -2.904  -4.451  0.00  0.00     0.063 C 
ATOM      4  H   LIG d   1       5.234  -3.943  -4.332  0.00  0.00     0.060 H 
ATOM      5  C   LIG d   1       5.997  -1.952  -3.862  0.00  0.00    -0.020 C 
ATOM      6  C   LIG d   1       6.088  -0.838  -4.933  0.00  0.00    -0.019 C 
ATOM      7  C   LIG d   1       6.044  -1.681  -6.221  0.00  0.00    -0.010 C 
ATOM      8  C   LIG d   1       5.958  -0.802  -7.440  0.00  0.00     0.013 C 
ATOM      9  C   LIG d   1       6.721   0.491  -7.216  0.00  0.00     0.141 C 
ATOM     10  O   LIG d   1       6.478   1.458  -7.928  0.00  0.00    -0.297 OA
ATOM     11  C   LIG d   1       7.764   0.609  -6.140  0.00  0.00     0.040 C 
ATOM     12  C   LIG d   1       7.324   0.021  -4.817  0.00  0.00    -0.019 C 
ATOM     13  H   LIG d   1       8.147  -0.615  -4.437  0.00  0.00     0.032 H 
ATOM     14  C   LIG d   1       7.091   1.127  -3.780  0.00  0.00    -0.030 C 
ATOM     15  C   LIG d   1       8.356   1.940  -3.638  0.00  0.00    -0.083 C 
ATOM     16  C   LIG d   1       8.937   2.359  -4.736  0.00  0.00    -0.052 C 
ATOM     17  C   LIG d   1       8.301   2.027  -6.048  0.00  0.00     0.015 C 
ATOM     18  H   LIG d   1       7.421   2.668  -6.128  0.00  0.00     0.040 H 
ATOM     19  C   LIG d   1       9.153   2.344  -7.236  0.00  0.00    -0.031 C 
ATOM     20  C   LIG d   1      10.423   2.722  -7.148  0.00  0.00     0.157 C 
ATOM     21  C   LIG d   1      11.072   2.863  -5.843  0.00  0.00     0.206 C 
ATOM     22  O   LIG d   1      12.270   2.758  -5.711  0.00  0.00    -0.288 OA
ATOM     23  C   LIG d   1      10.196   3.189  -4.649  0.00  0.00     0.052 C 
ATOM     24  H   LIG d   1       5.647  -1.521  -2.921  0.00  0.00     0.030 H 
ATOM     25  H   LIG d   1       6.951  -2.448  -3.728  0.00  0.00     0.030 H 
ATOM     26  H   LIG d   1       6.377  -1.333  -8.313  0.00  0.00     0.035 H 
ATOM     27  H   LIG d   1       4.907  -0.580  -7.687  0.00  0.00     0.035 H 
ATOM     28  H   LIG d   1       6.322   1.823  -4.120  0.00  0.00     0.031 H 
ATOM     29  H   LIG d   1       6.829   0.698  -2.818  0.00  0.00     0.031 H 
ATOM     30  H   LIG d   1       8.718   2.163  -2.660  0.00  0.00     0.057 H 
ATOM     31  H   LIG d   1       8.726   2.258  -8.225  0.00  0.00     0.062 H 
ENDROOT
BRANCH   1  32
ATOM     32  C   LIG d   1       4.891  -3.832  -6.799  0.00  0.00     0.177 C 
BRANCH  32  33
ATOM     33  O   LIG d   1       3.907  -4.767  -6.352  0.00  0.00    -0.450 OA
BRANCH  33  34
ATOM     34  C   LIG d   1       4.267  -6.060  -6.314  0.00  0.00     0.305 C 
ATOM     35  O   LIG d   1       4.533  -6.582  -5.258  0.00  0.00    -0.251 OA
BRANCH  34  36
ATOM     36  C   LIG d   1       4.339  -6.860  -7.590  0.00  0.00     0.033 C 
ATOM     37  H   LIG d   1       5.289  -6.664  -8.087  0.00  0.00     0.034 H 
ATOM     38  H   LIG d   1       4.261  -7.921  -7.358  0.00  0.00     0.034 H 
ATOM     39  H   LIG d   1       3.519  -6.569  -8.247  0.00  0.00     0.034 H 
ENDBRANCH  34  36
ENDBRANCH  33  34
ENDBRANCH  32  33
BRANCH  32  40
ATOM     40  C   LIG d   1       6.284  -4.448  -6.648  0.00  0.00    -0.017 C 
ATOM     41  H   LIG d   1       6.193  -5.458  -6.251  0.00  0.00     0.027 H 
ATOM     42  H   LIG d   1       6.772  -4.482  -7.622  0.00  0.00     0.027 H 
ATOM     43  H   LIG d   1       6.877  -3.840  -5.965  0.00  0.00     0.027 H 
ENDBRANCH  32  40
BRANCH  32  44
ATOM     44  C   LIG d   1       4.644  -3.496  -8.246  0.00  0.00     0.199 C 
ATOM     45  O   LIG d   1       5.465  -3.797  -9.088  0.00  0.00    -0.288 OA
BRANCH  44  46
ATOM     46  C   LIG d   1       3.415  -2.808  -8.638  0.00  0.00    -0.016 C 
ATOM     47  C   LIG d   1       3.307  -2.275  -9.857  0.00  0.00    -0.050 C 
ATOM     48  H   LIG d   1       4.128  -2.352 -10.555  0.00  0.00     0.060 H 
ATOM     49  H   LIG d   1       2.593  -2.732  -7.941  0.00  0.00     0.065 H 
BRANCH  47  50
ATOM     50  C   LIG d   1       2.040  -1.566 -10.261  0.00  0.00     0.079 C 
BRANCH  50  51
ATOM     51  C   LIG d   1       1.812  -0.366  -9.341  0.00  0.00    -0.033 C 
ATOM     52  H   LIG d   1       1.244  -0.681  -8.466  0.00  0.00     0.026 H 
ATOM     53  H   LIG d   1       2.776   0.036  -9.023  0.00  0.00     0.026 H 
ATOM     54  H   LIG d   1       1.257   0.404  -9.878  0.00  0.00     0.026 H 
ENDBRANCH  50  51
BRANCH  50  55
ATOM     55  C   LIG d   1       2.164  -1.084 -11.708  0.00  0.00    -0.033 C 
ATOM     56  H   LIG d   1       1.929  -0.021 -11.758  0.00  0.00     0.026 H 
ATOM     57  H   LIG d   1       3.183  -1.247 -12.059  0.00  0.00     0.026 H 
ATOM     58  H   LIG d   1       1.469  -1.641 -12.337  0.00  0.00     0.026 H 
ENDBRANCH  50  55
BRANCH  50  59
ATOM     59  O   LIG d   1       0.936  -2.467 -10.152  0.00  0.00    -0.385 OA
ATOM     60  H   LIG d   1       1.071  -3.180  -9.514  0.00  0.00     0.211 HD
ENDBRANCH  50  59
ENDBRANCH  47  50
ENDBRANCH  44  46
ENDBRANCH  32  44
ENDBRANCH   1  32
BRANCH   7  61
ATOM     61  C   LIG d   1       7.226  -2.653  -6.317  0.00  0.00    -0.058 C 
ATOM     62  H   LIG d   1       7.665  -2.790  -5.328  0.00  0.00     0.024 H 
ATOM     63  H   LIG d   1       6.877  -3.613  -6.696  0.00  0.00     0.024 H 
ATOM     64  H   LIG d   1       7.977  -2.246  -6.994  0.00  0.00     0.024 H 
ENDBRANCH   7  61
BRANCH   3  65
ATOM     65  O   LIG d   1       3.669  -2.691  -3.794  0.00  0.00    -0.391 OA
ATOM     66  H   LIG d   1       3.657  -2.972  -2.869  0.00  0.00     0.210 HD
ENDBRANCH   3  65
BRANCH   6  67
ATOM     67  C   LIG d   1       4.821   0.018  -4.831  0.00  0.00    -0.059 C 
ATOM     68  H   LIG d   1       3.950  -0.631  -4.744  0.00  0.00     0.024 H 
ATOM     69  H   LIG d   1       4.887   0.659  -3.953  0.00  0.00     0.024 H 
ATOM     70  H   LIG d   1       4.727   0.635  -5.725  0.00  0.00     0.024 H 
ENDBRANCH   6  67
BRANCH  11  71
ATOM     71  C   LIG d   1       8.993  -0.193  -6.609  0.00  0.00    -0.052 C 
ATOM     72  H   LIG d   1       8.676  -1.179  -6.945  0.00  0.00     0.024 H 
ATOM     73  H   LIG d   1       9.477   0.334  -7.431  0.00  0.00     0.024 H 
ATOM     74  H   LIG d   1       9.695  -0.298  -5.782  0.00  0.00     0.024 H 
ENDBRANCH  11  71
BRANCH  23  75
ATOM     75  C   LIG d   1      10.982   2.886  -3.367  0.00  0.00    -0.049 C 
ATOM     76  H   LIG d   1      10.475   2.099  -2.807  0.00  0.00     0.024 H 
ATOM     77  H   LIG d   1      11.988   2.557  -3.626  0.00  0.00     0.024 H 
ATOM     78  H   LIG d   1      11.041   3.787  -2.755  0.00  0.00     0.024 H 
ENDBRANCH  23  75
BRANCH  23  79
ATOM     79  C   LIG d   1       9.837   4.682  -4.674  0.00  0.00    -0.049 C 
ATOM     80  H   LIG d   1       8.962   4.834  -5.305  0.00  0.00     0.024 H 
ATOM     81  H   LIG d   1       9.618   5.020  -3.661  0.00  0.00     0.024 H 
ATOM     82  H   LIG d   1      10.677   5.250  -5.073  0.00  0.00     0.024 H 
ENDBRANCH  23  79
BRANCH  20  83
ATOM     83  O   LIG d   1      11.131   2.996  -8.274  0.00  0.00    -0.504 OA
ATOM     84  H   LIG d   1      10.618   2.910  -9.090  0.00  0.00     0.292 HD
ENDBRANCH  20  83
TORSDOF 18
ENDMDL
MODEL 6
REMARK VINA RESULT:      -5.7      4.413      7.642
REMARK  18 active torsions:
REMARK  status: ('A' for Active; 'I' for Inactive)
REMARK    1  A    between atoms: C_1  and  C_2 
REMARK    2  A    between atoms: C_2  and  O_4 
REMARK    3  A    between atoms: O_4  and  C_5 
REMARK    4  A    between atoms: C_5  and  C_6 
REMARK    5  A    between atoms: C_5  and  C_7 
REMARK    6  A    between atoms: C_5  and  C_37 
REMARK    7  A    between atoms: C_9  and  O_36 
REMARK    8  A    between atoms: C_12  and  C_35 
REMARK    9  A    between atoms: C_13  and  C_34 
REMARK   10  A    between atoms: C_17  and  C_33 
REMARK   11  A    between atoms: C_26  and  O_32 
REMARK   12  A    between atoms: C_29  and  C_30 
REMARK   13  A    between atoms: C_29  and  C_31 
REMARK   14  A    between atoms: C_37  and  C_39 
REMARK   15  A    between atoms: C_40  and  C_41 
REMARK   16  A    between atoms: C_41  and  C_42 
REMARK   17  A    between atoms: C_41  and  C_43 
REMARK   18  A    between atoms: C_41  and  O_44 
ROOT
ATOM      1  C   LIG d   1       4.405   0.011  -8.165  0.00  0.00     0.038 C 
ATOM      2  H   LIG d   1       3.748  -0.216  -7.340  0.00  0.00     0.037 H 
ATOM      3  C   LIG d   1       4.000   1.329  -8.870  0.00  0.00     0.063 C 
ATOM      4  H   LIG d   1       4.886   1.941  -9.054  0.00  0.00     0.060 H 
ATOM      5  C   LIG d   1       3.345   0.924 -10.220  0.00  0.00    -0.020 C 
ATOM      6  C   LIG d   1       3.004  -0.569  -9.997  0.00  0.00    -0.019 C 
ATOM      7  C   LIG d   1       4.281  -1.046  -9.282  0.00  0.00    -0.010 C 
ATOM      8  C   LIG d   1       4.135  -2.466  -8.803  0.00  0.00     0.013 C 
ATOM      9  C   LIG d   1       3.269  -3.262  -9.765  0.00  0.00     0.141 C 
ATOM     10  O   LIG d   1       2.752  -4.304  -9.379  0.00  0.00    -0.297 OA
ATOM     11  C   LIG d   1       3.034  -2.798 -11.174  0.00  0.00     0.040 C 
ATOM     12  C   LIG d   1       2.708  -1.324 -11.270  0.00  0.00    -0.019 C 
ATOM     13  H   LIG d   1       3.330  -0.890 -12.077  0.00  0.00     0.032 H 
ATOM     14  C   LIG d   1       1.241  -1.115 -11.668  0.00  0.00    -0.030 C 
ATOM     15  C   LIG d   1       0.980  -1.832 -12.972  0.00  0.00    -0.083 C 
ATOM     16  C   LIG d   1       1.384  -3.075 -13.075  0.00  0.00    -0.052 C 
ATOM     17  C   LIG d   1       2.051  -3.705 -11.895  0.00  0.00     0.015 C 
ATOM     18  H   LIG d   1       1.260  -3.899 -11.168  0.00  0.00     0.040 H 
ATOM     19  C   LIG d   1       2.677  -5.032 -12.186  0.00  0.00    -0.031 C 
ATOM     20  C   LIG d   1       2.792  -5.538 -13.409  0.00  0.00     0.157 C 
ATOM     21  C   LIG d   1       2.285  -4.803 -14.570  0.00  0.00     0.206 C 
ATOM     22  O   LIG d   1       2.738  -4.972 -15.679  0.00  0.00    -0.288 OA
ATOM     23  C   LIG d   1       1.133  -3.841 -14.352  0.00  0.00     0.052 C 
ATOM     24  H   LIG d   1       2.422   1.487 -10.375  0.00  0.00     0.030 H 
ATOM     25  H   LIG d   1       4.021   1.053 -11.057  0.00  0.00     0.030 H 
ATOM     26  H   LIG d   1       5.130  -2.937  -8.725  0.00  0.00     0.035 H 
ATOM     27  H   LIG d   1       3.697  -2.494  -7.793  0.00  0.00     0.035 H 
ATOM     28  H   LIG d   1       0.572  -1.568 -10.935  0.00  0.00     0.031 H 
ATOM     29  H   LIG d   1       1.026  -0.058 -11.788  0.00  0.00     0.031 H 
ATOM     30  H   LIG d   1       0.462  -1.316 -13.748  0.00  0.00     0.057 H 
ATOM     31  H   LIG d   1       3.068  -5.619 -11.366  0.00  0.00     0.062 H 
ENDROOT
BRANCH   1  32
ATOM     32  C   LIG d   1       5.861   0.089  -7.699  0.00  0.00     0.177 C 
BRANCH  32  33
ATOM     33  O   LIG d   1       6.272   1.457  -7.649  0.00  0.00    -0.450 OA
BRANCH  33  34
ATOM     34  C   LIG d   1       7.428   1.769  -8.258  0.00  0.00     0.305 C 
ATOM     35  O   LIG d   1       7.430   2.079  -9.425  0.00  0.00    -0.251 OA
BRANCH  34  36
ATOM     36  C   LIG d   1       8.721   1.731  -7.485  0.00  0.00     0.033 C 
ATOM     37  H   LIG d   1       9.516   1.350  -8.127  0.00  0.00     0.034 H 
ATOM     38  H   LIG d   1       8.974   2.736  -7.150  0.00  0.00     0.034 H 
ATOM     39  H   LIG d   1       8.608   1.076  -6.621  0.00  0.00     0.034 H 
ENDBRANCH  34  36
ENDBRANCH  33  34
ENDBRANCH  32  33
BRANCH  32  40
ATOM     40  C   LIG d   1       6.753  -0.676  -8.679  0.00  0.00    -0.017 C 
ATOM     41  H   LIG d   1       7.694  -0.141  -8.807  0.00  0.00     0.027 H 
ATOM     42  H   LIG d   1       6.951  -1.673  -8.287  0.00  0.00     0.027 H 
ATOM     43  H   LIG d   1       6.247  -0.758  -9.641  0.00  0.00     0.027 H 
ENDBRANCH  32  40
BRANCH  32  44
ATOM     44  C   LIG d   1       5.983  -0.522  -6.327  0.00  0.00     0.199 C 
ATOM     45  O   LIG d   1       7.066  -0.892  -5.922  0.00  0.00    -0.288 OA
BRANCH  44  46
ATOM     46  C   LIG d   1       4.798  -0.668  -5.483  0.00  0.00    -0.016 C 
ATOM     47  C   LIG d   1       4.910  -0.599  -4.155  0.00  0.00    -0.050 C 
ATOM     48  H   LIG d   1       5.877  -0.434  -3.703  0.00  0.00     0.060 H 
ATOM     49  H   LIG d   1       3.831  -0.833  -5.936  0.00  0.00     0.065 H 
BRANCH  47  50
ATOM     50  C   LIG d   1       3.689  -0.749  -3.286  0.00  0.00     0.079 C 
BRANCH  50  51
ATOM     51  C   LIG d   1       3.847  -1.982  -2.394  0.00  0.00    -0.033 C 
ATOM     52  H   LIG d   1       4.446  -1.725  -1.522  0.00  0.00     0.026 H 
ATOM     53  H   LIG d   1       2.863  -2.325  -2.071  0.00  0.00     0.026 H 
ATOM     54  H   LIG d   1       4.341  -2.776  -2.955  0.00  0.00     0.026 H 
ENDBRANCH  50  51
BRANCH  50  55
ATOM     55  C   LIG d   1       3.528   0.496  -2.412  0.00  0.00    -0.033 C 
ATOM     56  H   LIG d   1       3.084   0.214  -1.457  0.00  0.00     0.026 H 
ATOM     57  H   LIG d   1       4.505   0.946  -2.238  0.00  0.00     0.026 H 
ATOM     58  H   LIG d   1       2.881   1.213  -2.916  0.00  0.00     0.026 H 
ENDBRANCH  50  55
BRANCH  50  59
ATOM     59  O   LIG d   1       2.533  -0.904  -4.113  0.00  0.00    -0.385 OA
ATOM     60  H   LIG d   1       2.642  -0.562  -5.010  0.00  0.00     0.211 HD
ENDBRANCH  50  59
ENDBRANCH  47  50
ENDBRANCH  44  46
ENDBRANCH  32  44
ENDBRANCH   1  32
BRANCH   7  61
ATOM     61  C   LIG d   1       5.530  -0.878 -10.155  0.00  0.00    -0.058 C 
ATOM     62  H   LIG d   1       5.323  -1.244 -11.160  0.00  0.00     0.024 H 
ATOM     63  H   LIG d   1       5.802   0.176 -10.201  0.00  0.00     0.024 H 
ATOM     64  H   LIG d   1       6.354  -1.447  -9.724  0.00  0.00     0.024 H 
ENDBRANCH   7  61
BRANCH   3  65
ATOM     65  O   LIG d   1       3.062   2.051  -8.070  0.00  0.00    -0.391 OA
ATOM     66  H   LIG d   1       3.257   2.034  -7.123  0.00  0.00     0.210 HD
ENDBRANCH   3  65
BRANCH   6  67
ATOM     67  C   LIG d   1       1.813  -0.642  -9.034  0.00  0.00    -0.059 C 
ATOM     68  H   LIG d   1       2.094  -0.205  -8.076  0.00  0.00     0.024 H 
ATOM     69  H   LIG d   1       0.973  -0.089  -9.454  0.00  0.00     0.024 H 
ATOM     70  H   LIG d   1       1.527  -1.683  -8.889  0.00  0.00     0.024 H 
ENDBRANCH   6  67
BRANCH  11  71
ATOM     71  C   LIG d   1       4.344  -3.027 -11.952  0.00  0.00    -0.052 C 
ATOM     72  H   LIG d   1       5.056  -3.554 -11.318  0.00  0.00     0.024 H 
ATOM     73  H   LIG d   1       4.138  -3.624 -12.841  0.00  0.00     0.024 H 
ATOM     74  H   LIG d   1       4.762  -2.065 -12.250  0.00  0.00     0.024 H 
ENDBRANCH  11  71
BRANCH  23  75
ATOM     75  C   LIG d   1       1.042  -2.903 -15.562  0.00  0.00    -0.049 C 
ATOM     76  H   LIG d   1       1.850  -2.173 -15.518  0.00  0.00     0.024 H 
ATOM     77  H   LIG d   1       1.128  -3.484 -16.480  0.00  0.00     0.024 H 
ATOM     78  H   LIG d   1       0.083  -2.385 -15.549  0.00  0.00     0.024 H 
ENDBRANCH  23  75
BRANCH  23  79
ATOM     79  C   LIG d   1      -0.177  -4.634 -14.234  0.00  0.00    -0.049 C 
ATOM     80  H   LIG d   1      -0.894  -4.064 -13.645  0.00  0.00     0.024 H 
ATOM     81  H   LIG d   1      -0.584  -4.813 -15.229  0.00  0.00     0.024 H 
ATOM     82  H   LIG d   1       0.019  -5.587 -13.745  0.00  0.00     0.024 H 
ENDBRANCH  23  79
BRANCH  20  83
ATOM     83  O   LIG d   1       3.370  -6.752 -13.592  0.00  0.00    -0.504 OA
ATOM     84  H   LIG d   1       2.799  -7.498 -13.361  0.00  0.00     0.292 HD
ENDBRANCH  20  83
TORSDOF 18
ENDMDL
MODEL 7
REMARK VINA RESULT:      -5.7     11.543     15.913
REMARK  18 active torsions:
REMARK  status: ('A' for Active; 'I' for Inactive)
REMARK    1  A    between atoms: C_1  and  C_2 
REMARK    2  A    between atoms: C_2  and  O_4 
REMARK    3  A    between atoms: O_4  and  C_5 
REMARK    4  A    between atoms: C_5  and  C_6 
REMARK    5  A    between atoms: C_5  and  C_7 
REMARK    6  A    between atoms: C_5  and  C_37 
REMARK    7  A    between atoms: C_9  and  O_36 
REMARK    8  A    between atoms: C_12  and  C_35 
REMARK    9  A    between atoms: C_13  and  C_34 
REMARK   10  A    between atoms: C_17  and  C_33 
REMARK   11  A    between atoms: C_26  and  O_32 
REMARK   12  A    between atoms: C_29  and  C_30 
REMARK   13  A    between atoms: C_29  and  C_31 
REMARK   14  A    between atoms: C_37  and  C_39 
REMARK   15  A    between atoms: C_40  and  C_41 
REMARK   16  A    between atoms: C_41  and  C_42 
REMARK   17  A    between atoms: C_41  and  C_43 
REMARK   18  A    between atoms: C_41  and  O_44 
ROOT
ATOM      1  C   LIG d   1      11.734  10.719   1.812  0.00  0.00     0.038 C 
ATOM      2  H   LIG d   1      10.815  10.633   2.370  0.00  0.00     0.037 H 
ATOM      3  C   LIG d   1      11.699  11.926   0.842  0.00  0.00     0.063 C 
ATOM      4  H   LIG d   1      12.636  12.483   0.907  0.00  0.00     0.060 H 
ATOM      5  C   LIG d   1      11.529  11.339  -0.587  0.00  0.00    -0.020 C 
ATOM      6  C   LIG d   1      11.022   9.904  -0.306  0.00  0.00    -0.019 C 
ATOM      7  C   LIG d   1      11.929   9.510   0.874  0.00  0.00    -0.010 C 
ATOM      8  C   LIG d   1      11.520   8.181   1.451  0.00  0.00     0.013 C 
ATOM      9  C   LIG d   1      10.988   7.270   0.358  0.00  0.00     0.141 C 
ATOM     10  O   LIG d   1      10.293   6.310   0.668  0.00  0.00    -0.297 OA
ATOM     11  C   LIG d   1      11.296   7.523  -1.091  0.00  0.00     0.040 C 
ATOM     12  C   LIG d   1      11.133   8.974  -1.490  0.00  0.00    -0.019 C 
ATOM     13  H   LIG d   1      12.028   9.268  -2.072  0.00  0.00     0.032 H 
ATOM     14  C   LIG d   1       9.918   9.154  -2.407  0.00  0.00    -0.030 C 
ATOM     15  C   LIG d   1      10.076   8.257  -3.613  0.00  0.00    -0.083 C 
ATOM     16  C   LIG d   1      10.398   7.003  -3.400  0.00  0.00    -0.052 C 
ATOM     17  C   LIG d   1      10.561   6.541  -1.988  0.00  0.00     0.015 C 
ATOM     18  H   LIG d   1       9.554   6.477  -1.572  0.00  0.00     0.040 H 
ATOM     19  C   LIG d   1      11.149   5.172  -1.860  0.00  0.00    -0.031 C 
ATOM     20  C   LIG d   1      11.646   4.487  -2.884  0.00  0.00     0.157 C 
ATOM     21  C   LIG d   1      11.632   5.051  -4.235  0.00  0.00     0.206 C 
ATOM     22  O   LIG d   1      12.431   4.708  -5.077  0.00  0.00    -0.288 OA
ATOM     23  C   LIG d   1      10.552   6.061  -4.570  0.00  0.00     0.052 C 
ATOM     24  H   LIG d   1      10.762  11.892  -1.134  0.00  0.00     0.030 H 
ATOM     25  H   LIG d   1      12.462  11.326  -1.137  0.00  0.00     0.030 H 
ATOM     26  H   LIG d   1      12.387   7.704   1.941  0.00  0.00     0.035 H 
ATOM     27  H   LIG d   1      10.756   8.314   2.233  0.00  0.00     0.035 H 
ATOM     28  H   LIG d   1       9.003   8.831  -1.909  0.00  0.00     0.031 H 
ATOM     29  H   LIG d   1       9.838  10.186  -2.735  0.00  0.00     0.031 H 
ATOM     30  H   LIG d   1       9.902   8.662  -4.583  0.00  0.00     0.057 H 
ATOM     31  H   LIG d   1      11.184   4.705  -0.885  0.00  0.00     0.062 H 
ENDROOT
BRANCH   1  32
ATOM     32  C   LIG d   1      12.937  10.833   2.752  0.00  0.00     0.177 C 
BRANCH  32  33
ATOM     33  O   LIG d   1      13.367  12.194   2.811  0.00  0.00    -0.450 OA
BRANCH  33  34
ATOM     34  C   LIG d   1      14.690  12.418   2.753  0.00  0.00     0.305 C 
ATOM     35  O   LIG d   1      15.368  12.294   3.745  0.00  0.00    -0.251 OA
BRANCH  34  36
ATOM     36  C   LIG d   1      15.328  12.825   1.449  0.00  0.00     0.033 C 
ATOM     37  H   LIG d   1      16.266  12.283   1.320  0.00  0.00     0.034 H 
ATOM     38  H   LIG d   1      14.655  12.589   0.626  0.00  0.00     0.034 H 
ATOM     39  H   LIG d   1      15.527  13.897   1.462  0.00  0.00     0.034 H 
ENDBRANCH  34  36
ENDBRANCH  33  34
ENDBRANCH  32  33
BRANCH  32  40
ATOM     40  C   LIG d   1      14.079   9.959   2.227  0.00  0.00    -0.017 C 
ATOM     41  H   LIG d   1      14.034   9.918   1.140  0.00  0.00     0.027 H 
ATOM     42  H   LIG d   1      15.033  10.386   2.537  0.00  0.00     0.027 H 
ATOM     43  H   LIG d   1      13.982   8.953   2.634  0.00  0.00     0.027 H 
ENDBRANCH  32  40
BRANCH  32  44
ATOM     44  C   LIG d   1      12.543  10.370   4.131  0.00  0.00     0.199 C 
ATOM     45  O   LIG d   1      12.350  11.183   5.011  0.00  0.00    -0.288 OA
BRANCH  44  46
ATOM     46  C   LIG d   1      12.394   8.942   4.409  0.00  0.00    -0.016 C 
ATOM     47  C   LIG d   1      11.793   8.539   5.530  0.00  0.00    -0.050 C 
ATOM     48  H   LIG d   1      11.416   9.268   6.233  0.00  0.00     0.060 H 
ATOM     49  H   LIG d   1      12.770   8.213   3.706  0.00  0.00     0.065 H 
BRANCH  47  50
ATOM     50  C   LIG d   1      11.638   7.068   5.817  0.00  0.00     0.079 C 
BRANCH  50  51
ATOM     51  C   LIG d   1      10.708   6.878   7.016  0.00  0.00    -0.033 C 
ATOM     52  H   LIG d   1      10.829   5.871   7.413  0.00  0.00     0.026 H 
ATOM     53  H   LIG d   1      10.959   7.606   7.789  0.00  0.00     0.026 H 
ATOM     54  H   LIG d   1       9.674   7.024   6.702  0.00  0.00     0.026 H 
ENDBRANCH  50  51
BRANCH  50  55
ATOM     55  C   LIG d   1      11.043   6.370   4.593  0.00  0.00    -0.033 C 
ATOM     56  H   LIG d   1      10.745   5.357   4.862  0.00  0.00     0.026 H 
ATOM     57  H   LIG d   1      10.171   6.924   4.247  0.00  0.00     0.026 H 
ATOM     58  H   LIG d   1      11.788   6.331   3.798  0.00  0.00     0.026 H 
ENDBRANCH  50  55
BRANCH  50  59
ATOM     59  O   LIG d   1      12.918   6.504   6.111  0.00  0.00    -0.385 OA
ATOM     60  H   LIG d   1      12.984   5.558   5.925  0.00  0.00     0.211 HD
ENDBRANCH  50  59
ENDBRANCH  47  50
ENDBRANCH  44  46
ENDBRANCH  32  44
ENDBRANCH   1  32
BRANCH   7  61
ATOM     61  C   LIG d   1      13.413   9.517   0.489  0.00  0.00    -0.058 C 
ATOM     62  H   LIG d   1      13.829   8.518   0.625  0.00  0.00     0.024 H 
ATOM     63  H   LIG d   1      13.518   9.816  -0.553  0.00  0.00     0.024 H 
ATOM     64  H   LIG d   1      13.950  10.222   1.125  0.00  0.00     0.024 H 
ENDBRANCH   7  61
BRANCH   3  65
ATOM     65  O   LIG d   1      10.597  12.780   1.153  0.00  0.00    -0.391 OA
ATOM     66  H   LIG d   1      10.844  13.705   1.296  0.00  0.00     0.210 HD
ENDBRANCH   3  65
BRANCH   6  67
ATOM     67  C   LIG d   1       9.568  10.003   0.170  0.00  0.00    -0.059 C 
ATOM     68  H   LIG d   1       8.991   9.179  -0.252  0.00  0.00     0.024 H 
ATOM     69  H   LIG d   1       9.538   9.948   1.258  0.00  0.00     0.024 H 
ATOM     70  H   LIG d   1       9.142  10.950  -0.158  0.00  0.00     0.024 H 
ENDBRANCH   6  67
BRANCH  11  71
ATOM     71  C   LIG d   1      12.773   7.151  -1.314  0.00  0.00    -0.052 C 
ATOM     72  H   LIG d   1      13.269   7.038  -0.350  0.00  0.00     0.024 H 
ATOM     73  H   LIG d   1      12.832   6.213  -1.864  0.00  0.00     0.024 H 
ATOM     74  H   LIG d   1      13.264   7.939  -1.885  0.00  0.00     0.024 H 
ENDBRANCH  11  71
BRANCH  23  75
ATOM     75  C   LIG d   1      10.960   6.809  -5.846  0.00  0.00    -0.049 C 
ATOM     76  H   LIG d   1      12.003   6.593  -6.076  0.00  0.00     0.024 H 
ATOM     77  H   LIG d   1      10.330   6.487  -6.674  0.00  0.00     0.024 H 
ATOM     78  H   LIG d   1      10.836   7.882  -5.692  0.00  0.00     0.024 H 
ENDBRANCH  23  75
BRANCH  23  79
ATOM     79  C   LIG d   1       9.229   5.325  -4.824  0.00  0.00    -0.049 C 
ATOM     80  H   LIG d   1       9.160   5.055  -5.877  0.00  0.00     0.024 H 
ATOM     81  H   LIG d   1       9.192   4.422  -4.214  0.00  0.00     0.024 H 
ATOM     82  H   LIG d   1       8.395   5.975  -4.560  0.00  0.00     0.024 H 
ENDBRANCH  23  79
BRANCH  20  83
ATOM     83  O   LIG d   1      12.160   3.246  -2.687  0.00  0.00    -0.504 OA
ATOM     84  H   LIG d   1      12.158   2.690  -3.479  0.00  0.00     0.292 HD
ENDBRANCH  20  83
TORSDOF 18
ENDMDL
MODEL 8
REMARK VINA RESULT:      -5.6      1.424      1.533
REMARK  18 active torsions:
REMARK  status: ('A' for Active; 'I' for Inactive)
REMARK    1  A    between atoms: C_1  and  C_2 
REMARK    2  A    between atoms: C_2  and  O_4 
REMARK    3  A    between atoms: O_4  and  C_5 
REMARK    4  A    between atoms: C_5  and  C_6 
REMARK    5  A    between atoms: C_5  and  C_7 
REMARK    6  A    between atoms: C_5  and  C_37 
REMARK    7  A    between atoms: C_9  and  O_36 
REMARK    8  A    between atoms: C_12  and  C_35 
REMARK    9  A    between atoms: C_13  and  C_34 
REMARK   10  A    between atoms: C_17  and  C_33 
REMARK   11  A    between atoms: C_26  and  O_32 
REMARK   12  A    between atoms: C_29  and  C_30 
REMARK   13  A    between atoms: C_29  and  C_31 
REMARK   14  A    between atoms: C_37  and  C_39 
REMARK   15  A    between atoms: C_40  and  C_41 
REMARK   16  A    between atoms: C_41  and  C_42 
REMARK   17  A    between atoms: C_41  and  C_43 
REMARK   18  A    between atoms: C_41  and  O_44 
ROOT
ATOM      1  C   LIG d   1       6.551  -1.604  -5.557  0.00  0.00     0.038 C 
ATOM      2  H   LIG d   1       7.155  -1.340  -6.411  0.00  0.00     0.037 H 
ATOM      3  C   LIG d   1       7.363  -1.531  -4.240  0.00  0.00     0.063 C 
ATOM      4  H   LIG d   1       6.782  -1.018  -3.472  0.00  0.00     0.060 H 
ATOM      5  C   LIG d   1       7.636  -2.998  -3.809  0.00  0.00    -0.020 C 
ATOM      6  C   LIG d   1       7.374  -3.790  -5.112  0.00  0.00    -0.019 C 
ATOM      7  C   LIG d   1       6.108  -3.080  -5.624  0.00  0.00    -0.010 C 
ATOM      8  C   LIG d   1       5.729  -3.572  -6.996  0.00  0.00     0.013 C 
ATOM      9  C   LIG d   1       6.082  -5.041  -7.148  0.00  0.00     0.141 C 
ATOM     10  O   LIG d   1       6.181  -5.517  -8.273  0.00  0.00    -0.297 OA
ATOM     11  C   LIG d   1       6.315  -5.919  -5.951  0.00  0.00     0.040 C 
ATOM     12  C   LIG d   1       7.190  -5.273  -4.899  0.00  0.00    -0.019 C 
ATOM     13  H   LIG d   1       6.703  -5.419  -3.915  0.00  0.00     0.032 H 
ATOM     14  C   LIG d   1       8.559  -5.961  -4.833  0.00  0.00    -0.030 C 
ATOM     15  C   LIG d   1       8.355  -7.434  -4.563  0.00  0.00    -0.083 C 
ATOM     16  C   LIG d   1       7.477  -8.072  -5.301  0.00  0.00    -0.052 C 
ATOM     17  C   LIG d   1       6.760  -7.310  -6.368  0.00  0.00     0.015 C 
ATOM     18  H   LIG d   1       7.487  -7.148  -7.165  0.00  0.00     0.040 H 
ATOM     19  C   LIG d   1       5.624  -8.059  -6.991  0.00  0.00    -0.031 C 
ATOM     20  C   LIG d   1       5.173  -9.222  -6.535  0.00  0.00     0.157 C 
ATOM     21  C   LIG d   1       5.790  -9.855  -5.367  0.00  0.00     0.206 C 
ATOM     22  O   LIG d   1       5.179 -10.625  -4.662  0.00  0.00    -0.288 OA
ATOM     23  C   LIG d   1       7.247  -9.548  -5.083  0.00  0.00     0.052 C 
ATOM     24  H   LIG d   1       8.682  -3.118  -3.517  0.00  0.00     0.030 H 
ATOM     25  H   LIG d   1       6.974  -3.320  -3.013  0.00  0.00     0.030 H 
ATOM     26  H   LIG d   1       4.645  -3.433  -7.155  0.00  0.00     0.035 H 
ATOM     27  H   LIG d   1       6.236  -2.981  -7.775  0.00  0.00     0.035 H 
ATOM     28  H   LIG d   1       9.073  -5.899  -5.793  0.00  0.00     0.031 H 
ATOM     29  H   LIG d   1       9.163  -5.531  -4.040  0.00  0.00     0.031 H 
ATOM     30  H   LIG d   1       8.940  -7.906  -3.807  0.00  0.00     0.057 H 
ATOM     31  H   LIG d   1       5.132  -7.640  -7.857  0.00  0.00     0.062 H 
ENDROOT
BRANCH   1  32
ATOM     32  C   LIG d   1       5.314  -0.706  -5.464  0.00  0.00     0.177 C 
BRANCH  32  33
ATOM     33  O   LIG d   1       5.534   0.306  -4.479  0.00  0.00    -0.450 OA
BRANCH  33  34
ATOM     34  C   LIG d   1       4.535   0.543  -3.615  0.00  0.00     0.305 C 
ATOM     35  O   LIG d   1       3.582   1.201  -3.960  0.00  0.00    -0.251 OA
BRANCH  34  36
ATOM     36  C   LIG d   1       4.602  -0.010  -2.215  0.00  0.00     0.033 C 
ATOM     37  H   LIG d   1       5.644  -0.164  -1.935  0.00  0.00     0.034 H 
ATOM     38  H   LIG d   1       4.140   0.693  -1.523  0.00  0.00     0.034 H 
ATOM     39  H   LIG d   1       4.071  -0.962  -2.175  0.00  0.00     0.034 H 
ENDBRANCH  34  36
ENDBRANCH  33  34
ENDBRANCH  32  33
BRANCH  32  40
ATOM     40  C   LIG d   1       4.101  -1.549  -5.066  0.00  0.00    -0.017 C 
ATOM     41  H   LIG d   1       3.582  -1.883  -5.964  0.00  0.00     0.027 H 
ATOM     42  H   LIG d   1       4.432  -2.414  -4.493  0.00  0.00     0.027 H 
ATOM     43  H   LIG d   1       3.425  -0.947  -4.458  0.00  0.00     0.027 H 
ENDBRANCH  32  40
BRANCH  32  44
ATOM     44  C   LIG d   1       5.061  -0.059  -6.800  0.00  0.00     0.199 C 
ATOM     45  O   LIG d   1       5.773   0.848  -7.180  0.00  0.00    -0.288 OA
BRANCH  44  46
ATOM     46  C   LIG d   1       3.958  -0.522  -7.641  0.00  0.00    -0.016 C 
ATOM     47  C   LIG d   1       4.173  -0.816  -8.924  0.00  0.00    -0.050 C 
ATOM     48  H   LIG d   1       5.163  -0.712  -9.343  0.00  0.00     0.060 H 
ATOM     49  H   LIG d   1       2.967  -0.628  -7.221  0.00  0.00     0.065 H 
BRANCH  47  50
ATOM     50  C   LIG d   1       3.036  -1.295  -9.790  0.00  0.00     0.079 C 
BRANCH  50  51
ATOM     51  C   LIG d   1       2.753  -2.768  -9.490  0.00  0.00    -0.033 C 
ATOM     52  H   LIG d   1       3.213  -3.389 -10.257  0.00  0.00     0.026 H 
ATOM     53  H   LIG d   1       3.170  -3.027  -8.515  0.00  0.00     0.026 H 
ATOM     54  H   LIG d   1       1.676  -2.937  -9.481  0.00  0.00     0.026 H 
ENDBRANCH  50  51
BRANCH  50  55
ATOM     55  C   LIG d   1       1.786  -0.464  -9.495  0.00  0.00    -0.033 C 
ATOM     56  H   LIG d   1       2.075   0.467  -9.007  0.00  0.00     0.026 H 
ATOM     57  H   LIG d   1       1.271  -0.239 -10.429  0.00  0.00     0.026 H 
ATOM     58  H   LIG d   1       1.121  -1.027  -8.840  0.00  0.00     0.026 H 
ENDBRANCH  50  55
BRANCH  50  59
ATOM     59  O   LIG d   1       3.392  -1.148 -11.166  0.00  0.00    -0.385 OA
ATOM     60  H   LIG d   1       2.975  -1.794 -11.752  0.00  0.00     0.211 HD
ENDBRANCH  50  59
ENDBRANCH  47  50
ENDBRANCH  44  46
ENDBRANCH  32  44
ENDBRANCH   1  32
BRANCH   7  61
ATOM     61  C   LIG d   1       4.937  -3.208  -4.643  0.00  0.00    -0.058 C 
ATOM     62  H   LIG d   1       4.072  -3.621  -5.162  0.00  0.00     0.024 H 
ATOM     63  H   LIG d   1       5.219  -3.868  -3.824  0.00  0.00     0.024 H 
ATOM     64  H   LIG d   1       4.686  -2.224  -4.246  0.00  0.00     0.024 H 
ENDBRANCH   7  61
BRANCH   3  65
ATOM     65  O   LIG d   1       8.600  -0.848  -4.458  0.00  0.00    -0.391 OA
ATOM     66  H   LIG d   1       8.782  -0.651  -5.388  0.00  0.00     0.210 HD
ENDBRANCH   3  65
BRANCH   6  67
ATOM     67  C   LIG d   1       8.541  -3.521  -6.070  0.00  0.00    -0.059 C 
ATOM     68  H   LIG d   1       8.822  -4.448  -6.569  0.00  0.00     0.024 H 
ATOM     69  H   LIG d   1       8.238  -2.784  -6.813  0.00  0.00     0.024 H 
ATOM     70  H   LIG d   1       9.393  -3.140  -5.506  0.00  0.00     0.024 H 
ENDBRANCH   6  67
BRANCH  11  71
ATOM     71  C   LIG d   1       4.941  -6.178  -5.304  0.00  0.00    -0.052 C 
ATOM     72  H   LIG d   1       4.948  -5.814  -4.278  0.00  0.00     0.024 H 
ATOM     73  H   LIG d   1       4.169  -5.656  -5.870  0.00  0.00     0.024 H 
ATOM     74  H   LIG d   1       4.733  -7.248  -5.309  0.00  0.00     0.024 H 
ENDBRANCH  11  71
BRANCH  23  75
ATOM     75  C   LIG d   1       7.562  -9.960  -3.638  0.00  0.00    -0.049 C 
ATOM     76  H   LIG d   1       8.534  -9.559  -3.350  0.00  0.00     0.024 H 
ATOM     77  H   LIG d   1       6.795  -9.566  -2.973  0.00  0.00     0.024 H 
ATOM     78  H   LIG d   1       7.581 -11.047  -3.567  0.00  0.00     0.024 H 
ENDBRANCH  23  75
BRANCH  23  79
ATOM     79  C   LIG d   1       8.134 -10.360  -6.038  0.00  0.00    -0.049 C 
ATOM     80  H   LIG d   1       8.141 -11.404  -5.727  0.00  0.00     0.024 H 
ATOM     81  H   LIG d   1       7.740 -10.285  -7.051  0.00  0.00     0.024 H 
ATOM     82  H   LIG d   1       9.150  -9.967  -6.012  0.00  0.00     0.024 H 
ENDBRANCH  23  79
BRANCH  20  83
ATOM     83  O   LIG d   1       4.139  -9.843  -7.158  0.00  0.00    -0.504 OA
ATOM     84  H   LIG d   1       4.412 -10.447  -7.863  0.00  0.00     0.292 HD
ENDBRANCH  20  83
TORSDOF 18
ENDMDL
MODEL 9
REMARK VINA RESULT:      -5.6      2.568      5.496
REMARK  18 active torsions:
REMARK  status: ('A' for Active; 'I' for Inactive)
REMARK    1  A    between atoms: C_1  and  C_2 
REMARK    2  A    between atoms: C_2  and  O_4 
REMARK    3  A    between atoms: O_4  and  C_5 
REMARK    4  A    between atoms: C_5  and  C_6 
REMARK    5  A    between atoms: C_5  and  C_7 
REMARK    6  A    between atoms: C_5  and  C_37 
REMARK    7  A    between atoms: C_9  and  O_36 
REMARK    8  A    between atoms: C_12  and  C_35 
REMARK    9  A    between atoms: C_13  and  C_34 
REMARK   10  A    between atoms: C_17  and  C_33 
REMARK   11  A    between atoms: C_26  and  O_32 
REMARK   12  A    between atoms: C_29  and  C_30 
REMARK   13  A    between atoms: C_29  and  C_31 
REMARK   14  A    between atoms: C_37  and  C_39 
REMARK   15  A    between atoms: C_40  and  C_41 
REMARK   16  A    between atoms: C_41  and  C_42 
REMARK   17  A    between atoms: C_41  and  C_43 
REMARK   18  A    between atoms: C_41  and  O_44 
ROOT
ATOM      1  C   LIG d   1       4.876  -2.987  -6.943  0.00  0.00     0.038 C 
ATOM      2  H   LIG d   1       4.194  -2.851  -6.119  0.00  0.00     0.037 H 
ATOM      3  C   LIG d   1       4.502  -4.226  -7.793  0.00  0.00     0.063 C 
ATOM      4  H   LIG d   1       4.547  -3.977  -8.855  0.00  0.00     0.060 H 
ATOM      5  C   LIG d   1       5.550  -5.324  -7.460  0.00  0.00    -0.020 C 
ATOM      6  C   LIG d   1       6.162  -4.817  -6.132  0.00  0.00    -0.019 C 
ATOM      7  C   LIG d   1       6.298  -3.314  -6.440  0.00  0.00    -0.010 C 
ATOM      8  C   LIG d   1       6.735  -2.549  -5.219  0.00  0.00     0.013 C 
ATOM      9  C   LIG d   1       7.660  -3.399  -4.365  0.00  0.00     0.141 C 
ATOM     10  O   LIG d   1       7.829  -3.098  -3.189  0.00  0.00    -0.297 OA
ATOM     11  C   LIG d   1       8.368  -4.597  -4.931  0.00  0.00     0.040 C 
ATOM     12  C   LIG d   1       7.469  -5.479  -5.770  0.00  0.00    -0.019 C 
ATOM     13  H   LIG d   1       8.005  -5.713  -6.710  0.00  0.00     0.032 H 
ATOM     14  C   LIG d   1       7.197  -6.811  -5.061  0.00  0.00    -0.030 C 
ATOM     15  C   LIG d   1       8.515  -7.484  -4.757  0.00  0.00    -0.083 C 
ATOM     16  C   LIG d   1       9.449  -6.762  -4.187  0.00  0.00    -0.052 C 
ATOM     17  C   LIG d   1       9.142  -5.337  -3.853  0.00  0.00     0.015 C 
ATOM     18  H   LIG d   1       8.473  -5.365  -2.992  0.00  0.00     0.040 H 
ATOM     19  C   LIG d   1      10.335  -4.542  -3.424  0.00  0.00    -0.031 C 
ATOM     20  C   LIG d   1      11.582  -4.993  -3.492  0.00  0.00     0.157 C 
ATOM     21  C   LIG d   1      11.862  -6.339  -3.998  0.00  0.00     0.206 C 
ATOM     22  O   LIG d   1      12.928  -6.625  -4.492  0.00  0.00    -0.288 OA
ATOM     23  C   LIG d   1      10.780  -7.391  -3.847  0.00  0.00     0.052 C 
ATOM     24  H   LIG d   1       5.053  -6.281  -7.287  0.00  0.00     0.030 H 
ATOM     25  H   LIG d   1       6.305  -5.415  -8.232  0.00  0.00     0.030 H 
ATOM     26  H   LIG d   1       7.257  -1.626  -5.524  0.00  0.00     0.035 H 
ATOM     27  H   LIG d   1       5.862  -2.231  -4.625  0.00  0.00     0.035 H 
ATOM     28  H   LIG d   1       6.713  -6.647  -4.097  0.00  0.00     0.031 H 
ATOM     29  H   LIG d   1       6.597  -7.462  -5.690  0.00  0.00     0.031 H 
ATOM     30  H   LIG d   1       8.633  -8.516  -4.994  0.00  0.00     0.057 H 
ATOM     31  H   LIG d   1      10.188  -3.541  -3.041  0.00  0.00     0.062 H 
ENDROOT
BRANCH   1  32
ATOM     32  C   LIG d   1       4.925  -1.738  -7.826  0.00  0.00     0.177 C 
BRANCH  32  33
ATOM     33  O   LIG d   1       3.903  -1.819  -8.822  0.00  0.00    -0.450 OA
BRANCH  33  34
ATOM     34  C   LIG d   1       4.219  -1.394 -10.056  0.00  0.00     0.305 C 
ATOM     35  O   LIG d   1       4.176  -0.215 -10.317  0.00  0.00    -0.251 OA
BRANCH  34  36
ATOM     36  C   LIG d   1       4.627  -2.387 -11.113  0.00  0.00     0.033 C 
ATOM     37  H   LIG d   1       4.934  -3.318 -10.636  0.00  0.00     0.034 H 
ATOM     38  H   LIG d   1       3.784  -2.578 -11.776  0.00  0.00     0.034 H 
ATOM     39  H   LIG d   1       5.459  -1.983 -11.689  0.00  0.00     0.034 H 
ENDBRANCH  34  36
ENDBRANCH  33  34
ENDBRANCH  32  33
BRANCH  32  40
ATOM     40  C   LIG d   1       6.293  -1.646  -8.506  0.00  0.00    -0.017 C 
ATOM     41  H   LIG d   1       6.724  -2.642  -8.590  0.00  0.00     0.027 H 
ATOM     42  H   LIG d   1       6.175  -1.214  -9.500  0.00  0.00     0.027 H 
ATOM     43  H   LIG d   1       6.952  -1.013  -7.911  0.00  0.00     0.027 H 
ENDBRANCH  32  40
BRANCH  32  44
ATOM     44  C   LIG d   1       4.702  -0.513  -6.977  0.00  0.00     0.199 C 
ATOM     45  O   LIG d   1       5.291   0.517  -7.231  0.00  0.00    -0.288 OA
BRANCH  44  46
ATOM     46  C   LIG d   1       3.777  -0.566  -5.846  0.00  0.00    -0.016 C 
ATOM     47  C   LIG d   1       4.233  -0.411  -4.601  0.00  0.00    -0.050 C 
ATOM     48  H   LIG d   1       5.287  -0.246  -4.429  0.00  0.00     0.060 H 
ATOM     49  H   LIG d   1       2.723  -0.729  -6.018  0.00  0.00     0.065 H 
BRANCH  47  50
ATOM     50  C   LIG d   1       3.280  -0.464  -3.436  0.00  0.00     0.079 C 
BRANCH  50  51
ATOM     51  C   LIG d   1       3.587  -1.695  -2.582  0.00  0.00    -0.033 C 
ATOM     52  H   LIG d   1       3.780  -1.387  -1.555  0.00  0.00     0.026 H 
ATOM     53  H   LIG d   1       2.733  -2.374  -2.603  0.00  0.00     0.026 H 
ATOM     54  H   LIG d   1       4.465  -2.205  -2.980  0.00  0.00     0.026 H 
ENDBRANCH  50  51
BRANCH  50  55
ATOM     55  C   LIG d   1       3.440   0.799  -2.587  0.00  0.00    -0.033 C 
ATOM     56  H   LIG d   1       2.471   1.284  -2.471  0.00  0.00     0.026 H 
ATOM     57  H   LIG d   1       3.831   0.530  -1.606  0.00  0.00     0.026 H 
ATOM     58  H   LIG d   1       4.132   1.482  -3.079  0.00  0.00     0.026 H 
ENDBRANCH  50  55
BRANCH  50  59
ATOM     59  O   LIG d   1       1.938  -0.544  -3.922  0.00  0.00    -0.385 OA
ATOM     60  H   LIG d   1       1.577  -1.440  -3.935  0.00  0.00     0.211 HD
ENDBRANCH  50  59
ENDBRANCH  47  50
ENDBRANCH  44  46
ENDBRANCH  32  44
ENDBRANCH   1  32
BRANCH   7  61
ATOM     61  C   LIG d   1       7.231  -3.049  -7.627  0.00  0.00    -0.058 C 
ATOM     62  H   LIG d   1       6.702  -3.258  -8.558  0.00  0.00     0.024 H 
ATOM     63  H   LIG d   1       7.548  -2.007  -7.615  0.00  0.00     0.024 H 
ATOM     64  H   LIG d   1       8.105  -3.696  -7.554  0.00  0.00     0.024 H 
ENDBRANCH   7  61
BRANCH   3  65
ATOM     65  O   LIG d   1       3.191  -4.684  -7.452  0.00  0.00    -0.391 OA
ATOM     66  H   LIG d   1       2.577  -3.975  -7.216  0.00  0.00     0.210 HD
ENDBRANCH   3  65
BRANCH   6  67
ATOM     67  C   LIG d   1       5.123  -5.026  -5.024  0.00  0.00    -0.059 C 
ATOM     68  H   LIG d   1       4.637  -5.992  -5.161  0.00  0.00     0.024 H 
ATOM     69  H   LIG d   1       5.618  -5.002  -4.054  0.00  0.00     0.024 H 
ATOM     70  H   LIG d   1       4.376  -4.234  -5.072  0.00  0.00     0.024 H 
ENDBRANCH   6  67
BRANCH  11  71
ATOM     71  C   LIG d   1       9.483  -4.072  -5.854  0.00  0.00    -0.052 C 
ATOM     72  H   LIG d   1      10.259  -3.598  -5.254  0.00  0.00     0.024 H 
ATOM     73  H   LIG d   1       9.913  -4.903  -6.413  0.00  0.00     0.024 H 
ATOM     74  H   LIG d   1       9.065  -3.344  -6.550  0.00  0.00     0.024 H 
ENDBRANCH  11  71
BRANCH  23  75
ATOM     75  C   LIG d   1      11.103  -8.563  -4.783  0.00  0.00    -0.049 C 
ATOM     76  H   LIG d   1      10.785  -8.318  -5.796  0.00  0.00     0.024 H 
ATOM     77  H   LIG d   1      12.176  -8.751  -4.774  0.00  0.00     0.024 H 
ATOM     78  H   LIG d   1      10.575  -9.455  -4.443  0.00  0.00     0.024 H 
ENDBRANCH  23  75
BRANCH  23  79
ATOM     79  C   LIG d   1      10.762  -7.898  -2.398  0.00  0.00    -0.049 C 
ATOM     80  H   LIG d   1      10.082  -7.285  -1.808  0.00  0.00     0.024 H 
ATOM     81  H   LIG d   1      10.425  -8.935  -2.380  0.00  0.00     0.024 H 
ATOM     82  H   LIG d   1      11.765  -7.835  -1.979  0.00  0.00     0.024 H 
ENDBRANCH  23  79
BRANCH  20  83
ATOM     83  O   LIG d   1      12.612  -4.211  -3.079  0.00  0.00    -0.504 OA
ATOM     84  H   LIG d   1      13.327  -4.700  -2.649  0.00  0.00     0.292 HD
ENDBRANCH  20  83
TORSDOF 18
ENDMDL
