MODEL 1
REMARK VINA RESULT:      -4.2      0.000      0.000
REMARK  7 active torsions:
REMARK  status: ('A' for Active; 'I' for Inactive)
REMARK    1  A    between atoms: C_1  and  O_2 
REMARK    2  A    between atoms: O_2  and  C_3 
REMARK    3  A    between atoms: C_5  and  C_12 
REMARK    4  A    between atoms: C_7  and  O_10 
REMARK    5  A    between atoms: C_8  and  O_9 
REMARK    6  A    between atoms: O_10  and  C_11 
REMARK    7  A    between atoms: N_13  and  O_14 
ROOT
ATOM      1  C   LIG d   1      10.011   5.994  -2.109  0.00  0.00     0.166 A 
ATOM      2  C   LIG d   1       9.492   7.276  -2.131  0.00  0.00    -0.007 A 
ATOM      3  C   LIG d   1       9.699   8.130  -1.046  0.00  0.00     0.003 A 
ATOM      4  C   LIG d   1      10.434   7.689   0.056  0.00  0.00    -0.007 A 
ATOM      5  C   LIG d   1      10.946   6.404   0.076  0.00  0.00     0.166 A 
ATOM      6  C   LIG d   1      10.738   5.555  -1.006  0.00  0.00     0.201 A 
ATOM      7  H   LIG d   1       8.929   7.617  -2.987  0.00  0.00     0.066 H 
ATOM      8  H   LIG d   1      10.600   8.349   0.895  0.00  0.00     0.066 H 
ENDROOT
BRANCH   1   9
ATOM      9  O   LIG d   1       9.810   5.161  -3.166  0.00  0.00    -0.491 OA
BRANCH   9  10
ATOM     10  C   LIG d   1       9.425   5.764  -4.403  0.00  0.00     0.079 C 
ATOM     11  H   LIG d   1       9.299   6.838  -4.260  0.00  0.00     0.066 H 
ATOM     12  H   LIG d   1      10.199   5.586  -5.150  0.00  0.00     0.066 H 
ATOM     13  H   LIG d   1       8.486   5.329  -4.742  0.00  0.00     0.066 H 
ENDBRANCH   9  10
ENDBRANCH   1   9
BRANCH   6  14
ATOM     14  O   LIG d   1      11.247   4.294  -0.988  0.00  0.00    -0.501 OA
ATOM     15  H   LIG d   1      12.210   4.257  -1.056  0.00  0.00     0.292 HD
ENDBRANCH   6  14
BRANCH   5  16
ATOM     16  O   LIG d   1      11.657   5.972   1.152  0.00  0.00    -0.491 OA
BRANCH  16  17
ATOM     17  C   LIG d   1      10.914   5.601   2.314  0.00  0.00     0.079 C 
ATOM     18  H   LIG d   1      10.214   4.804   2.060  0.00  0.00     0.066 H 
ATOM     19  H   LIG d   1      11.598   5.251   3.087  0.00  0.00     0.066 H 
ATOM     20  H   LIG d   1      10.361   6.466   2.683  0.00  0.00     0.066 H 
ENDBRANCH  16  17
ENDBRANCH   5  16
BRANCH   3  21
ATOM     21  C   LIG d   1       9.148   9.498  -1.067  0.00  0.00     0.074 C 
ATOM     22  N   LIG d   1       9.433  10.296  -2.045  0.00  0.00    -0.095 NA
ATOM     23  H   LIG d   1       8.503   9.833  -0.267  0.00  0.00     0.087 H 
BRANCH  22  24
ATOM     24  O   LIG d   1       8.904  11.609  -2.065  0.00  0.00    -0.409 OA
ATOM     25  H   LIG d   1       8.571  11.912  -1.211  0.00  0.00     0.328 HD
ENDBRANCH  22  24
ENDBRANCH   3  21
TORSDOF 7
ENDMDL
MODEL 2
REMARK VINA RESULT:      -4.1      8.165     10.261
REMARK  7 active torsions:
REMARK  status: ('A' for Active; 'I' for Inactive)
REMARK    1  A    between atoms: C_1  and  O_2 
REMARK    2  A    between atoms: O_2  and  C_3 
REMARK    3  A    between atoms: C_5  and  C_12 
REMARK    4  A    between atoms: C_7  and  O_10 
REMARK    5  A    between atoms: C_8  and  O_9 
REMARK    6  A    between atoms: O_10  and  C_11 
REMARK    7  A    between atoms: N_13  and  O_14 
ROOT
ATOM      1  C   LIG d   1       6.808   0.763  -3.805  0.00  0.00     0.166 A 
ATOM      2  C   LIG d   1       7.530  -0.399  -4.015  0.00  0.00    -0.007 A 
ATOM      3  C   LIG d   1       7.000  -1.629  -3.621  0.00  0.00     0.003 A 
ATOM      4  C   LIG d   1       5.740  -1.684  -3.020  0.00  0.00    -0.007 A 
ATOM      5  C   LIG d   1       5.026  -0.519  -2.807  0.00  0.00     0.166 A 
ATOM      6  C   LIG d   1       5.556   0.705  -3.200  0.00  0.00     0.201 A 
ATOM      7  H   LIG d   1       8.501  -0.354  -4.484  0.00  0.00     0.066 H 
ATOM      8  H   LIG d   1       5.326  -2.635  -2.719  0.00  0.00     0.066 H 
ENDROOT
BRANCH   1   9
ATOM      9  O   LIG d   1       7.324   1.962  -4.189  0.00  0.00    -0.491 OA
BRANCH   9  10
ATOM     10  C   LIG d   1       8.654   2.263  -3.763  0.00  0.00     0.079 C 
ATOM     11  H   LIG d   1       8.618   2.964  -2.928  0.00  0.00     0.066 H 
ATOM     12  H   LIG d   1       9.150   1.345  -3.446  0.00  0.00     0.066 H 
ATOM     13  H   LIG d   1       9.208   2.708  -4.589  0.00  0.00     0.066 H 
ENDBRANCH   9  10
ENDBRANCH   1   9
BRANCH   6  14
ATOM     14  O   LIG d   1       4.849   1.849  -2.995  0.00  0.00    -0.501 OA
ATOM     15  H   LIG d   1       4.897   2.478  -3.728  0.00  0.00     0.292 HD
ENDBRANCH   6  14
BRANCH   5  16
ATOM     16  O   LIG d   1       3.801  -0.572  -2.217  0.00  0.00    -0.491 OA
BRANCH  16  17
ATOM     17  C   LIG d   1       2.688  -0.879  -3.059  0.00  0.00     0.079 C 
ATOM     18  H   LIG d   1       2.859  -0.464  -4.053  0.00  0.00     0.066 H 
ATOM     19  H   LIG d   1       2.576  -1.961  -3.132  0.00  0.00     0.066 H 
ATOM     20  H   LIG d   1       1.782  -0.448  -2.634  0.00  0.00     0.066 H 
ENDBRANCH  16  17
ENDBRANCH   5  16
BRANCH   3  21
ATOM     21  C   LIG d   1       7.767  -2.869  -3.845  0.00  0.00     0.074 C 
ATOM     22  N   LIG d   1       7.289  -3.796  -4.611  0.00  0.00    -0.095 NA
ATOM     23  H   LIG d   1       8.729  -3.002  -3.371  0.00  0.00     0.087 H 
BRANCH  22  24
ATOM     24  O   LIG d   1       8.025  -4.987  -4.825  0.00  0.00    -0.409 OA
ATOM     25  H   LIG d   1       7.542  -5.793  -4.602  0.00  0.00     0.328 HD
ENDBRANCH  22  24
ENDBRANCH   3  21
TORSDOF 7
ENDMDL
MODEL 3
REMARK VINA RESULT:      -4.1      0.947      3.546
REMARK  7 active torsions:
REMARK  status: ('A' for Active; 'I' for Inactive)
REMARK    1  A    between atoms: C_1  and  O_2 
REMARK    2  A    between atoms: O_2  and  C_3 
REMARK    3  A    between atoms: C_5  and  C_12 
REMARK    4  A    between atoms: C_7  and  O_10 
REMARK    5  A    between atoms: C_8  and  O_9 
REMARK    6  A    between atoms: O_10  and  C_11 
REMARK    7  A    between atoms: N_13  and  O_14 
ROOT
ATOM      1  C   LIG d   1      10.972   6.394   0.131  0.00  0.00     0.166 A 
ATOM      2  C   LIG d   1      10.591   7.721   0.217  0.00  0.00    -0.007 A 
ATOM      3  C   LIG d   1       9.906   8.320  -0.842  0.00  0.00     0.003 A 
ATOM      4  C   LIG d   1       9.604   7.576  -1.984  0.00  0.00    -0.007 A 
ATOM      5  C   LIG d   1       9.992   6.251  -2.068  0.00  0.00     0.166 A 
ATOM      6  C   LIG d   1      10.674   5.656  -1.011  0.00  0.00     0.201 A 
ATOM      7  H   LIG d   1      10.821   8.293   1.104  0.00  0.00     0.066 H 
ATOM      8  H   LIG d   1       9.070   8.035  -2.804  0.00  0.00     0.066 H 
ENDROOT
BRANCH   1   9
ATOM      9  O   LIG d   1      11.638   5.810   1.163  0.00  0.00    -0.491 OA
BRANCH   9  10
ATOM     10  C   LIG d   1      10.900   5.582   2.365  0.00  0.00     0.079 C 
ATOM     11  H   LIG d   1      11.550   5.116   3.107  0.00  0.00     0.066 H 
ATOM     12  H   LIG d   1      10.532   6.532   2.751  0.00  0.00     0.066 H 
ATOM     13  H   LIG d   1      10.058   4.923   2.155  0.00  0.00     0.066 H 
ENDBRANCH   9  10
ENDBRANCH   1   9
BRANCH   6  14
ATOM     14  O   LIG d   1      11.050   4.352  -1.092  0.00  0.00    -0.501 OA
ATOM     15  H   LIG d   1      11.928   4.172  -0.732  0.00  0.00     0.292 HD
ENDBRANCH   6  14
BRANCH   5  16
ATOM     16  O   LIG d   1       9.703   5.526  -3.182  0.00  0.00    -0.491 OA
BRANCH  16  17
ATOM     17  C   LIG d   1       9.302   6.256  -4.344  0.00  0.00     0.079 C 
ATOM     18  H   LIG d   1      10.184   6.524  -4.927  0.00  0.00     0.066 H 
ATOM     19  H   LIG d   1       8.640   5.638  -4.950  0.00  0.00     0.066 H 
ATOM     20  H   LIG d   1       8.777   7.162  -4.040  0.00  0.00     0.066 H 
ENDBRANCH  16  17
ENDBRANCH   5  16
BRANCH   3  21
ATOM     21  C   LIG d   1       9.498   9.735  -0.753  0.00  0.00     0.074 C 
ATOM     22  N   LIG d   1       9.945  10.477   0.209  0.00  0.00    -0.095 NA
ATOM     23  H   LIG d   1       8.830  10.152  -1.492  0.00  0.00     0.087 H 
BRANCH  22  24
ATOM     24  O   LIG d   1       9.553  11.836   0.295  0.00  0.00    -0.409 OA
ATOM     25  H   LIG d   1       8.597  11.972   0.262  0.00  0.00     0.328 HD
ENDBRANCH  22  24
ENDBRANCH   3  21
TORSDOF 7
ENDMDL
MODEL 4
REMARK VINA RESULT:      -4.0      1.575      2.108
REMARK  7 active torsions:
REMARK  status: ('A' for Active; 'I' for Inactive)
REMARK    1  A    between atoms: C_1  and  O_2 
REMARK    2  A    between atoms: O_2  and  C_3 
REMARK    3  A    between atoms: C_5  and  C_12 
REMARK    4  A    between atoms: C_7  and  O_10 
REMARK    5  A    between atoms: C_8  and  O_9 
REMARK    6  A    between atoms: O_10  and  C_11 
REMARK    7  A    between atoms: N_13  and  O_14 
ROOT
ATOM      1  C   LIG d   1      10.441   6.728  -0.755  0.00  0.00     0.166 A 
ATOM      2  C   LIG d   1       9.538   7.679  -1.193  0.00  0.00    -0.007 A 
ATOM      3  C   LIG d   1       9.576   8.971  -0.667  0.00  0.00     0.003 A 
ATOM      4  C   LIG d   1      10.531   9.301   0.298  0.00  0.00    -0.007 A 
ATOM      5  C   LIG d   1      11.428   8.345   0.737  0.00  0.00     0.166 A 
ATOM      6  C   LIG d   1      11.388   7.057   0.211  0.00  0.00     0.201 A 
ATOM      7  H   LIG d   1       8.804   7.423  -1.943  0.00  0.00     0.066 H 
ATOM      8  H   LIG d   1      10.566  10.302   0.704  0.00  0.00     0.066 H 
ENDROOT
BRANCH   1   9
ATOM      9  O   LIG d   1      10.405   5.468  -1.269  0.00  0.00    -0.491 OA
BRANCH   9  10
ATOM     10  C   LIG d   1       9.962   5.331  -2.620  0.00  0.00     0.079 C 
ATOM     11  H   LIG d   1      10.563   4.574  -3.125  0.00  0.00     0.066 H 
ATOM     12  H   LIG d   1       8.915   5.029  -2.630  0.00  0.00     0.066 H 
ATOM     13  H   LIG d   1      10.070   6.285  -3.136  0.00  0.00     0.066 H 
ENDBRANCH   9  10
ENDBRANCH   1   9
BRANCH   6  14
ATOM     14  O   LIG d   1      12.275   6.120   0.639  0.00  0.00    -0.501 OA
ATOM     15  H   LIG d   1      13.121   6.137   0.173  0.00  0.00     0.292 HD
ENDBRANCH   6  14
BRANCH   5  16
ATOM     16  O   LIG d   1      12.354   8.664   1.681  0.00  0.00    -0.491 OA
BRANCH  16  17
ATOM     17  C   LIG d   1      12.294   9.982   2.229  0.00  0.00     0.079 C 
ATOM     18  H   LIG d   1      11.885   9.937   3.239  0.00  0.00     0.066 H 
ATOM     19  H   LIG d   1      13.297  10.408   2.261  0.00  0.00     0.066 H 
ATOM     20  H   LIG d   1      11.654  10.606   1.605  0.00  0.00     0.066 H 
ENDBRANCH  16  17
ENDBRANCH   5  16
BRANCH   3  21
ATOM     21  C   LIG d   1       8.615   9.988  -1.132  0.00  0.00     0.074 C 
ATOM     22  N   LIG d   1       8.777  10.551  -2.286  0.00  0.00    -0.095 NA
ATOM     23  H   LIG d   1       7.773  10.260  -0.512  0.00  0.00     0.087 H 
BRANCH  22  24
ATOM     24  O   LIG d   1       7.853  11.528  -2.734  0.00  0.00    -0.409 OA
ATOM     25  H   LIG d   1       7.020  11.162  -3.057  0.00  0.00     0.328 HD
ENDBRANCH  22  24
ENDBRANCH   3  21
TORSDOF 7
ENDMDL
MODEL 5
REMARK VINA RESULT:      -4.0      9.695     11.119
REMARK  7 active torsions:
REMARK  status: ('A' for Active; 'I' for Inactive)
REMARK    1  A    between atoms: C_1  and  O_2 
REMARK    2  A    between atoms: O_2  and  C_3 
REMARK    3  A    between atoms: C_5  and  C_12 
REMARK    4  A    between atoms: C_7  and  O_10 
REMARK    5  A    between atoms: C_8  and  O_9 
REMARK    6  A    between atoms: O_10  and  C_11 
REMARK    7  A    between atoms: N_13  and  O_14 
ROOT
ATOM      1  C   LIG d   1       4.659  -2.096  -5.131  0.00  0.00     0.166 A 
ATOM      2  C   LIG d   1       4.335  -1.495  -6.334  0.00  0.00    -0.007 A 
ATOM      3  C   LIG d   1       3.548  -0.341  -6.347  0.00  0.00     0.003 A 
ATOM      4  C   LIG d   1       3.094   0.205  -5.144  0.00  0.00    -0.007 A 
ATOM      5  C   LIG d   1       3.416  -0.403  -3.945  0.00  0.00     0.166 A 
ATOM      6  C   LIG d   1       4.200  -1.553  -3.934  0.00  0.00     0.201 A 
ATOM      7  H   LIG d   1       4.691  -1.916  -7.262  0.00  0.00     0.066 H 
ATOM      8  H   LIG d   1       2.489   1.100  -5.151  0.00  0.00     0.066 H 
ENDROOT
BRANCH   1   9
ATOM      9  O   LIG d   1       5.426  -3.219  -5.117  0.00  0.00    -0.491 OA
BRANCH   9  10
ATOM     10  C   LIG d   1       4.832  -4.417  -5.621  0.00  0.00     0.079 C 
ATOM     11  H   LIG d   1       4.714  -4.338  -6.702  0.00  0.00     0.066 H 
ATOM     12  H   LIG d   1       5.473  -5.267  -5.387  0.00  0.00     0.066 H 
ATOM     13  H   LIG d   1       3.855  -4.560  -5.158  0.00  0.00     0.066 H 
ENDBRANCH   9  10
ENDBRANCH   1   9
BRANCH   6  14
ATOM     14  O   LIG d   1       4.521  -2.146  -2.753  0.00  0.00    -0.501 OA
ATOM     15  H   LIG d   1       4.048  -1.785  -1.991  0.00  0.00     0.292 HD
ENDBRANCH   6  14
BRANCH   5  16
ATOM     16  O   LIG d   1       2.970   0.125  -2.773  0.00  0.00    -0.491 OA
BRANCH  16  17
ATOM     17  C   LIG d   1       3.686   1.248  -2.254  0.00  0.00     0.079 C 
ATOM     18  H   LIG d   1       4.540   0.897  -1.673  0.00  0.00     0.066 H 
ATOM     19  H   LIG d   1       4.037   1.867  -3.079  0.00  0.00     0.066 H 
ATOM     20  H   LIG d   1       3.027   1.834  -1.614  0.00  0.00     0.066 H 
ENDBRANCH  16  17
ENDBRANCH   5  16
BRANCH   3  21
ATOM     21  C   LIG d   1       3.201   0.302  -7.628  0.00  0.00     0.074 C 
ATOM     22  N   LIG d   1       3.088   1.590  -7.696  0.00  0.00    -0.095 NA
ATOM     23  H   LIG d   1       3.045  -0.301  -8.510  0.00  0.00     0.087 H 
BRANCH  22  24
ATOM     24  O   LIG d   1       2.755   2.208  -8.926  0.00  0.00    -0.409 OA
ATOM     25  H   LIG d   1       3.454   2.160  -9.591  0.00  0.00     0.328 HD
ENDBRANCH  22  24
ENDBRANCH   3  21
TORSDOF 7
ENDMDL
MODEL 6
REMARK VINA RESULT:      -4.0      1.672      3.804
REMARK  7 active torsions:
REMARK  status: ('A' for Active; 'I' for Inactive)
REMARK    1  A    between atoms: C_1  and  O_2 
REMARK    2  A    between atoms: O_2  and  C_3 
REMARK    3  A    between atoms: C_5  and  C_12 
REMARK    4  A    between atoms: C_7  and  O_10 
REMARK    5  A    between atoms: C_8  and  O_9 
REMARK    6  A    between atoms: O_10  and  C_11 
REMARK    7  A    between atoms: N_13  and  O_14 
ROOT
ATOM      1  C   LIG d   1      11.263   8.388   1.146  0.00  0.00     0.166 A 
ATOM      2  C   LIG d   1      10.746   9.425   0.390  0.00  0.00    -0.007 A 
ATOM      3  C   LIG d   1      10.102   9.152  -0.819  0.00  0.00     0.003 A 
ATOM      4  C   LIG d   1       9.980   7.832  -1.259  0.00  0.00    -0.007 A 
ATOM      5  C   LIG d   1      10.504   6.800  -0.503  0.00  0.00     0.166 A 
ATOM      6  C   LIG d   1      11.145   7.075   0.702  0.00  0.00     0.201 A 
ATOM      7  H   LIG d   1      10.837  10.444   0.735  0.00  0.00     0.066 H 
ATOM      8  H   LIG d   1       9.479   7.617  -2.192  0.00  0.00     0.066 H 
ENDROOT
BRANCH   1   9
ATOM      9  O   LIG d   1      11.889   8.653   2.324  0.00  0.00    -0.491 OA
BRANCH   9  10
ATOM     10  C   LIG d   1      12.354   9.990   2.526  0.00  0.00     0.079 C 
ATOM     11  H   LIG d   1      11.550  10.692   2.301  0.00  0.00     0.066 H 
ATOM     12  H   LIG d   1      12.664  10.113   3.563  0.00  0.00     0.066 H 
ATOM     13  H   LIG d   1      13.200  10.183   1.868  0.00  0.00     0.066 H 
ENDBRANCH   9  10
ENDBRANCH   1   9
BRANCH   6  14
ATOM     14  O   LIG d   1      11.654   6.058   1.447  0.00  0.00    -0.501 OA
ATOM     15  H   LIG d   1      11.586   5.190   1.028  0.00  0.00     0.292 HD
ENDBRANCH   6  14
BRANCH   5  16
ATOM     16  O   LIG d   1      10.390   5.515  -0.933  0.00  0.00    -0.491 OA
BRANCH  16  17
ATOM     17  C   LIG d   1      10.196   5.316  -2.335  0.00  0.00     0.079 C 
ATOM     18  H   LIG d   1       9.536   6.091  -2.725  0.00  0.00     0.066 H 
ATOM     19  H   LIG d   1      11.158   5.367  -2.845  0.00  0.00     0.066 H 
ATOM     20  H   LIG d   1       9.747   4.337  -2.504  0.00  0.00     0.066 H 
ENDBRANCH  16  17
ENDBRANCH   5  16
BRANCH   3  21
ATOM     21  C   LIG d   1       9.549  10.255  -1.627  0.00  0.00     0.074 C 
ATOM     22  N   LIG d   1       8.271  10.346  -1.808  0.00  0.00    -0.095 NA
ATOM     23  H   LIG d   1      10.211  10.988  -2.065  0.00  0.00     0.087 H 
BRANCH  22  24
ATOM     24  O   LIG d   1       7.739  11.405  -2.584  0.00  0.00    -0.409 OA
ATOM     25  H   LIG d   1       7.576  11.172  -3.507  0.00  0.00     0.328 HD
ENDBRANCH  22  24
ENDBRANCH   3  21
TORSDOF 7
ENDMDL
MODEL 7
REMARK VINA RESULT:      -4.0      2.836      4.665
REMARK  7 active torsions:
REMARK  status: ('A' for Active; 'I' for Inactive)
REMARK    1  A    between atoms: C_1  and  O_2 
REMARK    2  A    between atoms: O_2  and  C_3 
REMARK    3  A    between atoms: C_5  and  C_12 
REMARK    4  A    between atoms: C_7  and  O_10 
REMARK    5  A    between atoms: C_8  and  O_9 
REMARK    6  A    between atoms: O_10  and  C_11 
REMARK    7  A    between atoms: N_13  and  O_14 
ROOT
ATOM      1  C   LIG d   1      10.434   7.682   0.077  0.00  0.00     0.166 A 
ATOM      2  C   LIG d   1      11.255   8.399   0.929  0.00  0.00    -0.007 A 
ATOM      3  C   LIG d   1      11.225   9.795   0.914  0.00  0.00     0.003 A 
ATOM      4  C   LIG d   1      10.361  10.463   0.043  0.00  0.00    -0.007 A 
ATOM      5  C   LIG d   1       9.546   9.741  -0.809  0.00  0.00     0.166 A 
ATOM      6  C   LIG d   1       9.578   8.350  -0.793  0.00  0.00     0.201 A 
ATOM      7  H   LIG d   1      11.918   7.880   1.605  0.00  0.00     0.066 H 
ATOM      8  H   LIG d   1      10.332  11.543   0.033  0.00  0.00     0.066 H 
ENDROOT
BRANCH   1   9
ATOM      9  O   LIG d   1      10.462   6.322   0.092  0.00  0.00    -0.491 OA
BRANCH   9  10
ATOM     10  C   LIG d   1      11.105   5.698   1.205  0.00  0.00     0.079 C 
ATOM     11  H   LIG d   1      12.068   6.177   1.384  0.00  0.00     0.066 H 
ATOM     12  H   LIG d   1      10.478   5.801   2.091  0.00  0.00     0.066 H 
ATOM     13  H   LIG d   1      11.258   4.640   0.991  0.00  0.00     0.066 H 
ENDBRANCH   9  10
ENDBRANCH   1   9
BRANCH   6  14
ATOM     14  O   LIG d   1       8.772   7.642  -1.629  0.00  0.00    -0.501 OA
ATOM     15  H   LIG d   1       9.161   7.466  -2.495  0.00  0.00     0.292 HD
ENDBRANCH   6  14
BRANCH   5  16
ATOM     16  O   LIG d   1       8.708  10.391  -1.662  0.00  0.00    -0.491 OA
BRANCH  16  17
ATOM     17  C   LIG d   1       9.313  11.176  -2.692  0.00  0.00     0.079 C 
ATOM     18  H   LIG d   1       8.619  11.275  -3.527  0.00  0.00     0.066 H 
ATOM     19  H   LIG d   1       9.554  12.164  -2.301  0.00  0.00     0.066 H 
ATOM     20  H   LIG d   1      10.225  10.687  -3.032  0.00  0.00     0.066 H 
ENDBRANCH  16  17
ENDBRANCH   5  16
BRANCH   3  21
ATOM     21  C   LIG d   1      12.099  10.563   1.821  0.00  0.00     0.074 C 
ATOM     22  N   LIG d   1      11.777  11.768   2.164  0.00  0.00    -0.095 NA
ATOM     23  H   LIG d   1      13.007  10.117   2.201  0.00  0.00     0.087 H 
BRANCH  22  24
ATOM     24  O   LIG d   1      12.616  12.505   3.034  0.00  0.00    -0.409 OA
ATOM     25  H   LIG d   1      13.496  12.123   3.149  0.00  0.00     0.328 HD
ENDBRANCH  22  24
ENDBRANCH   3  21
TORSDOF 7
ENDMDL
MODEL 8
REMARK VINA RESULT:      -3.9      2.100      4.487
REMARK  7 active torsions:
REMARK  status: ('A' for Active; 'I' for Inactive)
REMARK    1  A    between atoms: C_1  and  O_2 
REMARK    2  A    between atoms: O_2  and  C_3 
REMARK    3  A    between atoms: C_5  and  C_12 
REMARK    4  A    between atoms: C_7  and  O_10 
REMARK    5  A    between atoms: C_8  and  O_9 
REMARK    6  A    between atoms: O_10  and  C_11 
REMARK    7  A    between atoms: N_13  and  O_14 
ROOT
ATOM      1  C   LIG d   1       9.942   8.003  -1.614  0.00  0.00     0.166 A 
ATOM      2  C   LIG d   1      10.319   7.629  -0.337  0.00  0.00    -0.007 A 
ATOM      3  C   LIG d   1      10.679   6.305  -0.076  0.00  0.00     0.003 A 
ATOM      4  C   LIG d   1      10.662   5.363  -1.107  0.00  0.00    -0.007 A 
ATOM      5  C   LIG d   1      10.278   5.742  -2.381  0.00  0.00     0.166 A 
ATOM      6  C   LIG d   1       9.920   7.061  -2.638  0.00  0.00     0.201 A 
ATOM      7  H   LIG d   1      10.337   8.360   0.458  0.00  0.00     0.066 H 
ATOM      8  H   LIG d   1      10.944   4.340  -0.910  0.00  0.00     0.066 H 
ENDROOT
BRANCH   1   9
ATOM      9  O   LIG d   1       9.592   9.293  -1.868  0.00  0.00    -0.491 OA
BRANCH   9  10
ATOM     10  C   LIG d   1       8.815   9.963  -0.873  0.00  0.00     0.079 C 
ATOM     11  H   LIG d   1       9.052   9.554   0.109  0.00  0.00     0.066 H 
ATOM     12  H   LIG d   1       9.046  11.028  -0.889  0.00  0.00     0.066 H 
ATOM     13  H   LIG d   1       7.755   9.817  -1.082  0.00  0.00     0.066 H 
ENDBRANCH   9  10
ENDBRANCH   1   9
BRANCH   6  14
ATOM     14  O   LIG d   1       9.549   7.433  -3.893  0.00  0.00    -0.501 OA
ATOM     15  H   LIG d   1       9.247   8.349  -3.959  0.00  0.00     0.292 HD
ENDBRANCH   6  14
BRANCH   5  16
ATOM     16  O   LIG d   1      10.256   4.824  -3.385  0.00  0.00    -0.491 OA
BRANCH  16  17
ATOM     17  C   LIG d   1      10.117   3.453  -3.007  0.00  0.00     0.079 C 
ATOM     18  H   LIG d   1       9.114   3.106  -3.259  0.00  0.00     0.066 H 
ATOM     19  H   LIG d   1      10.854   2.853  -3.541  0.00  0.00     0.066 H 
ATOM     20  H   LIG d   1      10.277   3.355  -1.934  0.00  0.00     0.066 H 
ENDBRANCH  16  17
ENDBRANCH   5  16
BRANCH   3  21
ATOM     21  C   LIG d   1      11.082   5.903   1.285  0.00  0.00     0.074 C 
ATOM     22  N   LIG d   1      11.063   6.768   2.247  0.00  0.00    -0.095 NA
ATOM     23  H   LIG d   1      11.390   4.885   1.478  0.00  0.00     0.087 H 
BRANCH  22  24
ATOM     24  O   LIG d   1      11.450   6.382   3.554  0.00  0.00    -0.409 OA
ATOM     25  H   LIG d   1      11.074   6.931   4.254  0.00  0.00     0.328 HD
ENDBRANCH  22  24
ENDBRANCH   3  21
TORSDOF 7
ENDMDL
MODEL 9
REMARK VINA RESULT:      -3.9      9.848     11.478
REMARK  7 active torsions:
REMARK  status: ('A' for Active; 'I' for Inactive)
REMARK    1  A    between atoms: C_1  and  O_2 
REMARK    2  A    between atoms: O_2  and  C_3 
REMARK    3  A    between atoms: C_5  and  C_12 
REMARK    4  A    between atoms: C_7  and  O_10 
REMARK    5  A    between atoms: C_8  and  O_9 
REMARK    6  A    between atoms: O_10  and  C_11 
REMARK    7  A    between atoms: N_13  and  O_14 
ROOT
ATOM      1  C   LIG d   1       3.456  -0.660  -3.935  0.00  0.00     0.166 A 
ATOM      2  C   LIG d   1       3.528  -0.017  -5.157  0.00  0.00    -0.007 A 
ATOM      3  C   LIG d   1       4.114  -0.660  -6.250  0.00  0.00     0.003 A 
ATOM      4  C   LIG d   1       4.621  -1.953  -6.106  0.00  0.00    -0.007 A 
ATOM      5  C   LIG d   1       4.551  -2.590  -4.880  0.00  0.00     0.166 A 
ATOM      6  C   LIG d   1       3.967  -1.947  -3.793  0.00  0.00     0.201 A 
ATOM      7  H   LIG d   1       3.131   0.981  -5.267  0.00  0.00     0.066 H 
ATOM      8  H   LIG d   1       5.070  -2.455  -6.950  0.00  0.00     0.066 H 
ENDROOT
BRANCH   1   9
ATOM      9  O   LIG d   1       2.885  -0.034  -2.870  0.00  0.00    -0.491 OA
BRANCH   9  10
ATOM     10  C   LIG d   1       3.576   1.097  -2.336  0.00  0.00     0.079 C 
ATOM     11  H   LIG d   1       2.892   1.683  -1.720  0.00  0.00     0.066 H 
ATOM     12  H   LIG d   1       4.412   0.756  -1.725  0.00  0.00     0.066 H 
ATOM     13  H   LIG d   1       3.949   1.714  -3.152  0.00  0.00     0.066 H 
ENDBRANCH   9  10
ENDBRANCH   1   9
BRANCH   6  14
ATOM     14  O   LIG d   1       3.895  -2.576  -2.590  0.00  0.00    -0.501 OA
ATOM     15  H   LIG d   1       3.007  -2.881  -2.358  0.00  0.00     0.292 HD
ENDBRANCH   6  14
BRANCH   5  16
ATOM     16  O   LIG d   1       5.049  -3.847  -4.738  0.00  0.00    -0.491 OA
BRANCH  16  17
ATOM     17  C   LIG d   1       4.672  -4.810  -5.724  0.00  0.00     0.079 C 
ATOM     18  H   LIG d   1       4.652  -4.336  -6.706  0.00  0.00     0.066 H 
ATOM     19  H   LIG d   1       5.393  -5.627  -5.729  0.00  0.00     0.066 H 
ATOM     20  H   LIG d   1       3.681  -5.201  -5.489  0.00  0.00     0.066 H 
ENDBRANCH  16  17
ENDBRANCH   5  16
BRANCH   3  21
ATOM     21  C   LIG d   1       4.192   0.023  -7.555  0.00  0.00     0.074 C 
ATOM     22  N   LIG d   1       3.669   1.198  -7.702  0.00  0.00    -0.095 NA
ATOM     23  H   LIG d   1       4.688  -0.455  -8.386  0.00  0.00     0.087 H 
BRANCH  22  24
ATOM     24  O   LIG d   1       3.743   1.854  -8.955  0.00  0.00    -0.409 OA
ATOM     25  H   LIG d   1       3.538   2.797  -8.918  0.00  0.00     0.328 HD
ENDBRANCH  22  24
ENDBRANCH   3  21
TORSDOF 7
ENDMDL
MODEL 10
REMARK VINA RESULT:      -3.8      2.190      4.252
REMARK  7 active torsions:
REMARK  status: ('A' for Active; 'I' for Inactive)
REMARK    1  A    between atoms: C_1  and  O_2 
REMARK    2  A    between atoms: O_2  and  C_3 
REMARK    3  A    between atoms: C_5  and  C_12 
REMARK    4  A    between atoms: C_7  and  O_10 
REMARK    5  A    between atoms: C_8  and  O_9 
REMARK    6  A    between atoms: O_10  and  C_11 
REMARK    7  A    between atoms: N_13  and  O_14 
ROOT
ATOM      1  C   LIG d   1      10.005   6.279  -2.202  0.00  0.00     0.166 A 
ATOM      2  C   LIG d   1      10.393   6.234  -0.875  0.00  0.00    -0.007 A 
ATOM      3  C   LIG d   1      10.702   7.417  -0.200  0.00  0.00     0.003 A 
ATOM      4  C   LIG d   1      10.614   8.642  -0.866  0.00  0.00    -0.007 A 
ATOM      5  C   LIG d   1      10.231   8.679  -2.194  0.00  0.00     0.166 A 
ATOM      6  C   LIG d   1       9.923   7.500  -2.865  0.00  0.00     0.201 A 
ATOM      7  H   LIG d   1      10.455   5.287  -0.361  0.00  0.00     0.066 H 
ATOM      8  H   LIG d   1      10.848   9.558  -0.345  0.00  0.00     0.066 H 
ENDROOT
BRANCH   1   9
ATOM      9  O   LIG d   1       9.702   5.127  -2.860  0.00  0.00    -0.491 OA
BRANCH   9  10
ATOM     10  C   LIG d   1      10.500   3.980  -2.561  0.00  0.00     0.079 C 
ATOM     11  H   LIG d   1      10.479   3.793  -1.486  0.00  0.00     0.066 H 
ATOM     12  H   LIG d   1      10.102   3.113  -3.087  0.00  0.00     0.066 H 
ATOM     13  H   LIG d   1      11.527   4.158  -2.879  0.00  0.00     0.066 H 
ENDBRANCH   9  10
ENDBRANCH   1   9
BRANCH   6  14
ATOM     14  O   LIG d   1       9.541   7.539  -4.169  0.00  0.00    -0.501 OA
ATOM     15  H   LIG d   1       9.818   6.770  -4.684  0.00  0.00     0.292 HD
ENDBRANCH   6  14
BRANCH   5  16
ATOM     16  O   LIG d   1      10.150   9.871  -2.845  0.00  0.00    -0.491 OA
BRANCH  16  17
ATOM     17  C   LIG d   1       9.246  10.841  -2.311  0.00  0.00     0.079 C 
ATOM     18  H   LIG d   1       8.656  11.272  -3.120  0.00  0.00     0.066 H 
ATOM     19  H   LIG d   1       8.583  10.362  -1.592  0.00  0.00     0.066 H 
ATOM     20  H   LIG d   1       9.812  11.629  -1.814  0.00  0.00     0.066 H 
ENDBRANCH  16  17
ENDBRANCH   5  16
BRANCH   3  21
ATOM     21  C   LIG d   1      11.116   7.373   1.215  0.00  0.00     0.074 C 
ATOM     22  N   LIG d   1      10.917   6.303   1.914  0.00  0.00    -0.095 NA
ATOM     23  H   LIG d   1      11.588   8.234   1.666  0.00  0.00     0.087 H 
BRANCH  22  24
ATOM     24  O   LIG d   1      11.314   6.261   3.273  0.00  0.00    -0.409 OA
ATOM     25  H   LIG d   1      11.215   7.102   3.738  0.00  0.00     0.328 HD
ENDBRANCH  22  24
ENDBRANCH   3  21
TORSDOF 7
ENDMDL
