MODEL 1
REMARK VINA RESULT:      -6.1      0.000      0.000
REMARK  8 active torsions:
REMARK  status: ('A' for Active; 'I' for Inactive)
REMARK    1  A    between atoms: C_1  and  C_2 
REMARK    2  A    between atoms: C_6  and  O_29 
REMARK    3  A    between atoms: C_12  and  C_13 
REMARK    4  A    between atoms: C_13  and  C_14 
REMARK       I    between atoms: C_14  and  N_16 
REMARK    5  A    between atoms: N_16  and  CA_17 
REMARK    6  A    between atoms: CA_17  and  C_19 
REMARK    7  A    between atoms: CA_17  and  C_27 
REMARK    8  A    between atoms: C_19  and  C_20 
ROOT
ATOM      1  C   LIG d   1       5.650  -3.912  -8.628  0.00  0.00     0.056 C 
ATOM      2  H   LIG d   1       6.629  -3.522  -8.906  0.00  0.00     0.041 H 
ATOM      3  H   LIG d   1       5.674  -5.002  -8.653  0.00  0.00     0.041 H 
ENDROOT
BRANCH   1   4
ATOM      4  C   LIG d   1       5.302  -3.449  -7.236  0.00  0.00     0.049 A 
ATOM      5  C   LIG d   1       5.707  -2.227  -6.804  0.00  0.00    -0.029 A 
ATOM      6  C   LIG d   1       5.341  -1.817  -5.447  0.00  0.00     0.022 A 
ATOM      7  C   LIG d   1       4.599  -2.703  -4.644  0.00  0.00     0.143 A 
ATOM      8  C   LIG d   1       5.723  -0.568  -4.943  0.00  0.00    -0.029 A 
ATOM      9  C   LIG d   1       4.252  -2.327  -3.355  0.00  0.00     0.024 A 
ATOM     10  O   LIG d   1       4.232  -3.907  -5.133  0.00  0.00    -0.422 OA
ATOM     11  C   LIG d   1       4.639  -1.089  -2.872  0.00  0.00     0.139 A 
ATOM     12  H   LIG d   1       3.683  -2.998  -2.730  0.00  0.00     0.069 H 
ATOM     13  C   LIG d   1       5.376  -0.214  -3.671  0.00  0.00     0.083 A 
ATOM     14 CL   LIG d   1       5.849   1.335  -3.047  0.00  0.00    -0.080 Cl
ATOM     15  C   LIG d   1       4.560  -4.287  -6.378  0.00  0.00     0.341 A 
ATOM     16  O   LIG d   1       4.207  -5.382  -6.777  0.00  0.00    -0.245 OA
ATOM     17  H   LIG d   1       6.294   0.112  -5.558  0.00  0.00     0.064 H 
BRANCH   5  18
ATOM     18  C   LIG d   1       6.507  -1.316  -7.699  0.00  0.00    -0.038 C 
ATOM     19  H   LIG d   1       7.408  -0.993  -7.177  0.00  0.00     0.028 H 
ATOM     20  H   LIG d   1       6.785  -1.852  -8.607  0.00  0.00     0.028 H 
ATOM     21  H   LIG d   1       5.906  -0.445  -7.961  0.00  0.00     0.028 H 
ENDBRANCH   5  18
BRANCH  11  22
ATOM     22  O   LIG d   1       4.300  -0.721  -1.610  0.00  0.00    -0.505 OA
ATOM     23  H   LIG d   1       4.992  -0.234  -1.143  0.00  0.00     0.292 HD
ENDBRANCH  11  22
ENDBRANCH   1   4
BRANCH   1  24
ATOM     24  C   LIG d   1       4.614  -3.409  -9.599  0.00  0.00     0.218 C 
ATOM     25  O   LIG d   1       4.959  -2.855 -10.620  0.00  0.00    -0.275 OA
ATOM     26  N   LIG d   1       3.303  -3.576  -9.333  0.00  0.00    -0.307 N 
ATOM     27  H   LIG d   1       3.027  -4.019  -8.515  0.00  0.00     0.149 HD
BRANCH  26  28
ATOM     28  CA  LIG d   1       2.296  -3.087 -10.277  0.00  0.00     0.067 C 
ATOM     29  HA  LIG d   1       2.790  -2.710 -11.173  0.00  0.00     0.056 H 
BRANCH  28  30
ATOM     30  C   LIG d   1       1.491  -1.961  -9.627  0.00  0.00    -0.004 C 
ATOM     31  H   LIG d   1       0.617  -1.738 -10.240  0.00  0.00     0.034 H 
ATOM     32  H   LIG d   1       1.167  -2.272  -8.634  0.00  0.00     0.034 H 
BRANCH  30  33
ATOM     33  C   LIG d   1       2.351  -0.729  -9.511  0.00  0.00    -0.045 A 
ATOM     34  C   LIG d   1       2.643  -0.204  -8.266  0.00  0.00    -0.057 A 
ATOM     35  C   LIG d   1       3.432   0.925  -8.160  0.00  0.00    -0.043 A 
ATOM     36  H   LIG d   1       2.255  -0.678  -7.376  0.00  0.00     0.062 H 
ATOM     37  C   LIG d   1       3.928   1.532  -9.299  0.00  0.00     0.041 A 
ATOM     38  H   LIG d   1       3.660   1.336  -7.186  0.00  0.00     0.063 H 
ATOM     39  C   LIG d   1       3.635   1.007 -10.546  0.00  0.00    -0.043 A 
ATOM     40 CL   LIG d   1       4.919   2.952  -9.166  0.00  0.00    -0.084 Cl
ATOM     41  C   LIG d   1       2.851  -0.126 -10.651  0.00  0.00    -0.057 A 
ATOM     42  H   LIG d   1       4.023   1.480 -11.435  0.00  0.00     0.063 H 
ATOM     43  H   LIG d   1       2.626  -0.539 -11.623  0.00  0.00     0.062 H 
ENDBRANCH  30  33
ENDBRANCH  28  30
BRANCH  28  44
ATOM     44  C   LIG d   1       1.370  -4.216 -10.652  0.00  0.00     0.062 C 
ATOM     45  O   LIG d   1       0.174  -4.053 -10.616  0.00  0.00    -0.548 OA
ATOM     46  OXT LIG d   1       1.876  -5.402 -11.026  0.00  0.00    -0.548 OA
ENDBRANCH  28  44
ENDBRANCH  26  28
ENDBRANCH   1  24
TORSDOF 8
ENDMDL
MODEL 2
REMARK VINA RESULT:      -5.9      3.293      7.173
REMARK  8 active torsions:
REMARK  status: ('A' for Active; 'I' for Inactive)
REMARK    1  A    between atoms: C_1  and  C_2 
REMARK    2  A    between atoms: C_6  and  O_29 
REMARK    3  A    between atoms: C_12  and  C_13 
REMARK    4  A    between atoms: C_13  and  C_14 
REMARK       I    between atoms: C_14  and  N_16 
REMARK    5  A    between atoms: N_16  and  CA_17 
REMARK    6  A    between atoms: CA_17  and  C_19 
REMARK    7  A    between atoms: CA_17  and  C_27 
REMARK    8  A    between atoms: C_19  and  C_20 
ROOT
ATOM      1  C   LIG d   1       6.687   0.540  -6.900  0.00  0.00     0.056 C 
ATOM      2  H   LIG d   1       7.685   0.463  -7.330  0.00  0.00     0.041 H 
ATOM      3  H   LIG d   1       6.263   1.515  -7.141  0.00  0.00     0.041 H 
ENDROOT
BRANCH   1   4
ATOM      4  C   LIG d   1       5.809  -0.544  -7.469  0.00  0.00     0.049 A 
ATOM      5  C   LIG d   1       6.357  -1.715  -7.886  0.00  0.00    -0.029 A 
ATOM      6  C   LIG d   1       5.465  -2.742  -8.427  0.00  0.00     0.022 A 
ATOM      7  C   LIG d   1       4.085  -2.475  -8.505  0.00  0.00     0.143 A 
ATOM      8  C   LIG d   1       5.966  -3.972  -8.869  0.00  0.00    -0.029 A 
ATOM      9  C   LIG d   1       3.232  -3.439  -9.021  0.00  0.00     0.024 A 
ATOM     10  O   LIG d   1       3.605  -1.287  -8.078  0.00  0.00    -0.422 OA
ATOM     11  C   LIG d   1       3.744  -4.650  -9.455  0.00  0.00     0.139 A 
ATOM     12  H   LIG d   1       2.172  -3.245  -9.085  0.00  0.00     0.069 H 
ATOM     13  C   LIG d   1       5.113  -4.910  -9.377  0.00  0.00     0.083 A 
ATOM     14 CL   LIG d   1       5.734  -6.436  -9.924  0.00  0.00    -0.080 Cl
ATOM     15  C   LIG d   1       4.417  -0.344  -7.575  0.00  0.00     0.341 A 
ATOM     16  O   LIG d   1       3.940   0.713  -7.202  0.00  0.00    -0.245 OA
ATOM     17  H   LIG d   1       7.024  -4.178  -8.811  0.00  0.00     0.064 H 
BRANCH   5  18
ATOM     18  C   LIG d   1       7.842  -1.953  -7.789  0.00  0.00    -0.038 C 
ATOM     19  H   LIG d   1       8.222  -1.506  -6.870  0.00  0.00     0.028 H 
ATOM     20  H   LIG d   1       8.038  -3.025  -7.780  0.00  0.00     0.028 H 
ATOM     21  H   LIG d   1       8.339  -1.499  -8.646  0.00  0.00     0.028 H 
ENDBRANCH   5  18
BRANCH  11  22
ATOM     22  O   LIG d   1       2.909  -5.592  -9.961  0.00  0.00    -0.505 OA
ATOM     23  H   LIG d   1       3.326  -6.453 -10.103  0.00  0.00     0.292 HD
ENDBRANCH  11  22
ENDBRANCH   1   4
BRANCH   1  24
ATOM     24  C   LIG d   1       6.771   0.385  -5.403  0.00  0.00     0.218 C 
ATOM     25  O   LIG d   1       7.845   0.465  -4.845  0.00  0.00    -0.275 OA
ATOM     26  N   LIG d   1       5.654   0.156  -4.685  0.00  0.00    -0.307 N 
ATOM     27  H   LIG d   1       4.796   0.092  -5.131  0.00  0.00     0.149 HD
BRANCH  26  28
ATOM     28  CA  LIG d   1       5.736   0.006  -3.230  0.00  0.00     0.067 C 
ATOM     29  HA  LIG d   1       6.780   0.048  -2.919  0.00  0.00     0.056 H 
BRANCH  28  30
ATOM     30  C   LIG d   1       5.137  -1.341  -2.822  0.00  0.00    -0.004 C 
ATOM     31  H   LIG d   1       5.357  -1.534  -1.772  0.00  0.00     0.034 H 
ATOM     32  H   LIG d   1       4.058  -1.318  -2.969  0.00  0.00     0.034 H 
BRANCH  30  33
ATOM     33  C   LIG d   1       5.735  -2.435  -3.669  0.00  0.00    -0.045 A 
ATOM     34  C   LIG d   1       7.102  -2.642  -3.668  0.00  0.00    -0.057 A 
ATOM     35  C   LIG d   1       7.651  -3.644  -4.444  0.00  0.00    -0.043 A 
ATOM     36  H   LIG d   1       7.741  -2.019  -3.059  0.00  0.00     0.062 H 
ATOM     37  C   LIG d   1       6.832  -4.441  -5.224  0.00  0.00     0.041 A 
ATOM     38  H   LIG d   1       8.719  -3.805  -4.443  0.00  0.00     0.063 H 
ATOM     39  C   LIG d   1       5.464  -4.234  -5.226  0.00  0.00    -0.043 A 
ATOM     40 CL   LIG d   1       7.521  -5.701  -6.200  0.00  0.00    -0.084 Cl
ATOM     41  C   LIG d   1       4.916  -3.235  -4.444  0.00  0.00    -0.057 A 
ATOM     42  H   LIG d   1       4.825  -4.856  -5.834  0.00  0.00     0.063 H 
ATOM     43  H   LIG d   1       3.847  -3.077  -4.442  0.00  0.00     0.062 H 
ENDBRANCH  30  33
ENDBRANCH  28  30
BRANCH  28  44
ATOM     44  C   LIG d   1       4.969   1.120  -2.566  0.00  0.00     0.062 C 
ATOM     45  O   LIG d   1       4.916   1.182  -1.361  0.00  0.00    -0.548 OA
ATOM     46  OXT LIG d   1       4.345   2.043  -3.314  0.00  0.00    -0.548 OA
ENDBRANCH  28  44
ENDBRANCH  26  28
ENDBRANCH   1  24
TORSDOF 8
ENDMDL
MODEL 3
REMARK VINA RESULT:      -5.9      3.591      5.878
REMARK  8 active torsions:
REMARK  status: ('A' for Active; 'I' for Inactive)
REMARK    1  A    between atoms: C_1  and  C_2 
REMARK    2  A    between atoms: C_6  and  O_29 
REMARK    3  A    between atoms: C_12  and  C_13 
REMARK    4  A    between atoms: C_13  and  C_14 
REMARK       I    between atoms: C_14  and  N_16 
REMARK    5  A    between atoms: N_16  and  CA_17 
REMARK    6  A    between atoms: CA_17  and  C_19 
REMARK    7  A    between atoms: CA_17  and  C_27 
REMARK    8  A    between atoms: C_19  and  C_20 
ROOT
ATOM      1  C   LIG d   1       6.575  -1.247  -8.430  0.00  0.00     0.056 C 
ATOM      2  H   LIG d   1       6.126  -0.704  -9.262  0.00  0.00     0.041 H 
ATOM      3  H   LIG d   1       7.210  -2.044  -8.818  0.00  0.00     0.041 H 
ENDROOT
BRANCH   1   4
ATOM      4  C   LIG d   1       7.405  -0.300  -7.603  0.00  0.00     0.049 A 
ATOM      5  C   LIG d   1       8.517  -0.749  -6.964  0.00  0.00    -0.029 A 
ATOM      6  C   LIG d   1       9.296   0.208  -6.176  0.00  0.00     0.022 A 
ATOM      7  C   LIG d   1       8.860   1.545  -6.101  0.00  0.00     0.143 A 
ATOM      8  C   LIG d   1      10.454  -0.189  -5.498  0.00  0.00    -0.029 A 
ATOM      9  C   LIG d   1       9.587   2.458  -5.353  0.00  0.00     0.024 A 
ATOM     10  O   LIG d   1       7.742   1.925  -6.756  0.00  0.00    -0.422 OA
ATOM     11  C   LIG d   1      10.730   2.047  -4.688  0.00  0.00     0.139 A 
ATOM     12  H   LIG d   1       9.263   3.486  -5.288  0.00  0.00     0.069 H 
ATOM     13  C   LIG d   1      11.157   0.722  -4.764  0.00  0.00     0.083 A 
ATOM     14 CL   LIG d   1      12.595   0.229  -3.924  0.00  0.00    -0.080 Cl
ATOM     15  C   LIG d   1       7.027   1.054  -7.485  0.00  0.00     0.341 A 
ATOM     16  O   LIG d   1       6.025   1.441  -8.059  0.00  0.00    -0.245 OA
ATOM     17  H   LIG d   1      10.789  -1.215  -5.554  0.00  0.00     0.064 H 
BRANCH   5  18
ATOM     18  C   LIG d   1       8.940  -2.191  -7.069  0.00  0.00    -0.038 C 
ATOM     19  H   LIG d   1       8.151  -2.767  -7.553  0.00  0.00     0.028 H 
ATOM     20  H   LIG d   1       9.854  -2.259  -7.659  0.00  0.00     0.028 H 
ATOM     21  H   LIG d   1       9.121  -2.590  -6.071  0.00  0.00     0.028 H 
ENDBRANCH   5  18
BRANCH  11  22
ATOM     22  O   LIG d   1      11.441   2.942  -3.954  0.00  0.00    -0.505 OA
ATOM     23  H   LIG d   1      11.215   2.947  -3.014  0.00  0.00     0.292 HD
ENDBRANCH  11  22
ENDBRANCH   1   4
BRANCH   1  24
ATOM     24  C   LIG d   1       5.488  -1.843  -7.573  0.00  0.00     0.218 C 
ATOM     25  O   LIG d   1       4.438  -1.254  -7.431  0.00  0.00    -0.275 OA
ATOM     26  N   LIG d   1       5.683  -3.030  -6.965  0.00  0.00    -0.307 N 
ATOM     27  H   LIG d   1       6.523  -3.500  -7.079  0.00  0.00     0.149 HD
BRANCH  26  28
ATOM     28  CA  LIG d   1       4.626  -3.608  -6.133  0.00  0.00     0.067 C 
ATOM     29  HA  LIG d   1       3.791  -2.911  -6.069  0.00  0.00     0.056 H 
BRANCH  28  30
ATOM     30  C   LIG d   1       5.173  -3.879  -4.730  0.00  0.00    -0.004 C 
ATOM     31  H   LIG d   1       4.601  -4.684  -4.267  0.00  0.00     0.034 H 
ATOM     32  H   LIG d   1       6.221  -4.170  -4.798  0.00  0.00     0.034 H 
BRANCH  30  33
ATOM     33  C   LIG d   1       5.051  -2.632  -3.893  0.00  0.00    -0.045 A 
ATOM     34  C   LIG d   1       3.931  -2.433  -3.107  0.00  0.00    -0.057 A 
ATOM     35  C   LIG d   1       3.819  -1.289  -2.340  0.00  0.00    -0.043 A 
ATOM     36  H   LIG d   1       3.144  -3.172  -3.093  0.00  0.00     0.062 H 
ATOM     37  C   LIG d   1       4.827  -0.341  -2.360  0.00  0.00     0.041 A 
ATOM     38  H   LIG d   1       2.944  -1.133  -1.726  0.00  0.00     0.063 H 
ATOM     39  C   LIG d   1       5.947  -0.540  -3.148  0.00  0.00    -0.043 A 
ATOM     40 CL   LIG d   1       4.686   1.096  -1.397  0.00  0.00    -0.084 Cl
ATOM     41  C   LIG d   1       6.061  -1.688  -3.909  0.00  0.00    -0.057 A 
ATOM     42  H   LIG d   1       6.734   0.199  -3.163  0.00  0.00     0.063 H 
ATOM     43  H   LIG d   1       6.938  -1.845  -4.520  0.00  0.00     0.062 H 
ENDBRANCH  30  33
ENDBRANCH  28  30
BRANCH  28  44
ATOM     44  C   LIG d   1       4.155  -4.902  -6.747  0.00  0.00     0.062 C 
ATOM     45  O   LIG d   1       3.446  -5.648  -6.115  0.00  0.00    -0.548 OA
ATOM     46  OXT LIG d   1       4.523  -5.223  -7.997  0.00  0.00    -0.548 OA
ENDBRANCH  28  44
ENDBRANCH  26  28
ENDBRANCH   1  24
TORSDOF 8
ENDMDL
MODEL 4
REMARK VINA RESULT:      -5.8      5.297      7.378
REMARK  8 active torsions:
REMARK  status: ('A' for Active; 'I' for Inactive)
REMARK    1  A    between atoms: C_1  and  C_2 
REMARK    2  A    between atoms: C_6  and  O_29 
REMARK    3  A    between atoms: C_12  and  C_13 
REMARK    4  A    between atoms: C_13  and  C_14 
REMARK       I    between atoms: C_14  and  N_16 
REMARK    5  A    between atoms: N_16  and  CA_17 
REMARK    6  A    between atoms: CA_17  and  C_19 
REMARK    7  A    between atoms: CA_17  and  C_27 
REMARK    8  A    between atoms: C_19  and  C_20 
ROOT
ATOM      1  C   LIG d   1       7.471  -6.859  -6.123  0.00  0.00     0.056 C 
ATOM      2  H   LIG d   1       8.561  -6.876  -6.155  0.00  0.00     0.041 H 
ATOM      3  H   LIG d   1       7.075  -7.090  -7.112  0.00  0.00     0.041 H 
ENDROOT
BRANCH   1   4
ATOM      4  C   LIG d   1       6.982  -7.884  -5.132  0.00  0.00     0.049 A 
ATOM      5  C   LIG d   1       7.818  -8.357  -4.172  0.00  0.00    -0.029 A 
ATOM      6  C   LIG d   1       7.297  -9.348  -3.228  0.00  0.00     0.022 A 
ATOM      7  C   LIG d   1       5.963  -9.779  -3.359  0.00  0.00     0.143 A 
ATOM      8  C   LIG d   1       8.105  -9.870  -2.212  0.00  0.00    -0.029 A 
ATOM      9  C   LIG d   1       5.462 -10.722  -2.474  0.00  0.00     0.024 A 
ATOM     10  O   LIG d   1       5.186  -9.272  -4.341  0.00  0.00    -0.422 OA
ATOM     11  C   LIG d   1       6.276 -11.228  -1.475  0.00  0.00     0.139 A 
ATOM     12  H   LIG d   1       4.440 -11.059  -2.564  0.00  0.00     0.069 H 
ATOM     13  C   LIG d   1       7.597 -10.799  -1.350  0.00  0.00     0.083 A 
ATOM     14 CL   LIG d   1       8.599 -11.446  -0.089  0.00  0.00    -0.080 Cl
ATOM     15  C   LIG d   1       5.656  -8.360  -5.205  0.00  0.00     0.341 A 
ATOM     16  O   LIG d   1       4.919  -7.931  -6.075  0.00  0.00    -0.245 OA
ATOM     17  H   LIG d   1       9.129  -9.541  -2.111  0.00  0.00     0.064 H 
BRANCH   5  18
ATOM     18  C   LIG d   1       9.240  -7.870  -4.076  0.00  0.00    -0.038 C 
ATOM     19  H   LIG d   1       9.880  -8.491  -4.704  0.00  0.00     0.028 H 
ATOM     20  H   LIG d   1       9.293  -6.834  -4.416  0.00  0.00     0.028 H 
ATOM     21  H   LIG d   1       9.577  -7.930  -3.042  0.00  0.00     0.028 H 
ENDBRANCH   5  18
BRANCH  11  22
ATOM     22  O   LIG d   1       5.785 -12.152  -0.610  0.00  0.00    -0.505 OA
ATOM     23  H   LIG d   1       5.209 -12.810  -1.022  0.00  0.00     0.292 HD
ENDBRANCH  11  22
ENDBRANCH   1   4
BRANCH   1  24
ATOM     24  C   LIG d   1       7.003  -5.490  -5.702  0.00  0.00     0.218 C 
ATOM     25  O   LIG d   1       7.650  -4.847  -4.903  0.00  0.00    -0.275 OA
ATOM     26  N   LIG d   1       5.866  -4.979  -6.214  0.00  0.00    -0.307 N 
ATOM     27  H   LIG d   1       5.348  -5.494  -6.853  0.00  0.00     0.149 HD
BRANCH  26  28
ATOM     28  CA  LIG d   1       5.410  -3.649  -5.805  0.00  0.00     0.067 C 
ATOM     29  HA  LIG d   1       6.274  -3.020  -5.589  0.00  0.00     0.056 H 
BRANCH  28  30
ATOM     30  C   LIG d   1       4.541  -3.769  -4.552  0.00  0.00    -0.004 C 
ATOM     31  H   LIG d   1       3.507  -3.955  -4.844  0.00  0.00     0.034 H 
ATOM     32  H   LIG d   1       4.900  -4.595  -3.939  0.00  0.00     0.034 H 
BRANCH  30  33
ATOM     33  C   LIG d   1       4.616  -2.488  -3.763  0.00  0.00    -0.045 A 
ATOM     34  C   LIG d   1       3.508  -2.036  -3.070  0.00  0.00    -0.057 A 
ATOM     35  C   LIG d   1       3.577  -0.861  -2.347  0.00  0.00    -0.043 A 
ATOM     36  H   LIG d   1       2.589  -2.602  -3.096  0.00  0.00     0.062 H 
ATOM     37  C   LIG d   1       4.755  -0.136  -2.316  0.00  0.00     0.041 A 
ATOM     38  H   LIG d   1       2.711  -0.508  -1.806  0.00  0.00     0.063 H 
ATOM     39  C   LIG d   1       5.864  -0.588  -3.009  0.00  0.00    -0.043 A 
ATOM     40 CL   LIG d   1       4.841   1.341  -1.406  0.00  0.00    -0.084 Cl
ATOM     41  C   LIG d   1       5.796  -1.766  -3.728  0.00  0.00    -0.057 A 
ATOM     42  H   LIG d   1       6.783  -0.022  -2.985  0.00  0.00     0.063 H 
ATOM     43  H   LIG d   1       6.662  -2.121  -4.265  0.00  0.00     0.062 H 
ENDBRANCH  30  33
ENDBRANCH  28  30
BRANCH  28  44
ATOM     44  C   LIG d   1       4.605  -3.029  -6.919  0.00  0.00     0.062 C 
ATOM     45  O   LIG d   1       4.541  -1.828  -7.022  0.00  0.00    -0.548 OA
ATOM     46  OXT LIG d   1       3.960  -3.814  -7.796  0.00  0.00    -0.548 OA
ENDBRANCH  28  44
ENDBRANCH  26  28
ENDBRANCH   1  24
TORSDOF 8
ENDMDL
MODEL 5
REMARK VINA RESULT:      -5.8      3.225      7.152
REMARK  8 active torsions:
REMARK  status: ('A' for Active; 'I' for Inactive)
REMARK    1  A    between atoms: C_1  and  C_2 
REMARK    2  A    between atoms: C_6  and  O_29 
REMARK    3  A    between atoms: C_12  and  C_13 
REMARK    4  A    between atoms: C_13  and  C_14 
REMARK       I    between atoms: C_14  and  N_16 
REMARK    5  A    between atoms: N_16  and  CA_17 
REMARK    6  A    between atoms: CA_17  and  C_19 
REMARK    7  A    between atoms: CA_17  and  C_27 
REMARK    8  A    between atoms: C_19  and  C_20 
ROOT
ATOM      1  C   LIG d   1       6.043   0.318  -7.572  0.00  0.00     0.056 C 
ATOM      2  H   LIG d   1       6.913  -0.257  -7.892  0.00  0.00     0.041 H 
ATOM      3  H   LIG d   1       6.164   1.358  -7.876  0.00  0.00     0.041 H 
ENDROOT
BRANCH   1   4
ATOM      4  C   LIG d   1       4.803  -0.252  -8.211  0.00  0.00     0.049 A 
ATOM      5  C   LIG d   1       4.767  -1.558  -8.583  0.00  0.00    -0.029 A 
ATOM      6  C   LIG d   1       3.539  -2.068  -9.195  0.00  0.00     0.022 A 
ATOM      7  C   LIG d   1       2.455  -1.191  -9.385  0.00  0.00     0.143 A 
ATOM      8  C   LIG d   1       3.435  -3.406  -9.596  0.00  0.00    -0.029 A 
ATOM      9  C   LIG d   1       1.289  -1.663  -9.968  0.00  0.00     0.024 A 
ATOM     10  O   LIG d   1       2.558   0.099  -8.997  0.00  0.00    -0.422 OA
ATOM     11  C   LIG d   1       1.204  -2.988 -10.360  0.00  0.00     0.139 A 
ATOM     12  H   LIG d   1       0.451  -0.999 -10.118  0.00  0.00     0.069 H 
ATOM     13  C   LIG d   1       2.281  -3.854 -10.172  0.00  0.00     0.083 A 
ATOM     14 CL   LIG d   1       2.152  -5.513 -10.668  0.00  0.00    -0.080 Cl
ATOM     15  C   LIG d   1       3.679   0.572  -8.430  0.00  0.00     0.341 A 
ATOM     16  O   LIG d   1       3.727   1.742  -8.096  0.00  0.00    -0.245 OA
ATOM     17  H   LIG d   1       4.267  -4.080  -9.453  0.00  0.00     0.064 H 
BRANCH   5  18
ATOM     18  C   LIG d   1       5.956  -2.457  -8.367  0.00  0.00    -0.038 C 
ATOM     19  H   LIG d   1       6.505  -2.127  -7.484  0.00  0.00     0.028 H 
ATOM     20  H   LIG d   1       5.614  -3.482  -8.220  0.00  0.00     0.028 H 
ATOM     21  H   LIG d   1       6.609  -2.413  -9.238  0.00  0.00     0.028 H 
ENDBRANCH   5  18
BRANCH  11  22
ATOM     22  O   LIG d   1       0.063  -3.450 -10.933  0.00  0.00    -0.505 OA
ATOM     23  H   LIG d   1      -0.714  -2.899 -10.763  0.00  0.00     0.292 HD
ENDBRANCH  11  22
ENDBRANCH   1   4
BRANCH   1  24
ATOM     24  C   LIG d   1       5.916   0.243  -6.073  0.00  0.00     0.218 C 
ATOM     25  O   LIG d   1       6.839   0.591  -5.368  0.00  0.00    -0.275 OA
ATOM     26  N   LIG d   1       4.775  -0.209  -5.514  0.00  0.00    -0.307 N 
ATOM     27  H   LIG d   1       4.037  -0.487  -6.078  0.00  0.00     0.149 HD
BRANCH  26  28
ATOM     28  CA  LIG d   1       4.651  -0.281  -4.057  0.00  0.00     0.067 C 
ATOM     29  HA  LIG d   1       5.601  -0.006  -3.597  0.00  0.00     0.056 H 
BRANCH  28  30
ATOM     30  C   LIG d   1       4.280  -1.707  -3.646  0.00  0.00    -0.004 C 
ATOM     31  H   LIG d   1       4.223  -1.769  -2.559  0.00  0.00     0.034 H 
ATOM     32  H   LIG d   1       3.313  -1.968  -4.076  0.00  0.00     0.034 H 
BRANCH  30  33
ATOM     33  C   LIG d   1       5.329  -2.665  -4.150  0.00  0.00    -0.045 A 
ATOM     34  C   LIG d   1       4.968  -3.714  -4.974  0.00  0.00    -0.057 A 
ATOM     35  C   LIG d   1       5.930  -4.593  -5.435  0.00  0.00    -0.043 A 
ATOM     36  H   LIG d   1       3.934  -3.847  -5.257  0.00  0.00     0.062 H 
ATOM     37  C   LIG d   1       7.253  -4.423  -5.072  0.00  0.00     0.041 A 
ATOM     38  H   LIG d   1       5.647  -5.413  -6.079  0.00  0.00     0.063 H 
ATOM     39  C   LIG d   1       7.614  -3.373  -4.246  0.00  0.00    -0.043 A 
ATOM     40 CL   LIG d   1       8.462  -5.527  -5.651  0.00  0.00    -0.084 Cl
ATOM     41  C   LIG d   1       6.653  -2.491  -3.790  0.00  0.00    -0.057 A 
ATOM     42  H   LIG d   1       8.647  -3.240  -3.962  0.00  0.00     0.063 H 
ATOM     43  H   LIG d   1       6.935  -1.668  -3.150  0.00  0.00     0.062 H 
ENDBRANCH  30  33
ENDBRANCH  28  30
BRANCH  28  44
ATOM     44  C   LIG d   1       3.577   0.671  -3.597  0.00  0.00     0.062 C 
ATOM     45  O   LIG d   1       3.309   0.758  -2.422  0.00  0.00    -0.548 OA
ATOM     46  OXT LIG d   1       2.918   1.422  -4.493  0.00  0.00    -0.548 OA
ENDBRANCH  28  44
ENDBRANCH  26  28
ENDBRANCH   1  24
TORSDOF 8
ENDMDL
MODEL 6
REMARK VINA RESULT:      -5.8      3.789      5.563
REMARK  8 active torsions:
REMARK  status: ('A' for Active; 'I' for Inactive)
REMARK    1  A    between atoms: C_1  and  C_2 
REMARK    2  A    between atoms: C_6  and  O_29 
REMARK    3  A    between atoms: C_12  and  C_13 
REMARK    4  A    between atoms: C_13  and  C_14 
REMARK       I    between atoms: C_14  and  N_16 
REMARK    5  A    between atoms: N_16  and  CA_17 
REMARK    6  A    between atoms: CA_17  and  C_19 
REMARK    7  A    between atoms: CA_17  and  C_27 
REMARK    8  A    between atoms: C_19  and  C_20 
ROOT
ATOM      1  C   LIG d   1       6.759  -1.260  -6.226  0.00  0.00     0.056 C 
ATOM      2  H   LIG d   1       7.036  -1.318  -7.279  0.00  0.00     0.041 H 
ATOM      3  H   LIG d   1       7.114  -2.152  -5.708  0.00  0.00     0.041 H 
ENDROOT
BRANCH   1   4
ATOM      4  C   LIG d   1       7.387  -0.038  -5.608  0.00  0.00     0.049 A 
ATOM      5  C   LIG d   1       7.965   0.905  -6.398  0.00  0.00    -0.029 A 
ATOM      6  C   LIG d   1       8.558   2.078  -5.754  0.00  0.00     0.022 A 
ATOM      7  C   LIG d   1       8.518   2.179  -4.351  0.00  0.00     0.143 A 
ATOM      8  C   LIG d   1       9.164   3.087  -6.512  0.00  0.00    -0.029 A 
ATOM      9  C   LIG d   1       9.082   3.284  -3.730  0.00  0.00     0.024 A 
ATOM     10  O   LIG d   1       7.933   1.203  -3.623  0.00  0.00    -0.422 OA
ATOM     11  C   LIG d   1       9.677   4.272  -4.495  0.00  0.00     0.139 A 
ATOM     12  H   LIG d   1       9.056   3.373  -2.655  0.00  0.00     0.069 H 
ATOM     13  C   LIG d   1       9.716   4.167  -5.885  0.00  0.00     0.083 A 
ATOM     14 CL   LIG d   1      10.466   5.420  -6.825  0.00  0.00    -0.080 Cl
ATOM     15  C   LIG d   1       7.382   0.128  -4.207  0.00  0.00     0.341 A 
ATOM     16  O   LIG d   1       6.866  -0.727  -3.511  0.00  0.00    -0.245 OA
ATOM     17  H   LIG d   1       9.196   3.010  -7.589  0.00  0.00     0.064 H 
BRANCH   5  18
ATOM     18  C   LIG d   1       7.989   0.749  -7.896  0.00  0.00    -0.038 C 
ATOM     19  H   LIG d   1       9.017   0.822  -8.253  0.00  0.00     0.028 H 
ATOM     20  H   LIG d   1       7.580  -0.226  -8.166  0.00  0.00     0.028 H 
ATOM     21  H   LIG d   1       7.388   1.534  -8.354  0.00  0.00     0.028 H 
ENDBRANCH   5  18
BRANCH  11  22
ATOM     22  O   LIG d   1      10.230   5.353  -3.887  0.00  0.00    -0.505 OA
ATOM     23  H   LIG d   1       9.602   5.883  -3.378  0.00  0.00     0.292 HD
ENDBRANCH  11  22
ENDBRANCH   1   4
BRANCH   1  24
ATOM     24  C   LIG d   1       5.260  -1.171  -6.104  0.00  0.00     0.218 C 
ATOM     25  O   LIG d   1       4.596  -2.183  -6.038  0.00  0.00    -0.275 OA
ATOM     26  N   LIG d   1       4.657   0.034  -6.069  0.00  0.00    -0.307 N 
ATOM     27  H   LIG d   1       5.188   0.843  -6.122  0.00  0.00     0.149 HD
BRANCH  26  28
ATOM     28  CA  LIG d   1       3.200   0.120  -5.950  0.00  0.00     0.067 C 
ATOM     29  HA  LIG d   1       2.754  -0.830  -6.245  0.00  0.00     0.056 H 
BRANCH  28  30
ATOM     30  C   LIG d   1       2.679   1.232  -6.862  0.00  0.00    -0.004 C 
ATOM     31  H   LIG d   1       1.598   1.318  -6.749  0.00  0.00     0.034 H 
ATOM     32  H   LIG d   1       3.149   2.177  -6.589  0.00  0.00     0.034 H 
BRANCH  30  33
ATOM     33  C   LIG d   1       3.008   0.904  -8.296  0.00  0.00    -0.045 A 
ATOM     34  C   LIG d   1       2.535  -0.264  -8.864  0.00  0.00    -0.057 A 
ATOM     35  C   LIG d   1       2.838  -0.566 -10.178  0.00  0.00    -0.043 A 
ATOM     36  H   LIG d   1       1.928  -0.940  -8.280  0.00  0.00     0.062 H 
ATOM     37  C   LIG d   1       3.616   0.300 -10.925  0.00  0.00     0.041 A 
ATOM     38  H   LIG d   1       2.467  -1.479 -10.621  0.00  0.00     0.063 H 
ATOM     39  C   LIG d   1       4.090   1.468 -10.356  0.00  0.00    -0.043 A 
ATOM     40 CL   LIG d   1       3.997  -0.080 -12.576  0.00  0.00    -0.084 Cl
ATOM     41  C   LIG d   1       3.782   1.773  -9.043  0.00  0.00    -0.057 A 
ATOM     42  H   LIG d   1       4.698   2.145 -10.938  0.00  0.00     0.063 H 
ATOM     43  H   LIG d   1       4.149   2.687  -8.601  0.00  0.00     0.062 H 
ENDBRANCH  30  33
ENDBRANCH  28  30
BRANCH  28  44
ATOM     44  C   LIG d   1       2.829   0.427  -4.522  0.00  0.00     0.062 C 
ATOM     45  O   LIG d   1       2.250  -0.399  -3.857  0.00  0.00    -0.548 OA
ATOM     46  OXT LIG d   1       3.144   1.618  -3.988  0.00  0.00    -0.548 OA
ENDBRANCH  28  44
ENDBRANCH  26  28
ENDBRANCH   1  24
TORSDOF 8
ENDMDL
MODEL 7
REMARK VINA RESULT:      -5.8      1.657      1.975
REMARK  8 active torsions:
REMARK  status: ('A' for Active; 'I' for Inactive)
REMARK    1  A    between atoms: C_1  and  C_2 
REMARK    2  A    between atoms: C_6  and  O_29 
REMARK    3  A    between atoms: C_12  and  C_13 
REMARK    4  A    between atoms: C_13  and  C_14 
REMARK       I    between atoms: C_14  and  N_16 
REMARK    5  A    between atoms: N_16  and  CA_17 
REMARK    6  A    between atoms: CA_17  and  C_19 
REMARK    7  A    between atoms: CA_17  and  C_27 
REMARK    8  A    between atoms: C_19  and  C_20 
ROOT
ATOM      1  C   LIG d   1       6.114  -5.311  -7.007  0.00  0.00     0.056 C 
ATOM      2  H   LIG d   1       7.193  -5.260  -7.158  0.00  0.00     0.041 H 
ATOM      3  H   LIG d   1       5.838  -6.321  -6.703  0.00  0.00     0.041 H 
ENDROOT
BRANCH   1   4
ATOM      4  C   LIG d   1       5.710  -4.335  -5.933  0.00  0.00     0.049 A 
ATOM      5  C   LIG d   1       6.360  -3.148  -5.812  0.00  0.00    -0.029 A 
ATOM      6  C   LIG d   1       5.929  -2.228  -4.757  0.00  0.00     0.022 A 
ATOM      7  C   LIG d   1       4.874  -2.611  -3.907  0.00  0.00     0.143 A 
ATOM      8  C   LIG d   1       6.554  -0.988  -4.582  0.00  0.00    -0.029 A 
ATOM      9  C   LIG d   1       4.462  -1.749  -2.901  0.00  0.00     0.024 A 
ATOM     10  O   LIG d   1       4.274  -3.809  -4.079  0.00  0.00    -0.422 OA
ATOM     11  C   LIG d   1       5.092  -0.527  -2.743  0.00  0.00     0.139 A 
ATOM     12  H   LIG d   1       3.654  -2.032  -2.244  0.00  0.00     0.069 H 
ATOM     13  C   LIG d   1       6.138  -0.153  -3.586  0.00  0.00     0.083 A 
ATOM     14 CL   LIG d   1       6.912   1.386  -3.370  0.00  0.00    -0.080 Cl
ATOM     15  C   LIG d   1       4.660  -4.653  -5.047  0.00  0.00     0.341 A 
ATOM     16  O   LIG d   1       4.090  -5.723  -5.164  0.00  0.00    -0.245 OA
ATOM     17  H   LIG d   1       7.365  -0.694  -5.233  0.00  0.00     0.064 H 
BRANCH   5  18
ATOM     18  C   LIG d   1       7.489  -2.786  -6.741  0.00  0.00    -0.038 C 
ATOM     19  H   LIG d   1       8.420  -3.211  -6.364  0.00  0.00     0.028 H 
ATOM     20  H   LIG d   1       7.283  -3.185  -7.735  0.00  0.00     0.028 H 
ATOM     21  H   LIG d   1       7.581  -1.701  -6.797  0.00  0.00     0.028 H 
ENDBRANCH   5  18
BRANCH  11  22
ATOM     22  O   LIG d   1       4.689   0.315  -1.757  0.00  0.00    -0.505 OA
ATOM     23  H   LIG d   1       3.855   0.061  -1.339  0.00  0.00     0.292 HD
ENDBRANCH  11  22
ENDBRANCH   1   4
BRANCH   1  24
ATOM     24  C   LIG d   1       5.411  -4.963  -8.294  0.00  0.00     0.218 C 
ATOM     25  O   LIG d   1       6.014  -5.001  -9.344  0.00  0.00    -0.275 OA
ATOM     26  N   LIG d   1       4.110  -4.611  -8.277  0.00  0.00    -0.307 N 
ATOM     27  H   LIG d   1       3.627  -4.581  -7.436  0.00  0.00     0.149 HD
BRANCH  26  28
ATOM     28  CA  LIG d   1       3.426  -4.273  -9.526  0.00  0.00     0.067 C 
ATOM     29  HA  LIG d   1       4.151  -4.237 -10.340  0.00  0.00     0.056 H 
BRANCH  28  30
ATOM     30  C   LIG d   1       2.750  -2.908  -9.386  0.00  0.00    -0.004 C 
ATOM     31  H   LIG d   1       2.297  -2.627 -10.337  0.00  0.00     0.034 H 
ATOM     32  H   LIG d   1       1.978  -2.963  -8.618  0.00  0.00     0.034 H 
BRANCH  30  33
ATOM     33  C   LIG d   1       3.776  -1.876  -8.994  0.00  0.00    -0.045 A 
ATOM     34  C   LIG d   1       4.878  -1.657  -9.799  0.00  0.00    -0.057 A 
ATOM     35  C   LIG d   1       5.819  -0.712  -9.440  0.00  0.00    -0.043 A 
ATOM     36  H   LIG d   1       5.003  -2.226 -10.709  0.00  0.00     0.062 H 
ATOM     37  C   LIG d   1       5.659   0.016  -8.275  0.00  0.00     0.041 A 
ATOM     38  H   LIG d   1       6.681  -0.541 -10.069  0.00  0.00     0.063 H 
ATOM     39  C   LIG d   1       4.556  -0.204  -7.469  0.00  0.00    -0.043 A 
ATOM     40 CL   LIG d   1       6.842   1.204  -7.823  0.00  0.00    -0.084 Cl
ATOM     41  C   LIG d   1       3.612  -1.145  -7.831  0.00  0.00    -0.057 A 
ATOM     42  H   LIG d   1       4.431   0.364  -6.559  0.00  0.00     0.063 H 
ATOM     43  H   LIG d   1       2.749  -1.314  -7.205  0.00  0.00     0.062 H 
ENDBRANCH  30  33
ENDBRANCH  28  30
BRANCH  28  44
ATOM     44  C   LIG d   1       2.385  -5.321  -9.829  0.00  0.00     0.062 C 
ATOM     45  O   LIG d   1       1.502  -5.085 -10.619  0.00  0.00    -0.548 OA
ATOM     46  OXT LIG d   1       2.441  -6.516  -9.220  0.00  0.00    -0.548 OA
ENDBRANCH  28  44
ENDBRANCH  26  28
ENDBRANCH   1  24
TORSDOF 8
ENDMDL
MODEL 8
REMARK VINA RESULT:      -5.8     11.736     14.117
REMARK  8 active torsions:
REMARK  status: ('A' for Active; 'I' for Inactive)
REMARK    1  A    between atoms: C_1  and  C_2 
REMARK    2  A    between atoms: C_6  and  O_29 
REMARK    3  A    between atoms: C_12  and  C_13 
REMARK    4  A    between atoms: C_13  and  C_14 
REMARK       I    between atoms: C_14  and  N_16 
REMARK    5  A    between atoms: N_16  and  CA_17 
REMARK    6  A    between atoms: CA_17  and  C_19 
REMARK    7  A    between atoms: CA_17  and  C_27 
REMARK    8  A    between atoms: C_19  and  C_20 
ROOT
ATOM      1  C   LIG d   1      10.018  11.509  -2.335  0.00  0.00     0.056 C 
ATOM      2  H   LIG d   1       9.403  12.017  -1.592  0.00  0.00     0.041 H 
ATOM      3  H   LIG d   1      11.016  11.949  -2.342  0.00  0.00     0.041 H 
ENDROOT
BRANCH   1   4
ATOM      4  C   LIG d   1      10.117  10.045  -1.989  0.00  0.00     0.049 A 
ATOM      5  C   LIG d   1      11.211   9.330  -2.359  0.00  0.00    -0.029 A 
ATOM      6  C   LIG d   1      11.265   7.913  -1.997  0.00  0.00     0.022 A 
ATOM      7  C   LIG d   1      10.185   7.346  -1.294  0.00  0.00     0.143 A 
ATOM      8  C   LIG d   1      12.366   7.121  -2.344  0.00  0.00    -0.029 A 
ATOM      9  C   LIG d   1      10.225   6.003  -0.950  0.00  0.00     0.024 A 
ATOM     10  O   LIG d   1       9.125   8.113  -0.960  0.00  0.00    -0.422 OA
ATOM     11  C   LIG d   1      11.321   5.235  -1.303  0.00  0.00     0.139 A 
ATOM     12  H   LIG d   1       9.403   5.558  -0.410  0.00  0.00     0.069 H 
ATOM     13  C   LIG d   1      12.389   5.800  -2.001  0.00  0.00     0.083 A 
ATOM     14 CL   LIG d   1      13.755   4.819  -2.431  0.00  0.00    -0.080 Cl
ATOM     15  C   LIG d   1       9.071   9.414  -1.284  0.00  0.00     0.341 A 
ATOM     16  O   LIG d   1       8.094  10.066  -0.963  0.00  0.00    -0.245 OA
ATOM     17  H   LIG d   1      13.195   7.554  -2.885  0.00  0.00     0.064 H 
BRANCH   5  18
ATOM     18  C   LIG d   1      12.339   9.979  -3.118  0.00  0.00    -0.038 C 
ATOM     19  H   LIG d   1      13.136   9.252  -3.277  0.00  0.00     0.028 H 
ATOM     20  H   LIG d   1      11.972  10.332  -4.082  0.00  0.00     0.028 H 
ATOM     21  H   LIG d   1      12.724  10.822  -2.545  0.00  0.00     0.028 H 
ENDBRANCH   5  18
BRANCH  11  22
ATOM     22  O   LIG d   1      11.359   3.920  -0.967  0.00  0.00    -0.505 OA
ATOM     23  H   LIG d   1      11.075   3.737  -0.062  0.00  0.00     0.292 HD
ENDBRANCH  11  22
ENDBRANCH   1   4
BRANCH   1  24
ATOM     24  C   LIG d   1       9.392  11.662  -3.696  0.00  0.00     0.218 C 
ATOM     25  O   LIG d   1       8.186  11.643  -3.814  0.00  0.00    -0.275 OA
ATOM     26  N   LIG d   1      10.172  11.821  -4.784  0.00  0.00    -0.307 N 
ATOM     27  H   LIG d   1      11.137  11.836  -4.689  0.00  0.00     0.149 HD
BRANCH  26  28
ATOM     28  CA  LIG d   1       9.564  11.970  -6.107  0.00  0.00     0.067 C 
ATOM     29  HA  LIG d   1       8.515  11.677  -6.060  0.00  0.00     0.056 H 
BRANCH  28  30
ATOM     30  C   LIG d   1      10.298  11.078  -7.110  0.00  0.00    -0.004 C 
ATOM     31  H   LIG d   1       9.763  11.084  -8.060  0.00  0.00     0.034 H 
ATOM     32  H   LIG d   1      11.309  11.456  -7.260  0.00  0.00     0.034 H 
BRANCH  30  33
ATOM     33  C   LIG d   1      10.361   9.670  -6.579  0.00  0.00    -0.045 A 
ATOM     34  C   LIG d   1      11.573   9.006  -6.521  0.00  0.00    -0.057 A 
ATOM     35  C   LIG d   1      11.631   7.715  -6.034  0.00  0.00    -0.043 A 
ATOM     36  H   LIG d   1      12.473   9.499  -6.856  0.00  0.00     0.062 H 
ATOM     37  C   LIG d   1      10.477   7.084  -5.605  0.00  0.00     0.041 A 
ATOM     38  H   LIG d   1      12.579   7.197  -5.989  0.00  0.00     0.063 H 
ATOM     39  C   LIG d   1       9.264   7.748  -5.663  0.00  0.00    -0.043 A 
ATOM     40 CL   LIG d   1      10.550   5.461  -4.993  0.00  0.00    -0.084 Cl
ATOM     41  C   LIG d   1       9.208   9.042  -6.145  0.00  0.00    -0.057 A 
ATOM     42  H   LIG d   1       8.363   7.256  -5.329  0.00  0.00     0.063 H 
ATOM     43  H   LIG d   1       8.262   9.562  -6.187  0.00  0.00     0.062 H 
ENDBRANCH  30  33
ENDBRANCH  28  30
BRANCH  28  44
ATOM     44  C   LIG d   1       9.664  13.409  -6.546  0.00  0.00     0.062 C 
ATOM     45  O   LIG d   1      10.194  14.224  -5.830  0.00  0.00    -0.548 OA
ATOM     46  OXT LIG d   1       9.163  13.783  -7.734  0.00  0.00    -0.548 OA
ENDBRANCH  28  44
ENDBRANCH  26  28
ENDBRANCH   1  24
TORSDOF 8
ENDMDL
MODEL 9
REMARK VINA RESULT:      -5.8      3.523      7.756
REMARK  8 active torsions:
REMARK  status: ('A' for Active; 'I' for Inactive)
REMARK    1  A    between atoms: C_1  and  C_2 
REMARK    2  A    between atoms: C_6  and  O_29 
REMARK    3  A    between atoms: C_12  and  C_13 
REMARK    4  A    between atoms: C_13  and  C_14 
REMARK       I    between atoms: C_14  and  N_16 
REMARK    5  A    between atoms: N_16  and  CA_17 
REMARK    6  A    between atoms: CA_17  and  C_19 
REMARK    7  A    between atoms: CA_17  and  C_27 
REMARK    8  A    between atoms: C_19  and  C_20 
ROOT
ATOM      1  C   LIG d   1       2.400  -0.198  -7.312  0.00  0.00     0.056 C 
ATOM      2  H   LIG d   1       1.695   0.632  -7.267  0.00  0.00     0.041 H 
ATOM      3  H   LIG d   1       1.872  -1.134  -7.132  0.00  0.00     0.041 H 
ENDROOT
BRANCH   1   4
ATOM      4  C   LIG d   1       3.042  -0.237  -8.676  0.00  0.00     0.049 A 
ATOM      5  C   LIG d   1       3.591  -1.391  -9.137  0.00  0.00    -0.029 A 
ATOM      6  C   LIG d   1       4.198  -1.384 -10.469  0.00  0.00     0.022 A 
ATOM      7  C   LIG d   1       4.200  -0.189 -11.211  0.00  0.00     0.143 A 
ATOM      8  C   LIG d   1       4.776  -2.542 -11.004  0.00  0.00    -0.029 A 
ATOM      9  C   LIG d   1       4.777  -0.170 -12.472  0.00  0.00     0.024 A 
ATOM     10  O   LIG d   1       3.641   0.926 -10.692  0.00  0.00    -0.422 OA
ATOM     11  C   LIG d   1       5.345  -1.323 -12.985  0.00  0.00     0.139 A 
ATOM     12  H   LIG d   1       4.784   0.741 -13.051  0.00  0.00     0.069 H 
ATOM     13  C   LIG d   1       5.342  -2.506 -12.245  0.00  0.00     0.083 A 
ATOM     14 CL   LIG d   1       6.058  -3.941 -12.909  0.00  0.00    -0.080 Cl
ATOM     15  C   LIG d   1       3.078   0.925  -9.474  0.00  0.00     0.341 A 
ATOM     16  O   LIG d   1       2.587   1.954  -9.046  0.00  0.00    -0.245 OA
ATOM     17  H   LIG d   1       4.776  -3.460 -10.434  0.00  0.00     0.064 H 
BRANCH   5  18
ATOM     18  C   LIG d   1       3.570  -2.645  -8.301  0.00  0.00    -0.038 C 
ATOM     19  H   LIG d   1       2.842  -2.534  -7.497  0.00  0.00     0.028 H 
ATOM     20  H   LIG d   1       3.294  -3.494  -8.928  0.00  0.00     0.028 H 
ATOM     21  H   LIG d   1       4.559  -2.814  -7.875  0.00  0.00     0.028 H 
ENDBRANCH   5  18
BRANCH  11  22
ATOM     22  O   LIG d   1       5.912  -1.304 -14.219  0.00  0.00    -0.505 OA
ATOM     23  H   LIG d   1       5.279  -1.186 -14.940  0.00  0.00     0.292 HD
ENDBRANCH  11  22
ENDBRANCH   1   4
BRANCH   1  24
ATOM     24  C   LIG d   1       3.464  -0.010  -6.262  0.00  0.00     0.218 C 
ATOM     25  O   LIG d   1       4.592   0.291  -6.588  0.00  0.00    -0.275 OA
ATOM     26  N   LIG d   1       3.162  -0.177  -4.959  0.00  0.00    -0.307 N 
ATOM     27  H   LIG d   1       2.260  -0.419  -4.698  0.00  0.00     0.149 HD
BRANCH  26  28
ATOM     28  CA  LIG d   1       4.196   0.005  -3.938  0.00  0.00     0.067 C 
ATOM     29  HA  LIG d   1       5.152   0.209  -4.421  0.00  0.00     0.056 H 
BRANCH  28  30
ATOM     30  C   LIG d   1       4.312  -1.268  -3.097  0.00  0.00    -0.004 C 
ATOM     31  H   LIG d   1       4.582  -1.003  -2.074  0.00  0.00     0.034 H 
ATOM     32  H   LIG d   1       3.357  -1.792  -3.097  0.00  0.00     0.034 H 
BRANCH  30  33
ATOM     33  C   LIG d   1       5.375  -2.162  -3.681  0.00  0.00    -0.045 A 
ATOM     34  C   LIG d   1       6.707  -1.935  -3.387  0.00  0.00    -0.057 A 
ATOM     35  C   LIG d   1       7.682  -2.754  -3.923  0.00  0.00    -0.043 A 
ATOM     36  H   LIG d   1       6.985  -1.118  -2.738  0.00  0.00     0.062 H 
ATOM     37  C   LIG d   1       7.326  -3.801  -4.754  0.00  0.00     0.041 A 
ATOM     38  H   LIG d   1       8.723  -2.577  -3.693  0.00  0.00     0.063 H 
ATOM     39  C   LIG d   1       5.993  -4.027  -5.049  0.00  0.00    -0.043 A 
ATOM     40 CL   LIG d   1       8.551  -4.830  -5.428  0.00  0.00    -0.084 Cl
ATOM     41  C   LIG d   1       5.018  -3.211  -4.508  0.00  0.00    -0.057 A 
ATOM     42  H   LIG d   1       5.715  -4.844  -5.698  0.00  0.00     0.063 H 
ATOM     43  H   LIG d   1       3.978  -3.390  -4.734  0.00  0.00     0.062 H 
ENDBRANCH  30  33
ENDBRANCH  28  30
BRANCH  28  44
ATOM     44  C   LIG d   1       3.825   1.164  -3.049  0.00  0.00     0.062 C 
ATOM     45  O   LIG d   1       3.479   2.213  -3.536  0.00  0.00    -0.548 OA
ATOM     46  OXT LIG d   1       3.878   1.028  -1.714  0.00  0.00    -0.548 OA
ENDBRANCH  28  44
ENDBRANCH  26  28
ENDBRANCH   1  24
TORSDOF 8
ENDMDL
MODEL 10
REMARK VINA RESULT:      -5.7      3.334      7.225
REMARK  8 active torsions:
REMARK  status: ('A' for Active; 'I' for Inactive)
REMARK    1  A    between atoms: C_1  and  C_2 
REMARK    2  A    between atoms: C_6  and  O_29 
REMARK    3  A    between atoms: C_12  and  C_13 
REMARK    4  A    between atoms: C_13  and  C_14 
REMARK       I    between atoms: C_14  and  N_16 
REMARK    5  A    between atoms: N_16  and  CA_17 
REMARK    6  A    between atoms: CA_17  and  C_19 
REMARK    7  A    between atoms: CA_17  and  C_27 
REMARK    8  A    between atoms: C_19  and  C_20 
ROOT
ATOM      1  C   LIG d   1       7.051   0.469  -7.934  0.00  0.00     0.056 C 
ATOM      2  H   LIG d   1       7.847   0.041  -8.544  0.00  0.00     0.041 H 
ATOM      3  H   LIG d   1       7.053   1.554  -8.044  0.00  0.00     0.041 H 
ENDROOT
BRANCH   1   4
ATOM      4  C   LIG d   1       5.722  -0.079  -8.385  0.00  0.00     0.049 A 
ATOM      5  C   LIG d   1       5.560  -1.417  -8.559  0.00  0.00    -0.029 A 
ATOM      6  C   LIG d   1       4.250  -1.905  -8.992  0.00  0.00     0.022 A 
ATOM      7  C   LIG d   1       3.218  -0.975  -9.223  0.00  0.00     0.143 A 
ATOM      8  C   LIG d   1       4.017  -3.272  -9.185  0.00  0.00    -0.029 A 
ATOM      9  C   LIG d   1       1.975  -1.427  -9.639  0.00  0.00     0.024 A 
ATOM     10  O   LIG d   1       3.447   0.343  -9.036  0.00  0.00    -0.422 OA
ATOM     11  C   LIG d   1       1.762  -2.782  -9.825  0.00  0.00     0.139 A 
ATOM     12  H   LIG d   1       1.176  -0.723  -9.819  0.00  0.00     0.069 H 
ATOM     13  C   LIG d   1       2.788  -3.699  -9.597  0.00  0.00     0.083 A 
ATOM     14 CL   LIG d   1       2.498  -5.394  -9.834  0.00  0.00    -0.080 Cl
ATOM     15  C   LIG d   1       4.644   0.795  -8.633  0.00  0.00     0.341 A 
ATOM     16  O   LIG d   1       4.804   1.993  -8.479  0.00  0.00    -0.245 OA
ATOM     17  H   LIG d   1       4.808  -3.986  -9.009  0.00  0.00     0.064 H 
BRANCH   5  18
ATOM     18  C   LIG d   1       6.698  -2.373  -8.306  0.00  0.00    -0.038 C 
ATOM     19  H   LIG d   1       7.192  -2.607  -9.250  0.00  0.00     0.028 H 
ATOM     20  H   LIG d   1       7.414  -1.912  -7.625  0.00  0.00     0.028 H 
ATOM     21  H   LIG d   1       6.311  -3.289  -7.861  0.00  0.00     0.028 H 
ENDBRANCH   5  18
BRANCH  11  22
ATOM     22  O   LIG d   1       0.545  -3.223 -10.234  0.00  0.00    -0.505 OA
ATOM     23  H   LIG d   1       0.296  -2.925 -11.120  0.00  0.00     0.292 HD
ENDBRANCH  11  22
ENDBRANCH   1   4
BRANCH   1  24
ATOM     24  C   LIG d   1       7.279   0.110  -6.488  0.00  0.00     0.218 C 
ATOM     25  O   LIG d   1       8.364  -0.290  -6.127  0.00  0.00    -0.275 OA
ATOM     26  N   LIG d   1       6.276   0.234  -5.597  0.00  0.00    -0.307 N 
ATOM     27  H   LIG d   1       5.407   0.554  -5.886  0.00  0.00     0.149 HD
BRANCH  26  28
ATOM     28  CA  LIG d   1       6.497  -0.114  -4.192  0.00  0.00     0.067 C 
ATOM     29  HA  LIG d   1       7.488  -0.554  -4.078  0.00  0.00     0.056 H 
BRANCH  28  30
ATOM     30  C   LIG d   1       5.437  -1.122  -3.743  0.00  0.00    -0.004 C 
ATOM     31  H   LIG d   1       5.483  -1.239  -2.660  0.00  0.00     0.034 H 
ATOM     32  H   LIG d   1       4.449  -0.762  -4.028  0.00  0.00     0.034 H 
BRANCH  30  33
ATOM     33  C   LIG d   1       5.697  -2.452  -4.403  0.00  0.00    -0.045 A 
ATOM     34  C   LIG d   1       6.959  -3.014  -4.353  0.00  0.00    -0.057 A 
ATOM     35  C   LIG d   1       7.197  -4.233  -4.958  0.00  0.00    -0.043 A 
ATOM     36  H   LIG d   1       7.758  -2.500  -3.840  0.00  0.00     0.062 H 
ATOM     37  C   LIG d   1       6.173  -4.891  -5.615  0.00  0.00     0.041 A 
ATOM     38  H   LIG d   1       8.184  -4.672  -4.919  0.00  0.00     0.063 H 
ATOM     39  C   LIG d   1       4.910  -4.328  -5.666  0.00  0.00    -0.043 A 
ATOM     40 CL   LIG d   1       6.472  -6.422  -6.376  0.00  0.00    -0.084 Cl
ATOM     41  C   LIG d   1       4.671  -3.111  -5.055  0.00  0.00    -0.057 A 
ATOM     42  H   LIG d   1       4.111  -4.841  -6.179  0.00  0.00     0.063 H 
ATOM     43  H   LIG d   1       3.684  -2.674  -5.091  0.00  0.00     0.062 H 
ENDBRANCH  30  33
ENDBRANCH  28  30
BRANCH  28  44
ATOM     44  C   LIG d   1       6.399   1.129  -3.345  0.00  0.00     0.062 C 
ATOM     45  O   LIG d   1       5.591   1.188  -2.449  0.00  0.00    -0.548 OA
ATOM     46  OXT LIG d   1       7.210   2.170  -3.587  0.00  0.00    -0.548 OA
ENDBRANCH  28  44
ENDBRANCH  26  28
ENDBRANCH   1  24
TORSDOF 8
ENDMDL
