MODEL 1
REMARK VINA RESULT:      -5.9      0.000      0.000
REMARK  5 active torsions:
REMARK  status: ('A' for Active; 'I' for Inactive)
REMARK    1  A    between atoms: C_1  and  C_2 
REMARK    2  A    between atoms: C_4  and  C_18 
REMARK    3  A    between atoms: C_6  and  N_8 
REMARK    4  A    between atoms: N_8  and  N_9 
REMARK    5  A    between atoms: C_10  and  C_11 
ROOT
ATOM      1  N   LIG d   1       4.014  -4.329  -5.627  0.00  0.00    -0.205 N 
ATOM      2  H   LIG d   1       3.144  -4.473  -6.030  0.00  0.00     0.177 HD
ENDROOT
BRANCH   1   3
ATOM      3  C   LIG d   1       4.917  -5.371  -5.542  0.00  0.00     0.238 A 
ATOM      4  N   LIG d   1       6.223  -5.131  -5.624  0.00  0.00    -0.199 NA
ATOM      5  C   LIG d   1       7.081  -6.130  -5.541  0.00  0.00     0.132 A 
ATOM      6  N   LIG d   1       6.645  -7.369  -5.376  0.00  0.00    -0.218 NA
ATOM      7  C   LIG d   1       5.347  -7.611  -5.294  0.00  0.00     0.132 A 
ATOM      8  N   LIG d   1       4.481  -6.618  -5.376  0.00  0.00    -0.199 NA
BRANCH   5   9
ATOM      9  C   LIG d   1       8.561  -5.860  -5.634  0.00  0.00    -0.004 C 
ATOM     10  H   LIG d   1       8.808  -4.982  -5.036  0.00  0.00     0.031 H 
ATOM     11  H   LIG d   1       9.113  -6.722  -5.259  0.00  0.00     0.031 H 
ATOM     12  H   LIG d   1       8.833  -5.679  -6.674  0.00  0.00     0.031 H 
ENDBRANCH   5   9
BRANCH   7  13
ATOM     13  C   LIG d   1       4.856  -9.023  -5.107  0.00  0.00    -0.004 C 
ATOM     14  H   LIG d   1       5.463  -9.523  -4.353  0.00  0.00     0.031 H 
ATOM     15  H   LIG d   1       3.815  -9.006  -4.782  0.00  0.00     0.031 H 
ATOM     16  H   LIG d   1       4.932  -9.563  -6.051  0.00  0.00     0.031 H 
ENDBRANCH   7  13
ENDBRANCH   1   3
BRANCH   1  17
ATOM     17  N   LIG d   1       4.357  -3.063  -5.133  0.00  0.00    -0.188 NA
ATOM     18  C   LIG d   1       4.365  -2.847  -3.853  0.00  0.00     0.053 C 
ATOM     19  H   LIG d   1       4.109  -3.642  -3.170  0.00  0.00     0.085 H 
BRANCH  18  20
ATOM     20  C   LIG d   1       4.726  -1.515  -3.333  0.00  0.00    -0.004 A 
ATOM     21  C   LIG d   1       5.843  -0.845  -3.836  0.00  0.00    -0.040 A 
ATOM     22  C   LIG d   1       6.172   0.404  -3.349  0.00  0.00     0.014 A 
ATOM     23  H   LIG d   1       6.446  -1.300  -4.608  0.00  0.00     0.063 H 
ATOM     24  C   LIG d   1       5.404   0.987  -2.356  0.00  0.00    -0.049 A 
ATOM     25  I   LIG d   1       7.842   1.417  -4.107  0.00  0.00    -0.044 I 
ATOM     26  C   LIG d   1       4.299   0.325  -1.849  0.00  0.00    -0.060 A 
ATOM     27  H   LIG d   1       5.667   1.962  -1.975  0.00  0.00     0.063 H 
ATOM     28  C   LIG d   1       3.955  -0.921  -2.331  0.00  0.00    -0.053 A 
ATOM     29  H   LIG d   1       3.704   0.786  -1.074  0.00  0.00     0.062 H 
ATOM     30  H   LIG d   1       3.093  -1.436  -1.933  0.00  0.00     0.062 H 
ENDBRANCH  18  20
ENDBRANCH   1  17
TORSDOF 5
ENDMDL
MODEL 2
REMARK VINA RESULT:      -5.8      5.689      7.561
REMARK  5 active torsions:
REMARK  status: ('A' for Active; 'I' for Inactive)
REMARK    1  A    between atoms: C_1  and  C_2 
REMARK    2  A    between atoms: C_4  and  C_18 
REMARK    3  A    between atoms: C_6  and  N_8 
REMARK    4  A    between atoms: N_8  and  N_9 
REMARK    5  A    between atoms: C_10  and  C_11 
ROOT
ATOM      1  N   LIG d   1       2.769   0.669  -6.011  0.00  0.00    -0.205 N 
ATOM      2  H   LIG d   1       2.192   1.428  -5.830  0.00  0.00     0.177 HD
ENDROOT
BRANCH   1   3
ATOM      3  C   LIG d   1       3.472   0.076  -4.981  0.00  0.00     0.238 A 
ATOM      4  N   LIG d   1       3.684   0.741  -3.848  0.00  0.00    -0.199 NA
ATOM      5  C   LIG d   1       4.356   0.170  -2.865  0.00  0.00     0.132 A 
ATOM      6  N   LIG d   1       4.819  -1.062  -3.006  0.00  0.00    -0.218 NA
ATOM      7  C   LIG d   1       4.611  -1.726  -4.132  0.00  0.00     0.132 A 
ATOM      8  N   LIG d   1       3.939  -1.163  -5.119  0.00  0.00    -0.199 NA
BRANCH   5   9
ATOM      9  C   LIG d   1       4.597   0.921  -1.582  0.00  0.00    -0.004 C 
ATOM     10  H   LIG d   1       4.405   0.263  -0.734  0.00  0.00     0.031 H 
ATOM     11  H   LIG d   1       5.631   1.264  -1.549  0.00  0.00     0.031 H 
ATOM     12  H   LIG d   1       3.927   1.781  -1.532  0.00  0.00     0.031 H 
ENDBRANCH   5   9
BRANCH   7  13
ATOM     13  C   LIG d   1       5.141  -3.128  -4.287  0.00  0.00    -0.004 C 
ATOM     14  H   LIG d   1       4.758  -3.753  -3.481  0.00  0.00     0.031 H 
ATOM     15  H   LIG d   1       4.818  -3.535  -5.246  0.00  0.00     0.031 H 
ATOM     16  H   LIG d   1       6.230  -3.111  -4.247  0.00  0.00     0.031 H 
ENDBRANCH   7  13
ENDBRANCH   1   3
BRANCH   1  17
ATOM     17  N   LIG d   1       2.889   0.176  -7.316  0.00  0.00    -0.188 NA
ATOM     18  C   LIG d   1       2.916   0.998  -8.321  0.00  0.00     0.053 C 
ATOM     19  H   LIG d   1       2.846   2.061  -8.150  0.00  0.00     0.085 H 
BRANCH  18  20
ATOM     20  C   LIG d   1       3.043   0.478  -9.696  0.00  0.00    -0.004 A 
ATOM     21  C   LIG d   1       2.089  -0.409 -10.200  0.00  0.00    -0.040 A 
ATOM     22  C   LIG d   1       2.211  -0.887 -11.489  0.00  0.00     0.014 A 
ATOM     23  H   LIG d   1       1.257  -0.717  -9.585  0.00  0.00     0.063 H 
ATOM     24  C   LIG d   1       3.281  -0.498 -12.277  0.00  0.00    -0.049 A 
ATOM     25  I   LIG d   1       0.780  -2.212 -12.254  0.00  0.00    -0.044 I 
ATOM     26  C   LIG d   1       4.231   0.377 -11.780  0.00  0.00    -0.060 A 
ATOM     27  H   LIG d   1       3.374  -0.877 -13.283  0.00  0.00     0.063 H 
ATOM     28  C   LIG d   1       4.120   0.867 -10.496  0.00  0.00    -0.053 A 
ATOM     29  H   LIG d   1       5.063   0.677 -12.400  0.00  0.00     0.062 H 
ATOM     30  H   LIG d   1       4.863   1.549 -10.110  0.00  0.00     0.062 H 
ENDBRANCH  18  20
ENDBRANCH   1  17
TORSDOF 5
ENDMDL
MODEL 3
REMARK VINA RESULT:      -5.8      5.183      7.878
REMARK  5 active torsions:
REMARK  status: ('A' for Active; 'I' for Inactive)
REMARK    1  A    between atoms: C_1  and  C_2 
REMARK    2  A    between atoms: C_4  and  C_18 
REMARK    3  A    between atoms: C_6  and  N_8 
REMARK    4  A    between atoms: N_8  and  N_9 
REMARK    5  A    between atoms: C_10  and  C_11 
ROOT
ATOM      1  N   LIG d   1       7.859   2.486  -4.700  0.00  0.00    -0.205 N 
ATOM      2  H   LIG d   1       7.524   3.207  -5.256  0.00  0.00     0.177 HD
ENDROOT
BRANCH   1   3
ATOM      3  C   LIG d   1       9.089   2.606  -4.083  0.00  0.00     0.238 A 
ATOM      4  N   LIG d   1       9.320   3.612  -3.244  0.00  0.00    -0.199 NA
ATOM      5  C   LIG d   1      10.497   3.722  -2.657  0.00  0.00     0.132 A 
ATOM      6  N   LIG d   1      11.446   2.832  -2.900  0.00  0.00    -0.218 NA
ATOM      7  C   LIG d   1      11.220   1.830  -3.734  0.00  0.00     0.132 A 
ATOM      8  N   LIG d   1      10.046   1.712  -4.325  0.00  0.00    -0.199 NA
BRANCH   5   9
ATOM      9  C   LIG d   1      10.760   4.862  -1.707  0.00  0.00    -0.004 C 
ATOM     10  H   LIG d   1      10.560   4.537  -0.686  0.00  0.00     0.031 H 
ATOM     11  H   LIG d   1      11.802   5.172  -1.791  0.00  0.00     0.031 H 
ATOM     12  H   LIG d   1      10.110   5.701  -1.956  0.00  0.00     0.031 H 
ENDBRANCH   5   9
BRANCH   7  13
ATOM     13  C   LIG d   1      12.305   0.820  -4.008  0.00  0.00    -0.004 C 
ATOM     14  H   LIG d   1      12.083  -0.105  -3.477  0.00  0.00     0.031 H 
ATOM     15  H   LIG d   1      12.354   0.621  -5.079  0.00  0.00     0.031 H 
ATOM     16  H   LIG d   1      13.262   1.214  -3.667  0.00  0.00     0.031 H 
ENDBRANCH   7  13
ENDBRANCH   1   3
BRANCH   1  17
ATOM     17  N   LIG d   1       7.095   1.326  -4.520  0.00  0.00    -0.188 NA
ATOM     18  C   LIG d   1       6.484   1.119  -3.393  0.00  0.00     0.053 C 
ATOM     19  H   LIG d   1       6.565   1.841  -2.595  0.00  0.00     0.085 H 
BRANCH  18  20
ATOM     20  C   LIG d   1       5.679  -0.103  -3.205  0.00  0.00    -0.004 A 
ATOM     21  C   LIG d   1       5.771  -1.151  -4.122  0.00  0.00    -0.040 A 
ATOM     22  C   LIG d   1       5.019  -2.294  -3.936  0.00  0.00     0.014 A 
ATOM     23  H   LIG d   1       6.432  -1.071  -4.973  0.00  0.00     0.063 H 
ATOM     24  C   LIG d   1       4.168  -2.396  -2.850  0.00  0.00    -0.049 A 
ATOM     25  I   LIG d   1       5.160  -3.873  -5.305  0.00  0.00    -0.044 I 
ATOM     26  C   LIG d   1       4.068  -1.358  -1.940  0.00  0.00    -0.060 A 
ATOM     27  H   LIG d   1       3.578  -3.290  -2.711  0.00  0.00     0.063 H 
ATOM     28  C   LIG d   1       4.817  -0.213  -2.110  0.00  0.00    -0.053 A 
ATOM     29  H   LIG d   1       3.402  -1.445  -1.095  0.00  0.00     0.062 H 
ATOM     30  H   LIG d   1       4.738   0.597  -1.400  0.00  0.00     0.062 H 
ENDBRANCH  18  20
ENDBRANCH   1  17
TORSDOF 5
ENDMDL
MODEL 4
REMARK VINA RESULT:      -5.8      5.261      7.553
REMARK  5 active torsions:
REMARK  status: ('A' for Active; 'I' for Inactive)
REMARK    1  A    between atoms: C_1  and  C_2 
REMARK    2  A    between atoms: C_4  and  C_18 
REMARK    3  A    between atoms: C_6  and  N_8 
REMARK    4  A    between atoms: N_8  and  N_9 
REMARK    5  A    between atoms: C_10  and  C_11 
ROOT
ATOM      1  N   LIG d   1       8.391   1.173  -3.814  0.00  0.00    -0.205 N 
ATOM      2  H   LIG d   1       9.138   0.674  -4.180  0.00  0.00     0.177 HD
ENDROOT
BRANCH   1   3
ATOM      3  C   LIG d   1       7.172   0.552  -3.628  0.00  0.00     0.238 A 
ATOM      4  N   LIG d   1       6.149   1.230  -3.114  0.00  0.00    -0.199 NA
ATOM      5  C   LIG d   1       4.985   0.633  -2.938  0.00  0.00     0.132 A 
ATOM      6  N   LIG d   1       4.834  -0.639  -3.272  0.00  0.00    -0.218 NA
ATOM      7  C   LIG d   1       5.849  -1.317  -3.784  0.00  0.00     0.132 A 
ATOM      8  N   LIG d   1       7.017  -0.727  -3.963  0.00  0.00    -0.199 NA
BRANCH   5   9
ATOM      9  C   LIG d   1       3.826   1.400  -2.356  0.00  0.00    -0.004 C 
ATOM     10  H   LIG d   1       2.902   1.083  -2.839  0.00  0.00     0.031 H 
ATOM     11  H   LIG d   1       3.762   1.206  -1.285  0.00  0.00     0.031 H 
ATOM     12  H   LIG d   1       3.975   2.467  -2.524  0.00  0.00     0.031 H 
ENDBRANCH   5   9
BRANCH   7  13
ATOM     13  C   LIG d   1       5.672  -2.765  -4.161  0.00  0.00    -0.004 C 
ATOM     14  H   LIG d   1       4.622  -2.958  -4.380  0.00  0.00     0.031 H 
ATOM     15  H   LIG d   1       6.274  -2.986  -5.044  0.00  0.00     0.031 H 
ATOM     16  H   LIG d   1       5.993  -3.398  -3.334  0.00  0.00     0.031 H 
ENDBRANCH   7  13
ENDBRANCH   1   3
BRANCH   1  17
ATOM     17  N   LIG d   1       8.550   2.523  -3.475  0.00  0.00    -0.188 NA
ATOM     18  C   LIG d   1       9.717   3.083  -3.569  0.00  0.00     0.053 C 
ATOM     19  H   LIG d   1      10.566   2.509  -3.908  0.00  0.00     0.085 H 
BRANCH  18  20
ATOM     20  C   LIG d   1       9.883   4.504  -3.211  0.00  0.00    -0.004 A 
ATOM     21  C   LIG d   1      10.376   4.858  -1.953  0.00  0.00    -0.040 A 
ATOM     22  C   LIG d   1      10.534   6.190  -1.628  0.00  0.00     0.014 A 
ATOM     23  H   LIG d   1      10.636   4.092  -1.238  0.00  0.00     0.063 H 
ATOM     24  C   LIG d   1      10.196   7.174  -2.541  0.00  0.00    -0.049 A 
ATOM     25  I   LIG d   1      11.280   6.726   0.255  0.00  0.00    -0.044 I 
ATOM     26  C   LIG d   1       9.703   6.829  -3.788  0.00  0.00    -0.060 A 
ATOM     27  H   LIG d   1      10.318   8.214  -2.281  0.00  0.00     0.063 H 
ATOM     28  C   LIG d   1       9.544   5.502  -4.128  0.00  0.00    -0.053 A 
ATOM     29  H   LIG d   1       9.441   7.602  -4.495  0.00  0.00     0.062 H 
ATOM     30  H   LIG d   1       9.158   5.235  -5.101  0.00  0.00     0.062 H 
ENDBRANCH  18  20
ENDBRANCH   1  17
TORSDOF 5
ENDMDL
MODEL 5
REMARK VINA RESULT:      -5.8      5.272      7.621
REMARK  5 active torsions:
REMARK  status: ('A' for Active; 'I' for Inactive)
REMARK    1  A    between atoms: C_1  and  C_2 
REMARK    2  A    between atoms: C_4  and  C_18 
REMARK    3  A    between atoms: C_6  and  N_8 
REMARK    4  A    between atoms: N_8  and  N_9 
REMARK    5  A    between atoms: C_10  and  C_11 
ROOT
ATOM      1  N   LIG d   1       8.399   1.189  -3.814  0.00  0.00    -0.205 N 
ATOM      2  H   LIG d   1       9.147   0.692  -4.181  0.00  0.00     0.177 HD
ENDROOT
BRANCH   1   3
ATOM      3  C   LIG d   1       7.181   0.565  -3.628  0.00  0.00     0.238 A 
ATOM      4  N   LIG d   1       7.029  -0.714  -3.959  0.00  0.00    -0.199 NA
ATOM      5  C   LIG d   1       5.863  -1.306  -3.780  0.00  0.00     0.132 A 
ATOM      6  N   LIG d   1       4.846  -0.629  -3.271  0.00  0.00    -0.218 NA
ATOM      7  C   LIG d   1       4.993   0.644  -2.941  0.00  0.00     0.132 A 
ATOM      8  N   LIG d   1       6.156   1.243  -3.116  0.00  0.00    -0.199 NA
BRANCH   5   9
ATOM      9  C   LIG d   1       5.690  -2.755  -4.155  0.00  0.00    -0.004 C 
ATOM     10  H   LIG d   1       5.264  -3.300  -3.312  0.00  0.00     0.031 H 
ATOM     11  H   LIG d   1       5.020  -2.832  -5.012  0.00  0.00     0.031 H 
ATOM     12  H   LIG d   1       6.659  -3.183  -4.412  0.00  0.00     0.031 H 
ENDBRANCH   5   9
BRANCH   7  13
ATOM     13  C   LIG d   1       3.832   1.410  -2.362  0.00  0.00    -0.004 C 
ATOM     14  H   LIG d   1       3.513   2.176  -3.069  0.00  0.00     0.031 H 
ATOM     15  H   LIG d   1       3.004   0.726  -2.171  0.00  0.00     0.031 H 
ATOM     16  H   LIG d   1       4.137   1.882  -1.428  0.00  0.00     0.031 H 
ENDBRANCH   7  13
ENDBRANCH   1   3
BRANCH   1  17
ATOM     17  N   LIG d   1       8.555   2.538  -3.470  0.00  0.00    -0.188 NA
ATOM     18  C   LIG d   1       9.720   3.103  -3.572  0.00  0.00     0.053 C 
ATOM     19  H   LIG d   1      10.567   2.534  -3.921  0.00  0.00     0.085 H 
BRANCH  18  20
ATOM     20  C   LIG d   1       9.884   4.524  -3.211  0.00  0.00    -0.004 A 
ATOM     21  C   LIG d   1      10.375   4.875  -1.951  0.00  0.00    -0.040 A 
ATOM     22  C   LIG d   1      10.531   6.206  -1.622  0.00  0.00     0.014 A 
ATOM     23  H   LIG d   1      10.635   4.106  -1.238  0.00  0.00     0.063 H 
ATOM     24  C   LIG d   1      10.192   7.192  -2.532  0.00  0.00    -0.049 A 
ATOM     25  I   LIG d   1      11.275   6.737   0.264  0.00  0.00    -0.044 I 
ATOM     26  C   LIG d   1       9.701   6.850  -3.780  0.00  0.00    -0.060 A 
ATOM     27  H   LIG d   1      10.312   8.232  -2.268  0.00  0.00     0.063 H 
ATOM     28  C   LIG d   1       9.544   5.524  -4.125  0.00  0.00    -0.053 A 
ATOM     29  H   LIG d   1       9.438   7.625  -4.485  0.00  0.00     0.062 H 
ATOM     30  H   LIG d   1       9.159   5.260  -5.099  0.00  0.00     0.062 H 
ENDBRANCH  18  20
ENDBRANCH   1  17
TORSDOF 5
ENDMDL
MODEL 6
REMARK VINA RESULT:      -5.6      5.089      7.356
REMARK  5 active torsions:
REMARK  status: ('A' for Active; 'I' for Inactive)
REMARK    1  A    between atoms: C_1  and  C_2 
REMARK    2  A    between atoms: C_4  and  C_18 
REMARK    3  A    between atoms: C_6  and  N_8 
REMARK    4  A    between atoms: N_8  and  N_9 
REMARK    5  A    between atoms: C_10  and  C_11 
ROOT
ATOM      1  N   LIG d   1       8.394   0.907  -3.825  0.00  0.00    -0.205 N 
ATOM      2  H   LIG d   1       9.100   0.367  -4.214  0.00  0.00     0.177 HD
ENDROOT
BRANCH   1   3
ATOM      3  C   LIG d   1       7.148   0.355  -3.600  0.00  0.00     0.238 A 
ATOM      4  N   LIG d   1       6.198   1.071  -3.005  0.00  0.00    -0.199 NA
ATOM      5  C   LIG d   1       5.008   0.540  -2.793  0.00  0.00     0.132 A 
ATOM      6  N   LIG d   1       4.760  -0.704  -3.172  0.00  0.00    -0.218 NA
ATOM      7  C   LIG d   1       5.702  -1.419  -3.764  0.00  0.00     0.132 A 
ATOM      8  N   LIG d   1       6.894  -0.896  -3.980  0.00  0.00    -0.199 NA
BRANCH   5   9
ATOM      9  C   LIG d   1       3.932   1.350  -2.119  0.00  0.00    -0.004 C 
ATOM     10  H   LIG d   1       2.955   1.023  -2.474  0.00  0.00     0.031 H 
ATOM     11  H   LIG d   1       3.992   1.209  -1.039  0.00  0.00     0.031 H 
ATOM     12  H   LIG d   1       4.069   2.406  -2.355  0.00  0.00     0.031 H 
ENDBRANCH   5   9
BRANCH   7  13
ATOM     13  C   LIG d   1       5.413  -2.835  -4.193  0.00  0.00    -0.004 C 
ATOM     14  H   LIG d   1       6.110  -3.513  -3.700  0.00  0.00     0.031 H 
ATOM     15  H   LIG d   1       4.392  -3.098  -3.914  0.00  0.00     0.031 H 
ATOM     16  H   LIG d   1       5.528  -2.918  -5.273  0.00  0.00     0.031 H 
ENDBRANCH   7  13
ENDBRANCH   1   3
BRANCH   1  17
ATOM     17  N   LIG d   1       8.638   2.245  -3.492  0.00  0.00    -0.188 NA
ATOM     18  C   LIG d   1       9.289   3.010  -4.313  0.00  0.00     0.053 C 
ATOM     19  H   LIG d   1       9.643   2.615  -5.253  0.00  0.00     0.085 H 
BRANCH  18  20
ATOM     20  C   LIG d   1       9.546   4.420  -3.962  0.00  0.00    -0.004 A 
ATOM     21  C   LIG d   1       9.457   5.413  -4.940  0.00  0.00    -0.040 A 
ATOM     22  C   LIG d   1       9.693   6.731  -4.603  0.00  0.00     0.014 A 
ATOM     23  H   LIG d   1       9.200   5.152  -5.956  0.00  0.00     0.063 H 
ATOM     24  C   LIG d   1      10.028   7.067  -3.303  0.00  0.00    -0.049 A 
ATOM     25  I   LIG d   1       9.552   8.225  -6.065  0.00  0.00    -0.044 I 
ATOM     26  C   LIG d   1      10.122   6.086  -2.331  0.00  0.00    -0.060 A 
ATOM     27  H   LIG d   1      10.215   8.098  -3.046  0.00  0.00     0.063 H 
ATOM     28  C   LIG d   1       9.884   4.766  -2.652  0.00  0.00    -0.053 A 
ATOM     29  H   LIG d   1      10.384   6.355  -1.319  0.00  0.00     0.062 H 
ATOM     30  H   LIG d   1       9.960   4.002  -1.892  0.00  0.00     0.062 H 
ENDBRANCH  18  20
ENDBRANCH   1  17
TORSDOF 5
ENDMDL
MODEL 7
REMARK VINA RESULT:      -5.4      6.299      9.692
REMARK  5 active torsions:
REMARK  status: ('A' for Active; 'I' for Inactive)
REMARK    1  A    between atoms: C_1  and  C_2 
REMARK    2  A    between atoms: C_4  and  C_18 
REMARK    3  A    between atoms: C_6  and  N_8 
REMARK    4  A    between atoms: N_8  and  N_9 
REMARK    5  A    between atoms: C_10  and  C_11 
ROOT
ATOM      1  N   LIG d   1       9.569   2.913  -3.923  0.00  0.00    -0.205 N 
ATOM      2  H   LIG d   1      10.247   2.492  -4.475  0.00  0.00     0.177 HD
ENDROOT
BRANCH   1   3
ATOM      3  C   LIG d   1       9.646   4.264  -3.648  0.00  0.00     0.238 A 
ATOM      4  N   LIG d   1       9.951   4.679  -2.421  0.00  0.00    -0.199 NA
ATOM      5  C   LIG d   1      10.024   5.972  -2.163  0.00  0.00     0.132 A 
ATOM      6  N   LIG d   1       9.794   6.855  -3.122  0.00  0.00    -0.218 NA
ATOM      7  C   LIG d   1       9.490   6.446  -4.343  0.00  0.00     0.132 A 
ATOM      8  N   LIG d   1       9.416   5.155  -4.610  0.00  0.00    -0.199 NA
BRANCH   5   9
ATOM      9  C   LIG d   1      10.369   6.443  -0.774  0.00  0.00    -0.004 C 
ATOM     10  H   LIG d   1       9.472   6.438  -0.155  0.00  0.00     0.031 H 
ATOM     11  H   LIG d   1      11.114   5.776  -0.338  0.00  0.00     0.031 H 
ATOM     12  H   LIG d   1      10.772   7.455  -0.822  0.00  0.00     0.031 H 
ENDBRANCH   5   9
BRANCH   7  13
ATOM     13  C   LIG d   1       9.229   7.455  -5.431  0.00  0.00    -0.004 C 
ATOM     14  H   LIG d   1      10.137   7.604  -6.015  0.00  0.00     0.031 H 
ATOM     15  H   LIG d   1       8.435   7.090  -6.083  0.00  0.00     0.031 H 
ATOM     16  H   LIG d   1       8.926   8.401  -4.983  0.00  0.00     0.031 H 
ENDBRANCH   7  13
ENDBRANCH   1   3
BRANCH   1  17
ATOM     17  N   LIG d   1       8.513   2.152  -3.406  0.00  0.00    -0.188 NA
ATOM     18  C   LIG d   1       7.635   1.632  -4.208  0.00  0.00     0.053 C 
ATOM     19  H   LIG d   1       7.718   1.786  -5.273  0.00  0.00     0.085 H 
BRANCH  18  20
ATOM     20  C   LIG d   1       6.523   0.829  -3.663  0.00  0.00    -0.004 A 
ATOM     21  C   LIG d   1       6.256  -0.440  -4.180  0.00  0.00    -0.040 A 
ATOM     22  C   LIG d   1       5.218  -1.187  -3.662  0.00  0.00     0.014 A 
ATOM     23  H   LIG d   1       6.862  -0.838  -4.981  0.00  0.00     0.063 H 
ATOM     24  C   LIG d   1       4.436  -0.677  -2.641  0.00  0.00    -0.049 A 
ATOM     25  I   LIG d   1       4.818  -3.096  -4.429  0.00  0.00    -0.044 I 
ATOM     26  C   LIG d   1       4.693   0.582  -2.128  0.00  0.00    -0.060 A 
ATOM     27  H   LIG d   1       3.622  -1.264  -2.242  0.00  0.00     0.063 H 
ATOM     28  C   LIG d   1       5.730   1.338  -2.632  0.00  0.00    -0.053 A 
ATOM     29  H   LIG d   1       4.079   0.975  -1.331  0.00  0.00     0.062 H 
ATOM     30  H   LIG d   1       5.929   2.322  -2.231  0.00  0.00     0.062 H 
ENDBRANCH  18  20
ENDBRANCH   1  17
TORSDOF 5
ENDMDL
MODEL 8
REMARK VINA RESULT:      -5.2      5.155      7.671
REMARK  5 active torsions:
REMARK  status: ('A' for Active; 'I' for Inactive)
REMARK    1  A    between atoms: C_1  and  C_2 
REMARK    2  A    between atoms: C_4  and  C_18 
REMARK    3  A    between atoms: C_6  and  N_8 
REMARK    4  A    between atoms: N_8  and  N_9 
REMARK    5  A    between atoms: C_10  and  C_11 
ROOT
ATOM      1  N   LIG d   1       5.737  -1.433  -5.681  0.00  0.00    -0.205 N 
ATOM      2  H   LIG d   1       5.825  -2.360  -5.410  0.00  0.00     0.177 HD
ENDROOT
BRANCH   1   3
ATOM      3  C   LIG d   1       5.899  -0.423  -4.753  0.00  0.00     0.238 A 
ATOM      4  N   LIG d   1       4.933  -0.160  -3.878  0.00  0.00    -0.199 NA
ATOM      5  C   LIG d   1       5.092   0.806  -2.992  0.00  0.00     0.132 A 
ATOM      6  N   LIG d   1       6.212   1.511  -2.973  0.00  0.00    -0.218 NA
ATOM      7  C   LIG d   1       7.176   1.252  -3.842  0.00  0.00     0.132 A 
ATOM      8  N   LIG d   1       7.025   0.288  -4.731  0.00  0.00    -0.199 NA
BRANCH   5   9
ATOM      9  C   LIG d   1       3.998   1.106  -2.000  0.00  0.00    -0.004 C 
ATOM     10  H   LIG d   1       4.068   2.147  -1.686  0.00  0.00     0.031 H 
ATOM     11  H   LIG d   1       3.028   0.932  -2.466  0.00  0.00     0.031 H 
ATOM     12  H   LIG d   1       4.106   0.456  -1.131  0.00  0.00     0.031 H 
ENDBRANCH   5   9
BRANCH   7  13
ATOM     13  C   LIG d   1       8.449   2.058  -3.817  0.00  0.00    -0.004 C 
ATOM     14  H   LIG d   1       9.133   1.635  -3.081  0.00  0.00     0.031 H 
ATOM     15  H   LIG d   1       8.915   2.032  -4.802  0.00  0.00     0.031 H 
ATOM     16  H   LIG d   1       8.220   3.090  -3.550  0.00  0.00     0.031 H 
ENDBRANCH   7  13
ENDBRANCH   1   3
BRANCH   1  17
ATOM     17  N   LIG d   1       5.445  -1.118  -7.015  0.00  0.00    -0.188 NA
ATOM     18  C   LIG d   1       4.325  -0.532  -7.313  0.00  0.00     0.053 C 
ATOM     19  H   LIG d   1       3.620  -0.288  -6.534  0.00  0.00     0.085 H 
BRANCH  18  20
ATOM     20  C   LIG d   1       4.018  -0.201  -8.717  0.00  0.00    -0.004 A 
ATOM     21  C   LIG d   1       3.074  -0.948  -9.424  0.00  0.00    -0.040 A 
ATOM     22  C   LIG d   1       2.788  -0.629 -10.736  0.00  0.00     0.014 A 
ATOM     23  H   LIG d   1       2.565  -1.772  -8.944  0.00  0.00     0.063 H 
ATOM     24  C   LIG d   1       3.442   0.423 -11.354  0.00  0.00    -0.049 A 
ATOM     25  I   LIG d   1       1.365  -1.742 -11.797  0.00  0.00    -0.044 I 
ATOM     26  C   LIG d   1       4.382   1.164 -10.660  0.00  0.00    -0.060 A 
ATOM     27  H   LIG d   1       3.217   0.666 -12.382  0.00  0.00     0.063 H 
ATOM     28  C   LIG d   1       4.675   0.859  -9.348  0.00  0.00    -0.053 A 
ATOM     29  H   LIG d   1       4.890   1.982 -11.149  0.00  0.00     0.062 H 
ATOM     30  H   LIG d   1       5.410   1.438  -8.808  0.00  0.00     0.062 H 
ENDBRANCH  18  20
ENDBRANCH   1  17
TORSDOF 5
ENDMDL
MODEL 9
REMARK VINA RESULT:      -5.1      5.421      7.053
REMARK  5 active torsions:
REMARK  status: ('A' for Active; 'I' for Inactive)
REMARK    1  A    between atoms: C_1  and  C_2 
REMARK    2  A    between atoms: C_4  and  C_18 
REMARK    3  A    between atoms: C_6  and  N_8 
REMARK    4  A    between atoms: N_8  and  N_9 
REMARK    5  A    between atoms: C_10  and  C_11 
ROOT
ATOM      1  N   LIG d   1       5.018   0.375  -6.726  0.00  0.00    -0.205 N 
ATOM      2  H   LIG d   1       5.420   1.251  -6.617  0.00  0.00     0.177 HD
ENDROOT
BRANCH   1   3
ATOM      3  C   LIG d   1       4.887  -0.464  -5.637  0.00  0.00     0.238 A 
ATOM      4  N   LIG d   1       4.680   0.044  -4.424  0.00  0.00    -0.199 NA
ATOM      5  C   LIG d   1       4.555  -0.762  -3.386  0.00  0.00     0.132 A 
ATOM      6  N   LIG d   1       4.635  -2.073  -3.550  0.00  0.00    -0.218 NA
ATOM      7  C   LIG d   1       4.841  -2.582  -4.754  0.00  0.00     0.132 A 
ATOM      8  N   LIG d   1       4.967  -1.783  -5.798  0.00  0.00    -0.199 NA
BRANCH   5   9
ATOM      9  C   LIG d   1       4.321  -0.189  -2.013  0.00  0.00    -0.004 C 
ATOM     10  H   LIG d   1       3.687   0.695  -2.092  0.00  0.00     0.031 H 
ATOM     11  H   LIG d   1       3.829  -0.933  -1.386  0.00  0.00     0.031 H 
ATOM     12  H   LIG d   1       5.275   0.089  -1.566  0.00  0.00     0.031 H 
ENDBRANCH   5   9
BRANCH   7  13
ATOM     13  C   LIG d   1       4.933  -4.075  -4.934  0.00  0.00    -0.004 C 
ATOM     14  H   LIG d   1       5.979  -4.380  -4.917  0.00  0.00     0.031 H 
ATOM     15  H   LIG d   1       4.396  -4.572  -4.126  0.00  0.00     0.031 H 
ATOM     16  H   LIG d   1       4.489  -4.353  -5.890  0.00  0.00     0.031 H 
ENDBRANCH   7  13
ENDBRANCH   1   3
BRANCH   1  17
ATOM     17  N   LIG d   1       4.569  -0.039  -7.987  0.00  0.00    -0.188 NA
ATOM     18  C   LIG d   1       3.316   0.088  -8.303  0.00  0.00     0.053 C 
ATOM     19  H   LIG d   1       2.621   0.512  -7.595  0.00  0.00     0.085 H 
BRANCH  18  20
ATOM     20  C   LIG d   1       2.844  -0.347  -9.631  0.00  0.00    -0.004 A 
ATOM     21  C   LIG d   1       3.735  -0.417 -10.704  0.00  0.00    -0.040 A 
ATOM     22  C   LIG d   1       3.287  -0.831 -11.942  0.00  0.00     0.014 A 
ATOM     23  H   LIG d   1       4.773  -0.153 -10.565  0.00  0.00     0.063 H 
ATOM     24  C   LIG d   1       1.956  -1.164 -12.125  0.00  0.00    -0.049 A 
ATOM     25  I   LIG d   1       4.622  -0.946 -13.553  0.00  0.00    -0.044 I 
ATOM     26  C   LIG d   1       1.067  -1.092 -11.066  0.00  0.00    -0.060 A 
ATOM     27  H   LIG d   1       1.610  -1.483 -13.096  0.00  0.00     0.063 H 
ATOM     28  C   LIG d   1       1.502  -0.685  -9.822  0.00  0.00    -0.053 A 
ATOM     29  H   LIG d   1       0.030  -1.353 -11.215  0.00  0.00     0.062 H 
ATOM     30  H   LIG d   1       0.806  -0.628  -8.997  0.00  0.00     0.062 H 
ENDBRANCH  18  20
ENDBRANCH   1  17
TORSDOF 5
ENDMDL
