MODEL 1
REMARK VINA RESULT:      -7.1      0.000      0.000
REMARK  8 active torsions:
REMARK  status: ('A' for Active; 'I' for Inactive)
REMARK    1  A    between atoms: C_1  and  C_2 
REMARK    2  A    between atoms: C_3  and  C_21 
REMARK    3  A    between atoms: C_9  and  O_19 
REMARK    4  A    between atoms: C_15  and  C_17 
REMARK    5  A    between atoms: C_15  and  C_18 
REMARK    6  A    between atoms: O_19  and  C_20 
REMARK    7  A    between atoms: C_21  and  C_22 
REMARK       I    between atoms: C_22  and  N_24 
REMARK    8  A    between atoms: C_28  and  C_31 
ROOT
ATOM      1  C   LIG d   1       7.031  -4.956  -5.629  0.00  0.00    -0.026 A 
ATOM      2  C   LIG d   1       6.002  -5.793  -5.920  0.00  0.00     0.049 A 
ATOM      3  C   LIG d   1       4.697  -5.476  -5.494  0.00  0.00     0.341 A 
ATOM      4  O   LIG d   1       3.778  -6.229  -5.764  0.00  0.00    -0.245 OA
ATOM      5  O   LIG d   1       4.449  -4.357  -4.790  0.00  0.00    -0.421 OA
ATOM      6  C   LIG d   1       5.447  -3.499  -4.480  0.00  0.00     0.149 A 
ATOM      7  C   LIG d   1       6.763  -3.774  -4.890  0.00  0.00     0.063 A 
ATOM      8  C   LIG d   1       7.795  -2.878  -4.567  0.00  0.00     0.135 A 
ATOM      9  C   LIG d   1       7.505  -1.738  -3.846  0.00  0.00     0.023 A 
ATOM     10  C   LIG d   1       6.196  -1.469  -3.439  0.00  0.00     0.131 A 
ATOM     11  C   LIG d   1       5.174  -2.345  -3.757  0.00  0.00     0.038 A 
ATOM     12  C   LIG d   1       3.750  -2.078  -3.336  0.00  0.00    -0.017 C 
ATOM     13  C   LIG d   1       3.730  -1.037  -2.214  0.00  0.00    -0.009 C 
ATOM     14  C   LIG d   1       4.625   0.137  -2.632  0.00  0.00     0.105 C 
ATOM     15  O   LIG d   1       5.969  -0.334  -2.728  0.00  0.00    -0.486 OA
ATOM     16  H   LIG d   1       8.296  -1.048  -3.595  0.00  0.00     0.069 H 
ATOM     17  H   LIG d   1       3.297  -3.003  -2.981  0.00  0.00     0.032 H 
ATOM     18  H   LIG d   1       3.185  -1.702  -4.189  0.00  0.00     0.032 H 
ATOM     19  H   LIG d   1       4.112  -1.481  -1.294  0.00  0.00     0.031 H 
ATOM     20  H   LIG d   1       2.710  -0.685  -2.057  0.00  0.00     0.031 H 
ENDROOT
BRANCH   2  21
ATOM     21  C   LIG d   1       6.255  -7.055  -6.703  0.00  0.00     0.056 C 
ATOM     22  H   LIG d   1       7.309  -7.112  -6.971  0.00  0.00     0.041 H 
ATOM     23  H   LIG d   1       5.650  -7.047  -7.611  0.00  0.00     0.041 H 
BRANCH  21  24
ATOM     24  C   LIG d   1       5.884  -8.251  -5.863  0.00  0.00     0.220 C 
ATOM     25  O   LIG d   1       4.759  -8.700  -5.912  0.00  0.00    -0.275 OA
ATOM     26  N   LIG d   1       6.804  -8.819  -5.060  0.00  0.00    -0.301 N 
ATOM     27  C   LIG d   1       6.458  -9.985  -4.234  0.00  0.00     0.023 C 
ATOM     28  C   LIG d   1       8.172  -8.286  -4.990  0.00  0.00     0.015 C 
ATOM     29  C   LIG d   1       6.822  -9.683  -2.776  0.00  0.00     0.014 C 
ATOM     30  H   LIG d   1       7.016 -10.855  -4.577  0.00  0.00     0.047 H 
ATOM     31  H   LIG d   1       5.388 -10.181  -4.310  0.00  0.00     0.047 H 
ATOM     32  C   LIG d   1       8.294  -9.272  -2.698  0.00  0.00    -0.042 C 
ATOM     33  H   LIG d   1       6.197  -8.870  -2.406  0.00  0.00     0.038 H 
ATOM     34  C   LIG d   1       8.516  -8.003  -3.525  0.00  0.00    -0.036 C 
ATOM     35  H   LIG d   1       8.562  -9.081  -1.659  0.00  0.00     0.027 H 
ATOM     36  H   LIG d   1       8.917 -10.075  -3.091  0.00  0.00     0.027 H 
ATOM     37  H   LIG d   1       7.876  -7.206  -3.147  0.00  0.00     0.028 H 
ATOM     38  H   LIG d   1       9.560  -7.698  -3.449  0.00  0.00     0.028 H 
ATOM     39  H   LIG d   1       8.232  -7.361  -5.564  0.00  0.00     0.046 H 
ATOM     40  H   LIG d   1       8.871  -9.015  -5.396  0.00  0.00     0.046 H 
BRANCH  29  41
ATOM     41  C   LIG d   1       6.598 -10.914  -1.937  0.00  0.00     0.046 C 
ATOM     42  O   LIG d   1       6.725 -12.010  -2.426  0.00  0.00    -0.549 OA
ATOM     43  O   LIG d   1       6.256 -10.792  -0.644  0.00  0.00    -0.549 OA
ENDBRANCH  29  41
ENDBRANCH  21  24
ENDBRANCH   2  21
BRANCH   1  44
ATOM     44  C   LIG d   1       8.433  -5.276  -6.081  0.00  0.00    -0.038 C 
ATOM     45  H   LIG d   1       8.715  -6.263  -5.716  0.00  0.00     0.028 H 
ATOM     46  H   LIG d   1       8.474  -5.267  -7.171  0.00  0.00     0.028 H 
ATOM     47  H   LIG d   1       9.122  -4.530  -5.685  0.00  0.00     0.028 H 
ENDBRANCH   1  44
BRANCH   8  48
ATOM     48  O   LIG d   1       9.069  -3.130  -4.960  0.00  0.00    -0.494 OA
BRANCH  48  49
ATOM     49  C   LIG d   1       9.935  -2.005  -5.121  0.00  0.00     0.079 C 
ATOM     50  H   LIG d   1       9.525  -1.337  -5.879  0.00  0.00     0.066 H 
ATOM     51  H   LIG d   1      10.017  -1.472  -4.174  0.00  0.00     0.066 H 
ATOM     52  H   LIG d   1      10.921  -2.347  -5.432  0.00  0.00     0.066 H 
ENDBRANCH  48  49
ENDBRANCH   8  48
BRANCH  14  53
ATOM     53  C   LIG d   1       4.542   1.247  -1.582  0.00  0.00    -0.025 C 
ATOM     54  H   LIG d   1       5.274   2.021  -1.813  0.00  0.00     0.027 H 
ATOM     55  H   LIG d   1       3.541   1.679  -1.589  0.00  0.00     0.027 H 
ATOM     56  H   LIG d   1       4.751   0.832  -0.596  0.00  0.00     0.027 H 
ENDBRANCH  14  53
BRANCH  14  57
ATOM     57  C   LIG d   1       4.169   0.675  -3.990  0.00  0.00    -0.025 C 
ATOM     58  H   LIG d   1       5.003   1.176  -4.480  0.00  0.00     0.027 H 
ATOM     59  H   LIG d   1       3.824  -0.152  -4.610  0.00  0.00     0.027 H 
ATOM     60  H   LIG d   1       3.354   1.385  -3.844  0.00  0.00     0.027 H 
ENDBRANCH  14  57
TORSDOF 8
ENDMDL
MODEL 2
REMARK VINA RESULT:      -7.1      2.166      2.910
REMARK  8 active torsions:
REMARK  status: ('A' for Active; 'I' for Inactive)
REMARK    1  A    between atoms: C_1  and  C_2 
REMARK    2  A    between atoms: C_3  and  C_21 
REMARK    3  A    between atoms: C_9  and  O_19 
REMARK    4  A    between atoms: C_15  and  C_17 
REMARK    5  A    between atoms: C_15  and  C_18 
REMARK    6  A    between atoms: O_19  and  C_20 
REMARK    7  A    between atoms: C_21  and  C_22 
REMARK       I    between atoms: C_22  and  N_24 
REMARK    8  A    between atoms: C_28  and  C_31 
ROOT
ATOM      1  C   LIG d   1       6.881  -4.977  -5.797  0.00  0.00    -0.026 A 
ATOM      2  C   LIG d   1       5.804  -5.670  -6.249  0.00  0.00     0.049 A 
ATOM      3  C   LIG d   1       4.504  -5.251  -5.904  0.00  0.00     0.341 A 
ATOM      4  O   LIG d   1       3.543  -5.875  -6.317  0.00  0.00    -0.245 OA
ATOM      5  O   LIG d   1       4.307  -4.176  -5.121  0.00  0.00    -0.421 OA
ATOM      6  C   LIG d   1       5.353  -3.460  -4.651  0.00  0.00     0.149 A 
ATOM      7  C   LIG d   1       6.666  -3.840  -4.976  0.00  0.00     0.063 A 
ATOM      8  C   LIG d   1       7.750  -3.091  -4.486  0.00  0.00     0.135 A 
ATOM      9  C   LIG d   1       7.511  -1.992  -3.688  0.00  0.00     0.023 A 
ATOM     10  C   LIG d   1       6.204  -1.618  -3.367  0.00  0.00     0.131 A 
ATOM     11  C   LIG d   1       5.132  -2.348  -3.848  0.00  0.00     0.038 A 
ATOM     12  C   LIG d   1       3.710  -1.966  -3.522  0.00  0.00    -0.017 C 
ATOM     13  C   LIG d   1       3.692  -1.027  -2.312  0.00  0.00    -0.009 C 
ATOM     14  C   LIG d   1       4.735   0.074  -2.544  0.00  0.00     0.105 C 
ATOM     15  O   LIG d   1       6.028  -0.530  -2.573  0.00  0.00    -0.486 OA
ATOM     16  H   LIG d   1       8.341  -1.415  -3.309  0.00  0.00     0.069 H 
ATOM     17  H   LIG d   1       3.136  -2.863  -3.293  0.00  0.00     0.032 H 
ATOM     18  H   LIG d   1       3.266  -1.460  -4.379  0.00  0.00     0.032 H 
ATOM     19  H   LIG d   1       3.942  -1.586  -1.410  0.00  0.00     0.031 H 
ATOM     20  H   LIG d   1       2.703  -0.581  -2.207  0.00  0.00     0.031 H 
ENDROOT
BRANCH   2  21
ATOM     21  C   LIG d   1       5.999  -6.882  -7.124  0.00  0.00     0.056 C 
ATOM     22  H   LIG d   1       7.042  -6.944  -7.431  0.00  0.00     0.041 H 
ATOM     23  H   LIG d   1       5.365  -6.798  -8.007  0.00  0.00     0.041 H 
BRANCH  21  24
ATOM     24  C   LIG d   1       5.627  -8.123  -6.354  0.00  0.00     0.220 C 
ATOM     25  O   LIG d   1       6.087  -8.309  -5.247  0.00  0.00    -0.275 OA
ATOM     26  N   LIG d   1       4.785  -9.024  -6.895  0.00  0.00    -0.301 N 
ATOM     27  C   LIG d   1       4.413 -10.238  -6.157  0.00  0.00     0.023 C 
ATOM     28  C   LIG d   1       4.219  -8.811  -8.235  0.00  0.00     0.015 C 
ATOM     29  C   LIG d   1       4.699 -11.459  -7.039  0.00  0.00     0.014 C 
ATOM     30  H   LIG d   1       3.352 -10.207  -5.911  0.00  0.00     0.047 H 
ATOM     31  H   LIG d   1       5.001 -10.304  -5.241  0.00  0.00     0.047 H 
ATOM     32  C   LIG d   1       3.980 -11.293  -8.380  0.00  0.00    -0.042 C 
ATOM     33  H   LIG d   1       5.773 -11.541  -7.210  0.00  0.00     0.038 H 
ATOM     34  C   LIG d   1       4.508 -10.047  -9.093  0.00  0.00    -0.036 C 
ATOM     35  H   LIG d   1       4.162 -12.171  -8.999  0.00  0.00     0.027 H 
ATOM     36  H   LIG d   1       2.910 -11.187  -8.207  0.00  0.00     0.027 H 
ATOM     37  H   LIG d   1       5.584 -10.142  -9.245  0.00  0.00     0.028 H 
ATOM     38  H   LIG d   1       4.012  -9.943 -10.059  0.00  0.00     0.028 H 
ATOM     39  H   LIG d   1       4.680  -7.935  -8.691  0.00  0.00     0.046 H 
ATOM     40  H   LIG d   1       3.143  -8.661  -8.160  0.00  0.00     0.046 H 
BRANCH  29  41
ATOM     41  C   LIG d   1       4.202 -12.704  -6.352  0.00  0.00     0.046 C 
ATOM     42  O   LIG d   1       4.977 -13.584  -6.062  0.00  0.00    -0.549 OA
ATOM     43  O   LIG d   1       2.898 -12.836  -6.062  0.00  0.00    -0.549 OA
ENDBRANCH  29  41
ENDBRANCH  21  24
ENDBRANCH   2  21
BRANCH   1  44
ATOM     44  C   LIG d   1       8.279  -5.408  -6.161  0.00  0.00    -0.038 C 
ATOM     45  H   LIG d   1       8.265  -6.447  -6.487  0.00  0.00     0.028 H 
ATOM     46  H   LIG d   1       8.654  -4.780  -6.970  0.00  0.00     0.028 H 
ATOM     47  H   LIG d   1       8.928  -5.307  -5.291  0.00  0.00     0.028 H 
ENDBRANCH   1  44
BRANCH   8  48
ATOM     48  O   LIG d   1       9.023  -3.446  -4.795  0.00  0.00    -0.494 OA
BRANCH  48  49
ATOM     49  C   LIG d   1       9.975  -2.390  -4.938  0.00  0.00     0.079 C 
ATOM     50  H   LIG d   1      10.432  -2.180  -3.971  0.00  0.00     0.066 H 
ATOM     51  H   LIG d   1      10.747  -2.690  -5.647  0.00  0.00     0.066 H 
ATOM     52  H   LIG d   1       9.472  -1.496  -5.305  0.00  0.00     0.066 H 
ENDBRANCH  48  49
ENDBRANCH   8  48
BRANCH  14  53
ATOM     53  C   LIG d   1       4.668   1.094  -1.405  0.00  0.00    -0.025 C 
ATOM     54  H   LIG d   1       4.022   1.922  -1.696  0.00  0.00     0.027 H 
ATOM     55  H   LIG d   1       4.266   0.615  -0.512  0.00  0.00     0.027 H 
ATOM     56  H   LIG d   1       5.669   1.471  -1.195  0.00  0.00     0.027 H 
ENDBRANCH  14  53
BRANCH  14  57
ATOM     57  C   LIG d   1       4.461   0.771  -3.878  0.00  0.00    -0.025 C 
ATOM     58  H   LIG d   1       4.972   1.734  -3.895  0.00  0.00     0.027 H 
ATOM     59  H   LIG d   1       4.827   0.149  -4.694  0.00  0.00     0.027 H 
ATOM     60  H   LIG d   1       3.388   0.927  -3.992  0.00  0.00     0.027 H 
ENDBRANCH  14  57
TORSDOF 8
ENDMDL
MODEL 3
REMARK VINA RESULT:      -7.0      6.804      9.798
REMARK  8 active torsions:
REMARK  status: ('A' for Active; 'I' for Inactive)
REMARK    1  A    between atoms: C_1  and  C_2 
REMARK    2  A    between atoms: C_3  and  C_21 
REMARK    3  A    between atoms: C_9  and  O_19 
REMARK    4  A    between atoms: C_15  and  C_17 
REMARK    5  A    between atoms: C_15  and  C_18 
REMARK    6  A    between atoms: O_19  and  C_20 
REMARK    7  A    between atoms: C_21  and  C_22 
REMARK       I    between atoms: C_22  and  N_24 
REMARK    8  A    between atoms: C_28  and  C_31 
ROOT
ATOM      1  C   LIG d   1       9.510   3.731  -4.865  0.00  0.00    -0.026 A 
ATOM      2  C   LIG d   1       9.134   2.478  -5.233  0.00  0.00     0.049 A 
ATOM      3  C   LIG d   1       8.934   2.175  -6.594  0.00  0.00     0.341 A 
ATOM      4  O   LIG d   1       8.602   1.049  -6.915  0.00  0.00    -0.245 OA
ATOM      5  O   LIG d   1       9.100   3.112  -7.544  0.00  0.00    -0.421 OA
ATOM      6  C   LIG d   1       9.473   4.370  -7.219  0.00  0.00     0.149 A 
ATOM      7  C   LIG d   1       9.689   4.713  -5.873  0.00  0.00     0.063 A 
ATOM      8  C   LIG d   1      10.078   6.022  -5.541  0.00  0.00     0.135 A 
ATOM      9  C   LIG d   1      10.242   6.957  -6.542  0.00  0.00     0.023 A 
ATOM     10  C   LIG d   1      10.027   6.612  -7.878  0.00  0.00     0.131 A 
ATOM     11  C   LIG d   1       9.646   5.325  -8.213  0.00  0.00     0.038 A 
ATOM     12  C   LIG d   1       9.411   4.923  -9.648  0.00  0.00    -0.017 C 
ATOM     13  C   LIG d   1       9.221   6.173 -10.510  0.00  0.00    -0.009 C 
ATOM     14  C   LIG d   1      10.348   7.160 -10.180  0.00  0.00     0.105 C 
ATOM     15  O   LIG d   1      10.198   7.574  -8.822  0.00  0.00    -0.486 OA
ATOM     16  H   LIG d   1      10.541   7.963  -6.291  0.00  0.00     0.069 H 
ATOM     17  H   LIG d   1       8.519   4.300  -9.708  0.00  0.00     0.032 H 
ATOM     18  H   LIG d   1      10.271   4.360 -10.011  0.00  0.00     0.032 H 
ATOM     19  H   LIG d   1       8.256   6.629 -10.289  0.00  0.00     0.031 H 
ATOM     20  H   LIG d   1       9.267   5.902 -11.566  0.00  0.00     0.031 H 
ENDROOT
BRANCH   2  21
ATOM     21  C   LIG d   1       8.937   1.412  -4.186  0.00  0.00     0.056 C 
ATOM     22  H   LIG d   1       9.444   1.706  -3.267  0.00  0.00     0.041 H 
ATOM     23  H   LIG d   1       9.352   0.470  -4.544  0.00  0.00     0.041 H 
BRANCH  21  24
ATOM     24  C   LIG d   1       7.464   1.242  -3.913  0.00  0.00     0.220 C 
ATOM     25  O   LIG d   1       6.814   2.175  -3.492  0.00  0.00    -0.275 OA
ATOM     26  N   LIG d   1       6.871   0.054  -4.138  0.00  0.00    -0.301 N 
ATOM     27  C   LIG d   1       5.437  -0.128  -3.876  0.00  0.00     0.023 C 
ATOM     28  C   LIG d   1       7.646  -1.087  -4.648  0.00  0.00     0.015 C 
ATOM     29  C   LIG d   1       5.253  -1.335  -2.950  0.00  0.00     0.014 C 
ATOM     30  H   LIG d   1       4.913  -0.306  -4.815  0.00  0.00     0.047 H 
ATOM     31  H   LIG d   1       5.037   0.765  -3.396  0.00  0.00     0.047 H 
ATOM     32  C   LIG d   1       5.939  -2.555  -3.568  0.00  0.00    -0.042 C 
ATOM     33  H   LIG d   1       5.699  -1.120  -1.979  0.00  0.00     0.038 H 
ATOM     34  C   LIG d   1       7.437  -2.282  -3.714  0.00  0.00    -0.036 C 
ATOM     35  H   LIG d   1       5.788  -3.421  -2.923  0.00  0.00     0.027 H 
ATOM     36  H   LIG d   1       5.509  -2.755  -4.549  0.00  0.00     0.027 H 
ATOM     37  H   LIG d   1       7.863  -2.058  -2.735  0.00  0.00     0.028 H 
ATOM     38  H   LIG d   1       7.929  -3.160  -4.132  0.00  0.00     0.028 H 
ATOM     39  H   LIG d   1       8.704  -0.825  -4.676  0.00  0.00     0.046 H 
ATOM     40  H   LIG d   1       7.305  -1.342  -5.651  0.00  0.00     0.046 H 
BRANCH  29  41
ATOM     41  C   LIG d   1       3.783  -1.618  -2.777  0.00  0.00     0.046 C 
ATOM     42  O   LIG d   1       3.422  -2.660  -2.284  0.00  0.00    -0.549 OA
ATOM     43  O   LIG d   1       2.874  -0.712  -3.171  0.00  0.00    -0.549 OA
ENDBRANCH  29  41
ENDBRANCH  21  24
ENDBRANCH   2  21
BRANCH   1  44
ATOM     44  C   LIG d   1       9.733   4.071  -3.414  0.00  0.00    -0.038 C 
ATOM     45  H   LIG d   1       8.774   4.263  -2.935  0.00  0.00     0.028 H 
ATOM     46  H   LIG d   1      10.226   3.235  -2.917  0.00  0.00     0.028 H 
ATOM     47  H   LIG d   1      10.361   4.959  -3.342  0.00  0.00     0.028 H 
ENDBRANCH   1  44
BRANCH   8  48
ATOM     48  O   LIG d   1      10.292   6.365  -4.246  0.00  0.00    -0.494 OA
BRANCH  48  49
ATOM     49  C   LIG d   1      10.222   7.755  -3.922  0.00  0.00     0.079 C 
ATOM     50  H   LIG d   1      11.063   8.020  -3.280  0.00  0.00     0.066 H 
ATOM     51  H   LIG d   1      10.265   8.344  -4.838  0.00  0.00     0.066 H 
ATOM     52  H   LIG d   1       9.288   7.959  -3.401  0.00  0.00     0.066 H 
ENDBRANCH  48  49
ENDBRANCH   8  48
BRANCH  14  53
ATOM     53  C   LIG d   1      10.253   8.377 -11.103  0.00  0.00    -0.025 C 
ATOM     54  H   LIG d   1      10.866   9.185 -10.703  0.00  0.00     0.027 H 
ATOM     55  H   LIG d   1      10.610   8.107 -12.097  0.00  0.00     0.027 H 
ATOM     56  H   LIG d   1       9.216   8.706 -11.166  0.00  0.00     0.027 H 
ENDBRANCH  14  53
BRANCH  14  57
ATOM     57  C   LIG d   1      11.704   6.476 -10.364  0.00  0.00    -0.025 C 
ATOM     58  H   LIG d   1      12.501   7.200 -10.194  0.00  0.00     0.027 H 
ATOM     59  H   LIG d   1      11.796   5.657  -9.651  0.00  0.00     0.027 H 
ATOM     60  H   LIG d   1      11.778   6.086 -11.379  0.00  0.00     0.027 H 
ENDBRANCH  14  57
TORSDOF 8
ENDMDL
MODEL 4
REMARK VINA RESULT:      -7.0      2.585      3.502
REMARK  8 active torsions:
REMARK  status: ('A' for Active; 'I' for Inactive)
REMARK    1  A    between atoms: C_1  and  C_2 
REMARK    2  A    between atoms: C_3  and  C_21 
REMARK    3  A    between atoms: C_9  and  O_19 
REMARK    4  A    between atoms: C_15  and  C_17 
REMARK    5  A    between atoms: C_15  and  C_18 
REMARK    6  A    between atoms: O_19  and  C_20 
REMARK    7  A    between atoms: C_21  and  C_22 
REMARK       I    between atoms: C_22  and  N_24 
REMARK    8  A    between atoms: C_28  and  C_31 
ROOT
ATOM      1  C   LIG d   1       5.112  -4.118  -7.778  0.00  0.00    -0.026 A 
ATOM      2  C   LIG d   1       5.707  -5.197  -7.206  0.00  0.00     0.049 A 
ATOM      3  C   LIG d   1       6.003  -5.188  -5.828  0.00  0.00     0.341 A 
ATOM      4  O   LIG d   1       6.532  -6.162  -5.322  0.00  0.00    -0.245 OA
ATOM      5  O   LIG d   1       5.716  -4.119  -5.064  0.00  0.00    -0.421 OA
ATOM      6  C   LIG d   1       5.125  -3.026  -5.596  0.00  0.00     0.149 A 
ATOM      7  C   LIG d   1       4.807  -2.996  -6.965  0.00  0.00     0.063 A 
ATOM      8  C   LIG d   1       4.191  -1.857  -7.513  0.00  0.00     0.135 A 
ATOM      9  C   LIG d   1       3.908  -0.780  -6.699  0.00  0.00     0.023 A 
ATOM     10  C   LIG d   1       4.226  -0.814  -5.340  0.00  0.00     0.131 A 
ATOM     11  C   LIG d   1       4.829  -1.932  -4.793  0.00  0.00     0.038 A 
ATOM     12  C   LIG d   1       5.180  -1.999  -3.327  0.00  0.00    -0.017 C 
ATOM     13  C   LIG d   1       5.188  -0.589  -2.733  0.00  0.00    -0.009 C 
ATOM     14  C   LIG d   1       3.900   0.122  -3.168  0.00  0.00     0.105 C 
ATOM     15  O   LIG d   1       3.929   0.276  -4.587  0.00  0.00    -0.486 OA
ATOM     16  H   LIG d   1       3.435   0.096  -7.116  0.00  0.00     0.069 H 
ATOM     17  H   LIG d   1       6.166  -2.448  -3.210  0.00  0.00     0.032 H 
ATOM     18  H   LIG d   1       4.441  -2.608  -2.806  0.00  0.00     0.032 H 
ATOM     19  H   LIG d   1       6.054  -0.039  -3.102  0.00  0.00     0.031 H 
ATOM     20  H   LIG d   1       5.226  -0.648  -1.645  0.00  0.00     0.031 H 
ENDROOT
BRANCH   2  21
ATOM     21  C   LIG d   1       6.043  -6.405  -8.042  0.00  0.00     0.056 C 
ATOM     22  H   LIG d   1       7.060  -6.728  -7.823  0.00  0.00     0.041 H 
ATOM     23  H   LIG d   1       5.964  -6.149  -9.099  0.00  0.00     0.041 H 
BRANCH  21  24
ATOM     24  C   LIG d   1       5.082  -7.521  -7.721  0.00  0.00     0.220 C 
ATOM     25  O   LIG d   1       3.887  -7.322  -7.762  0.00  0.00    -0.275 OA
ATOM     26  N   LIG d   1       5.552  -8.739  -7.390  0.00  0.00    -0.301 N 
ATOM     27  C   LIG d   1       4.629  -9.838  -7.074  0.00  0.00     0.023 C 
ATOM     28  C   LIG d   1       6.998  -8.996  -7.336  0.00  0.00     0.015 C 
ATOM     29  C   LIG d   1       5.001 -10.418  -5.705  0.00  0.00     0.014 C 
ATOM     30  H   LIG d   1       4.710 -10.614  -7.834  0.00  0.00     0.047 H 
ATOM     31  H   LIG d   1       3.607  -9.458  -7.044  0.00  0.00     0.047 H 
ATOM     32  C   LIG d   1       6.477 -10.820  -5.711  0.00  0.00    -0.042 C 
ATOM     33  H   LIG d   1       4.832  -9.667  -4.933  0.00  0.00     0.038 H 
ATOM     34  C   LIG d   1       7.344  -9.585  -5.965  0.00  0.00    -0.036 C 
ATOM     35  H   LIG d   1       6.738 -11.257  -4.747  0.00  0.00     0.027 H 
ATOM     36  H   LIG d   1       6.650 -11.554  -6.499  0.00  0.00     0.027 H 
ATOM     37  H   LIG d   1       7.153  -8.842  -5.191  0.00  0.00     0.028 H 
ATOM     38  H   LIG d   1       8.396  -9.869  -5.945  0.00  0.00     0.028 H 
ATOM     39  H   LIG d   1       7.540  -8.061  -7.479  0.00  0.00     0.046 H 
ATOM     40  H   LIG d   1       7.276  -9.703  -8.118  0.00  0.00     0.046 H 
BRANCH  29  41
ATOM     41  C   LIG d   1       4.150 -11.629  -5.423  0.00  0.00     0.046 C 
ATOM     42  O   LIG d   1       3.050 -11.495  -4.942  0.00  0.00    -0.549 OA
ATOM     43  O   LIG d   1       4.614 -12.857  -5.707  0.00  0.00    -0.549 OA
ENDBRANCH  29  41
ENDBRANCH  21  24
ENDBRANCH   2  21
BRANCH   1  44
ATOM     44  C   LIG d   1       4.783  -4.113  -9.249  0.00  0.00    -0.038 C 
ATOM     45  H   LIG d   1       4.264  -5.035  -9.508  0.00  0.00     0.028 H 
ATOM     46  H   LIG d   1       4.143  -3.260  -9.475  0.00  0.00     0.028 H 
ATOM     47  H   LIG d   1       5.705  -4.039  -9.827  0.00  0.00     0.028 H 
ENDBRANCH   1  44
BRANCH   8  48
ATOM     48  O   LIG d   1       3.876  -1.817  -8.832  0.00  0.00    -0.494 OA
BRANCH  48  49
ATOM     49  C   LIG d   1       2.723  -1.060  -9.202  0.00  0.00     0.079 C 
ATOM     50  H   LIG d   1       2.971   0.002  -9.204  0.00  0.00     0.066 H 
ATOM     51  H   LIG d   1       2.396  -1.358 -10.198  0.00  0.00     0.066 H 
ATOM     52  H   LIG d   1       1.922  -1.245  -8.486  0.00  0.00     0.066 H 
ENDBRANCH  48  49
ENDBRANCH   8  48
BRANCH  14  53
ATOM     53  C   LIG d   1       3.821   1.498  -2.501  0.00  0.00    -0.025 C 
ATOM     54  H   LIG d   1       4.213   2.254  -3.181  0.00  0.00     0.027 H 
ATOM     55  H   LIG d   1       2.782   1.727  -2.263  0.00  0.00     0.027 H 
ATOM     56  H   LIG d   1       4.411   1.492  -1.585  0.00  0.00     0.027 H 
ENDBRANCH  14  53
BRANCH  14  57
ATOM     57  C   LIG d   1       2.686  -0.717  -2.765  0.00  0.00    -0.025 C 
ATOM     58  H   LIG d   1       2.911  -1.265  -1.850  0.00  0.00     0.027 H 
ATOM     59  H   LIG d   1       1.831  -0.061  -2.596  0.00  0.00     0.027 H 
ATOM     60  H   LIG d   1       2.451  -1.422  -3.562  0.00  0.00     0.027 H 
ENDBRANCH  14  57
TORSDOF 8
ENDMDL
MODEL 5
REMARK VINA RESULT:      -6.9      7.071      9.958
REMARK  8 active torsions:
REMARK  status: ('A' for Active; 'I' for Inactive)
REMARK    1  A    between atoms: C_1  and  C_2 
REMARK    2  A    between atoms: C_3  and  C_21 
REMARK    3  A    between atoms: C_9  and  O_19 
REMARK    4  A    between atoms: C_15  and  C_17 
REMARK    5  A    between atoms: C_15  and  C_18 
REMARK    6  A    between atoms: O_19  and  C_20 
REMARK    7  A    between atoms: C_21  and  C_22 
REMARK       I    between atoms: C_22  and  N_24 
REMARK    8  A    between atoms: C_28  and  C_31 
ROOT
ATOM      1  C   LIG d   1       9.986   3.868  -4.083  0.00  0.00    -0.026 A 
ATOM      2  C   LIG d   1       9.610   2.912  -4.971  0.00  0.00     0.049 A 
ATOM      3  C   LIG d   1       9.317   3.265  -6.303  0.00  0.00     0.341 A 
ATOM      4  O   LIG d   1       8.985   2.401  -7.094  0.00  0.00    -0.245 OA
ATOM      5  O   LIG d   1       9.393   4.544  -6.713  0.00  0.00    -0.421 OA
ATOM      6  C   LIG d   1       9.763   5.525  -5.860  0.00  0.00     0.149 A 
ATOM      7  C   LIG d   1      10.070   5.214  -4.524  0.00  0.00     0.063 A 
ATOM      8  C   LIG d   1      10.456   6.238  -3.641  0.00  0.00     0.135 A 
ATOM      9  C   LIG d   1      10.526   7.538  -4.098  0.00  0.00     0.023 A 
ATOM     10  C   LIG d   1      10.220   7.842  -5.426  0.00  0.00     0.131 A 
ATOM     11  C   LIG d   1       9.842   6.839  -6.301  0.00  0.00     0.038 A 
ATOM     12  C   LIG d   1       9.511   7.137  -7.742  0.00  0.00    -0.017 C 
ATOM     13  C   LIG d   1       9.232   8.633  -7.909  0.00  0.00    -0.009 C 
ATOM     14  C   LIG d   1      10.359   9.412  -7.219  0.00  0.00     0.105 C 
ATOM     15  O   LIG d   1      10.302   9.139  -5.819  0.00  0.00    -0.486 OA
ATOM     16  H   LIG d   1      10.822   8.326  -3.423  0.00  0.00     0.069 H 
ATOM     17  H   LIG d   1       8.630   6.568  -8.037  0.00  0.00     0.032 H 
ATOM     18  H   LIG d   1      10.353   6.853  -8.373  0.00  0.00     0.032 H 
ATOM     19  H   LIG d   1       8.276   8.883  -7.448  0.00  0.00     0.031 H 
ATOM     20  H   LIG d   1       9.205   8.886  -8.970  0.00  0.00     0.031 H 
ENDROOT
BRANCH   2  21
ATOM     21  C   LIG d   1       9.512   1.473  -4.533  0.00  0.00     0.056 C 
ATOM     22  H   LIG d   1      10.185   1.301  -3.694  0.00  0.00     0.041 H 
ATOM     23  H   LIG d   1       9.792   0.821  -5.362  0.00  0.00     0.041 H 
BRANCH  21  24
ATOM     24  C   LIG d   1       8.097   1.170  -4.112  0.00  0.00     0.220 C 
ATOM     25  O   LIG d   1       7.465   1.990  -3.480  0.00  0.00    -0.275 OA
ATOM     26  N   LIG d   1       7.535  -0.009  -4.438  0.00  0.00    -0.301 N 
ATOM     27  C   LIG d   1       6.157  -0.319  -4.034  0.00  0.00     0.023 C 
ATOM     28  C   LIG d   1       8.288  -1.013  -5.204  0.00  0.00     0.015 C 
ATOM     29  C   LIG d   1       6.151  -1.656  -3.284  0.00  0.00     0.014 C 
ATOM     30  H   LIG d   1       5.524  -0.394  -4.918  0.00  0.00     0.047 H 
ATOM     31  H   LIG d   1       5.782   0.469  -3.380  0.00  0.00     0.047 H 
ATOM     32  C   LIG d   1       6.806  -2.728  -4.156  0.00  0.00    -0.042 C 
ATOM     33  H   LIG d   1       6.709  -1.553  -2.353  0.00  0.00     0.038 H 
ATOM     34  C   LIG d   1       8.258  -2.340  -4.441  0.00  0.00    -0.036 C 
ATOM     35  H   LIG d   1       6.780  -3.685  -3.635  0.00  0.00     0.027 H 
ATOM     36  H   LIG d   1       6.262  -2.813  -5.096  0.00  0.00     0.027 H 
ATOM     37  H   LIG d   1       8.797  -2.231  -3.499  0.00  0.00     0.028 H 
ATOM     38  H   LIG d   1       8.731  -3.116  -5.042  0.00  0.00     0.028 H 
ATOM     39  H   LIG d   1       9.320  -0.682  -5.322  0.00  0.00     0.046 H 
ATOM     40  H   LIG d   1       7.833  -1.144  -6.185  0.00  0.00     0.046 H 
BRANCH  29  41
ATOM     41  C   LIG d   1       4.730  -2.054  -2.977  0.00  0.00     0.046 C 
ATOM     42  O   LIG d   1       4.207  -1.685  -1.954  0.00  0.00    -0.549 OA
ATOM     43  O   LIG d   1       4.046  -2.821  -3.842  0.00  0.00    -0.549 OA
ENDBRANCH  29  41
ENDBRANCH  21  24
ENDBRANCH   2  21
BRANCH   1  44
ATOM     44  C   LIG d   1      10.308   3.507  -2.656  0.00  0.00    -0.038 C 
ATOM     45  H   LIG d   1      10.034   4.333  -2.001  0.00  0.00     0.028 H 
ATOM     46  H   LIG d   1       9.747   2.617  -2.370  0.00  0.00     0.028 H 
ATOM     47  H   LIG d   1      11.376   3.308  -2.564  0.00  0.00     0.028 H 
ENDBRANCH   1  44
BRANCH   8  48
ATOM     48  O   LIG d   1      10.757   5.951  -2.350  0.00  0.00    -0.494 OA
BRANCH  48  49
ATOM     49  C   LIG d   1      10.261   6.846  -1.353  0.00  0.00     0.079 C 
ATOM     50  H   LIG d   1       9.204   6.645  -1.178  0.00  0.00     0.066 H 
ATOM     51  H   LIG d   1      10.817   6.702  -0.426  0.00  0.00     0.066 H 
ATOM     52  H   LIG d   1      10.385   7.873  -1.694  0.00  0.00     0.066 H 
ENDBRANCH  48  49
ENDBRANCH   8  48
BRANCH  14  53
ATOM     53  C   LIG d   1      10.172  10.911  -7.461  0.00  0.00    -0.025 C 
ATOM     54  H   LIG d   1      11.142  11.374  -7.644  0.00  0.00     0.027 H 
ATOM     55  H   LIG d   1       9.528  11.062  -8.327  0.00  0.00     0.027 H 
ATOM     56  H   LIG d   1       9.713  11.366  -6.583  0.00  0.00     0.027 H 
ENDBRANCH  14  53
BRANCH  14  57
ATOM     57  C   LIG d   1      11.712   8.964  -7.777  0.00  0.00    -0.025 C 
ATOM     58  H   LIG d   1      12.251   8.404  -7.013  0.00  0.00     0.027 H 
ATOM     59  H   LIG d   1      11.553   8.330  -8.649  0.00  0.00     0.027 H 
ATOM     60  H   LIG d   1      12.293   9.839  -8.065  0.00  0.00     0.027 H 
ENDBRANCH  14  57
TORSDOF 8
ENDMDL
MODEL 6
REMARK VINA RESULT:      -6.8      4.069      5.755
REMARK  8 active torsions:
REMARK  status: ('A' for Active; 'I' for Inactive)
REMARK    1  A    between atoms: C_1  and  C_2 
REMARK    2  A    between atoms: C_3  and  C_21 
REMARK    3  A    between atoms: C_9  and  O_19 
REMARK    4  A    between atoms: C_15  and  C_17 
REMARK    5  A    between atoms: C_15  and  C_18 
REMARK    6  A    between atoms: O_19  and  C_20 
REMARK    7  A    between atoms: C_21  and  C_22 
REMARK       I    between atoms: C_22  and  N_24 
REMARK    8  A    between atoms: C_28  and  C_31 
ROOT
ATOM      1  C   LIG d   1       5.107  -3.774  -7.807  0.00  0.00    -0.026 A 
ATOM      2  C   LIG d   1       4.757  -5.047  -7.487  0.00  0.00     0.049 A 
ATOM      3  C   LIG d   1       4.358  -5.356  -6.171  0.00  0.00     0.341 A 
ATOM      4  O   LIG d   1       4.041  -6.499  -5.894  0.00  0.00    -0.245 OA
ATOM      5  O   LIG d   1       4.328  -4.411  -5.215  0.00  0.00    -0.421 OA
ATOM      6  C   LIG d   1       4.670  -3.133  -5.494  0.00  0.00     0.149 A 
ATOM      7  C   LIG d   1       5.068  -2.780  -6.795  0.00  0.00     0.063 A 
ATOM      8  C   LIG d   1       5.420  -1.449  -7.079  0.00  0.00     0.135 A 
ATOM      9  C   LIG d   1       5.375  -0.505  -6.075  0.00  0.00     0.023 A 
ATOM     10  C   LIG d   1       4.980  -0.860  -4.783  0.00  0.00     0.131 A 
ATOM     11  C   LIG d   1       4.628  -2.167  -4.496  0.00  0.00     0.038 A 
ATOM     12  C   LIG d   1       4.193  -2.579  -3.112  0.00  0.00    -0.017 C 
ATOM     13  C   LIG d   1       4.628  -1.518  -2.098  0.00  0.00    -0.009 C 
ATOM     14  C   LIG d   1       4.219  -0.141  -2.637  0.00  0.00     0.105 C 
ATOM     15  O   LIG d   1       4.958   0.110  -3.833  0.00  0.00    -0.486 OA
ATOM     16  H   LIG d   1       5.645   0.518  -6.289  0.00  0.00     0.069 H 
ATOM     17  H   LIG d   1       4.650  -3.534  -2.857  0.00  0.00     0.032 H 
ATOM     18  H   LIG d   1       3.108  -2.679  -3.089  0.00  0.00     0.032 H 
ATOM     19  H   LIG d   1       5.709  -1.556  -1.967  0.00  0.00     0.031 H 
ATOM     20  H   LIG d   1       4.135  -1.699  -1.142  0.00  0.00     0.031 H 
ENDROOT
BRANCH   2  21
ATOM     21  C   LIG d   1       4.787  -6.124  -8.540  0.00  0.00     0.056 C 
ATOM     22  H   LIG d   1       5.053  -7.075  -8.079  0.00  0.00     0.041 H 
ATOM     23  H   LIG d   1       5.527  -5.870  -9.299  0.00  0.00     0.041 H 
BRANCH  21  24
ATOM     24  C   LIG d   1       3.427  -6.240  -9.180  0.00  0.00     0.220 C 
ATOM     25  O   LIG d   1       2.566  -5.426  -8.923  0.00  0.00    -0.275 OA
ATOM     26  N   LIG d   1       3.171  -7.246 -10.038  0.00  0.00    -0.301 N 
ATOM     27  C   LIG d   1       1.851  -7.372 -10.670  0.00  0.00     0.023 C 
ATOM     28  C   LIG d   1       4.205  -8.240 -10.359  0.00  0.00     0.015 C 
ATOM     29  C   LIG d   1       1.311  -8.783 -10.410  0.00  0.00     0.014 C 
ATOM     30  H   LIG d   1       1.941  -7.209 -11.743  0.00  0.00     0.047 H 
ATOM     31  H   LIG d   1       1.169  -6.636 -10.242  0.00  0.00     0.047 H 
ATOM     32  C   LIG d   1       2.338  -9.812 -10.888  0.00  0.00    -0.042 C 
ATOM     33  H   LIG d   1       1.135  -8.914  -9.342  0.00  0.00     0.038 H 
ATOM     34  C   LIG d   1       3.640  -9.640 -10.103  0.00  0.00    -0.036 C 
ATOM     35  H   LIG d   1       1.946 -10.817 -10.727  0.00  0.00     0.027 H 
ATOM     36  H   LIG d   1       2.532  -9.665 -11.950  0.00  0.00     0.027 H 
ATOM     37  H   LIG d   1       3.442  -9.763  -9.038  0.00  0.00     0.028 H 
ATOM     38  H   LIG d   1       4.362 -10.389 -10.427  0.00  0.00     0.028 H 
ATOM     39  H   LIG d   1       5.077  -8.076  -9.726  0.00  0.00     0.046 H 
ATOM     40  H   LIG d   1       4.491  -8.147 -11.407  0.00  0.00     0.046 H 
BRANCH  29  41
ATOM     41  C   LIG d   1       0.019  -8.975 -11.161  0.00  0.00     0.046 C 
ATOM     42  O   LIG d   1      -0.652  -9.960 -10.967  0.00  0.00    -0.549 OA
ATOM     43  O   LIG d   1      -0.386  -8.050 -12.046  0.00  0.00    -0.549 OA
ENDBRANCH  29  41
ENDBRANCH  21  24
ENDBRANCH   2  21
BRANCH   1  44
ATOM     44  C   LIG d   1       5.530  -3.424  -9.210  0.00  0.00    -0.038 C 
ATOM     45  H   LIG d   1       6.196  -4.196  -9.592  0.00  0.00     0.028 H 
ATOM     46  H   LIG d   1       4.649  -3.357  -9.849  0.00  0.00     0.028 H 
ATOM     47  H   LIG d   1       6.049  -2.465  -9.205  0.00  0.00     0.028 H 
ENDBRANCH   1  44
BRANCH   8  48
ATOM     48  O   LIG d   1       5.803  -1.095  -8.332  0.00  0.00    -0.494 OA
BRANCH  48  49
ATOM     49  C   LIG d   1       5.705   0.288  -8.674  0.00  0.00     0.079 C 
ATOM     50  H   LIG d   1       6.520   0.838  -8.203  0.00  0.00     0.066 H 
ATOM     51  H   LIG d   1       5.770   0.401  -9.756  0.00  0.00     0.066 H 
ATOM     52  H   LIG d   1       4.751   0.682  -8.325  0.00  0.00     0.066 H 
ENDBRANCH  48  49
ENDBRANCH   8  48
BRANCH  14  53
ATOM     53  C   LIG d   1       4.539   0.935  -1.598  0.00  0.00    -0.025 C 
ATOM     54  H   LIG d   1       4.202   1.905  -1.963  0.00  0.00     0.027 H 
ATOM     55  H   LIG d   1       4.028   0.701  -0.664  0.00  0.00     0.027 H 
ATOM     56  H   LIG d   1       5.615   0.966  -1.425  0.00  0.00     0.027 H 
ENDBRANCH  14  53
BRANCH  14  57
ATOM     57  C   LIG d   1       2.721  -0.132  -2.946  0.00  0.00    -0.025 C 
ATOM     58  H   LIG d   1       2.261   0.742  -2.484  0.00  0.00     0.027 H 
ATOM     59  H   LIG d   1       2.573  -0.094  -4.025  0.00  0.00     0.027 H 
ATOM     60  H   LIG d   1       2.262  -1.037  -2.547  0.00  0.00     0.027 H 
ENDBRANCH  14  57
TORSDOF 8
ENDMDL
MODEL 7
REMARK VINA RESULT:      -6.8      1.973      3.049
REMARK  8 active torsions:
REMARK  status: ('A' for Active; 'I' for Inactive)
REMARK    1  A    between atoms: C_1  and  C_2 
REMARK    2  A    between atoms: C_3  and  C_21 
REMARK    3  A    between atoms: C_9  and  O_19 
REMARK    4  A    between atoms: C_15  and  C_17 
REMARK    5  A    between atoms: C_15  and  C_18 
REMARK    6  A    between atoms: O_19  and  C_20 
REMARK    7  A    between atoms: C_21  and  C_22 
REMARK       I    between atoms: C_22  and  N_24 
REMARK    8  A    between atoms: C_28  and  C_31 
ROOT
ATOM      1  C   LIG d   1       6.941  -4.116  -6.134  0.00  0.00    -0.026 A 
ATOM      2  C   LIG d   1       7.895  -4.553  -5.270  0.00  0.00     0.049 A 
ATOM      3  C   LIG d   1       8.110  -3.870  -4.057  0.00  0.00     0.341 A 
ATOM      4  O   LIG d   1       8.963  -4.272  -3.286  0.00  0.00    -0.245 OA
ATOM      5  O   LIG d   1       7.392  -2.779  -3.739  0.00  0.00    -0.421 OA
ATOM      6  C   LIG d   1       6.435  -2.312  -4.572  0.00  0.00     0.149 A 
ATOM      7  C   LIG d   1       6.184  -2.967  -5.790  0.00  0.00     0.063 A 
ATOM      8  C   LIG d   1       5.186  -2.479  -6.651  0.00  0.00     0.135 A 
ATOM      9  C   LIG d   1       4.467  -1.358  -6.291  0.00  0.00     0.023 A 
ATOM     10  C   LIG d   1       4.720  -0.710  -5.081  0.00  0.00     0.131 A 
ATOM     11  C   LIG d   1       5.698  -1.186  -4.226  0.00  0.00     0.038 A 
ATOM     12  C   LIG d   1       5.991  -0.510  -2.910  0.00  0.00    -0.017 C 
ATOM     13  C   LIG d   1       5.413   0.908  -2.919  0.00  0.00    -0.009 C 
ATOM     14  C   LIG d   1       3.966   0.834  -3.422  0.00  0.00     0.105 C 
ATOM     15  O   LIG d   1       3.985   0.392  -4.780  0.00  0.00    -0.486 OA
ATOM     16  H   LIG d   1       3.700  -0.980  -6.950  0.00  0.00     0.069 H 
ATOM     17  H   LIG d   1       7.069  -0.462  -2.759  0.00  0.00     0.032 H 
ATOM     18  H   LIG d   1       5.536  -1.081  -2.101  0.00  0.00     0.032 H 
ATOM     19  H   LIG d   1       6.002   1.541  -3.583  0.00  0.00     0.031 H 
ATOM     20  H   LIG d   1       5.431   1.319  -1.909  0.00  0.00     0.031 H 
ENDROOT
BRANCH   2  21
ATOM     21  C   LIG d   1       8.715  -5.772  -5.607  0.00  0.00     0.056 C 
ATOM     22  H   LIG d   1       9.734  -5.635  -5.245  0.00  0.00     0.041 H 
ATOM     23  H   LIG d   1       8.730  -5.913  -6.688  0.00  0.00     0.041 H 
BRANCH  21  24
ATOM     24  C   LIG d   1       8.107  -6.984  -4.949  0.00  0.00     0.220 C 
ATOM     25  O   LIG d   1       6.962  -7.297  -5.197  0.00  0.00    -0.275 OA
ATOM     26  N   LIG d   1       8.837  -7.720  -4.089  0.00  0.00    -0.301 N 
ATOM     27  C   LIG d   1       8.258  -8.904  -3.440  0.00  0.00     0.023 C 
ATOM     28  C   LIG d   1      10.226  -7.354  -3.779  0.00  0.00     0.015 C 
ATOM     29  C   LIG d   1       8.433  -8.771  -1.923  0.00  0.00     0.014 C 
ATOM     30  H   LIG d   1       8.771  -9.800  -3.788  0.00  0.00     0.047 H 
ATOM     31  H   LIG d   1       7.197  -8.971  -3.681  0.00  0.00     0.047 H 
ATOM     32  C   LIG d   1       9.911  -8.538  -1.603  0.00  0.00    -0.042 C 
ATOM     33  H   LIG d   1       7.845  -7.927  -1.561  0.00  0.00     0.038 H 
ATOM     34  C   LIG d   1      10.378  -7.238  -2.260  0.00  0.00    -0.036 C 
ATOM     35  H   LIG d   1      10.041  -8.468  -0.523  0.00  0.00     0.027 H 
ATOM     36  H   LIG d   1      10.500  -9.371  -1.986  0.00  0.00     0.027 H 
ATOM     37  H   LIG d   1       9.772  -6.408  -1.895  0.00  0.00     0.028 H 
ATOM     38  H   LIG d   1      11.425  -7.060  -2.011  0.00  0.00     0.028 H 
ATOM     39  H   LIG d   1      10.463  -6.397  -4.244  0.00  0.00     0.046 H 
ATOM     40  H   LIG d   1      10.901  -8.121  -4.157  0.00  0.00     0.046 H 
BRANCH  29  41
ATOM     41  C   LIG d   1       7.965 -10.035  -1.249  0.00  0.00     0.046 C 
ATOM     42  O   LIG d   1       6.847 -10.101  -0.797  0.00  0.00    -0.549 OA
ATOM     43  O   LIG d   1       8.791 -11.089  -1.151  0.00  0.00    -0.549 OA
ENDBRANCH  29  41
ENDBRANCH  21  24
ENDBRANCH   2  21
BRANCH   1  44
ATOM     44  C   LIG d   1       6.693  -4.838  -7.433  0.00  0.00    -0.038 C 
ATOM     45  H   LIG d   1       7.585  -4.780  -8.057  0.00  0.00     0.028 H 
ATOM     46  H   LIG d   1       6.461  -5.884  -7.230  0.00  0.00     0.028 H 
ATOM     47  H   LIG d   1       5.855  -4.374  -7.953  0.00  0.00     0.028 H 
ENDBRANCH   1  44
BRANCH   8  48
ATOM     48  O   LIG d   1       4.932  -3.104  -7.828  0.00  0.00    -0.494 OA
BRANCH  48  49
ATOM     49  C   LIG d   1       3.685  -2.813  -8.462  0.00  0.00     0.079 C 
ATOM     50  H   LIG d   1       3.815  -2.833  -9.544  0.00  0.00     0.066 H 
ATOM     51  H   LIG d   1       2.946  -3.559  -8.171  0.00  0.00     0.066 H 
ATOM     52  H   LIG d   1       3.343  -1.825  -8.154  0.00  0.00     0.066 H 
ENDBRANCH  48  49
ENDBRANCH   8  48
BRANCH  14  53
ATOM     53  C   LIG d   1       3.320   2.219  -3.340  0.00  0.00    -0.025 C 
ATOM     54  H   LIG d   1       2.895   2.363  -2.347  0.00  0.00     0.027 H 
ATOM     55  H   LIG d   1       4.075   2.983  -3.526  0.00  0.00     0.027 H 
ATOM     56  H   LIG d   1       2.532   2.297  -4.089  0.00  0.00     0.027 H 
ENDBRANCH  14  53
BRANCH  14  57
ATOM     57  C   LIG d   1       3.173  -0.157  -2.568  0.00  0.00    -0.025 C 
ATOM     58  H   LIG d   1       2.768  -0.943  -3.206  0.00  0.00     0.027 H 
ATOM     59  H   LIG d   1       3.831  -0.599  -1.819  0.00  0.00     0.027 H 
ATOM     60  H   LIG d   1       2.355   0.365  -2.072  0.00  0.00     0.027 H 
ENDBRANCH  14  57
TORSDOF 8
ENDMDL
MODEL 8
REMARK VINA RESULT:      -6.7      6.974      9.904
REMARK  8 active torsions:
REMARK  status: ('A' for Active; 'I' for Inactive)
REMARK    1  A    between atoms: C_1  and  C_2 
REMARK    2  A    between atoms: C_3  and  C_21 
REMARK    3  A    between atoms: C_9  and  O_19 
REMARK    4  A    between atoms: C_15  and  C_17 
REMARK    5  A    between atoms: C_15  and  C_18 
REMARK    6  A    between atoms: O_19  and  C_20 
REMARK    7  A    between atoms: C_21  and  C_22 
REMARK       I    between atoms: C_22  and  N_24 
REMARK    8  A    between atoms: C_28  and  C_31 
ROOT
ATOM      1  C   LIG d   1       9.380   3.096  -6.064  0.00  0.00    -0.026 A 
ATOM      2  C   LIG d   1       9.539   2.683  -4.779  0.00  0.00     0.049 A 
ATOM      3  C   LIG d   1      10.030   3.579  -3.809  0.00  0.00     0.341 A 
ATOM      4  O   LIG d   1      10.164   3.203  -2.658  0.00  0.00    -0.245 OA
ATOM      5  O   LIG d   1      10.357   4.842  -4.134  0.00  0.00    -0.421 OA
ATOM      6  C   LIG d   1      10.214   5.291  -5.401  0.00  0.00     0.149 A 
ATOM      7  C   LIG d   1       9.722   4.431  -6.399  0.00  0.00     0.063 A 
ATOM      8  C   LIG d   1       9.574   4.904  -7.714  0.00  0.00     0.135 A 
ATOM      9  C   LIG d   1       9.917   6.206  -8.012  0.00  0.00     0.023 A 
ATOM     10  C   LIG d   1      10.406   7.056  -7.018  0.00  0.00     0.131 A 
ATOM     11  C   LIG d   1      10.551   6.600  -5.720  0.00  0.00     0.038 A 
ATOM     12  C   LIG d   1      11.072   7.497  -4.624  0.00  0.00    -0.017 C 
ATOM     13  C   LIG d   1      11.781   8.706  -5.240  0.00  0.00    -0.009 C 
ATOM     14  C   LIG d   1      10.870   9.294  -6.326  0.00  0.00     0.105 C 
ATOM     15  O   LIG d   1      10.732   8.328  -7.367  0.00  0.00    -0.486 OA
ATOM     16  H   LIG d   1       9.805   6.572  -9.021  0.00  0.00     0.069 H 
ATOM     17  H   LIG d   1      11.775   6.941  -4.004  0.00  0.00     0.032 H 
ATOM     18  H   LIG d   1      10.239   7.839  -4.010  0.00  0.00     0.032 H 
ATOM     19  H   LIG d   1      12.726   8.392  -5.682  0.00  0.00     0.031 H 
ATOM     20  H   LIG d   1      11.966   9.456  -4.470  0.00  0.00     0.031 H 
ENDROOT
BRANCH   2  21
ATOM     21  C   LIG d   1       9.184   1.271  -4.392  0.00  0.00     0.056 C 
ATOM     22  H   LIG d   1       9.788   0.965  -3.538  0.00  0.00     0.041 H 
ATOM     23  H   LIG d   1       9.378   0.603  -5.232  0.00  0.00     0.041 H 
BRANCH  21  24
ATOM     24  C   LIG d   1       7.724   1.203  -4.023  0.00  0.00     0.220 C 
ATOM     25  O   LIG d   1       7.171   2.177  -3.556  0.00  0.00    -0.275 OA
ATOM     26  N   LIG d   1       7.033   0.062  -4.213  0.00  0.00    -0.301 N 
ATOM     27  C   LIG d   1       5.610  -0.020  -3.858  0.00  0.00     0.023 C 
ATOM     28  C   LIG d   1       7.689  -1.126  -4.778  0.00  0.00     0.015 C 
ATOM     29  C   LIG d   1       5.402  -1.219  -2.927  0.00  0.00     0.014 C 
ATOM     30  H   LIG d   1       5.015  -0.151  -4.761  0.00  0.00     0.047 H 
ATOM     31  H   LIG d   1       5.308   0.896  -3.349  0.00  0.00     0.047 H 
ATOM     32  C   LIG d   1       5.956  -2.479  -3.594  0.00  0.00    -0.042 C 
ATOM     33  H   LIG d   1       5.925  -1.044  -1.986  0.00  0.00     0.038 H 
ATOM     34  C   LIG d   1       7.458  -2.311  -3.837  0.00  0.00    -0.036 C 
ATOM     35  H   LIG d   1       5.786  -3.337  -2.944  0.00  0.00     0.027 H 
ATOM     36  H   LIG d   1       5.450  -2.639  -4.545  0.00  0.00     0.027 H 
ATOM     37  H   LIG d   1       7.962  -2.127  -2.888  0.00  0.00     0.028 H 
ATOM     38  H   LIG d   1       7.856  -3.219  -4.290  0.00  0.00     0.028 H 
ATOM     39  H   LIG d   1       8.759  -0.940  -4.875  0.00  0.00     0.046 H 
ATOM     40  H   LIG d   1       7.266  -1.348  -5.758  0.00  0.00     0.046 H 
BRANCH  29  41
ATOM     41  C   LIG d   1       3.929  -1.397  -2.658  0.00  0.00     0.046 C 
ATOM     42  O   LIG d   1       3.489  -2.495  -2.415  0.00  0.00    -0.549 OA
ATOM     43  O   LIG d   1       3.107  -0.336  -2.690  0.00  0.00    -0.549 OA
ENDBRANCH  29  41
ENDBRANCH  21  24
ENDBRANCH   2  21
BRANCH   1  44
ATOM     44  C   LIG d   1       8.851   2.153  -7.113  0.00  0.00    -0.038 C 
ATOM     45  H   LIG d   1       8.353   2.723  -7.896  0.00  0.00     0.028 H 
ATOM     46  H   LIG d   1       9.679   1.590  -7.546  0.00  0.00     0.028 H 
ATOM     47  H   LIG d   1       8.141   1.463  -6.657  0.00  0.00     0.028 H 
ENDBRANCH   1  44
BRANCH   8  48
ATOM     48  O   LIG d   1       9.098   4.085  -8.686  0.00  0.00    -0.494 OA
BRANCH  48  49
ATOM     49  C   LIG d   1       9.602   4.284 -10.008  0.00  0.00     0.079 C 
ATOM     50  H   LIG d   1       9.178   3.532 -10.675  0.00  0.00     0.066 H 
ATOM     51  H   LIG d   1       9.323   5.278 -10.358  0.00  0.00     0.066 H 
ATOM     52  H   LIG d   1      10.688   4.193 -10.000  0.00  0.00     0.066 H 
ENDBRANCH  48  49
ENDBRANCH   8  48
BRANCH  14  53
ATOM     53  C   LIG d   1      11.499  10.572  -6.888  0.00  0.00    -0.025 C 
ATOM     54  H   LIG d   1      12.520  10.365  -7.205  0.00  0.00     0.027 H 
ATOM     55  H   LIG d   1      10.916  10.917  -7.742  0.00  0.00     0.027 H 
ATOM     56  H   LIG d   1      11.506  11.343  -6.118  0.00  0.00     0.027 H 
ENDBRANCH  14  53
BRANCH  14  57
ATOM     57  C   LIG d   1       9.497   9.612  -5.732  0.00  0.00    -0.025 C 
ATOM     58  H   LIG d   1       9.223  10.638  -5.980  0.00  0.00     0.027 H 
ATOM     59  H   LIG d   1       8.756   8.927  -6.144  0.00  0.00     0.027 H 
ATOM     60  H   LIG d   1       9.535   9.498  -4.649  0.00  0.00     0.027 H 
ENDBRANCH  14  57
TORSDOF 8
ENDMDL
MODEL 9
REMARK VINA RESULT:      -6.7      6.641      9.576
REMARK  8 active torsions:
REMARK  status: ('A' for Active; 'I' for Inactive)
REMARK    1  A    between atoms: C_1  and  C_2 
REMARK    2  A    between atoms: C_3  and  C_21 
REMARK    3  A    between atoms: C_9  and  O_19 
REMARK    4  A    between atoms: C_15  and  C_17 
REMARK    5  A    between atoms: C_15  and  C_18 
REMARK    6  A    between atoms: O_19  and  C_20 
REMARK    7  A    between atoms: C_21  and  C_22 
REMARK       I    between atoms: C_22  and  N_24 
REMARK    8  A    between atoms: C_28  and  C_31 
ROOT
ATOM      1  C   LIG d   1       9.033   2.596  -5.633  0.00  0.00    -0.026 A 
ATOM      2  C   LIG d   1       8.803   1.884  -6.766  0.00  0.00     0.049 A 
ATOM      3  C   LIG d   1       8.951   2.500  -8.025  0.00  0.00     0.341 A 
ATOM      4  O   LIG d   1       8.748   1.853  -9.036  0.00  0.00    -0.245 OA
ATOM      5  O   LIG d   1       9.308   3.793  -8.127  0.00  0.00    -0.421 OA
ATOM      6  C   LIG d   1       9.545   4.535  -7.022  0.00  0.00     0.149 A 
ATOM      7  C   LIG d   1       9.415   3.958  -5.747  0.00  0.00     0.063 A 
ATOM      8  C   LIG d   1       9.664   4.735  -4.602  0.00  0.00     0.135 A 
ATOM      9  C   LIG d   1      10.031   6.057  -4.744  0.00  0.00     0.023 A 
ATOM     10  C   LIG d   1      10.158   6.626  -6.013  0.00  0.00     0.131 A 
ATOM     11  C   LIG d   1       9.918   5.868  -7.145  0.00  0.00     0.038 A 
ATOM     12  C   LIG d   1      10.052   6.454  -8.528  0.00  0.00    -0.017 C 
ATOM     13  C   LIG d   1      10.031   7.982  -8.445  0.00  0.00    -0.009 C 
ATOM     14  C   LIG d   1      11.007   8.417  -7.344  0.00  0.00     0.105 C 
ATOM     15  O   LIG d   1      10.518   7.933  -6.094  0.00  0.00    -0.486 OA
ATOM     16  H   LIG d   1      10.223   6.656  -3.868  0.00  0.00     0.069 H 
ATOM     17  H   LIG d   1       9.225   6.112  -9.149  0.00  0.00     0.032 H 
ATOM     18  H   LIG d   1      10.995   6.128  -8.969  0.00  0.00     0.032 H 
ATOM     19  H   LIG d   1       9.025   8.323  -8.200  0.00  0.00     0.031 H 
ATOM     20  H   LIG d   1      10.341   8.407  -9.401  0.00  0.00     0.031 H 
ENDROOT
BRANCH   2  21
ATOM     21  C   LIG d   1       8.398   0.436  -6.677  0.00  0.00     0.056 C 
ATOM     22  H   LIG d   1       8.896  -0.030  -5.828  0.00  0.00     0.041 H 
ATOM     23  H   LIG d   1       8.687  -0.080  -7.594  0.00  0.00     0.041 H 
BRANCH  21  24
ATOM     24  C   LIG d   1       6.904   0.342  -6.497  0.00  0.00     0.220 C 
ATOM     25  O   LIG d   1       6.168   1.014  -7.187  0.00  0.00    -0.275 OA
ATOM     26  N   LIG d   1       6.389  -0.489  -5.571  0.00  0.00    -0.301 N 
ATOM     27  C   LIG d   1       4.936  -0.591  -5.383  0.00  0.00     0.023 C 
ATOM     28  C   LIG d   1       7.269  -1.311  -4.727  0.00  0.00     0.015 C 
ATOM     29  C   LIG d   1       4.610  -0.349  -3.905  0.00  0.00     0.014 C 
ATOM     30  H   LIG d   1       4.598  -1.586  -5.672  0.00  0.00     0.047 H 
ATOM     31  H   LIG d   1       4.435   0.159  -5.995  0.00  0.00     0.047 H 
ATOM     32  C   LIG d   1       5.425  -1.316  -3.043  0.00  0.00    -0.042 C 
ATOM     33  H   LIG d   1       4.865   0.678  -3.640  0.00  0.00     0.038 H 
ATOM     34  C   LIG d   1       6.918  -1.060  -3.258  0.00  0.00    -0.036 C 
ATOM     35  H   LIG d   1       5.177  -1.163  -1.993  0.00  0.00     0.027 H 
ATOM     36  H   LIG d   1       5.188  -2.341  -3.325  0.00  0.00     0.027 H 
ATOM     37  H   LIG d   1       7.151  -0.027  -2.999  0.00  0.00     0.028 H 
ATOM     38  H   LIG d   1       7.497  -1.733  -2.626  0.00  0.00     0.028 H 
ATOM     39  H   LIG d   1       8.308  -1.034  -4.907  0.00  0.00     0.046 H 
ATOM     40  H   LIG d   1       7.125  -2.365  -4.964  0.00  0.00     0.046 H 
BRANCH  29  41
ATOM     41  C   LIG d   1       3.140  -0.580  -3.668  0.00  0.00     0.046 C 
ATOM     42  O   LIG d   1       2.775  -1.210  -2.705  0.00  0.00    -0.549 OA
ATOM     43  O   LIG d   1       2.236  -0.085  -4.529  0.00  0.00    -0.549 OA
ENDBRANCH  29  41
ENDBRANCH  21  24
ENDBRANCH   2  21
BRANCH   1  44
ATOM     44  C   LIG d   1       8.886   1.952  -4.278  0.00  0.00    -0.038 C 
ATOM     45  H   LIG d   1       8.029   2.384  -3.762  0.00  0.00     0.028 H 
ATOM     46  H   LIG d   1       8.732   0.880  -4.400  0.00  0.00     0.028 H 
ATOM     47  H   LIG d   1       9.789   2.126  -3.693  0.00  0.00     0.028 H 
ENDBRANCH   1  44
BRANCH   8  48
ATOM     48  O   LIG d   1       9.545   4.189  -3.366  0.00  0.00    -0.494 OA
BRANCH  48  49
ATOM     49  C   LIG d   1      10.293   4.798  -2.312  0.00  0.00     0.079 C 
ATOM     50  H   LIG d   1      10.624   5.788  -2.627  0.00  0.00     0.066 H 
ATOM     51  H   LIG d   1       9.665   4.890  -1.426  0.00  0.00     0.066 H 
ATOM     52  H   LIG d   1      11.160   4.181  -2.079  0.00  0.00     0.066 H 
ENDBRANCH  48  49
ENDBRANCH   8  48
BRANCH  14  53
ATOM     53  C   LIG d   1      11.095   9.945  -7.308  0.00  0.00    -0.025 C 
ATOM     54  H   LIG d   1      10.252  10.370  -7.853  0.00  0.00     0.027 H 
ATOM     55  H   LIG d   1      11.067  10.285  -6.273  0.00  0.00     0.027 H 
ATOM     56  H   LIG d   1      12.028  10.267  -7.771  0.00  0.00     0.027 H 
ENDBRANCH  14  53
BRANCH  14  57
ATOM     57  C   LIG d   1      12.391   7.827  -7.620  0.00  0.00    -0.025 C 
ATOM     58  H   LIG d   1      12.734   7.280  -6.742  0.00  0.00     0.027 H 
ATOM     59  H   LIG d   1      12.334   7.150  -8.472  0.00  0.00     0.027 H 
ATOM     60  H   LIG d   1      13.091   8.632  -7.842  0.00  0.00     0.027 H 
ENDBRANCH  14  57
TORSDOF 8
ENDMDL
MODEL 10
REMARK VINA RESULT:      -6.5      6.408     11.254
REMARK  8 active torsions:
REMARK  status: ('A' for Active; 'I' for Inactive)
REMARK    1  A    between atoms: C_1  and  C_2 
REMARK    2  A    between atoms: C_3  and  C_21 
REMARK    3  A    between atoms: C_9  and  O_19 
REMARK    4  A    between atoms: C_15  and  C_17 
REMARK    5  A    between atoms: C_15  and  C_18 
REMARK    6  A    between atoms: O_19  and  C_20 
REMARK    7  A    between atoms: C_21  and  C_22 
REMARK       I    between atoms: C_22  and  N_24 
REMARK    8  A    between atoms: C_28  and  C_31 
ROOT
ATOM      1  C   LIG d   1       8.944   1.775  -5.990  0.00  0.00    -0.026 A 
ATOM      2  C   LIG d   1       9.591   2.581  -5.109  0.00  0.00     0.049 A 
ATOM      3  C   LIG d   1       9.064   2.775  -3.816  0.00  0.00     0.341 A 
ATOM      4  O   LIG d   1       9.653   3.495  -3.030  0.00  0.00    -0.245 OA
ATOM      5  O   LIG d   1       7.918   2.182  -3.439  0.00  0.00    -0.421 OA
ATOM      6  C   LIG d   1       7.244   1.374  -4.287  0.00  0.00     0.149 A 
ATOM      7  C   LIG d   1       7.738   1.148  -5.584  0.00  0.00     0.063 A 
ATOM      8  C   LIG d   1       7.034   0.305  -6.461  0.00  0.00     0.135 A 
ATOM      9  C   LIG d   1       5.863  -0.289  -6.039  0.00  0.00     0.023 A 
ATOM     10  C   LIG d   1       5.375  -0.062  -4.751  0.00  0.00     0.131 A 
ATOM     11  C   LIG d   1       6.064   0.764  -3.880  0.00  0.00     0.038 A 
ATOM     12  C   LIG d   1       5.564   1.023  -2.481  0.00  0.00    -0.017 C 
ATOM     13  C   LIG d   1       4.085   0.641  -2.382  0.00  0.00    -0.009 C 
ATOM     14  C   LIG d   1       3.907  -0.752  -2.999  0.00  0.00     0.105 C 
ATOM     15  O   LIG d   1       4.215  -0.670  -4.390  0.00  0.00    -0.486 OA
ATOM     16  H   LIG d   1       5.320  -0.936  -6.710  0.00  0.00     0.069 H 
ATOM     17  H   LIG d   1       5.683   2.080  -2.244  0.00  0.00     0.032 H 
ATOM     18  H   LIG d   1       6.141   0.426  -1.774  0.00  0.00     0.032 H 
ATOM     19  H   LIG d   1       3.481   1.366  -2.928  0.00  0.00     0.031 H 
ATOM     20  H   LIG d   1       3.779   0.622  -1.335  0.00  0.00     0.031 H 
ENDROOT
BRANCH   2  21
ATOM     21  C   LIG d   1      10.875   3.261  -5.510  0.00  0.00     0.056 C 
ATOM     22  H   LIG d   1      11.292   2.763  -6.384  0.00  0.00     0.041 H 
ATOM     23  H   LIG d   1      11.588   3.206  -4.687  0.00  0.00     0.041 H 
BRANCH  21  24
ATOM     24  C   LIG d   1      10.597   4.705  -5.840  0.00  0.00     0.220 C 
ATOM     25  O   LIG d   1      10.116   5.436  -5.000  0.00  0.00    -0.275 OA
ATOM     26  N   LIG d   1      10.883   5.183  -7.066  0.00  0.00    -0.301 N 
ATOM     27  C   LIG d   1      10.618   6.588  -7.403  0.00  0.00     0.023 C 
ATOM     28  C   LIG d   1      11.466   4.309  -8.094  0.00  0.00     0.015 C 
ATOM     29  C   LIG d   1       9.760   6.638  -8.672  0.00  0.00     0.014 C 
ATOM     30  H   LIG d   1      11.560   7.107  -7.578  0.00  0.00     0.047 H 
ATOM     31  H   LIG d   1      10.083   7.065  -6.581  0.00  0.00     0.047 H 
ATOM     32  C   LIG d   1      10.454   5.846  -9.782  0.00  0.00    -0.042 C 
ATOM     33  H   LIG d   1       8.783   6.200  -8.469  0.00  0.00     0.038 H 
ATOM     34  C   LIG d   1      10.600   4.384  -9.354  0.00  0.00    -0.036 C 
ATOM     35  H   LIG d   1       9.859   5.901 -10.693  0.00  0.00     0.027 H 
ATOM     36  H   LIG d   1      11.441   6.270  -9.968  0.00  0.00     0.027 H 
ATOM     37  H   LIG d   1       9.614   3.967  -9.145  0.00  0.00     0.028 H 
ATOM     38  H   LIG d   1      11.072   3.816 -10.156  0.00  0.00     0.028 H 
ATOM     39  H   LIG d   1      11.490   3.282  -7.729  0.00  0.00     0.046 H 
ATOM     40  H   LIG d   1      12.479   4.638  -8.326  0.00  0.00     0.046 H 
BRANCH  29  41
ATOM     41  C   LIG d   1       9.589   8.071  -9.107  0.00  0.00     0.046 C 
ATOM     42  O   LIG d   1       8.931   8.830  -8.438  0.00  0.00    -0.549 OA
ATOM     43  O   LIG d   1      10.167   8.502 -10.240  0.00  0.00    -0.549 OA
ENDBRANCH  29  41
ENDBRANCH  21  24
ENDBRANCH   2  21
BRANCH   1  44
ATOM     44  C   LIG d   1       9.496   1.552  -7.375  0.00  0.00    -0.038 C 
ATOM     45  H   LIG d   1       8.674   1.433  -8.079  0.00  0.00     0.028 H 
ATOM     46  H   LIG d   1      10.102   2.410  -7.667  0.00  0.00     0.028 H 
ATOM     47  H   LIG d   1      10.112   0.653  -7.379  0.00  0.00     0.028 H 
ENDBRANCH   1  44
BRANCH   8  48
ATOM     48  O   LIG d   1       7.502   0.078  -7.714  0.00  0.00    -0.494 OA
BRANCH  48  49
ATOM     49  C   LIG d   1       6.707  -0.753  -8.563  0.00  0.00     0.079 C 
ATOM     50  H   LIG d   1       6.027  -0.131  -9.145  0.00  0.00     0.066 H 
ATOM     51  H   LIG d   1       7.357  -1.309  -9.238  0.00  0.00     0.066 H 
ATOM     52  H   LIG d   1       6.133  -1.450  -7.955  0.00  0.00     0.066 H 
ENDBRANCH  48  49
ENDBRANCH   8  48
BRANCH  14  53
ATOM     53  C   LIG d   1       2.459  -1.214  -2.818  0.00  0.00    -0.025 C 
ATOM     54  H   LIG d   1       2.248  -2.028  -3.511  0.00  0.00     0.027 H 
ATOM     55  H   LIG d   1       2.314  -1.560  -1.795  0.00  0.00     0.027 H 
ATOM     56  H   LIG d   1       1.784  -0.381  -3.019  0.00  0.00     0.027 H 
ENDBRANCH  14  53
BRANCH  14  57
ATOM     57  C   LIG d   1       4.854  -1.742  -2.318  0.00  0.00    -0.025 C 
ATOM     58  H   LIG d   1       5.197  -1.325  -1.372  0.00  0.00     0.027 H 
ATOM     59  H   LIG d   1       4.327  -2.679  -2.134  0.00  0.00     0.027 H 
ATOM     60  H   LIG d   1       5.711  -1.928  -2.966  0.00  0.00     0.027 H 
ENDBRANCH  14  57
TORSDOF 8
ENDMDL
