MODEL 1
REMARK VINA RESULT:      -5.3      0.000      0.000
REMARK  9 active torsions:
REMARK  status: ('A' for Active; 'I' for Inactive)
REMARK    1  A    between atoms: C_1  and  N_2 
REMARK    2  A    between atoms: C_5  and  N_8 
REMARK    3  A    between atoms: N_8  and  C_9 
REMARK    4  A    between atoms: C_9  and  C_10 
REMARK    5  A    between atoms: C_12  and  N_22 
REMARK    6  A    between atoms: C_14  and  O_21 
REMARK    7  A    between atoms: C_16  and  C_19 
REMARK    8  A    between atoms: C_19  and  O_20 
REMARK    9  A    between atoms: N_25  and  C_28 
ROOT
ATOM      1  C   LIG d   1       6.958   0.465  -3.223  0.00  0.00     0.090 C 
ATOM      2  H   LIG d   1       7.652   0.590  -2.378  0.00  0.00     0.062 H 
ATOM      3  C   LIG d   1       6.262  -0.914  -3.267  0.00  0.00     0.066 C 
ATOM      4  H   LIG d   1       6.858  -1.729  -2.831  0.00  0.00     0.051 H 
ATOM      5  C   LIG d   1       4.910  -0.674  -2.557  0.00  0.00     0.101 C 
ATOM      6  H   LIG d   1       4.701  -1.358  -1.722  0.00  0.00     0.064 H 
ATOM      7  C   LIG d   1       4.950   0.821  -2.168  0.00  0.00     0.109 C 
ATOM      8  H   LIG d   1       5.296   1.009  -1.142  0.00  0.00     0.065 H 
ATOM      9  O   LIG d   1       5.881   1.418  -3.097  0.00  0.00    -0.366 OA
ENDROOT
BRANCH   1  10
ATOM     10  C   LIG d   1       7.737   0.708  -4.517  0.00  0.00     0.024 C 
ATOM     11  H   LIG d   1       7.255   1.514  -5.090  0.00  0.00     0.045 H 
ATOM     12  H   LIG d   1       7.748  -0.213  -5.118  0.00  0.00     0.045 H 
BRANCH  10  13
ATOM     13  N   LIG d   1       9.117   1.096  -4.192  0.00  0.00    -0.310 N 
ATOM     14  H   LIG d   1       9.746   0.945  -5.081  0.00  0.00     0.122 HD
BRANCH  13  15
ATOM     15  C   LIG d   1       9.183   2.505  -3.779  0.00  0.00     0.017 C 
ATOM     16  C   LIG d   1       9.226   3.400  -5.021  0.00  0.00     0.003 C 
ATOM     17  C   LIG d   1       9.356   4.861  -4.587  0.00  0.00    -0.031 C 
ATOM     18  H   LIG d   1       8.300   3.270  -5.601  0.00  0.00     0.033 H 
ATOM     19  H   LIG d   1      10.090   3.125  -5.644  0.00  0.00     0.033 H 
ATOM     20  N   LIG d   1      10.582   5.031  -3.795  0.00  0.00     0.233 N 
ATOM     21  H   LIG d   1       8.485   5.142  -3.977  0.00  0.00     0.082 H 
ATOM     22  H   LIG d   1       9.402   5.506  -5.477  0.00  0.00     0.082 H 
ATOM     23  C   LIG d   1      10.543   4.216  -2.574  0.00  0.00    -0.031 C 
ATOM     24  H   LIG d   1      11.427   4.678  -4.406  0.00  0.00     0.203 HD
ATOM     25  C   LIG d   1      10.449   2.736  -2.949  0.00  0.00     0.003 C 
ATOM     26  H   LIG d   1      11.459   4.389  -1.989  0.00  0.00     0.082 H 
ATOM     27  H   LIG d   1       9.666   4.499  -1.973  0.00  0.00     0.082 H 
ATOM     28  H   LIG d   1      10.403   2.126  -2.034  0.00  0.00     0.033 H 
ATOM     29  H   LIG d   1      11.332   2.448  -3.538  0.00  0.00     0.033 H 
ATOM     30  H   LIG d   1       8.282   2.710  -3.182  0.00  0.00     0.046 H 
BRANCH  20  31
ATOM     31  C   LIG d   1      10.813   6.446  -3.477  0.00  0.00    -0.043 C 
ATOM     32  H   LIG d   1      11.580   6.526  -2.692  0.00  0.00     0.078 H 
ATOM     33  H   LIG d   1       9.876   6.899  -3.120  0.00  0.00     0.078 H 
ATOM     34  H   LIG d   1      11.156   6.973  -4.379  0.00  0.00     0.078 H 
ENDBRANCH  20  31
ENDBRANCH  13  15
ENDBRANCH  10  13
ENDBRANCH   1  10
BRANCH   3  35
ATOM     35  N   LIG d   1       6.046  -1.338  -4.656  0.00  0.00    -0.292 N 
ATOM     36  C   LIG d   1       5.892  -2.796  -4.743  0.00  0.00     0.012 C 
ATOM     37  C   LIG d   1       5.748  -3.205  -6.212  0.00  0.00     0.011 C 
ATOM     38  H   LIG d   1       6.778  -3.286  -4.311  0.00  0.00     0.044 H 
ATOM     39  H   LIG d   1       4.994  -3.104  -4.187  0.00  0.00     0.044 H 
ATOM     40  N   LIG d   1       4.587  -2.519  -6.796  0.00  0.00    -0.303 N 
ATOM     41  H   LIG d   1       5.604  -4.293  -6.278  0.00  0.00     0.044 H 
ATOM     42  H   LIG d   1       6.657  -2.921  -6.763  0.00  0.00     0.044 H 
ATOM     43  C   LIG d   1       4.740  -1.060  -6.708  0.00  0.00     0.011 C 
ATOM     44  C   LIG d   1       4.884  -0.653  -5.241  0.00  0.00     0.012 C 
ATOM     45  H   LIG d   1       3.856  -0.571  -7.141  0.00  0.00     0.044 H 
ATOM     46  H   LIG d   1       5.639  -0.751  -7.265  0.00  0.00     0.044 H 
ATOM     47  H   LIG d   1       3.975  -0.936  -4.690  0.00  0.00     0.044 H 
ATOM     48  H   LIG d   1       5.029   0.436  -5.173  0.00  0.00     0.044 H 
BRANCH  40  49
ATOM     49  C   LIG d   1       4.370  -2.943  -8.186  0.00  0.00    -0.013 C 
ATOM     50  H   LIG d   1       4.571  -4.021  -8.276  0.00  0.00     0.039 H 
ATOM     51  H   LIG d   1       5.050  -2.388  -8.849  0.00  0.00     0.039 H 
ATOM     52  H   LIG d   1       3.329  -2.738  -8.474  0.00  0.00     0.039 H 
ENDBRANCH  40  49
ENDBRANCH   3  35
BRANCH   7  53
ATOM     53  C   LIG d   1       3.564   1.449  -2.324  0.00  0.00     0.073 C 
ATOM     54  H   LIG d   1       2.798   0.661  -2.286  0.00  0.00     0.058 H 
ATOM     55  H   LIG d   1       3.393   2.166  -1.507  0.00  0.00     0.058 H 
BRANCH  53  56
ATOM     56  O   LIG d   1       3.487   2.128  -3.578  0.00  0.00    -0.392 OA
ATOM     57  H   LIG d   1       2.527   2.542  -3.922  0.00  0.00     0.209 HD
ENDBRANCH  53  56
ENDBRANCH   7  53
BRANCH   5  58
ATOM     58  O   LIG d   1       3.825  -0.934  -3.448  0.00  0.00    -0.388 OA
ATOM     59  H   LIG d   1       2.851  -1.257  -3.049  0.00  0.00     0.210 HD
ENDBRANCH   5  58
TORSDOF 9
ENDMDL
MODEL 2
REMARK VINA RESULT:      -5.3      2.042      2.727
REMARK  9 active torsions:
REMARK  status: ('A' for Active; 'I' for Inactive)
REMARK    1  A    between atoms: C_1  and  N_2 
REMARK    2  A    between atoms: C_5  and  N_8 
REMARK    3  A    between atoms: N_8  and  C_9 
REMARK    4  A    between atoms: C_9  and  C_10 
REMARK    5  A    between atoms: C_12  and  N_22 
REMARK    6  A    between atoms: C_14  and  O_21 
REMARK    7  A    between atoms: C_16  and  C_19 
REMARK    8  A    between atoms: C_19  and  O_20 
REMARK    9  A    between atoms: N_25  and  C_28 
ROOT
ATOM      1  C   LIG d   1       5.574   0.299  -2.919  0.00  0.00     0.090 C 
ATOM      2  H   LIG d   1       5.534   0.777  -1.929  0.00  0.00     0.062 H 
ATOM      3  C   LIG d   1       5.104  -1.173  -2.928  0.00  0.00     0.066 C 
ATOM      4  H   LIG d   1       5.275  -1.703  -1.979  0.00  0.00     0.051 H 
ATOM      5  C   LIG d   1       3.617  -1.089  -3.340  0.00  0.00     0.101 C 
ATOM      6  H   LIG d   1       2.919  -1.585  -2.650  0.00  0.00     0.064 H 
ATOM      7  C   LIG d   1       3.365   0.424  -3.532  0.00  0.00     0.109 C 
ATOM      8  H   LIG d   1       2.943   0.924  -2.649  0.00  0.00     0.065 H 
ATOM      9  O   LIG d   1       4.668   0.981  -3.812  0.00  0.00    -0.366 OA
ENDROOT
BRANCH   1  10
ATOM     10  C   LIG d   1       7.011   0.400  -3.437  0.00  0.00     0.024 C 
ATOM     11  H   LIG d   1       7.273  -0.523  -3.975  0.00  0.00     0.045 H 
ATOM     12  H   LIG d   1       7.697   0.539  -2.589  0.00  0.00     0.045 H 
BRANCH  10  13
ATOM     13  N   LIG d   1       7.121   1.547  -4.349  0.00  0.00    -0.310 N 
ATOM     14  H   LIG d   1       6.649   2.421  -3.877  0.00  0.00     0.122 HD
BRANCH  13  15
ATOM     15  C   LIG d   1       8.528   1.850  -4.645  0.00  0.00     0.017 C 
ATOM     16  C   LIG d   1       9.281   0.548  -4.937  0.00  0.00     0.003 C 
ATOM     17  C   LIG d   1      10.757   0.862  -5.184  0.00  0.00    -0.031 C 
ATOM     18  H   LIG d   1       8.853   0.067  -5.829  0.00  0.00     0.033 H 
ATOM     19  H   LIG d   1       9.190  -0.131  -4.076  0.00  0.00     0.033 H 
ATOM     20  N   LIG d   1      11.324   1.522  -4.000  0.00  0.00     0.233 N 
ATOM     21  H   LIG d   1      10.850   1.529  -6.054  0.00  0.00     0.082 H 
ATOM     22  H   LIG d   1      11.304  -0.073  -5.380  0.00  0.00     0.082 H 
ATOM     23  C   LIG d   1      10.648   2.797  -3.728  0.00  0.00    -0.031 C 
ATOM     24  H   LIG d   1      11.155   0.862  -3.136  0.00  0.00     0.203 HD
ATOM     25  C   LIG d   1       9.168   2.540  -3.437  0.00  0.00     0.003 C 
ATOM     26  H   LIG d   1      11.114   3.280  -2.857  0.00  0.00     0.082 H 
ATOM     27  H   LIG d   1      10.741   3.455  -4.605  0.00  0.00     0.082 H 
ATOM     28  H   LIG d   1       8.658   3.496  -3.249  0.00  0.00     0.033 H 
ATOM     29  H   LIG d   1       9.073   1.894  -2.552  0.00  0.00     0.033 H 
ATOM     30  H   LIG d   1       8.539   2.511  -5.523  0.00  0.00     0.046 H 
BRANCH  20  31
ATOM     31  C   LIG d   1      12.773   1.715  -4.147  0.00  0.00    -0.043 C 
ATOM     32  H   LIG d   1      12.964   2.642  -4.709  0.00  0.00     0.078 H 
ATOM     33  H   LIG d   1      13.203   0.862  -4.691  0.00  0.00     0.078 H 
ATOM     34  H   LIG d   1      13.236   1.788  -3.152  0.00  0.00     0.078 H 
ENDBRANCH  20  31
ENDBRANCH  13  15
ENDBRANCH  10  13
ENDBRANCH   1  10
BRANCH   3  35
ATOM     35  N   LIG d   1       5.867  -1.952  -3.910  0.00  0.00    -0.292 N 
ATOM     36  C   LIG d   1       7.216  -2.252  -3.412  0.00  0.00     0.012 C 
ATOM     37  C   LIG d   1       8.004  -2.995  -4.494  0.00  0.00     0.011 C 
ATOM     38  H   LIG d   1       7.732  -1.312  -3.161  0.00  0.00     0.044 H 
ATOM     39  H   LIG d   1       7.144  -2.881  -2.513  0.00  0.00     0.044 H 
ATOM     40  N   LIG d   1       7.293  -4.229  -4.853  0.00  0.00    -0.303 N 
ATOM     41  H   LIG d   1       9.006  -3.245  -4.113  0.00  0.00     0.044 H 
ATOM     42  H   LIG d   1       8.100  -2.355  -5.383  0.00  0.00     0.044 H 
ATOM     43  C   LIG d   1       5.943  -3.930  -5.351  0.00  0.00     0.011 C 
ATOM     44  C   LIG d   1       5.156  -3.188  -4.270  0.00  0.00     0.012 C 
ATOM     45  H   LIG d   1       5.427  -4.868  -5.602  0.00  0.00     0.044 H 
ATOM     46  H   LIG d   1       6.015  -3.300  -6.251  0.00  0.00     0.044 H 
ATOM     47  H   LIG d   1       5.060  -3.828  -3.380  0.00  0.00     0.044 H 
ATOM     48  H   LIG d   1       4.155  -2.936  -4.650  0.00  0.00     0.044 H 
BRANCH  40  49
ATOM     49  C   LIG d   1       8.056  -5.010  -5.837  0.00  0.00    -0.013 C 
ATOM     50  H   LIG d   1       7.368  -5.420  -6.592  0.00  0.00     0.039 H 
ATOM     51  H   LIG d   1       8.575  -5.835  -5.328  0.00  0.00     0.039 H 
ATOM     52  H   LIG d   1       8.794  -4.359  -6.328  0.00  0.00     0.039 H 
ENDBRANCH  40  49
ENDBRANCH   3  35
BRANCH   7  53
ATOM     53  C   LIG d   1       2.418   0.661  -4.709  0.00  0.00     0.073 C 
ATOM     54  H   LIG d   1       1.667  -0.142  -4.744  0.00  0.00     0.058 H 
ATOM     55  H   LIG d   1       1.913   1.631  -4.584  0.00  0.00     0.058 H 
BRANCH  53  56
ATOM     56  O   LIG d   1       3.165   0.667  -5.928  0.00  0.00    -0.392 OA
ATOM     57  H   LIG d   1       3.794   1.534  -6.183  0.00  0.00     0.209 HD
ENDBRANCH  53  56
ENDBRANCH   7  53
BRANCH   5  58
ATOM     58  O   LIG d   1       3.396  -1.795  -4.562  0.00  0.00    -0.388 OA
ATOM     59  H   LIG d   1       2.989  -1.267  -5.437  0.00  0.00     0.210 HD
ENDBRANCH   5  58
TORSDOF 9
ENDMDL
MODEL 3
REMARK VINA RESULT:      -5.2      4.424      6.693
REMARK  9 active torsions:
REMARK  status: ('A' for Active; 'I' for Inactive)
REMARK    1  A    between atoms: C_1  and  N_2 
REMARK    2  A    between atoms: C_5  and  N_8 
REMARK    3  A    between atoms: N_8  and  C_9 
REMARK    4  A    between atoms: C_9  and  C_10 
REMARK    5  A    between atoms: C_12  and  N_22 
REMARK    6  A    between atoms: C_14  and  O_21 
REMARK    7  A    between atoms: C_16  and  C_19 
REMARK    8  A    between atoms: C_19  and  O_20 
REMARK    9  A    between atoms: N_25  and  C_28 
ROOT
ATOM      1  C   LIG d   1       5.386  -0.366  -6.097  0.00  0.00     0.090 C 
ATOM      2  H   LIG d   1       6.285   0.233  -5.884  0.00  0.00     0.062 H 
ATOM      3  C   LIG d   1       5.494  -1.842  -5.653  0.00  0.00     0.066 C 
ATOM      4  H   LIG d   1       6.520  -2.240  -5.669  0.00  0.00     0.051 H 
ATOM      5  C   LIG d   1       4.833  -1.863  -4.256  0.00  0.00     0.101 C 
ATOM      6  H   LIG d   1       5.458  -2.290  -3.458  0.00  0.00     0.064 H 
ATOM      7  C   LIG d   1       4.405  -0.397  -4.021  0.00  0.00     0.109 C 
ATOM      8  H   LIG d   1       5.132   0.197  -3.450  0.00  0.00     0.065 H 
ATOM      9  O   LIG d   1       4.274   0.165  -5.346  0.00  0.00    -0.366 OA
ENDROOT
BRANCH   1  10
ATOM     10  C   LIG d   1       5.105  -0.282  -7.598  0.00  0.00     0.024 C 
ATOM     11  H   LIG d   1       4.560  -1.181  -7.920  0.00  0.00     0.045 H 
ATOM     12  H   LIG d   1       6.056  -0.213  -8.147  0.00  0.00     0.045 H 
BRANCH  10  13
ATOM     13  N   LIG d   1       4.291   0.910  -7.877  0.00  0.00    -0.310 N 
ATOM     14  H   LIG d   1       4.961   1.743  -8.136  0.00  0.00     0.122 HD
BRANCH  13  15
ATOM     15  C   LIG d   1       3.362   0.664  -8.989  0.00  0.00     0.017 C 
ATOM     16  C   LIG d   1       2.403  -0.470  -8.613  0.00  0.00     0.003 C 
ATOM     17  C   LIG d   1       1.479  -0.763  -9.796  0.00  0.00    -0.031 C 
ATOM     18  H   LIG d   1       1.802  -0.170  -7.742  0.00  0.00     0.033 H 
ATOM     19  H   LIG d   1       2.981  -1.374  -8.367  0.00  0.00     0.033 H 
ATOM     20  N   LIG d   1       2.283  -1.143 -10.966  0.00  0.00     0.233 N 
ATOM     21  H   LIG d   1       0.890   0.136 -10.033  0.00  0.00     0.082 H 
ATOM     22  H   LIG d   1       0.798  -1.587  -9.535  0.00  0.00     0.082 H 
ATOM     23  C   LIG d   1       3.178  -0.053 -11.373  0.00  0.00    -0.031 C 
ATOM     24  H   LIG d   1       2.910  -2.001 -10.676  0.00  0.00     0.203 HD
ATOM     25  C   LIG d   1       4.153   0.261 -10.236  0.00  0.00     0.003 C 
ATOM     26  H   LIG d   1       3.742  -0.356 -12.267  0.00  0.00     0.082 H 
ATOM     27  H   LIG d   1       2.582   0.843 -11.603  0.00  0.00     0.082 H 
ATOM     28  H   LIG d   1       4.813   1.089 -10.535  0.00  0.00     0.033 H 
ATOM     29  H   LIG d   1       4.760  -0.630 -10.015  0.00  0.00     0.033 H 
ATOM     30  H   LIG d   1       2.810   1.599  -9.162  0.00  0.00     0.046 H 
BRANCH  20  31
ATOM     31  C   LIG d   1       1.425  -1.565 -12.081  0.00  0.00    -0.043 C 
ATOM     32  H   LIG d   1       0.543  -0.909 -12.133  0.00  0.00     0.078 H 
ATOM     33  H   LIG d   1       1.099  -2.603 -11.921  0.00  0.00     0.078 H 
ATOM     34  H   LIG d   1       1.988  -1.498 -13.023  0.00  0.00     0.078 H 
ENDBRANCH  20  31
ENDBRANCH  13  15
ENDBRANCH  10  13
ENDBRANCH   1  10
BRANCH   3  35
ATOM     35  N   LIG d   1       4.763  -2.714  -6.582  0.00  0.00    -0.292 N 
ATOM     36  C   LIG d   1       5.401  -2.726  -7.905  0.00  0.00     0.012 C 
ATOM     37  C   LIG d   1       4.567  -3.581  -8.863  0.00  0.00     0.011 C 
ATOM     38  H   LIG d   1       5.465  -1.698  -8.292  0.00  0.00     0.044 H 
ATOM     39  H   LIG d   1       6.412  -3.150  -7.821  0.00  0.00     0.044 H 
ATOM     40  N   LIG d   1       4.451  -4.944  -8.324  0.00  0.00    -0.303 N 
ATOM     41  H   LIG d   1       5.056  -3.616  -9.847  0.00  0.00     0.044 H 
ATOM     42  H   LIG d   1       3.563  -3.142  -8.968  0.00  0.00     0.044 H 
ATOM     43  C   LIG d   1       3.814  -4.931  -7.000  0.00  0.00     0.011 C 
ATOM     44  C   LIG d   1       4.647  -4.077  -6.043  0.00  0.00     0.012 C 
ATOM     45  H   LIG d   1       3.748  -5.959  -6.613  0.00  0.00     0.044 H 
ATOM     46  H   LIG d   1       2.801  -4.507  -7.083  0.00  0.00     0.044 H 
ATOM     47  H   LIG d   1       5.651  -4.516  -5.938  0.00  0.00     0.044 H 
ATOM     48  H   LIG d   1       4.158  -4.042  -5.059  0.00  0.00     0.044 H 
BRANCH  40  49
ATOM     49  C   LIG d   1       3.719  -5.816  -9.252  0.00  0.00    -0.013 C 
ATOM     50  H   LIG d   1       3.449  -6.752  -8.739  0.00  0.00     0.039 H 
ATOM     51  H   LIG d   1       4.354  -6.045 -10.120  0.00  0.00     0.039 H 
ATOM     52  H   LIG d   1       2.805  -5.307  -9.590  0.00  0.00     0.039 H 
ENDBRANCH  40  49
ENDBRANCH   3  35
BRANCH   7  53
ATOM     53  C   LIG d   1       3.066  -0.345  -3.284  0.00  0.00     0.073 C 
ATOM     54  H   LIG d   1       3.026  -1.154  -2.539  0.00  0.00     0.058 H 
ATOM     55  H   LIG d   1       2.964   0.626  -2.777  0.00  0.00     0.058 H 
BRANCH  53  56
ATOM     56  O   LIG d   1       1.999  -0.507  -4.221  0.00  0.00    -0.392 OA
ATOM     57  H   LIG d   1       1.215   0.260  -4.299  0.00  0.00     0.209 HD
ENDBRANCH  53  56
ENDBRANCH   7  53
BRANCH   5  58
ATOM     58  O   LIG d   1       3.696  -2.727  -4.254  0.00  0.00    -0.388 OA
ATOM     59  H   LIG d   1       2.925  -2.620  -3.476  0.00  0.00     0.210 HD
ENDBRANCH   5  58
TORSDOF 9
ENDMDL
MODEL 4
REMARK VINA RESULT:      -5.2      1.893      2.598
REMARK  9 active torsions:
REMARK  status: ('A' for Active; 'I' for Inactive)
REMARK    1  A    between atoms: C_1  and  N_2 
REMARK    2  A    between atoms: C_5  and  N_8 
REMARK    3  A    between atoms: N_8  and  C_9 
REMARK    4  A    between atoms: C_9  and  C_10 
REMARK    5  A    between atoms: C_12  and  N_22 
REMARK    6  A    between atoms: C_14  and  O_21 
REMARK    7  A    between atoms: C_16  and  C_19 
REMARK    8  A    between atoms: C_19  and  O_20 
REMARK    9  A    between atoms: N_25  and  C_28 
ROOT
ATOM      1  C   LIG d   1       6.243  -0.486  -4.411  0.00  0.00     0.090 C 
ATOM      2  H   LIG d   1       6.966  -0.996  -3.758  0.00  0.00     0.062 H 
ATOM      3  C   LIG d   1       5.054  -1.370  -4.848  0.00  0.00     0.066 C 
ATOM      4  H   LIG d   1       5.294  -2.442  -4.911  0.00  0.00     0.051 H 
ATOM      5  C   LIG d   1       3.943  -1.034  -3.828  0.00  0.00     0.101 C 
ATOM      6  H   LIG d   1       3.515  -1.906  -3.309  0.00  0.00     0.064 H 
ATOM      7  C   LIG d   1       4.592   0.013  -2.896  0.00  0.00     0.109 C 
ATOM      8  H   LIG d   1       5.030  -0.410  -1.980  0.00  0.00     0.065 H 
ATOM      9  O   LIG d   1       5.642   0.610  -3.688  0.00  0.00    -0.366 OA
ENDROOT
BRANCH   1  10
ATOM     10  C   LIG d   1       6.996   0.035  -5.637  0.00  0.00     0.024 C 
ATOM     11  H   LIG d   1       6.390  -0.135  -6.539  0.00  0.00     0.045 H 
ATOM     12  H   LIG d   1       7.954  -0.498  -5.733  0.00  0.00     0.045 H 
BRANCH  10  13
ATOM     13  N   LIG d   1       7.250   1.473  -5.481  0.00  0.00    -0.310 N 
ATOM     14  H   LIG d   1       6.691   1.838  -4.607  0.00  0.00     0.122 HD
BRANCH  13  15
ATOM     15  C   LIG d   1       8.683   1.736  -5.289  0.00  0.00     0.017 C 
ATOM     16  C   LIG d   1       9.491   0.510  -5.725  0.00  0.00     0.003 C 
ATOM     17  C   LIG d   1      10.977   0.765  -5.467  0.00  0.00    -0.031 C 
ATOM     18  H   LIG d   1       9.331   0.325  -6.797  0.00  0.00     0.033 H 
ATOM     19  H   LIG d   1       9.165  -0.369  -5.148  0.00  0.00     0.033 H 
ATOM     20  N   LIG d   1      11.189   1.032  -4.038  0.00  0.00     0.233 N 
ATOM     21  H   LIG d   1      11.307   1.635  -6.055  0.00  0.00     0.082 H 
ATOM     22  H   LIG d   1      11.559  -0.120  -5.765  0.00  0.00     0.082 H 
ATOM     23  C   LIG d   1      10.461   2.233  -3.608  0.00  0.00    -0.031 C 
ATOM     24  H   LIG d   1      10.787   0.177  -3.474  0.00  0.00     0.203 HD
ATOM     25  C   LIG d   1       8.959   2.020  -3.810  0.00  0.00     0.003 C 
ATOM     26  H   LIG d   1      10.664   2.423  -2.544  0.00  0.00     0.082 H 
ATOM     27  H   LIG d   1      10.793   3.096  -4.204  0.00  0.00     0.082 H 
ATOM     28  H   LIG d   1       8.414   2.925  -3.503  0.00  0.00     0.033 H 
ATOM     29  H   LIG d   1       8.622   1.166  -3.203  0.00  0.00     0.033 H 
ATOM     30  H   LIG d   1       8.938   2.609  -5.908  0.00  0.00     0.046 H 
BRANCH  20  31
ATOM     31  C   LIG d   1      12.621   1.146  -3.729  0.00  0.00    -0.043 C 
ATOM     32  H   LIG d   1      12.941   2.192  -3.853  0.00  0.00     0.078 H 
ATOM     33  H   LIG d   1      13.195   0.504  -4.413  0.00  0.00     0.078 H 
ATOM     34  H   LIG d   1      12.798   0.830  -2.691  0.00  0.00     0.078 H 
ENDBRANCH  20  31
ENDBRANCH  13  15
ENDBRANCH  10  13
ENDBRANCH   1  10
BRANCH   3  35
ATOM     35  N   LIG d   1       4.626  -1.023  -6.209  0.00  0.00    -0.292 N 
ATOM     36  C   LIG d   1       4.311  -2.229  -6.985  0.00  0.00     0.012 C 
ATOM     37  C   LIG d   1       3.945  -1.830  -8.418  0.00  0.00     0.011 C 
ATOM     38  H   LIG d   1       5.187  -2.895  -7.002  0.00  0.00     0.044 H 
ATOM     39  H   LIG d   1       3.461  -2.753  -6.522  0.00  0.00     0.044 H 
ATOM     40  N   LIG d   1       2.799  -0.911  -8.389  0.00  0.00    -0.303 N 
ATOM     41  H   LIG d   1       3.681  -2.729  -8.994  0.00  0.00     0.044 H 
ATOM     42  H   LIG d   1       4.804  -1.331  -8.890  0.00  0.00     0.044 H 
ATOM     43  C   LIG d   1       3.114   0.296  -7.612  0.00  0.00     0.011 C 
ATOM     44  C   LIG d   1       3.479  -0.104  -6.181  0.00  0.00     0.012 C 
ATOM     45  H   LIG d   1       2.239   0.961  -7.596  0.00  0.00     0.044 H 
ATOM     46  H   LIG d   1       3.964   0.819  -8.075  0.00  0.00     0.044 H 
ATOM     47  H   LIG d   1       2.620  -0.603  -5.708  0.00  0.00     0.044 H 
ATOM     48  H   LIG d   1       3.743   0.795  -5.604  0.00  0.00     0.044 H 
BRANCH  40  49
ATOM     49  C   LIG d   1       2.370  -0.563  -9.751  0.00  0.00    -0.013 C 
ATOM     50  H   LIG d   1       1.505  -1.182 -10.032  0.00  0.00     0.039 H 
ATOM     51  H   LIG d   1       3.196  -0.746 -10.454  0.00  0.00     0.039 H 
ATOM     52  H   LIG d   1       2.088   0.499  -9.786  0.00  0.00     0.039 H 
ENDBRANCH  40  49
ENDBRANCH   3  35
BRANCH   7  53
ATOM     53  C   LIG d   1       3.565   1.070  -2.486  0.00  0.00     0.073 C 
ATOM     54  H   LIG d   1       2.559   0.627  -2.496  0.00  0.00     0.058 H 
ATOM     55  H   LIG d   1       3.797   1.432  -1.472  0.00  0.00     0.058 H 
BRANCH  53  56
ATOM     56  O   LIG d   1       3.614   2.163  -3.405  0.00  0.00    -0.392 OA
ATOM     57  H   LIG d   1       3.163   3.130  -3.135  0.00  0.00     0.209 HD
ENDBRANCH  53  56
ENDBRANCH   7  53
BRANCH   5  58
ATOM     58  O   LIG d   1       2.805  -0.482  -4.491  0.00  0.00    -0.388 OA
ATOM     59  H   LIG d   1       2.155  -1.128  -5.100  0.00  0.00     0.210 HD
ENDBRANCH   5  58
TORSDOF 9
ENDMDL
MODEL 5
REMARK VINA RESULT:      -5.2      4.092      6.294
REMARK  9 active torsions:
REMARK  status: ('A' for Active; 'I' for Inactive)
REMARK    1  A    between atoms: C_1  and  N_2 
REMARK    2  A    between atoms: C_5  and  N_8 
REMARK    3  A    between atoms: N_8  and  C_9 
REMARK    4  A    between atoms: C_9  and  C_10 
REMARK    5  A    between atoms: C_12  and  N_22 
REMARK    6  A    between atoms: C_14  and  O_21 
REMARK    7  A    between atoms: C_16  and  C_19 
REMARK    8  A    between atoms: C_19  and  O_20 
REMARK    9  A    between atoms: N_25  and  C_28 
ROOT
ATOM      1  C   LIG d   1       5.826  -0.332  -5.418  0.00  0.00     0.090 C 
ATOM      2  H   LIG d   1       6.647   0.248  -4.969  0.00  0.00     0.062 H 
ATOM      3  C   LIG d   1       5.762  -1.802  -4.947  0.00  0.00     0.066 C 
ATOM      4  H   LIG d   1       6.739  -2.226  -4.672  0.00  0.00     0.051 H 
ATOM      5  C   LIG d   1       4.738  -1.780  -3.789  0.00  0.00     0.101 C 
ATOM      6  H   LIG d   1       5.103  -2.209  -2.844  0.00  0.00     0.064 H 
ATOM      7  C   LIG d   1       4.305  -0.300  -3.698  0.00  0.00     0.109 C 
ATOM      8  H   LIG d   1       4.862   0.286  -2.952  0.00  0.00     0.065 H 
ATOM      9  O   LIG d   1       4.564   0.241  -5.012  0.00  0.00    -0.366 OA
ENDROOT
BRANCH   1  10
ATOM     10  C   LIG d   1       5.976  -0.267  -6.939  0.00  0.00     0.024 C 
ATOM     11  H   LIG d   1       5.936  -1.285  -7.355  0.00  0.00     0.045 H 
ATOM     12  H   LIG d   1       6.941   0.195  -7.194  0.00  0.00     0.045 H 
BRANCH  10  13
ATOM     13  N   LIG d   1       4.883   0.536  -7.504  0.00  0.00    -0.310 N 
ATOM     14  H   LIG d   1       5.284   1.514  -7.808  0.00  0.00     0.122 HD
BRANCH  13  15
ATOM     15  C   LIG d   1       4.287  -0.132  -8.669  0.00  0.00     0.017 C 
ATOM     16  C   LIG d   1       3.841   0.920  -9.690  0.00  0.00     0.003 C 
ATOM     17  C   LIG d   1       3.167   0.223 -10.873  0.00  0.00    -0.031 C 
ATOM     18  H   LIG d   1       4.717   1.483 -10.045  0.00  0.00     0.033 H 
ATOM     19  H   LIG d   1       3.128   1.612  -9.217  0.00  0.00     0.033 H 
ATOM     20  N   LIG d   1       2.009  -0.545 -10.395  0.00  0.00     0.233 N 
ATOM     21  H   LIG d   1       3.884  -0.458 -11.355  0.00  0.00     0.082 H 
ATOM     22  H   LIG d   1       2.831   0.977 -11.601  0.00  0.00     0.082 H 
ATOM     23  C   LIG d   1       2.419  -1.592  -9.450  0.00  0.00    -0.031 C 
ATOM     24  H   LIG d   1       1.344   0.149  -9.859  0.00  0.00     0.203 HD
ATOM     25  C   LIG d   1       3.070  -0.948  -8.224  0.00  0.00     0.003 C 
ATOM     26  H   LIG d   1       1.536  -2.167  -9.136  0.00  0.00     0.082 H 
ATOM     27  H   LIG d   1       3.139  -2.264  -9.938  0.00  0.00     0.082 H 
ATOM     28  H   LIG d   1       3.392  -1.733  -7.523  0.00  0.00     0.033 H 
ATOM     29  H   LIG d   1       2.346  -0.286  -7.727  0.00  0.00     0.033 H 
ATOM     30  H   LIG d   1       5.060  -0.786  -9.098  0.00  0.00     0.046 H 
BRANCH  20  31
ATOM     31  C   LIG d   1       1.255  -1.116 -11.519  0.00  0.00    -0.043 C 
ATOM     32  H   LIG d   1       1.836  -0.999 -12.447  0.00  0.00     0.078 H 
ATOM     33  H   LIG d   1       0.294  -0.592 -11.620  0.00  0.00     0.078 H 
ATOM     34  H   LIG d   1       1.073  -2.185 -11.334  0.00  0.00     0.078 H 
ENDBRANCH  20  31
ENDBRANCH  13  15
ENDBRANCH  10  13
ENDBRANCH   1  10
BRANCH   3  35
ATOM     35  N   LIG d   1       5.293  -2.671  -6.033  0.00  0.00    -0.292 N 
ATOM     36  C   LIG d   1       6.340  -2.861  -7.046  0.00  0.00     0.012 C 
ATOM     37  C   LIG d   1       5.786  -3.706  -8.196  0.00  0.00     0.011 C 
ATOM     38  H   LIG d   1       6.660  -1.881  -7.431  0.00  0.00     0.044 H 
ATOM     39  H   LIG d   1       7.200  -3.376  -6.592  0.00  0.00     0.044 H 
ATOM     40  N   LIG d   1       5.324  -4.998  -7.672  0.00  0.00    -0.303 N 
ATOM     41  H   LIG d   1       6.577  -3.874  -8.943  0.00  0.00     0.044 H 
ATOM     42  H   LIG d   1       4.944  -3.178  -8.667  0.00  0.00     0.044 H 
ATOM     43  C   LIG d   1       4.277  -4.809  -6.659  0.00  0.00     0.011 C 
ATOM     44  C   LIG d   1       4.830  -3.965  -5.510  0.00  0.00     0.012 C 
ATOM     45  H   LIG d   1       3.955  -5.787  -6.275  0.00  0.00     0.044 H 
ATOM     46  H   LIG d   1       3.416  -4.293  -7.112  0.00  0.00     0.044 H 
ATOM     47  H   LIG d   1       5.673  -4.492  -5.039  0.00  0.00     0.044 H 
ATOM     48  H   LIG d   1       4.040  -3.796  -4.763  0.00  0.00     0.044 H 
BRANCH  40  49
ATOM     49  C   LIG d   1       4.853  -5.869  -8.759  0.00  0.00    -0.013 C 
ATOM     50  H   LIG d   1       4.829  -5.299  -9.700  0.00  0.00     0.039 H 
ATOM     51  H   LIG d   1       3.842  -6.232  -8.526  0.00  0.00     0.039 H 
ATOM     52  H   LIG d   1       5.535  -6.724  -8.865  0.00  0.00     0.039 H 
ENDBRANCH  40  49
ENDBRANCH   3  35
BRANCH   7  53
ATOM     53  C   LIG d   1       2.816  -0.200  -3.363  0.00  0.00     0.073 C 
ATOM     54  H   LIG d   1       2.526  -1.048  -2.726  0.00  0.00     0.058 H 
ATOM     55  H   LIG d   1       2.623   0.743  -2.830  0.00  0.00     0.058 H 
BRANCH  53  56
ATOM     56  O   LIG d   1       2.053  -0.229  -4.571  0.00  0.00    -0.392 OA
ATOM     57  H   LIG d   1       2.023   0.657  -5.224  0.00  0.00     0.209 HD
ENDBRANCH  53  56
ENDBRANCH   7  53
BRANCH   5  58
ATOM     58  O   LIG d   1       3.620  -2.614  -4.095  0.00  0.00    -0.388 OA
ATOM     59  H   LIG d   1       3.772  -3.683  -4.305  0.00  0.00     0.210 HD
ENDBRANCH   5  58
TORSDOF 9
ENDMDL
MODEL 6
REMARK VINA RESULT:      -5.1      2.843      4.008
REMARK  9 active torsions:
REMARK  status: ('A' for Active; 'I' for Inactive)
REMARK    1  A    between atoms: C_1  and  N_2 
REMARK    2  A    between atoms: C_5  and  N_8 
REMARK    3  A    between atoms: N_8  and  C_9 
REMARK    4  A    between atoms: C_9  and  C_10 
REMARK    5  A    between atoms: C_12  and  N_22 
REMARK    6  A    between atoms: C_14  and  O_21 
REMARK    7  A    between atoms: C_16  and  C_19 
REMARK    8  A    between atoms: C_19  and  O_20 
REMARK    9  A    between atoms: N_25  and  C_28 
ROOT
ATOM      1  C   LIG d   1       5.595   0.268  -2.980  0.00  0.00     0.090 C 
ATOM      2  H   LIG d   1       5.557   0.758  -1.996  0.00  0.00     0.062 H 
ATOM      3  C   LIG d   1       5.189  -1.222  -2.959  0.00  0.00     0.066 C 
ATOM      4  H   LIG d   1       5.404  -1.731  -2.007  0.00  0.00     0.051 H 
ATOM      5  C   LIG d   1       3.691  -1.208  -3.339  0.00  0.00     0.101 C 
ATOM      6  H   LIG d   1       3.030  -1.724  -2.627  0.00  0.00     0.064 H 
ATOM      7  C   LIG d   1       3.370   0.289  -3.545  0.00  0.00     0.109 C 
ATOM      8  H   LIG d   1       2.946   0.784  -2.659  0.00  0.00     0.065 H 
ATOM      9  O   LIG d   1       4.641   0.898  -3.862  0.00  0.00    -0.366 OA
ENDROOT
BRANCH   1  10
ATOM     10  C   LIG d   1       7.014   0.424  -3.532  0.00  0.00     0.024 C 
ATOM     11  H   LIG d   1       7.393  -0.558  -3.852  0.00  0.00     0.045 H 
ATOM     12  H   LIG d   1       7.670   0.832  -2.749  0.00  0.00     0.045 H 
BRANCH  10  13
ATOM     13  N   LIG d   1       6.994   1.340  -4.681  0.00  0.00    -0.310 N 
ATOM     14  H   LIG d   1       7.507   2.271  -4.400  0.00  0.00     0.122 HD
BRANCH  13  15
ATOM     15  C   LIG d   1       7.667   0.741  -5.842  0.00  0.00     0.017 C 
ATOM     16  C   LIG d   1       8.349   1.841  -6.661  0.00  0.00     0.003 C 
ATOM     17  C   LIG d   1       8.996   1.221  -7.901  0.00  0.00    -0.031 C 
ATOM     18  H   LIG d   1       9.121   2.330  -6.050  0.00  0.00     0.033 H 
ATOM     19  H   LIG d   1       7.601   2.586  -6.972  0.00  0.00     0.033 H 
ATOM     20  N   LIG d   1       7.967   0.550  -8.708  0.00  0.00     0.233 N 
ATOM     21  H   LIG d   1       9.754   0.487  -7.591  0.00  0.00     0.082 H 
ATOM     22  H   LIG d   1       9.475   2.010  -8.500  0.00  0.00     0.082 H 
ATOM     23  C   LIG d   1       7.331  -0.541  -7.958  0.00  0.00    -0.031 C 
ATOM     24  H   LIG d   1       7.190   1.292  -8.944  0.00  0.00     0.203 HD
ATOM     25  C   LIG d   1       6.634   0.028  -6.720  0.00  0.00     0.003 C 
ATOM     26  H   LIG d   1       6.590  -1.041  -8.598  0.00  0.00     0.082 H 
ATOM     27  H   LIG d   1       8.097  -1.267  -7.647  0.00  0.00     0.082 H 
ATOM     28  H   LIG d   1       6.171  -0.791  -6.149  0.00  0.00     0.033 H 
ATOM     29  H   LIG d   1       5.858   0.744  -7.030  0.00  0.00     0.033 H 
ATOM     30  H   LIG d   1       8.408   0.028  -5.454  0.00  0.00     0.046 H 
BRANCH  20  31
ATOM     31  C   LIG d   1       8.527   0.061  -9.975  0.00  0.00    -0.043 C 
ATOM     32  H   LIG d   1       9.057  -0.888  -9.800  0.00  0.00     0.078 H 
ATOM     33  H   LIG d   1       9.232   0.804 -10.375  0.00  0.00     0.078 H 
ATOM     34  H   LIG d   1       7.714  -0.101 -10.697  0.00  0.00     0.078 H 
ENDBRANCH  20  31
ENDBRANCH  13  15
ENDBRANCH  10  13
ENDBRANCH   1  10
BRANCH   3  35
ATOM     35  N   LIG d   1       5.964  -1.982  -3.948  0.00  0.00    -0.292 N 
ATOM     36  C   LIG d   1       7.314  -2.273  -3.449  0.00  0.00     0.012 C 
ATOM     37  C   LIG d   1       8.114  -2.995  -4.537  0.00  0.00     0.011 C 
ATOM     38  H   LIG d   1       7.819  -1.331  -3.186  0.00  0.00     0.044 H 
ATOM     39  H   LIG d   1       7.246  -2.913  -2.557  0.00  0.00     0.044 H 
ATOM     40  N   LIG d   1       7.417  -4.233  -4.912  0.00  0.00    -0.303 N 
ATOM     41  H   LIG d   1       9.116  -3.239  -4.156  0.00  0.00     0.044 H 
ATOM     42  H   LIG d   1       8.205  -2.344  -5.419  0.00  0.00     0.044 H 
ATOM     43  C   LIG d   1       6.065  -3.943  -5.411  0.00  0.00     0.011 C 
ATOM     44  C   LIG d   1       5.267  -3.221  -4.324  0.00  0.00     0.012 C 
ATOM     45  H   LIG d   1       5.560  -4.883  -5.675  0.00  0.00     0.044 H 
ATOM     46  H   LIG d   1       6.133  -3.301  -6.304  0.00  0.00     0.044 H 
ATOM     47  H   LIG d   1       5.175  -3.872  -3.442  0.00  0.00     0.044 H 
ATOM     48  H   LIG d   1       4.264  -2.976  -4.705  0.00  0.00     0.044 H 
BRANCH  40  49
ATOM     49  C   LIG d   1       8.191  -4.993  -5.903  0.00  0.00    -0.013 C 
ATOM     50  H   LIG d   1       8.829  -5.725  -5.385  0.00  0.00     0.039 H 
ATOM     51  H   LIG d   1       8.822  -4.304  -6.484  0.00  0.00     0.039 H 
ATOM     52  H   LIG d   1       7.504  -5.520  -6.580  0.00  0.00     0.039 H 
ENDBRANCH  40  49
ENDBRANCH   3  35
BRANCH   7  53
ATOM     53  C   LIG d   1       2.388   0.469  -4.704  0.00  0.00     0.073 C 
ATOM     54  H   LIG d   1       1.761  -0.429  -4.795  0.00  0.00     0.058 H 
ATOM     55  H   LIG d   1       1.750   1.345  -4.511  0.00  0.00     0.058 H 
BRANCH  53  56
ATOM     56  O   LIG d   1       3.115   0.668  -5.918  0.00  0.00    -0.392 OA
ATOM     57  H   LIG d   1       3.396   1.685  -6.231  0.00  0.00     0.209 HD
ENDBRANCH  53  56
ENDBRANCH   7  53
BRANCH   5  58
ATOM     58  O   LIG d   1       3.474  -1.940  -4.546  0.00  0.00    -0.388 OA
ATOM     59  H   LIG d   1       2.737  -2.756  -4.570  0.00  0.00     0.210 HD
ENDBRANCH   5  58
TORSDOF 9
ENDMDL
MODEL 7
REMARK VINA RESULT:      -5.1      5.471      8.784
REMARK  9 active torsions:
REMARK  status: ('A' for Active; 'I' for Inactive)
REMARK    1  A    between atoms: C_1  and  N_2 
REMARK    2  A    between atoms: C_5  and  N_8 
REMARK    3  A    between atoms: N_8  and  C_9 
REMARK    4  A    between atoms: C_9  and  C_10 
REMARK    5  A    between atoms: C_12  and  N_22 
REMARK    6  A    between atoms: C_14  and  O_21 
REMARK    7  A    between atoms: C_16  and  C_19 
REMARK    8  A    between atoms: C_19  and  O_20 
REMARK    9  A    between atoms: N_25  and  C_28 
ROOT
ATOM      1  C   LIG d   1      10.696   7.555  -1.087  0.00  0.00     0.090 C 
ATOM      2  H   LIG d   1      11.300   8.473  -1.027  0.00  0.00     0.062 H 
ATOM      3  C   LIG d   1      11.464   6.329  -1.631  0.00  0.00     0.066 C 
ATOM      4  H   LIG d   1      12.271   6.584  -2.333  0.00  0.00     0.051 H 
ATOM      5  C   LIG d   1      11.945   5.594  -0.359  0.00  0.00     0.101 C 
ATOM      6  H   LIG d   1      13.027   5.397  -0.323  0.00  0.00     0.064 H 
ATOM      7  C   LIG d   1      11.411   6.462   0.802  0.00  0.00     0.109 C 
ATOM      8  H   LIG d   1      12.138   7.191   1.189  0.00  0.00     0.065 H 
ATOM      9  O   LIG d   1      10.284   7.172   0.243  0.00  0.00    -0.366 OA
ENDROOT
BRANCH   1  10
ATOM     10  C   LIG d   1       9.474   7.847  -1.960  0.00  0.00     0.024 C 
ATOM     11  H   LIG d   1       8.810   6.970  -1.966  0.00  0.00     0.045 H 
ATOM     12  H   LIG d   1       9.801   8.067  -2.987  0.00  0.00     0.045 H 
BRANCH  10  13
ATOM     13  N   LIG d   1       8.751   9.005  -1.417  0.00  0.00    -0.310 N 
ATOM     14  H   LIG d   1       8.337   8.736  -0.435  0.00  0.00     0.122 HD
BRANCH  13  15
ATOM     15  C   LIG d   1       9.646  10.162  -1.272  0.00  0.00     0.017 C 
ATOM     16  C   LIG d   1       9.551  10.705   0.158  0.00  0.00     0.003 C 
ATOM     17  C   LIG d   1      10.437  11.945   0.288  0.00  0.00    -0.031 C 
ATOM     18  H   LIG d   1       9.889   9.936   0.867  0.00  0.00     0.033 H 
ATOM     19  H   LIG d   1       8.508  10.976   0.380  0.00  0.00     0.033 H 
ATOM     20  N   LIG d   1       9.998  12.965  -0.675  0.00  0.00     0.233 N 
ATOM     21  H   LIG d   1      11.483  11.672   0.080  0.00  0.00     0.082 H 
ATOM     22  H   LIG d   1      10.360  12.347   1.309  0.00  0.00     0.082 H 
ATOM     23  C   LIG d   1      10.126  12.483  -2.056  0.00  0.00    -0.031 C 
ATOM     24  H   LIG d   1       8.933  13.167  -0.487  0.00  0.00     0.203 HD
ATOM     25  C   LIG d   1       9.229  11.259  -2.255  0.00  0.00     0.003 C 
ATOM     26  H   LIG d   1       9.820  13.278  -2.751  0.00  0.00     0.082 H 
ATOM     27  H   LIG d   1      11.172  12.207  -2.253  0.00  0.00     0.082 H 
ATOM     28  H   LIG d   1       9.336  10.887  -3.285  0.00  0.00     0.033 H 
ATOM     29  H   LIG d   1       8.180  11.537  -2.072  0.00  0.00     0.033 H 
ATOM     30  H   LIG d   1      10.666   9.811  -1.487  0.00  0.00     0.046 H 
BRANCH  20  31
ATOM     31  C   LIG d   1      10.737  14.221  -0.485  0.00  0.00    -0.043 C 
ATOM     32  H   LIG d   1      11.096  14.586  -1.460  0.00  0.00     0.078 H 
ATOM     33  H   LIG d   1      11.597  14.044   0.177  0.00  0.00     0.078 H 
ATOM     34  H   LIG d   1      10.074  14.972  -0.034  0.00  0.00     0.078 H 
ENDBRANCH  20  31
ENDBRANCH  13  15
ENDBRANCH  10  13
ENDBRANCH   1  10
BRANCH   3  35
ATOM     35  N   LIG d   1      10.570   5.468  -2.416  0.00  0.00    -0.292 N 
ATOM     36  C   LIG d   1      10.401   5.989  -3.779  0.00  0.00     0.012 C 
ATOM     37  C   LIG d   1       9.403   5.110  -4.538  0.00  0.00     0.011 C 
ATOM     38  H   LIG d   1      10.021   7.021  -3.733  0.00  0.00     0.044 H 
ATOM     39  H   LIG d   1      11.370   5.978  -4.299  0.00  0.00     0.044 H 
ATOM     40  N   LIG d   1       9.896   3.726  -4.564  0.00  0.00    -0.303 N 
ATOM     41  H   LIG d   1       9.296   5.481  -5.568  0.00  0.00     0.044 H 
ATOM     42  H   LIG d   1       8.426   5.143  -4.034  0.00  0.00     0.044 H 
ATOM     43  C   LIG d   1      10.066   3.205  -3.200  0.00  0.00     0.011 C 
ATOM     44  C   LIG d   1      11.062   4.083  -2.442  0.00  0.00     0.012 C 
ATOM     45  H   LIG d   1      10.445   2.174  -3.245  0.00  0.00     0.044 H 
ATOM     46  H   LIG d   1       9.096   3.216  -2.679  0.00  0.00     0.044 H 
ATOM     47  H   LIG d   1      12.039   4.051  -2.947  0.00  0.00     0.044 H 
ATOM     48  H   LIG d   1      11.170   3.713  -1.411  0.00  0.00     0.044 H 
BRANCH  40  49
ATOM     49  C   LIG d   1       9.001   2.863  -5.349  0.00  0.00    -0.013 C 
ATOM     50  H   LIG d   1       8.558   2.101  -4.691  0.00  0.00     0.039 H 
ATOM     51  H   LIG d   1       9.575   2.370  -6.147  0.00  0.00     0.039 H 
ATOM     52  H   LIG d   1       8.202   3.473  -5.794  0.00  0.00     0.039 H 
ENDBRANCH  40  49
ENDBRANCH   3  35
BRANCH   7  53
ATOM     53  C   LIG d   1      10.962   5.577   1.966  0.00  0.00     0.073 C 
ATOM     54  H   LIG d   1       9.912   5.287   1.822  0.00  0.00     0.058 H 
ATOM     55  H   LIG d   1      11.591   4.674   2.003  0.00  0.00     0.058 H 
BRANCH  53  56
ATOM     56  O   LIG d   1      11.094   6.300   3.192  0.00  0.00    -0.392 OA
ATOM     57  H   LIG d   1      10.218   6.443   3.843  0.00  0.00     0.209 HD
ENDBRANCH  53  56
ENDBRANCH   7  53
BRANCH   5  58
ATOM     58  O   LIG d   1      11.390   4.279  -0.301  0.00  0.00    -0.388 OA
ATOM     59  H   LIG d   1      11.939   3.472   0.206  0.00  0.00     0.210 HD
ENDBRANCH   5  58
TORSDOF 9
ENDMDL
MODEL 8
REMARK VINA RESULT:      -5.0      1.986      2.550
REMARK  9 active torsions:
REMARK  status: ('A' for Active; 'I' for Inactive)
REMARK    1  A    between atoms: C_1  and  N_2 
REMARK    2  A    between atoms: C_5  and  N_8 
REMARK    3  A    between atoms: N_8  and  C_9 
REMARK    4  A    between atoms: C_9  and  C_10 
REMARK    5  A    between atoms: C_12  and  N_22 
REMARK    6  A    between atoms: C_14  and  O_21 
REMARK    7  A    between atoms: C_16  and  C_19 
REMARK    8  A    between atoms: C_19  and  O_20 
REMARK    9  A    between atoms: N_25  and  C_28 
ROOT
ATOM      1  C   LIG d   1       6.262  -1.223  -3.188  0.00  0.00     0.090 C 
ATOM      2  H   LIG d   1       6.712  -1.686  -2.297  0.00  0.00     0.062 H 
ATOM      3  C   LIG d   1       5.094  -2.030  -3.797  0.00  0.00     0.066 C 
ATOM      4  H   LIG d   1       5.170  -3.116  -3.637  0.00  0.00     0.051 H 
ATOM      5  C   LIG d   1       3.832  -1.390  -3.174  0.00  0.00     0.101 C 
ATOM      6  H   LIG d   1       3.158  -2.099  -2.670  0.00  0.00     0.064 H 
ATOM      7  C   LIG d   1       4.388  -0.273  -2.263  0.00  0.00     0.109 C 
ATOM      8  H   LIG d   1       4.514  -0.571  -1.212  0.00  0.00     0.065 H 
ATOM      9  O   LIG d   1       5.682   0.047  -2.820  0.00  0.00    -0.366 OA
ENDROOT
BRANCH   1  10
ATOM     10  C   LIG d   1       7.368  -1.022  -4.227  0.00  0.00     0.024 C 
ATOM     11  H   LIG d   1       6.916  -0.889  -5.221  0.00  0.00     0.045 H 
ATOM     12  H   LIG d   1       8.025  -1.904  -4.238  0.00  0.00     0.045 H 
BRANCH  10  13
ATOM     13  N   LIG d   1       8.153   0.171  -3.882  0.00  0.00    -0.310 N 
ATOM     14  H   LIG d   1       9.203  -0.125  -3.745  0.00  0.00     0.122 HD
BRANCH  13  15
ATOM     15  C   LIG d   1       8.063   1.185  -4.941  0.00  0.00     0.017 C 
ATOM     16  C   LIG d   1       7.771   0.500  -6.281  0.00  0.00     0.003 C 
ATOM     17  C   LIG d   1       7.738   1.553  -7.390  0.00  0.00    -0.031 C 
ATOM     18  H   LIG d   1       6.798  -0.009  -6.229  0.00  0.00     0.033 H 
ATOM     19  H   LIG d   1       8.559  -0.236  -6.497  0.00  0.00     0.033 H 
ATOM     20  N   LIG d   1       9.032   2.248  -7.445  0.00  0.00     0.233 N 
ATOM     21  H   LIG d   1       6.940   2.281  -7.182  0.00  0.00     0.082 H 
ATOM     22  H   LIG d   1       7.544   1.063  -8.356  0.00  0.00     0.082 H 
ATOM     23  C   LIG d   1       9.311   2.951  -6.187  0.00  0.00    -0.031 C 
ATOM     24  H   LIG d   1       9.815   1.488  -7.585  0.00  0.00     0.203 HD
ATOM     25  C   LIG d   1       9.391   1.939  -5.042  0.00  0.00     0.003 C 
ATOM     26  H   LIG d   1      10.269   3.485  -6.271  0.00  0.00     0.082 H 
ATOM     27  H   LIG d   1       8.507   3.673  -5.984  0.00  0.00     0.082 H 
ATOM     28  H   LIG d   1       9.585   2.467  -4.096  0.00  0.00     0.033 H 
ATOM     29  H   LIG d   1      10.206   1.226  -5.237  0.00  0.00     0.033 H 
ATOM     30  H   LIG d   1       7.246   1.868  -4.667  0.00  0.00     0.046 H 
BRANCH  20  31
ATOM     31  C   LIG d   1       9.086   3.170  -8.587  0.00  0.00    -0.043 C 
ATOM     32  H   LIG d   1      10.018   3.004  -9.150  0.00  0.00     0.078 H 
ATOM     33  H   LIG d   1       9.059   4.208  -8.223  0.00  0.00     0.078 H 
ATOM     34  H   LIG d   1       8.224   2.989  -9.246  0.00  0.00     0.078 H 
ENDBRANCH  20  31
ENDBRANCH  13  15
ENDBRANCH  10  13
ENDBRANCH   1  10
BRANCH   3  35
ATOM     35  N   LIG d   1       5.075  -1.888  -5.258  0.00  0.00    -0.292 N 
ATOM     36  C   LIG d   1       4.606  -3.122  -5.901  0.00  0.00     0.012 C 
ATOM     37  C   LIG d   1       4.676  -2.961  -7.422  0.00  0.00     0.011 C 
ATOM     38  H   LIG d   1       5.245  -3.963  -5.591  0.00  0.00     0.044 H 
ATOM     39  H   LIG d   1       3.567  -3.321  -5.600  0.00  0.00     0.044 H 
ATOM     40  N   LIG d   1       3.853  -1.813  -7.828  0.00  0.00    -0.303 N 
ATOM     41  H   LIG d   1       4.299  -3.873  -7.907  0.00  0.00     0.044 H 
ATOM     42  H   LIG d   1       5.720  -2.789  -7.726  0.00  0.00     0.044 H 
ATOM     43  C   LIG d   1       4.321  -0.578  -7.184  0.00  0.00     0.011 C 
ATOM     44  C   LIG d   1       4.252  -0.740  -5.665  0.00  0.00     0.012 C 
ATOM     45  H   LIG d   1       3.684   0.263  -7.494  0.00  0.00     0.044 H 
ATOM     46  H   LIG d   1       5.362  -0.379  -7.484  0.00  0.00     0.044 H 
ATOM     47  H   LIG d   1       3.208  -0.911  -5.361  0.00  0.00     0.044 H 
ATOM     48  H   LIG d   1       4.629   0.172  -5.179  0.00  0.00     0.044 H 
BRANCH  40  49
ATOM     49  C   LIG d   1       3.834  -1.670  -9.290  0.00  0.00    -0.013 C 
ATOM     50  H   LIG d   1       3.204  -0.810  -9.566  0.00  0.00     0.039 H 
ATOM     51  H   LIG d   1       3.424  -2.584  -9.744  0.00  0.00     0.039 H 
ATOM     52  H   LIG d   1       4.858  -1.506  -9.656  0.00  0.00     0.039 H 
ENDBRANCH  40  49
ENDBRANCH   3  35
BRANCH   7  53
ATOM     53  C   LIG d   1       3.472   0.951  -2.302  0.00  0.00     0.073 C 
ATOM     54  H   LIG d   1       2.452   0.638  -2.571  0.00  0.00     0.058 H 
ATOM     55  H   LIG d   1       3.459   1.432  -1.312  0.00  0.00     0.058 H 
BRANCH  53  56
ATOM     56  O   LIG d   1       3.957   1.878  -3.275  0.00  0.00    -0.392 OA
ATOM     57  H   LIG d   1       4.966   1.754  -3.699  0.00  0.00     0.209 HD
ENDBRANCH  53  56
ENDBRANCH   7  53
BRANCH   5  58
ATOM     58  O   LIG d   1       2.996  -0.840  -4.192  0.00  0.00    -0.388 OA
ATOM     59  H   LIG d   1       2.692  -1.460  -5.049  0.00  0.00     0.210 HD
ENDBRANCH   5  58
TORSDOF 9
ENDMDL
MODEL 9
REMARK VINA RESULT:      -4.9      3.737      5.632
REMARK  9 active torsions:
REMARK  status: ('A' for Active; 'I' for Inactive)
REMARK    1  A    between atoms: C_1  and  N_2 
REMARK    2  A    between atoms: C_5  and  N_8 
REMARK    3  A    between atoms: N_8  and  C_9 
REMARK    4  A    between atoms: C_9  and  C_10 
REMARK    5  A    between atoms: C_12  and  N_22 
REMARK    6  A    between atoms: C_14  and  O_21 
REMARK    7  A    between atoms: C_16  and  C_19 
REMARK    8  A    between atoms: C_19  and  O_20 
REMARK    9  A    between atoms: N_25  and  C_28 
ROOT
ATOM      1  C   LIG d   1       6.269  -1.631  -3.309  0.00  0.00     0.090 C 
ATOM      2  H   LIG d   1       6.706  -2.115  -2.422  0.00  0.00     0.062 H 
ATOM      3  C   LIG d   1       5.061  -2.386  -3.906  0.00  0.00     0.066 C 
ATOM      4  H   LIG d   1       5.090  -3.474  -3.748  0.00  0.00     0.051 H 
ATOM      5  C   LIG d   1       3.834  -1.692  -3.271  0.00  0.00     0.101 C 
ATOM      6  H   LIG d   1       3.134  -2.370  -2.761  0.00  0.00     0.064 H 
ATOM      7  C   LIG d   1       4.447  -0.601  -2.366  0.00  0.00     0.109 C 
ATOM      8  H   LIG d   1       4.569  -0.905  -1.316  0.00  0.00     0.065 H 
ATOM      9  O   LIG d   1       5.748  -0.338  -2.935  0.00  0.00    -0.366 OA
ENDROOT
BRANCH   1  10
ATOM     10  C   LIG d   1       7.372  -1.479  -4.358  0.00  0.00     0.024 C 
ATOM     11  H   LIG d   1       7.552  -0.411  -4.548  0.00  0.00     0.045 H 
ATOM     12  H   LIG d   1       7.061  -1.970  -5.292  0.00  0.00     0.045 H 
BRANCH  10  13
ATOM     13  N   LIG d   1       8.606  -2.104  -3.864  0.00  0.00    -0.310 N 
ATOM     14  H   LIG d   1       8.855  -1.670  -2.885  0.00  0.00     0.122 HD
BRANCH  13  15
ATOM     15  C   LIG d   1       8.441  -3.558  -3.727  0.00  0.00     0.017 C 
ATOM     16  C   LIG d   1       9.680  -4.152  -3.048  0.00  0.00     0.003 C 
ATOM     17  C   LIG d   1       9.530  -5.671  -2.963  0.00  0.00    -0.031 C 
ATOM     18  H   LIG d   1       9.780  -3.735  -2.035  0.00  0.00     0.033 H 
ATOM     19  H   LIG d   1      10.576  -3.904  -3.637  0.00  0.00     0.033 H 
ATOM     20  N   LIG d   1       9.375  -6.226  -4.315  0.00  0.00     0.233 N 
ATOM     21  H   LIG d   1       8.642  -5.920  -2.362  0.00  0.00     0.082 H 
ATOM     22  H   LIG d   1      10.424  -6.103  -2.489  0.00  0.00     0.082 H 
ATOM     23  C   LIG d   1       8.168  -5.706  -4.968  0.00  0.00    -0.031 C 
ATOM     24  H   LIG d   1      10.243  -5.904  -4.910  0.00  0.00     0.203 HD
ATOM     25  C   LIG d   1       8.278  -4.187  -5.113  0.00  0.00     0.003 C 
ATOM     26  H   LIG d   1       8.064  -6.163  -5.963  0.00  0.00     0.082 H 
ATOM     27  H   LIG d   1       7.286  -5.954  -4.358  0.00  0.00     0.082 H 
ATOM     28  H   LIG d   1       7.366  -3.795  -5.588  0.00  0.00     0.033 H 
ATOM     29  H   LIG d   1       9.151  -3.939  -5.735  0.00  0.00     0.033 H 
ATOM     30  H   LIG d   1       7.544  -3.725  -3.114  0.00  0.00     0.046 H 
BRANCH  20  31
ATOM     31  C   LIG d   1       9.367  -7.695  -4.284  0.00  0.00    -0.043 C 
ATOM     32  H   LIG d   1       9.971  -8.047  -3.434  0.00  0.00     0.078 H 
ATOM     33  H   LIG d   1       9.792  -8.084  -5.221  0.00  0.00     0.078 H 
ATOM     34  H   LIG d   1       8.333  -8.053  -4.172  0.00  0.00     0.078 H 
ENDBRANCH  20  31
ENDBRANCH  13  15
ENDBRANCH  10  13
ENDBRANCH   1  10
BRANCH   3  35
ATOM     35  N   LIG d   1       5.034  -2.242  -5.367  0.00  0.00    -0.292 N 
ATOM     36  C   LIG d   1       4.546  -3.470  -6.009  0.00  0.00     0.012 C 
ATOM     37  C   LIG d   1       4.608  -3.308  -7.530  0.00  0.00     0.011 C 
ATOM     38  H   LIG d   1       5.176  -4.319  -5.704  0.00  0.00     0.044 H 
ATOM     39  H   LIG d   1       3.506  -3.656  -5.702  0.00  0.00     0.044 H 
ATOM     40  N   LIG d   1       3.796  -2.149  -7.930  0.00  0.00    -0.303 N 
ATOM     41  H   LIG d   1       4.216  -4.215  -8.013  0.00  0.00     0.044 H 
ATOM     42  H   LIG d   1       5.651  -3.149  -7.840  0.00  0.00     0.044 H 
ATOM     43  C   LIG d   1       4.285  -0.921  -7.288  0.00  0.00     0.011 C 
ATOM     44  C   LIG d   1       4.222  -1.083  -5.768  0.00  0.00     0.012 C 
ATOM     45  H   LIG d   1       3.656  -0.072  -7.592  0.00  0.00     0.044 H 
ATOM     46  H   LIG d   1       5.325  -0.735  -7.594  0.00  0.00     0.044 H 
ATOM     47  H   LIG d   1       3.179  -1.242  -5.458  0.00  0.00     0.044 H 
ATOM     48  H   LIG d   1       4.615  -0.177  -5.284  0.00  0.00     0.044 H 
BRANCH  40  49
ATOM     49  C   LIG d   1       3.770  -2.004  -9.392  0.00  0.00    -0.013 C 
ATOM     50  H   LIG d   1       3.472  -0.978  -9.652  0.00  0.00     0.039 H 
ATOM     51  H   LIG d   1       3.047  -2.715  -9.818  0.00  0.00     0.039 H 
ATOM     52  H   LIG d   1       4.771  -2.210  -9.799  0.00  0.00     0.039 H 
ENDBRANCH  40  49
ENDBRANCH   3  35
BRANCH   7  53
ATOM     53  C   LIG d   1       3.585   0.663  -2.396  0.00  0.00     0.073 C 
ATOM     54  H   LIG d   1       2.553   0.396  -2.667  0.00  0.00     0.058 H 
ATOM     55  H   LIG d   1       3.593   1.136  -1.402  0.00  0.00     0.058 H 
BRANCH  53  56
ATOM     56  O   LIG d   1       4.111   1.575  -3.362  0.00  0.00    -0.392 OA
ATOM     57  H   LIG d   1       5.098   1.390  -3.813  0.00  0.00     0.209 HD
ENDBRANCH  53  56
ENDBRANCH   7  53
BRANCH   5  58
ATOM     58  O   LIG d   1       3.013  -1.105  -4.282  0.00  0.00    -0.388 OA
ATOM     59  H   LIG d   1       1.918  -1.104  -4.169  0.00  0.00     0.210 HD
ENDBRANCH   5  58
TORSDOF 9
ENDMDL
