MODEL 1
REMARK VINA RESULT:      -6.9      0.000      0.000
REMARK  6 active torsions:
REMARK  status: ('A' for Active; 'I' for Inactive)
REMARK    1  A    between atoms: C_5  and  N_11 
REMARK       I    between atoms: N_11  and  C_12 
REMARK    2  A    between atoms: C_12  and  C_14 
REMARK    3  A    between atoms: C_14  and  C_15 
REMARK    4  A    between atoms: C_15  and  C_16 
REMARK    5  A    between atoms: C_16  and  C_17 
REMARK    6  A    between atoms: C_17  and  C_18 
ROOT
ATOM      1  C   LIG d   1      10.453   3.931  -6.148  0.00  0.00    -0.045 C 
ATOM      2  H   LIG d   1      11.493   4.076  -6.442  0.00  0.00     0.027 H 
ATOM      3  H   LIG d   1      10.416   3.422  -5.185  0.00  0.00     0.027 H 
ENDROOT
BRANCH   1   4
ATOM      4  C   LIG d   1       9.739   3.083  -7.202  0.00  0.00     0.024 C 
ATOM      5  H   LIG d   1       9.201   3.734  -7.889  0.00  0.00     0.036 H 
ATOM      6  H   LIG d   1      10.472   2.497  -7.755  0.00  0.00     0.036 H 
BRANCH   4   7
ATOM      7  C   LIG d   1       8.764   2.155  -6.523  0.00  0.00     0.217 C 
ATOM      8  N   LIG d   1       9.064   1.626  -5.320  0.00  0.00    -0.285 N 
ATOM      9  H   LIG d   1       9.937   1.781  -4.926  0.00  0.00     0.155 HD
ATOM     10  O   LIG d   1       7.710   1.884  -7.058  0.00  0.00    -0.276 OA
BRANCH   8  11
ATOM     11  C   LIG d   1       8.116   0.854  -4.639  0.00  0.00     0.034 A 
ATOM     12  C   LIG d   1       7.143   1.475  -3.887  0.00  0.00    -0.031 A 
ATOM     13  C   LIG d   1       6.193   0.696  -3.211  0.00  0.00     0.002 A 
ATOM     14  H   LIG d   1       7.110   2.553  -3.823  0.00  0.00     0.064 H 
ATOM     15  C   LIG d   1       5.178   1.290  -2.435  0.00  0.00    -0.051 A 
ATOM     16  C   LIG d   1       6.250  -0.717  -3.299  0.00  0.00     0.071 A 
ATOM     17  C   LIG d   1       4.290   0.471  -1.799  0.00  0.00    -0.043 A 
ATOM     18  H   LIG d   1       5.105   2.364  -2.346  0.00  0.00     0.062 H 
ATOM     19  C   LIG d   1       4.403  -0.911  -1.928  0.00  0.00     0.028 A 
ATOM     20  H   LIG d   1       3.499   0.894  -1.196  0.00  0.00     0.063 H 
ATOM     21  N   LIG d   1       5.349  -1.461  -2.651  0.00  0.00    -0.255 NA
ATOM     22  H   LIG d   1       3.694  -1.547  -1.420  0.00  0.00     0.083 H 
ATOM     23  C   LIG d   1       7.261  -1.317  -4.072  0.00  0.00    -0.034 A 
ATOM     24  C   LIG d   1       8.168  -0.542  -4.723  0.00  0.00    -0.038 A 
ATOM     25  H   LIG d   1       7.317  -2.393  -4.148  0.00  0.00     0.064 H 
ATOM     26  H   LIG d   1       8.942  -1.011  -5.313  0.00  0.00     0.064 H 
ENDBRANCH   8  11
ENDBRANCH   4   7
ENDBRANCH   1   4
BRANCH   1  27
ATOM     27  C   LIG d   1       9.761   5.291  -6.032  0.00  0.00    -0.052 C 
ATOM     28  H   LIG d   1       8.842   5.281  -6.618  0.00  0.00     0.027 H 
ATOM     29  H   LIG d   1      10.424   6.069  -6.410  0.00  0.00     0.027 H 
BRANCH  27  30
ATOM     30  C   LIG d   1       9.428   5.571  -4.566  0.00  0.00    -0.039 C 
ATOM     31  H   LIG d   1       8.761   4.797  -4.189  0.00  0.00     0.028 H 
ATOM     32  H   LIG d   1       8.941   6.542  -4.483  0.00  0.00     0.028 H 
BRANCH  30  33
ATOM     33  C   LIG d   1      10.719   5.577  -3.743  0.00  0.00     0.025 C 
ATOM     34  H   LIG d   1      11.591   5.450  -4.384  0.00  0.00     0.043 H 
ATOM     35  S   LIG d   1      10.670   4.285  -2.426  0.00  0.00    -0.154 SA
ATOM     36  C   LIG d   1      11.735   5.159  -1.198  0.00  0.00     0.014 C 
ATOM     37  C   LIG d   1      11.394   6.636  -1.495  0.00  0.00     0.053 A 
ATOM     38  H   LIG d   1      12.790   4.956  -1.381  0.00  0.00     0.040 H 
ATOM     39  H   LIG d   1      11.458   4.891  -0.179  0.00  0.00     0.040 H 
ATOM     40  C   LIG d   1      10.833   6.866  -2.901  0.00  0.00     0.056 A 
ATOM     41  H   LIG d   1      12.274   7.260  -1.336  0.00  0.00     0.052 H 
ATOM     42  N   LIG d   1      10.310   7.068  -0.601  0.00  0.00    -0.294 N 
ATOM     43  H   LIG d   1      11.436   7.605  -3.429  0.00  0.00     0.053 H 
ATOM     44  N   LIG d   1       9.485   7.406  -2.663  0.00  0.00    -0.294 N 
ATOM     45  C   LIG d   1       9.274   7.486  -1.342  0.00  0.00     0.300 A 
ATOM     46  H   LIG d   1       8.852   7.664  -3.351  0.00  0.00     0.151 HD
ATOM     47  O   LIG d   1       8.238   7.900  -0.860  0.00  0.00    -0.253 OA
ATOM     48  H   LIG d   1      10.338   7.052   0.368  0.00  0.00     0.151 HD
ENDBRANCH  30  33
ENDBRANCH  27  30
ENDBRANCH   1  27
TORSDOF 6
ENDMDL
MODEL 2
REMARK VINA RESULT:      -6.8      2.852      8.589
REMARK  6 active torsions:
REMARK  status: ('A' for Active; 'I' for Inactive)
REMARK    1  A    between atoms: C_5  and  N_11 
REMARK       I    between atoms: N_11  and  C_12 
REMARK    2  A    between atoms: C_12  and  C_14 
REMARK    3  A    between atoms: C_14  and  C_15 
REMARK    4  A    between atoms: C_15  and  C_16 
REMARK    5  A    between atoms: C_16  and  C_17 
REMARK    6  A    between atoms: C_17  and  C_18 
ROOT
ATOM      1  C   LIG d   1       8.101   1.874  -4.395  0.00  0.00    -0.045 C 
ATOM      2  H   LIG d   1       8.383   1.539  -5.394  0.00  0.00     0.027 H 
ATOM      3  H   LIG d   1       7.508   2.785  -4.472  0.00  0.00     0.027 H 
ENDROOT
BRANCH   1   4
ATOM      4  C   LIG d   1       9.362   2.153  -3.575  0.00  0.00     0.024 C 
ATOM      5  H   LIG d   1       9.248   1.728  -2.579  0.00  0.00     0.036 H 
ATOM      6  H   LIG d   1      10.222   1.701  -4.067  0.00  0.00     0.036 H 
BRANCH   4   7
ATOM      7  C   LIG d   1       9.571   3.642  -3.466  0.00  0.00     0.217 C 
ATOM      8  N   LIG d   1      10.161   4.161  -2.372  0.00  0.00    -0.285 N 
ATOM      9  H   LIG d   1      10.383   3.587  -1.622  0.00  0.00     0.155 HD
ATOM     10  O   LIG d   1       9.208   4.373  -4.364  0.00  0.00    -0.276 OA
BRANCH   8  11
ATOM     11  C   LIG d   1      10.455   5.528  -2.317  0.00  0.00     0.034 A 
ATOM     12  C   LIG d   1       9.607   6.382  -1.647  0.00  0.00    -0.031 A 
ATOM     13  C   LIG d   1       9.909   7.751  -1.591  0.00  0.00     0.002 A 
ATOM     14  H   LIG d   1       8.719   6.000  -1.166  0.00  0.00     0.064 H 
ATOM     15  C   LIG d   1       9.072   8.658  -0.913  0.00  0.00    -0.051 A 
ATOM     16  C   LIG d   1      11.076   8.240  -2.232  0.00  0.00     0.071 A 
ATOM     17  C   LIG d   1       9.425   9.977  -0.905  0.00  0.00    -0.043 A 
ATOM     18  H   LIG d   1       8.176   8.320  -0.414  0.00  0.00     0.062 H 
ATOM     19  C   LIG d   1      10.585  10.391  -1.555  0.00  0.00     0.028 A 
ATOM     20  H   LIG d   1       8.805  10.700  -0.394  0.00  0.00     0.063 H 
ATOM     21  N   LIG d   1      11.363   9.544  -2.185  0.00  0.00    -0.255 NA
ATOM     22  H   LIG d   1      10.853  11.437  -1.539  0.00  0.00     0.083 H 
ATOM     23  C   LIG d   1      11.916   7.338  -2.911  0.00  0.00    -0.034 A 
ATOM     24  C   LIG d   1      11.606   6.016  -2.947  0.00  0.00    -0.038 A 
ATOM     25  H   LIG d   1      12.807   7.698  -3.404  0.00  0.00     0.064 H 
ATOM     26  H   LIG d   1      12.256   5.331  -3.472  0.00  0.00     0.064 H 
ENDBRANCH   8  11
ENDBRANCH   4   7
ENDBRANCH   1   4
BRANCH   1  27
ATOM     27  C   LIG d   1       7.275   0.785  -3.707  0.00  0.00    -0.052 C 
ATOM     28  H   LIG d   1       7.878   0.304  -2.937  0.00  0.00     0.027 H 
ATOM     29  H   LIG d   1       6.968   0.043  -4.444  0.00  0.00     0.027 H 
BRANCH  27  30
ATOM     30  C   LIG d   1       6.036   1.413  -3.067  0.00  0.00    -0.039 C 
ATOM     31  H   LIG d   1       5.427   1.884  -3.838  0.00  0.00     0.028 H 
ATOM     32  H   LIG d   1       6.343   2.162  -2.339  0.00  0.00     0.028 H 
BRANCH  30  33
ATOM     33  C   LIG d   1       5.219   0.325  -2.365  0.00  0.00     0.025 C 
ATOM     34  H   LIG d   1       5.411   0.325  -1.292  0.00  0.00     0.043 H 
ATOM     35  S   LIG d   1       5.556  -1.334  -3.098  0.00  0.00    -0.154 SA
ATOM     36  C   LIG d   1       3.899  -2.078  -2.774  0.00  0.00     0.014 C 
ATOM     37  C   LIG d   1       2.982  -0.839  -2.885  0.00  0.00     0.053 A 
ATOM     38  H   LIG d   1       3.853  -2.510  -1.775  0.00  0.00     0.040 H 
ATOM     39  H   LIG d   1       3.647  -2.819  -3.532  0.00  0.00     0.040 H 
ATOM     40  C   LIG d   1       3.712   0.488  -2.659  0.00  0.00     0.056 A 
ATOM     41  H   LIG d   1       2.147  -0.930  -2.190  0.00  0.00     0.052 H 
ATOM     42  N   LIG d   1       2.475  -0.739  -4.262  0.00  0.00    -0.294 N 
ATOM     43  H   LIG d   1       3.233   1.047  -1.855  0.00  0.00     0.053 H 
ATOM     44  N   LIG d   1       3.545   1.208  -3.930  0.00  0.00    -0.294 N 
ATOM     45  C   LIG d   1       2.837   0.445  -4.775  0.00  0.00     0.300 A 
ATOM     46  H   LIG d   1       3.891   2.093  -4.126  0.00  0.00     0.151 HD
ATOM     47  O   LIG d   1       2.550   0.795  -5.903  0.00  0.00    -0.253 OA
ATOM     48  H   LIG d   1       1.962  -1.419  -4.724  0.00  0.00     0.151 HD
ENDBRANCH  30  33
ENDBRANCH  27  30
ENDBRANCH   1  27
TORSDOF 6
ENDMDL
MODEL 3
REMARK VINA RESULT:      -6.6      1.812      2.002
REMARK  6 active torsions:
REMARK  status: ('A' for Active; 'I' for Inactive)
REMARK    1  A    between atoms: C_5  and  N_11 
REMARK       I    between atoms: N_11  and  C_12 
REMARK    2  A    between atoms: C_12  and  C_14 
REMARK    3  A    between atoms: C_14  and  C_15 
REMARK    4  A    between atoms: C_15  and  C_16 
REMARK    5  A    between atoms: C_16  and  C_17 
REMARK    6  A    between atoms: C_17  and  C_18 
ROOT
ATOM      1  C   LIG d   1       9.496   4.545  -6.867  0.00  0.00    -0.045 C 
ATOM      2  H   LIG d   1       8.425   4.529  -6.659  0.00  0.00     0.027 H 
ATOM      3  H   LIG d   1       9.659   4.822  -7.908  0.00  0.00     0.027 H 
ENDROOT
BRANCH   1   4
ATOM      4  C   LIG d   1      10.087   3.158  -6.609  0.00  0.00     0.024 C 
ATOM      5  H   LIG d   1      10.489   2.756  -7.538  0.00  0.00     0.036 H 
ATOM      6  H   LIG d   1      10.884   3.235  -5.870  0.00  0.00     0.036 H 
BRANCH   4   7
ATOM      7  C   LIG d   1       9.008   2.242  -6.090  0.00  0.00     0.217 C 
ATOM      8  N   LIG d   1       9.234   1.489  -4.995  0.00  0.00    -0.285 N 
ATOM      9  H   LIG d   1      10.114   1.479  -4.585  0.00  0.00     0.155 HD
ATOM     10  O   LIG d   1       7.938   2.182  -6.656  0.00  0.00    -0.276 OA
BRANCH   8  11
ATOM     11  C   LIG d   1       8.199   0.722  -4.447  0.00  0.00     0.034 A 
ATOM     12  C   LIG d   1       7.229   1.332  -3.682  0.00  0.00    -0.031 A 
ATOM     13  C   LIG d   1       6.192   0.558  -3.141  0.00  0.00     0.002 A 
ATOM     14  H   LIG d   1       7.266   2.396  -3.505  0.00  0.00     0.064 H 
ATOM     15  C   LIG d   1       5.177   1.141  -2.357  0.00  0.00    -0.051 A 
ATOM     16  C   LIG d   1       6.159  -0.839  -3.377  0.00  0.00     0.071 A 
ATOM     17  C   LIG d   1       4.202   0.328  -1.856  0.00  0.00    -0.043 A 
ATOM     18  H   LIG d   1       5.171   2.203  -2.157  0.00  0.00     0.062 H 
ATOM     19  C   LIG d   1       4.229  -1.038  -2.127  0.00  0.00     0.028 A 
ATOM     20  H   LIG d   1       3.408   0.743  -1.251  0.00  0.00     0.063 H 
ATOM     21  N   LIG d   1       5.174  -1.578  -2.857  0.00  0.00    -0.255 NA
ATOM     22  H   LIG d   1       3.450  -1.670  -1.725  0.00  0.00     0.083 H 
ATOM     23  C   LIG d   1       7.169  -1.428  -4.159  0.00  0.00    -0.034 A 
ATOM     24  C   LIG d   1       8.162  -0.658  -4.678  0.00  0.00    -0.038 A 
ATOM     25  H   LIG d   1       7.157  -2.491  -4.346  0.00  0.00     0.064 H 
ATOM     26  H   LIG d   1       8.934  -1.119  -5.276  0.00  0.00     0.064 H 
ENDBRANCH   8  11
ENDBRANCH   4   7
ENDBRANCH   1   4
BRANCH   1  27
ATOM     27  C   LIG d   1      10.176   5.568  -5.955  0.00  0.00    -0.052 C 
ATOM     28  H   LIG d   1      10.478   6.435  -6.544  0.00  0.00     0.027 H 
ATOM     29  H   LIG d   1      11.056   5.117  -5.497  0.00  0.00     0.027 H 
BRANCH  27  30
ATOM     30  C   LIG d   1       9.200   6.008  -4.863  0.00  0.00    -0.039 C 
ATOM     31  H   LIG d   1       8.636   5.145  -4.510  0.00  0.00     0.028 H 
ATOM     32  H   LIG d   1       8.513   6.750  -5.267  0.00  0.00     0.028 H 
BRANCH  30  33
ATOM     33  C   LIG d   1       9.982   6.618  -3.696  0.00  0.00     0.025 C 
ATOM     34  H   LIG d   1       9.595   7.604  -3.442  0.00  0.00     0.043 H 
ATOM     35  S   LIG d   1      11.786   6.690  -4.074  0.00  0.00    -0.154 SA
ATOM     36  C   LIG d   1      12.398   6.513  -2.342  0.00  0.00     0.014 C 
ATOM     37  C   LIG d   1      11.299   5.624  -1.720  0.00  0.00     0.053 A 
ATOM     38  H   LIG d   1      12.447   7.481  -1.844  0.00  0.00     0.040 H 
ATOM     39  H   LIG d   1      13.366   6.013  -2.318  0.00  0.00     0.040 H 
ATOM     40  C   LIG d   1       9.964   5.682  -2.469  0.00  0.00     0.056 A 
ATOM     41  H   LIG d   1      11.153   5.890  -0.673  0.00  0.00     0.052 H 
ATOM     42  N   LIG d   1      11.706   4.214  -1.823  0.00  0.00    -0.294 N 
ATOM     43  H   LIG d   1       9.165   5.974  -1.787  0.00  0.00     0.053 H 
ATOM     44  N   LIG d   1       9.748   4.299  -2.921  0.00  0.00    -0.294 N 
ATOM     45  C   LIG d   1      10.776   3.541  -2.514  0.00  0.00     0.300 A 
ATOM     46  H   LIG d   1       8.985   3.985  -3.431  0.00  0.00     0.151 HD
ATOM     47  O   LIG d   1      10.857   2.351  -2.750  0.00  0.00    -0.253 OA
ATOM     48  H   LIG d   1      12.517   3.833  -1.451  0.00  0.00     0.151 HD
ENDBRANCH  30  33
ENDBRANCH  27  30
ENDBRANCH   1  27
TORSDOF 6
ENDMDL
MODEL 4
REMARK VINA RESULT:      -6.6      1.783      2.334
REMARK  6 active torsions:
REMARK  status: ('A' for Active; 'I' for Inactive)
REMARK    1  A    between atoms: C_5  and  N_11 
REMARK       I    between atoms: N_11  and  C_12 
REMARK    2  A    between atoms: C_12  and  C_14 
REMARK    3  A    between atoms: C_14  and  C_15 
REMARK    4  A    between atoms: C_15  and  C_16 
REMARK    5  A    between atoms: C_16  and  C_17 
REMARK    6  A    between atoms: C_17  and  C_18 
ROOT
ATOM      1  C   LIG d   1       9.674   4.380  -4.519  0.00  0.00    -0.045 C 
ATOM      2  H   LIG d   1       8.629   4.572  -4.763  0.00  0.00     0.027 H 
ATOM      3  H   LIG d   1      10.304   5.114  -5.021  0.00  0.00     0.027 H 
ENDROOT
BRANCH   1   4
ATOM      4  C   LIG d   1      10.057   2.974  -4.983  0.00  0.00     0.024 C 
ATOM      5  H   LIG d   1      10.431   3.019  -6.005  0.00  0.00     0.036 H 
ATOM      6  H   LIG d   1      10.832   2.575  -4.330  0.00  0.00     0.036 H 
BRANCH   4   7
ATOM      7  C   LIG d   1       8.845   2.080  -4.930  0.00  0.00     0.217 C 
ATOM      8  N   LIG d   1       8.698   1.205  -3.916  0.00  0.00    -0.285 N 
ATOM      9  H   LIG d   1       9.406   1.096  -3.262  0.00  0.00     0.155 HD
ATOM     10  O   LIG d   1       8.002   2.148  -5.799  0.00  0.00    -0.276 OA
BRANCH   8  11
ATOM     11  C   LIG d   1       7.522   0.453  -3.805  0.00  0.00     0.034 A 
ATOM     12  C   LIG d   1       6.389   1.033  -3.278  0.00  0.00    -0.031 A 
ATOM     13  C   LIG d   1       5.213   0.276  -3.174  0.00  0.00     0.002 A 
ATOM     14  H   LIG d   1       6.406   2.062  -2.951  0.00  0.00     0.064 H 
ATOM     15  C   LIG d   1       4.031   0.830  -2.646  0.00  0.00    -0.051 A 
ATOM     16  C   LIG d   1       5.206  -1.076  -3.602  0.00  0.00     0.071 A 
ATOM     17  C   LIG d   1       2.924   0.033  -2.568  0.00  0.00    -0.043 A 
ATOM     18  H   LIG d   1       4.000   1.856  -2.311  0.00  0.00     0.062 H 
ATOM     19  C   LIG d   1       2.986  -1.287  -3.007  0.00  0.00     0.028 A 
ATOM     20  H   LIG d   1       2.001   0.427  -2.168  0.00  0.00     0.063 H 
ATOM     21  N   LIG d   1       4.088  -1.800  -3.499  0.00  0.00    -0.255 NA
ATOM     22  H   LIG d   1       2.103  -1.905  -2.941  0.00  0.00     0.083 H 
ATOM     23  C   LIG d   1       6.383  -1.635  -4.131  0.00  0.00    -0.034 A 
ATOM     24  C   LIG d   1       7.510  -0.882  -4.227  0.00  0.00    -0.038 A 
ATOM     25  H   LIG d   1       6.392  -2.664  -4.460  0.00  0.00     0.064 H 
ATOM     26  H   LIG d   1       8.410  -1.320  -4.633  0.00  0.00     0.064 H 
ENDBRANCH   8  11
ENDBRANCH   4   7
ENDBRANCH   1   4
BRANCH   1  27
ATOM     27  C   LIG d   1       9.872   4.490  -3.005  0.00  0.00    -0.052 C 
ATOM     28  H   LIG d   1      10.357   3.585  -2.636  0.00  0.00     0.027 H 
ATOM     29  H   LIG d   1       8.903   4.606  -2.520  0.00  0.00     0.027 H 
BRANCH  27  30
ATOM     30  C   LIG d   1      10.749   5.703  -2.692  0.00  0.00    -0.039 C 
ATOM     31  H   LIG d   1      11.528   5.794  -3.448  0.00  0.00     0.028 H 
ATOM     32  H   LIG d   1      11.208   5.576  -1.712  0.00  0.00     0.028 H 
BRANCH  30  33
ATOM     33  C   LIG d   1       9.888   6.968  -2.691  0.00  0.00     0.025 C 
ATOM     34  H   LIG d   1       9.008   6.841  -3.322  0.00  0.00     0.043 H 
ATOM     35  S   LIG d   1      10.872   8.439  -3.216  0.00  0.00    -0.154 SA
ATOM     36  C   LIG d   1       9.952   9.702  -2.234  0.00  0.00     0.014 C 
ATOM     37  C   LIG d   1       9.524   8.875  -1.001  0.00  0.00     0.053 A 
ATOM     38  H   LIG d   1       9.084  10.066  -2.782  0.00  0.00     0.040 H 
ATOM     39  H   LIG d   1      10.605  10.525  -1.945  0.00  0.00     0.040 H 
ATOM     40  C   LIG d   1       9.489   7.365  -1.254  0.00  0.00     0.056 A 
ATOM     41  H   LIG d   1       8.553   9.217  -0.642  0.00  0.00     0.052 H 
ATOM     42  N   LIG d   1      10.530   9.037   0.059  0.00  0.00    -0.294 N 
ATOM     43  H   LIG d   1       8.501   6.969  -1.018  0.00  0.00     0.053 H 
ATOM     44  N   LIG d   1      10.479   6.823  -0.312  0.00  0.00    -0.294 N 
ATOM     45  C   LIG d   1      11.016   7.832   0.387  0.00  0.00     0.300 A 
ATOM     46  H   LIG d   1      10.707   5.885  -0.212  0.00  0.00     0.151 HD
ATOM     47  O   LIG d   1      11.867   7.669   1.240  0.00  0.00    -0.253 OA
ATOM     48  H   LIG d   1      10.799   9.880   0.457  0.00  0.00     0.151 HD
ENDBRANCH  30  33
ENDBRANCH  27  30
ENDBRANCH   1  27
TORSDOF 6
ENDMDL
MODEL 5
REMARK VINA RESULT:      -6.5      4.920      7.511
REMARK  6 active torsions:
REMARK  status: ('A' for Active; 'I' for Inactive)
REMARK    1  A    between atoms: C_5  and  N_11 
REMARK       I    between atoms: N_11  and  C_12 
REMARK    2  A    between atoms: C_12  and  C_14 
REMARK    3  A    between atoms: C_14  and  C_15 
REMARK    4  A    between atoms: C_15  and  C_16 
REMARK    5  A    between atoms: C_16  and  C_17 
REMARK    6  A    between atoms: C_17  and  C_18 
ROOT
ATOM      1  C   LIG d   1       7.895   1.693  -4.692  0.00  0.00    -0.045 C 
ATOM      2  H   LIG d   1       7.102   2.333  -5.079  0.00  0.00     0.027 H 
ATOM      3  H   LIG d   1       8.648   2.307  -4.197  0.00  0.00     0.027 H 
ENDROOT
BRANCH   1   4
ATOM      4  C   LIG d   1       8.541   0.926  -5.848  0.00  0.00     0.024 C 
ATOM      5  H   LIG d   1       8.988   1.631  -6.547  0.00  0.00     0.036 H 
ATOM      6  H   LIG d   1       9.313   0.263  -5.457  0.00  0.00     0.036 H 
BRANCH   4   7
ATOM      7  C   LIG d   1       7.491   0.111  -6.558  0.00  0.00     0.217 C 
ATOM      8  N   LIG d   1       6.238   0.591  -6.686  0.00  0.00    -0.285 N 
ATOM      9  H   LIG d   1       5.992   1.426  -6.256  0.00  0.00     0.155 HD
ATOM     10  O   LIG d   1       7.773  -0.977  -7.014  0.00  0.00    -0.276 OA
BRANCH   8  11
ATOM     11  C   LIG d   1       5.292  -0.113  -7.440  0.00  0.00     0.034 A 
ATOM     12  C   LIG d   1       4.836   0.415  -8.627  0.00  0.00    -0.031 A 
ATOM     13  C   LIG d   1       3.891  -0.298  -9.380  0.00  0.00     0.002 A 
ATOM     14  H   LIG d   1       5.205   1.368  -8.976  0.00  0.00     0.064 H 
ATOM     15  C   LIG d   1       3.401   0.203 -10.602  0.00  0.00    -0.051 A 
ATOM     16  C   LIG d   1       3.411  -1.545  -8.908  0.00  0.00     0.071 A 
ATOM     17  C   LIG d   1       2.478  -0.542 -11.280  0.00  0.00    -0.043 A 
ATOM     18  H   LIG d   1       3.745   1.150 -10.992  0.00  0.00     0.062 H 
ATOM     19  C   LIG d   1       2.049  -1.759 -10.759  0.00  0.00     0.028 A 
ATOM     20  H   LIG d   1       2.082  -0.186 -12.220  0.00  0.00     0.063 H 
ATOM     21  N   LIG d   1       2.507  -2.223  -9.621  0.00  0.00    -0.255 NA
ATOM     22  H   LIG d   1       1.319  -2.338 -11.306  0.00  0.00     0.083 H 
ATOM     23  C   LIG d   1       3.897  -2.051  -7.688  0.00  0.00    -0.034 A 
ATOM     24  C   LIG d   1       4.816  -1.345  -6.978  0.00  0.00    -0.038 A 
ATOM     25  H   LIG d   1       3.539  -3.000  -7.316  0.00  0.00     0.064 H 
ATOM     26  H   LIG d   1       5.182  -1.741  -6.042  0.00  0.00     0.064 H 
ENDBRANCH   8  11
ENDBRANCH   4   7
ENDBRANCH   1   4
BRANCH   1  27
ATOM     27  C   LIG d   1       7.306   0.701  -3.687  0.00  0.00    -0.052 C 
ATOM     28  H   LIG d   1       8.047   0.477  -2.920  0.00  0.00     0.027 H 
ATOM     29  H   LIG d   1       7.030  -0.218  -4.204  0.00  0.00     0.027 H 
BRANCH  27  30
ATOM     30  C   LIG d   1       6.065   1.312  -3.035  0.00  0.00    -0.039 C 
ATOM     31  H   LIG d   1       5.461   1.808  -3.794  0.00  0.00     0.028 H 
ATOM     32  H   LIG d   1       6.371   2.039  -2.282  0.00  0.00     0.028 H 
BRANCH  30  33
ATOM     33  C   LIG d   1       5.241   0.206  -2.370  0.00  0.00     0.025 C 
ATOM     34  H   LIG d   1       5.474   0.132  -1.308  0.00  0.00     0.043 H 
ATOM     35  S   LIG d   1       5.497  -1.411  -3.220  0.00  0.00    -0.154 SA
ATOM     36  C   LIG d   1       3.830  -2.125  -2.877  0.00  0.00     0.014 C 
ATOM     37  C   LIG d   1       2.950  -0.855  -2.872  0.00  0.00     0.053 A 
ATOM     38  H   LIG d   1       3.809  -2.620  -1.906  0.00  0.00     0.040 H 
ATOM     39  H   LIG d   1       3.526  -2.808  -3.669  0.00  0.00     0.040 H 
ATOM     40  C   LIG d   1       3.730   0.433  -2.592  0.00  0.00     0.056 A 
ATOM     41  H   LIG d   1       2.140  -0.966  -2.151  0.00  0.00     0.052 H 
ATOM     42  N   LIG d   1       2.393  -0.651  -4.218  0.00  0.00    -0.294 N 
ATOM     43  H   LIG d   1       3.300   0.952  -1.735  0.00  0.00     0.053 H 
ATOM     44  N   LIG d   1       3.537   1.238  -3.808  0.00  0.00    -0.294 N 
ATOM     45  C   LIG d   1       2.773   0.552  -4.669  0.00  0.00     0.300 A 
ATOM     46  H   LIG d   1       3.904   2.123  -3.961  0.00  0.00     0.151 HD
ATOM     47  O   LIG d   1       2.454   0.982  -5.760  0.00  0.00    -0.253 OA
ATOM     48  H   LIG d   1       1.841  -1.285  -4.701  0.00  0.00     0.151 HD
ENDBRANCH  30  33
ENDBRANCH  27  30
ENDBRANCH   1  27
TORSDOF 6
ENDMDL
MODEL 6
REMARK VINA RESULT:      -6.2      6.891     11.636
REMARK  6 active torsions:
REMARK  status: ('A' for Active; 'I' for Inactive)
REMARK    1  A    between atoms: C_5  and  N_11 
REMARK       I    between atoms: N_11  and  C_12 
REMARK    2  A    between atoms: C_12  and  C_14 
REMARK    3  A    between atoms: C_14  and  C_15 
REMARK    4  A    between atoms: C_15  and  C_16 
REMARK    5  A    between atoms: C_16  and  C_17 
REMARK    6  A    between atoms: C_17  and  C_18 
ROOT
ATOM      1  C   LIG d   1       8.302  -6.277  -5.448  0.00  0.00    -0.045 C 
ATOM      2  H   LIG d   1       8.982  -6.774  -6.140  0.00  0.00     0.027 H 
ATOM      3  H   LIG d   1       7.852  -5.414  -5.938  0.00  0.00     0.027 H 
ENDROOT
BRANCH   1   4
ATOM      4  C   LIG d   1       9.078  -5.816  -4.213  0.00  0.00     0.024 C 
ATOM      5  H   LIG d   1       8.858  -6.480  -3.377  0.00  0.00     0.036 H 
ATOM      6  H   LIG d   1      10.146  -5.840  -4.425  0.00  0.00     0.036 H 
BRANCH   4   7
ATOM      7  C   LIG d   1       8.668  -4.410  -3.858  0.00  0.00     0.217 C 
ATOM      8  N   LIG d   1       7.815  -3.736  -4.655  0.00  0.00    -0.285 N 
ATOM      9  H   LIG d   1       7.524  -4.126  -5.495  0.00  0.00     0.155 HD
ATOM     10  O   LIG d   1       9.105  -3.884  -2.857  0.00  0.00    -0.276 OA
BRANCH   8  11
ATOM     11  C   LIG d   1       7.348  -2.473  -4.272  0.00  0.00     0.034 A 
ATOM     12  C   LIG d   1       6.241  -2.374  -3.458  0.00  0.00    -0.031 A 
ATOM     13  C   LIG d   1       5.780  -1.106  -3.073  0.00  0.00     0.002 A 
ATOM     14  H   LIG d   1       5.735  -3.265  -3.116  0.00  0.00     0.064 H 
ATOM     15  C   LIG d   1       4.656  -0.959  -2.238  0.00  0.00    -0.051 A 
ATOM     16  C   LIG d   1       6.451   0.055  -3.532  0.00  0.00     0.071 A 
ATOM     17  C   LIG d   1       4.259   0.305  -1.908  0.00  0.00    -0.043 A 
ATOM     18  H   LIG d   1       4.122  -1.823  -1.869  0.00  0.00     0.062 H 
ATOM     19  C   LIG d   1       4.963   1.404  -2.394  0.00  0.00     0.028 A 
ATOM     20  H   LIG d   1       3.400   0.454  -1.269  0.00  0.00     0.063 H 
ATOM     21  N   LIG d   1       6.010   1.264  -3.171  0.00  0.00    -0.255 NA
ATOM     22  H   LIG d   1       4.639   2.398  -2.124  0.00  0.00     0.083 H 
ATOM     23  C   LIG d   1       7.575  -0.085  -4.367  0.00  0.00    -0.034 A 
ATOM     24  C   LIG d   1       8.006  -1.323  -4.722  0.00  0.00    -0.038 A 
ATOM     25  H   LIG d   1       8.094   0.791  -4.725  0.00  0.00     0.064 H 
ATOM     26  H   LIG d   1       8.870  -1.422  -5.364  0.00  0.00     0.064 H 
ENDBRANCH   8  11
ENDBRANCH   4   7
ENDBRANCH   1   4
BRANCH   1  27
ATOM     27  C   LIG d   1       7.202  -7.253  -5.025  0.00  0.00    -0.052 C 
ATOM     28  H   LIG d   1       6.357  -7.168  -5.709  0.00  0.00     0.027 H 
ATOM     29  H   LIG d   1       6.874  -7.015  -4.013  0.00  0.00     0.027 H 
BRANCH  27  30
ATOM     30  C   LIG d   1       7.746  -8.682  -5.061  0.00  0.00    -0.039 C 
ATOM     31  H   LIG d   1       8.269  -8.897  -4.130  0.00  0.00     0.028 H 
ATOM     32  H   LIG d   1       8.436  -8.787  -5.898  0.00  0.00     0.028 H 
BRANCH  30  33
ATOM     33  C   LIG d   1       6.585  -9.666  -5.233  0.00  0.00     0.025 C 
ATOM     34  H   LIG d   1       6.593 -10.108  -6.228  0.00  0.00     0.043 H 
ATOM     35  S   LIG d   1       4.968  -8.847  -4.884  0.00  0.00    -0.154 SA
ATOM     36  C   LIG d   1       4.079 -10.338  -4.258  0.00  0.00     0.014 C 
ATOM     37  C   LIG d   1       5.233 -11.128  -3.601  0.00  0.00     0.053 A 
ATOM     38  H   LIG d   1       3.636 -10.903  -5.078  0.00  0.00     0.040 H 
ATOM     39  H   LIG d   1       3.325 -10.064  -3.521  0.00  0.00     0.040 H 
ATOM     40  C   LIG d   1       6.618 -10.755  -4.140  0.00  0.00     0.056 A 
ATOM     41  H   LIG d   1       5.063 -12.199  -3.713  0.00  0.00     0.052 H 
ATOM     42  N   LIG d   1       5.300 -10.782  -2.173  0.00  0.00    -0.294 N 
ATOM     43  H   LIG d   1       7.125 -11.645  -4.514  0.00  0.00     0.053 H 
ATOM     44  N   LIG d   1       7.331 -10.236  -2.963  0.00  0.00    -0.294 N 
ATOM     45  C   LIG d   1       6.515 -10.287  -1.900  0.00  0.00     0.300 A 
ATOM     46  H   LIG d   1       8.244  -9.910  -2.956  0.00  0.00     0.151 HD
ATOM     47  O   LIG d   1       6.848  -9.919  -0.791  0.00  0.00    -0.253 OA
ATOM     48  H   LIG d   1       4.581 -10.894  -1.532  0.00  0.00     0.151 HD
ENDBRANCH  30  33
ENDBRANCH  27  30
ENDBRANCH   1  27
TORSDOF 6
ENDMDL
MODEL 7
REMARK VINA RESULT:      -6.2      2.781      8.528
REMARK  6 active torsions:
REMARK  status: ('A' for Active; 'I' for Inactive)
REMARK    1  A    between atoms: C_5  and  N_11 
REMARK       I    between atoms: N_11  and  C_12 
REMARK    2  A    between atoms: C_12  and  C_14 
REMARK    3  A    between atoms: C_14  and  C_15 
REMARK    4  A    between atoms: C_15  and  C_16 
REMARK    5  A    between atoms: C_16  and  C_17 
REMARK    6  A    between atoms: C_17  and  C_18 
ROOT
ATOM      1  C   LIG d   1       8.131   2.275  -4.256  0.00  0.00    -0.045 C 
ATOM      2  H   LIG d   1       7.151   2.658  -4.541  0.00  0.00     0.027 H 
ATOM      3  H   LIG d   1       8.296   2.454  -3.193  0.00  0.00     0.027 H 
ENDROOT
BRANCH   1   4
ATOM      4  C   LIG d   1       9.214   2.989  -5.067  0.00  0.00     0.024 C 
ATOM      5  H   LIG d   1       9.950   2.263  -5.408  0.00  0.00     0.036 H 
ATOM      6  H   LIG d   1       8.759   3.478  -5.928  0.00  0.00     0.036 H 
BRANCH   4   7
ATOM      7  C   LIG d   1       9.890   4.022  -4.202  0.00  0.00     0.217 C 
ATOM      8  N   LIG d   1       9.583   4.109  -2.892  0.00  0.00    -0.285 N 
ATOM      9  H   LIG d   1       8.874   3.560  -2.523  0.00  0.00     0.155 HD
ATOM     10  O   LIG d   1      10.710   4.775  -4.683  0.00  0.00    -0.276 OA
BRANCH   8  11
ATOM     11  C   LIG d   1      10.288   4.991  -2.065  0.00  0.00     0.034 A 
ATOM     12  C   LIG d   1       9.762   6.234  -1.789  0.00  0.00    -0.031 A 
ATOM     13  C   LIG d   1      10.471   7.112  -0.956  0.00  0.00     0.002 A 
ATOM     14  H   LIG d   1       8.811   6.528  -2.208  0.00  0.00     0.064 H 
ATOM     15  C   LIG d   1       9.969   8.390  -0.643  0.00  0.00    -0.051 A 
ATOM     16  C   LIG d   1      11.721   6.715  -0.417  0.00  0.00     0.071 A 
ATOM     17  C   LIG d   1      10.715   9.195   0.170  0.00  0.00    -0.043 A 
ATOM     18  H   LIG d   1       9.020   8.725  -1.036  0.00  0.00     0.062 H 
ATOM     19  C   LIG d   1      11.936   8.743   0.665  0.00  0.00     0.028 A 
ATOM     20  H   LIG d   1      10.359  10.182   0.429  0.00  0.00     0.063 H 
ATOM     21  N   LIG d   1      12.401   7.553   0.373  0.00  0.00    -0.255 NA
ATOM     22  H   LIG d   1      12.515   9.390   1.308  0.00  0.00     0.083 H 
ATOM     23  C   LIG d   1      12.229   5.440  -0.725  0.00  0.00    -0.034 A 
ATOM     24  C   LIG d   1      11.522   4.604  -1.531  0.00  0.00    -0.038 A 
ATOM     25  H   LIG d   1      13.180   5.125  -0.322  0.00  0.00     0.064 H 
ATOM     26  H   LIG d   1      11.920   3.627  -1.763  0.00  0.00     0.064 H 
ENDBRANCH   8  11
ENDBRANCH   4   7
ENDBRANCH   1   4
BRANCH   1  27
ATOM     27  C   LIG d   1       8.193   0.772  -4.534  0.00  0.00    -0.052 C 
ATOM     28  H   LIG d   1       9.205   0.410  -4.354  0.00  0.00     0.027 H 
ATOM     29  H   LIG d   1       7.920   0.584  -5.573  0.00  0.00     0.027 H 
BRANCH  27  30
ATOM     30  C   LIG d   1       7.217   0.041  -3.610  0.00  0.00    -0.039 C 
ATOM     31  H   LIG d   1       7.560   0.125  -2.580  0.00  0.00     0.028 H 
ATOM     32  H   LIG d   1       7.169  -1.010  -3.892  0.00  0.00     0.028 H 
BRANCH  30  33
ATOM     33  C   LIG d   1       5.827   0.668  -3.739  0.00  0.00     0.025 C 
ATOM     34  H   LIG d   1       5.895   1.698  -4.086  0.00  0.00     0.043 H 
ATOM     35  S   LIG d   1       4.905   0.565  -2.143  0.00  0.00    -0.154 SA
ATOM     36  C   LIG d   1       3.206   0.465  -2.858  0.00  0.00     0.014 C 
ATOM     37  C   LIG d   1       3.476  -0.285  -4.181  0.00  0.00     0.053 A 
ATOM     38  H   LIG d   1       2.802   1.459  -3.047  0.00  0.00     0.040 H 
ATOM     39  H   LIG d   1       2.543  -0.109  -2.212  0.00  0.00     0.040 H 
ATOM     40  C   LIG d   1       4.925  -0.172  -4.667  0.00  0.00     0.056 A 
ATOM     41  H   LIG d   1       2.793   0.067  -4.955  0.00  0.00     0.052 H 
ATOM     42  N   LIG d   1       3.282  -1.726  -3.966  0.00  0.00    -0.294 N 
ATOM     43  H   LIG d   1       4.949   0.233  -5.679  0.00  0.00     0.053 H 
ATOM     44  N   LIG d   1       5.406  -1.562  -4.678  0.00  0.00    -0.294 N 
ATOM     45  C   LIG d   1       4.418  -2.370  -4.269  0.00  0.00     0.300 A 
ATOM     46  H   LIG d   1       6.295  -1.848  -4.939  0.00  0.00     0.151 HD
ATOM     47  O   LIG d   1       4.540  -3.576  -4.182  0.00  0.00    -0.253 OA
ATOM     48  H   LIG d   1       2.465  -2.144  -3.653  0.00  0.00     0.151 HD
ENDBRANCH  30  33
ENDBRANCH  27  30
ENDBRANCH   1  27
TORSDOF 6
ENDMDL
MODEL 8
REMARK VINA RESULT:      -6.2      2.619      7.943
REMARK  6 active torsions:
REMARK  status: ('A' for Active; 'I' for Inactive)
REMARK    1  A    between atoms: C_5  and  N_11 
REMARK       I    between atoms: N_11  and  C_12 
REMARK    2  A    between atoms: C_12  and  C_14 
REMARK    3  A    between atoms: C_14  and  C_15 
REMARK    4  A    between atoms: C_15  and  C_16 
REMARK    5  A    between atoms: C_16  and  C_17 
REMARK    6  A    between atoms: C_17  and  C_18 
ROOT
ATOM      1  C   LIG d   1       8.192   1.707  -5.680  0.00  0.00    -0.045 C 
ATOM      2  H   LIG d   1       7.850   1.619  -6.712  0.00  0.00     0.027 H 
ATOM      3  H   LIG d   1       7.765   2.605  -5.232  0.00  0.00     0.027 H 
ENDROOT
BRANCH   1   4
ATOM      4  C   LIG d   1       9.719   1.801  -5.655  0.00  0.00     0.024 C 
ATOM      5  H   LIG d   1      10.125   0.951  -5.109  0.00  0.00     0.036 H 
ATOM      6  H   LIG d   1      10.100   1.795  -6.675  0.00  0.00     0.036 H 
BRANCH   4   7
ATOM      7  C   LIG d   1      10.132   3.080  -4.973  0.00  0.00     0.217 C 
ATOM      8  N   LIG d   1       9.204   3.856  -4.378  0.00  0.00    -0.285 N 
ATOM      9  H   LIG d   1       8.263   3.632  -4.453  0.00  0.00     0.155 HD
ATOM     10  O   LIG d   1      11.298   3.411  -4.959  0.00  0.00    -0.276 OA
BRANCH   8  11
ATOM     11  C   LIG d   1       9.598   4.985  -3.650  0.00  0.00     0.034 A 
ATOM     12  C   LIG d   1       9.991   4.847  -2.337  0.00  0.00    -0.031 A 
ATOM     13  C   LIG d   1      10.390   5.982  -1.615  0.00  0.00     0.002 A 
ATOM     14  H   LIG d   1       9.996   3.874  -1.870  0.00  0.00     0.064 H 
ATOM     15  C   LIG d   1      10.804   5.886  -0.272  0.00  0.00    -0.051 A 
ATOM     16  C   LIG d   1      10.374   7.254  -2.239  0.00  0.00     0.071 A 
ATOM     17  C   LIG d   1      11.173   7.032   0.372  0.00  0.00    -0.043 A 
ATOM     18  H   LIG d   1      10.829   4.932   0.234  0.00  0.00     0.062 H 
ATOM     19  C   LIG d   1      11.133   8.251  -0.300  0.00  0.00     0.028 A 
ATOM     20  H   LIG d   1      11.496   6.993   1.403  0.00  0.00     0.063 H 
ATOM     21  N   LIG d   1      10.748   8.337  -1.550  0.00  0.00    -0.255 NA
ATOM     22  H   LIG d   1      11.429   9.149   0.222  0.00  0.00     0.083 H 
ATOM     23  C   LIG d   1       9.961   7.357  -3.579  0.00  0.00    -0.034 A 
ATOM     24  C   LIG d   1       9.584   6.244  -4.261  0.00  0.00    -0.038 A 
ATOM     25  H   LIG d   1       9.943   8.321  -4.067  0.00  0.00     0.064 H 
ATOM     26  H   LIG d   1       9.268   6.332  -5.291  0.00  0.00     0.064 H 
ENDBRANCH   8  11
ENDBRANCH   4   7
ENDBRANCH   1   4
BRANCH   1  27
ATOM     27  C   LIG d   1       7.742   0.478  -4.887  0.00  0.00    -0.052 C 
ATOM     28  H   LIG d   1       8.617  -0.039  -4.492  0.00  0.00     0.027 H 
ATOM     29  H   LIG d   1       7.189  -0.194  -5.543  0.00  0.00     0.027 H 
BRANCH  27  30
ATOM     30  C   LIG d   1       6.843   0.918  -3.731  0.00  0.00    -0.039 C 
ATOM     31  H   LIG d   1       6.056   1.570  -4.109  0.00  0.00     0.028 H 
ATOM     32  H   LIG d   1       7.437   1.456  -2.993  0.00  0.00     0.028 H 
BRANCH  30  33
ATOM     33  C   LIG d   1       6.214  -0.315  -3.077  0.00  0.00     0.025 C 
ATOM     34  H   LIG d   1       6.792  -0.634  -2.210  0.00  0.00     0.043 H 
ATOM     35  S   LIG d   1       6.032  -1.690  -4.295  0.00  0.00    -0.154 SA
ATOM     36  C   LIG d   1       4.535  -2.470  -3.550  0.00  0.00     0.014 C 
ATOM     37  C   LIG d   1       3.814  -1.239  -2.957  0.00  0.00     0.053 A 
ATOM     38  H   LIG d   1       4.811  -3.177  -2.768  0.00  0.00     0.040 H 
ATOM     39  H   LIG d   1       3.924  -2.951  -4.312  0.00  0.00     0.040 H 
ATOM     40  C   LIG d   1       4.742  -0.049  -2.696  0.00  0.00     0.056 A 
ATOM     41  H   LIG d   1       3.295  -1.518  -2.039  0.00  0.00     0.052 H 
ATOM     42  N   LIG d   1       2.845  -0.730  -3.939  0.00  0.00    -0.294 N 
ATOM     43  H   LIG d   1       4.676   0.255  -1.651  0.00  0.00     0.053 H 
ATOM     44  N   LIG d   1       4.206   1.016  -3.557  0.00  0.00    -0.294 N 
ATOM     45  C   LIG d   1       3.141   0.547  -4.221  0.00  0.00     0.300 A 
ATOM     46  H   LIG d   1       4.566   1.914  -3.633  0.00  0.00     0.151 HD
ATOM     47  O   LIG d   1       2.500   1.218  -5.006  0.00  0.00    -0.253 OA
ATOM     48  H   LIG d   1       2.112  -1.236  -4.323  0.00  0.00     0.151 HD
ENDBRANCH  30  33
ENDBRANCH  27  30
ENDBRANCH   1  27
TORSDOF 6
ENDMDL
MODEL 9
REMARK VINA RESULT:      -6.1      7.258     12.102
REMARK  6 active torsions:
REMARK  status: ('A' for Active; 'I' for Inactive)
REMARK    1  A    between atoms: C_5  and  N_11 
REMARK       I    between atoms: N_11  and  C_12 
REMARK    2  A    between atoms: C_12  and  C_14 
REMARK    3  A    between atoms: C_14  and  C_15 
REMARK    4  A    between atoms: C_15  and  C_16 
REMARK    5  A    between atoms: C_16  and  C_17 
REMARK    6  A    between atoms: C_17  and  C_18 
ROOT
ATOM      1  C   LIG d   1       6.597  -6.221  -7.277  0.00  0.00    -0.045 C 
ATOM      2  H   LIG d   1       7.512  -6.717  -7.600  0.00  0.00     0.027 H 
ATOM      3  H   LIG d   1       6.514  -5.254  -7.773  0.00  0.00     0.027 H 
ENDROOT
BRANCH   1   4
ATOM      4  C   LIG d   1       6.635  -6.015  -5.762  0.00  0.00     0.024 C 
ATOM      5  H   LIG d   1       5.877  -6.640  -5.291  0.00  0.00     0.036 H 
ATOM      6  H   LIG d   1       7.619  -6.290  -5.383  0.00  0.00     0.036 H 
BRANCH   4   7
ATOM      7  C   LIG d   1       6.361  -4.567  -5.445  0.00  0.00     0.217 C 
ATOM      8  N   LIG d   1       5.095  -4.105  -5.448  0.00  0.00    -0.285 N 
ATOM      9  H   LIG d   1       4.368  -4.684  -5.727  0.00  0.00     0.155 HD
ATOM     10  O   LIG d   1       7.279  -3.818  -5.187  0.00  0.00    -0.276 OA
BRANCH   8  11
ATOM     11  C   LIG d   1       4.828  -2.791  -5.047  0.00  0.00     0.034 A 
ATOM     12  C   LIG d   1       4.829  -2.473  -3.706  0.00  0.00    -0.031 A 
ATOM     13  C   LIG d   1       4.566  -1.153  -3.311  0.00  0.00     0.002 A 
ATOM     14  H   LIG d   1       5.033  -3.233  -2.967  0.00  0.00     0.064 H 
ATOM     15  C   LIG d   1       4.561  -0.783  -1.952  0.00  0.00    -0.051 A 
ATOM     16  C   LIG d   1       4.294  -0.166  -4.292  0.00  0.00     0.071 A 
ATOM     17  C   LIG d   1       4.291   0.518  -1.639  0.00  0.00    -0.043 A 
ATOM     18  H   LIG d   1       4.765  -1.510  -1.179  0.00  0.00     0.062 H 
ATOM     19  C   LIG d   1       4.032   1.438  -2.652  0.00  0.00     0.028 A 
ATOM     20  H   LIG d   1       4.280   0.835  -0.606  0.00  0.00     0.063 H 
ATOM     21  N   LIG d   1       4.038   1.091  -3.917  0.00  0.00    -0.255 NA
ATOM     22  H   LIG d   1       3.822   2.464  -2.391  0.00  0.00     0.083 H 
ATOM     23  C   LIG d   1       4.297  -0.529  -5.651  0.00  0.00    -0.034 A 
ATOM     24  C   LIG d   1       4.560  -1.813  -6.011  0.00  0.00    -0.038 A 
ATOM     25  H   LIG d   1       4.091   0.213  -6.409  0.00  0.00     0.064 H 
ATOM     26  H   LIG d   1       4.559  -2.082  -7.057  0.00  0.00     0.064 H 
ENDBRANCH   8  11
ENDBRANCH   4   7
ENDBRANCH   1   4
BRANCH   1  27
ATOM     27  C   LIG d   1       5.390  -7.087  -7.644  0.00  0.00    -0.052 C 
ATOM     28  H   LIG d   1       5.676  -7.797  -8.422  0.00  0.00     0.027 H 
ATOM     29  H   LIG d   1       4.585  -6.451  -8.012  0.00  0.00     0.027 H 
BRANCH  27  30
ATOM     30  C   LIG d   1       4.914  -7.850  -6.407  0.00  0.00    -0.039 C 
ATOM     31  H   LIG d   1       3.831  -7.965  -6.445  0.00  0.00     0.028 H 
ATOM     32  H   LIG d   1       5.190  -7.296  -5.510  0.00  0.00     0.028 H 
BRANCH  30  33
ATOM     33  C   LIG d   1       5.573  -9.232  -6.375  0.00  0.00     0.025 C 
ATOM     34  H   LIG d   1       6.580  -9.192  -6.787  0.00  0.00     0.043 H 
ATOM     35  S   LIG d   1       4.541 -10.478  -7.263  0.00  0.00    -0.154 SA
ATOM     36  C   LIG d   1       5.036 -11.949  -6.265  0.00  0.00     0.014 C 
ATOM     37  C   LIG d   1       5.285 -11.309  -4.881  0.00  0.00     0.053 A 
ATOM     38  H   LIG d   1       5.947 -12.399  -6.658  0.00  0.00     0.040 H 
ATOM     39  H   LIG d   1       4.229 -12.680  -6.218  0.00  0.00     0.040 H 
ATOM     40  C   LIG d   1       5.581  -9.807  -4.943  0.00  0.00     0.056 A 
ATOM     41  H   LIG d   1       6.095 -11.830  -4.370  0.00  0.00     0.052 H 
ATOM     42  N   LIG d   1       4.054 -11.399  -4.082  0.00  0.00    -0.294 N 
ATOM     43  H   LIG d   1       6.535  -9.594  -4.460  0.00  0.00     0.053 H 
ATOM     44  N   LIG d   1       4.488  -9.197  -4.171  0.00  0.00    -0.294 N 
ATOM     45  C   LIG d   1       3.675 -10.164  -3.724  0.00  0.00     0.300 A 
ATOM     46  H   LIG d   1       4.374  -8.246  -4.012  0.00  0.00     0.151 HD
ATOM     47  O   LIG d   1       2.685  -9.941  -3.055  0.00  0.00    -0.253 OA
ATOM     48  H   LIG d   1       3.590 -12.218  -3.851  0.00  0.00     0.151 HD
ENDBRANCH  30  33
ENDBRANCH  27  30
ENDBRANCH   1  27
TORSDOF 6
ENDMDL
