MODEL 1
REMARK VINA RESULT:      -7.7      0.000      0.000
REMARK  2 active torsions:
REMARK  status: ('A' for Active; 'I' for Inactive)
REMARK    1  A    between atoms: C_3  and  C_20 
REMARK    2  A    between atoms: C_6  and  C_7 
ROOT
ATOM      1  C   LIG d   1      11.233   7.878   1.025  0.00  0.00     0.274 A 
ATOM      2  N   LIG d   1      11.054   6.984   1.959  0.00  0.00    -0.160 N 
ATOM      3  C   LIG d   1      11.404   7.432   3.202  0.00  0.00     0.232 A 
ATOM      4  C   LIG d   1      11.376   6.817   4.448  0.00  0.00     0.029 A 
ATOM      5  C   LIG d   1      11.793   7.521   5.586  0.00  0.00     0.058 A 
ATOM      6  C   LIG d   1      12.236   8.837   5.475  0.00  0.00    -0.043 A 
ATOM      7  C   LIG d   1      12.266   9.456   4.233  0.00  0.00    -0.043 A 
ATOM      8  C   LIG d   1      11.856   8.766   3.108  0.00  0.00     0.101 A 
ATOM      9  C   LIG d   1      11.762   9.117   1.665  0.00  0.00     0.265 A 
ATOM     10  O   LIG d   1      12.050  10.168   1.132  0.00  0.00    -0.280 OA
ATOM     11  C   LIG d   1      11.763   6.885   6.868  0.00  0.00     0.099 C 
ATOM     12  N   LIG d   1      11.738   6.380   7.885  0.00  0.00    -0.191 NA
ATOM     13  O   LIG d   1      10.554   5.682   1.709  0.00  0.00    -0.619 OA
ATOM     14  H   LIG d   1      11.033   5.797   4.539  0.00  0.00     0.070 H 
ATOM     15  H   LIG d   1      12.555   9.376   6.355  0.00  0.00     0.063 H 
ATOM     16  H   LIG d   1      12.610  10.476   4.146  0.00  0.00     0.063 H 
ENDROOT
BRANCH   1  17
ATOM     17  C   LIG d   1      10.955   7.699  -0.412  0.00  0.00     0.051 A 
ATOM     18  C   LIG d   1      12.010   7.645  -1.329  0.00  0.00    -0.047 A 
ATOM     19  C   LIG d   1      11.752   7.484  -2.659  0.00  0.00    -0.047 A 
ATOM     20  H   LIG d   1      13.030   7.736  -0.984  0.00  0.00     0.063 H 
ATOM     21  C   LIG d   1      10.430   7.363  -3.105  0.00  0.00     0.051 A 
ATOM     22  H   LIG d   1      12.566   7.447  -3.367  0.00  0.00     0.063 H 
ATOM     23  C   LIG d   1       9.374   7.416  -2.187  0.00  0.00    -0.047 A 
ATOM     24  C   LIG d   1       9.633   7.582  -0.858  0.00  0.00    -0.047 A 
ATOM     25  H   LIG d   1       8.354   7.325  -2.532  0.00  0.00     0.063 H 
ATOM     26  H   LIG d   1       8.818   7.622  -0.150  0.00  0.00     0.063 H 
BRANCH  21  27
ATOM     27  C   LIG d   1      10.150   7.184  -4.541  0.00  0.00     0.274 A 
ATOM     28  C   LIG d   1       9.703   8.247  -5.485  0.00  0.00     0.265 A 
ATOM     29  C   LIG d   1       9.570   7.542  -6.788  0.00  0.00     0.101 A 
ATOM     30  O   LIG d   1       9.495   9.419  -5.246  0.00  0.00    -0.280 OA
ATOM     31  C   LIG d   1       9.927   6.202  -6.530  0.00  0.00     0.232 A 
ATOM     32  C   LIG d   1       9.198   7.944  -8.057  0.00  0.00    -0.043 A 
ATOM     33  N   LIG d   1      10.257   6.067  -5.209  0.00  0.00    -0.160 N 
ATOM     34  C   LIG d   1       9.900   5.285  -7.574  0.00  0.00     0.029 A 
ATOM     35  O   LIG d   1      10.668   4.842  -4.628  0.00  0.00    -0.619 OA
ATOM     36  C   LIG d   1       9.522   5.697  -8.858  0.00  0.00     0.058 A 
ATOM     37  H   LIG d   1      10.171   4.254  -7.396  0.00  0.00     0.070 H 
ATOM     38  C   LIG d   1       9.173   7.025  -9.097  0.00  0.00    -0.043 A 
ATOM     39  C   LIG d   1       9.495   4.750  -9.932  0.00  0.00     0.099 C 
ATOM     40  H   LIG d   1       8.883   7.338 -10.088  0.00  0.00     0.063 H 
ATOM     41  N   LIG d   1       9.474   3.999 -10.783  0.00  0.00    -0.191 NA
ATOM     42  H   LIG d   1       8.927   8.974  -8.239  0.00  0.00     0.063 H 
ENDBRANCH  21  27
ENDBRANCH   1  17
TORSDOF 2
ENDMDL
MODEL 2
REMARK VINA RESULT:      -7.6      0.140     10.788
REMARK  2 active torsions:
REMARK  status: ('A' for Active; 'I' for Inactive)
REMARK    1  A    between atoms: C_3  and  C_20 
REMARK    2  A    between atoms: C_6  and  C_7 
ROOT
ATOM      1  C   LIG d   1      10.137   7.309  -4.541  0.00  0.00     0.274 A 
ATOM      2  N   LIG d   1      10.252   6.195  -5.212  0.00  0.00    -0.160 N 
ATOM      3  C   LIG d   1       9.909   6.327  -6.529  0.00  0.00     0.232 A 
ATOM      4  C   LIG d   1       9.884   5.409  -7.573  0.00  0.00     0.029 A 
ATOM      5  C   LIG d   1       9.491   5.819  -8.855  0.00  0.00     0.058 A 
ATOM      6  C   LIG d   1       9.124   7.142  -9.088  0.00  0.00    -0.043 A 
ATOM      7  C   LIG d   1       9.146   8.062  -8.049  0.00  0.00    -0.043 A 
ATOM      8  C   LIG d   1       9.534   7.663  -6.783  0.00  0.00     0.101 A 
ATOM      9  C   LIG d   1       9.669   8.369  -5.480  0.00  0.00     0.265 A 
ATOM     10  O   LIG d   1       9.449   9.537  -5.237  0.00  0.00    -0.280 OA
ATOM     11  C   LIG d   1       9.466   4.873  -9.928  0.00  0.00     0.099 C 
ATOM     12  N   LIG d   1       9.447   4.122 -10.780  0.00  0.00    -0.191 NA
ATOM     13  O   LIG d   1      10.681   4.975  -4.634  0.00  0.00    -0.619 OA
ATOM     14  H   LIG d   1      10.168   4.383  -7.398  0.00  0.00     0.070 H 
ATOM     15  H   LIG d   1       8.822   7.453 -10.078  0.00  0.00     0.063 H 
ATOM     16  H   LIG d   1       8.861   9.088  -8.228  0.00  0.00     0.063 H 
ENDROOT
BRANCH   1  17
ATOM     17  C   LIG d   1      10.426   7.491  -3.107  0.00  0.00     0.051 A 
ATOM     18  C   LIG d   1       9.382   7.484  -2.175  0.00  0.00    -0.047 A 
ATOM     19  C   LIG d   1       9.651   7.658  -0.848  0.00  0.00    -0.047 A 
ATOM     20  H   LIG d   1       8.364   7.346  -2.506  0.00  0.00     0.063 H 
ATOM     21  C   LIG d   1      10.972   7.833  -0.419  0.00  0.00     0.051 A 
ATOM     22  H   LIG d   1       8.844   7.656  -0.130  0.00  0.00     0.063 H 
ATOM     23  C   LIG d   1      12.016   7.839  -1.351  0.00  0.00    -0.047 A 
ATOM     24  C   LIG d   1      11.747   7.670  -2.678  0.00  0.00    -0.047 A 
ATOM     25  H   LIG d   1      13.035   7.977  -1.020  0.00  0.00     0.063 H 
ATOM     26  H   LIG d   1      12.553   7.675  -3.397  0.00  0.00     0.063 H 
BRANCH  21  27
ATOM     27  C   LIG d   1      11.263   8.015   1.015  0.00  0.00     0.274 A 
ATOM     28  C   LIG d   1      11.791   9.256   1.650  0.00  0.00     0.265 A 
ATOM     29  C   LIG d   1      11.899   8.906   3.092  0.00  0.00     0.101 A 
ATOM     30  O   LIG d   1      12.069  10.309   1.115  0.00  0.00    -0.280 OA
ATOM     31  C   LIG d   1      11.454   7.571   3.191  0.00  0.00     0.232 A 
ATOM     32  C   LIG d   1      12.316   9.599   4.213  0.00  0.00    -0.043 A 
ATOM     33  N   LIG d   1      11.096   7.119   1.951  0.00  0.00    -0.160 N 
ATOM     34  C   LIG d   1      11.440   6.957   4.438  0.00  0.00     0.029 A 
ATOM     35  O   LIG d   1      10.599   5.815   1.707  0.00  0.00    -0.619 OA
ATOM     36  C   LIG d   1      11.864   7.663   5.571  0.00  0.00     0.058 A 
ATOM     37  H   LIG d   1      11.102   5.935   4.534  0.00  0.00     0.070 H 
ATOM     38  C   LIG d   1      12.300   8.981   5.456  0.00  0.00    -0.043 A 
ATOM     39  C   LIG d   1      11.848   7.028   6.854  0.00  0.00     0.099 C 
ATOM     40  H   LIG d   1      12.625   9.522   6.332  0.00  0.00     0.063 H 
ATOM     41  N   LIG d   1      11.835   6.524   7.871  0.00  0.00    -0.191 NA
ATOM     42  H   LIG d   1      12.655  10.621   4.121  0.00  0.00     0.063 H 
ENDBRANCH  21  27
ENDBRANCH   1  17
TORSDOF 2
ENDMDL
MODEL 3
REMARK VINA RESULT:      -7.5      1.510      2.270
REMARK  2 active torsions:
REMARK  status: ('A' for Active; 'I' for Inactive)
REMARK    1  A    between atoms: C_3  and  C_20 
REMARK    2  A    between atoms: C_6  and  C_7 
ROOT
ATOM      1  C   LIG d   1      11.143   7.032   1.091  0.00  0.00     0.274 A 
ATOM      2  N   LIG d   1      10.987   6.373   2.207  0.00  0.00    -0.160 N 
ATOM      3  C   LIG d   1      11.332   7.104   3.311  0.00  0.00     0.232 A 
ATOM      4  C   LIG d   1      11.322   6.791   4.665  0.00  0.00     0.029 A 
ATOM      5  C   LIG d   1      11.727   7.748   5.606  0.00  0.00     0.058 A 
ATOM      6  C   LIG d   1      12.141   9.011   5.191  0.00  0.00    -0.043 A 
ATOM      7  C   LIG d   1      12.153   9.328   3.840  0.00  0.00    -0.043 A 
ATOM      8  C   LIG d   1      11.754   8.389   2.908  0.00  0.00     0.101 A 
ATOM      9  C   LIG d   1      11.647   8.396   1.424  0.00  0.00     0.265 A 
ATOM     10  O   LIG d   1      11.910   9.302   0.661  0.00  0.00    -0.280 OA
ATOM     11  C   LIG d   1      11.716   7.423   7.001  0.00  0.00     0.099 C 
ATOM     12  N   LIG d   1      11.706   7.166   8.107  0.00  0.00    -0.191 NA
ATOM     13  O   LIG d   1      10.515   5.039   2.268  0.00  0.00    -0.619 OA
ATOM     14  H   LIG d   1      11.001   5.814   4.992  0.00  0.00     0.070 H 
ATOM     15  H   LIG d   1      12.451   9.745   5.921  0.00  0.00     0.063 H 
ATOM     16  H   LIG d   1      12.474  10.307   3.517  0.00  0.00     0.063 H 
ENDROOT
BRANCH   1  17
ATOM     17  C   LIG d   1      10.863   6.521  -0.264  0.00  0.00     0.051 A 
ATOM     18  C   LIG d   1      11.674   5.524  -0.818  0.00  0.00    -0.047 A 
ATOM     19  C   LIG d   1      11.417   5.054  -2.073  0.00  0.00    -0.047 A 
ATOM     20  H   LIG d   1      12.506   5.129  -0.253  0.00  0.00     0.063 H 
ATOM     21  C   LIG d   1      10.336   5.564  -2.803  0.00  0.00     0.051 A 
ATOM     22  H   LIG d   1      12.045   4.288  -2.502  0.00  0.00     0.063 H 
ATOM     23  C   LIG d   1       9.525   6.561  -2.248  0.00  0.00    -0.047 A 
ATOM     24  C   LIG d   1       9.785   7.033  -0.995  0.00  0.00    -0.047 A 
ATOM     25  H   LIG d   1       8.693   6.956  -2.812  0.00  0.00     0.063 H 
ATOM     26  H   LIG d   1       9.158   7.803  -0.567  0.00  0.00     0.063 H 
BRANCH  21  27
ATOM     27  C   LIG d   1      10.055   5.054  -4.157  0.00  0.00     0.274 A 
ATOM     28  C   LIG d   1       9.548   3.693  -4.491  0.00  0.00     0.265 A 
ATOM     29  C   LIG d   1       9.441   3.701  -5.976  0.00  0.00     0.101 A 
ATOM     30  O   LIG d   1       9.283   2.786  -3.730  0.00  0.00    -0.280 OA
ATOM     31  C   LIG d   1       9.866   4.985  -6.377  0.00  0.00     0.232 A 
ATOM     32  C   LIG d   1       9.040   2.763  -6.908  0.00  0.00    -0.043 A 
ATOM     33  N   LIG d   1      10.201   5.718  -5.272  0.00  0.00    -0.160 N 
ATOM     34  C   LIG d   1       9.876   5.298  -7.732  0.00  0.00     0.029 A 
ATOM     35  O   LIG d   1      10.663   7.056  -5.332  0.00  0.00    -0.619 OA
ATOM     36  C   LIG d   1       9.468   4.344  -8.673  0.00  0.00     0.058 A 
ATOM     37  H   LIG d   1      10.198   6.277  -8.058  0.00  0.00     0.070 H 
ATOM     38  C   LIG d   1       9.052   3.081  -8.260  0.00  0.00    -0.043 A 
ATOM     39  C   LIG d   1       9.480   4.670 -10.067  0.00  0.00     0.099 C 
ATOM     40  H   LIG d   1       8.738   2.350  -8.989  0.00  0.00     0.063 H 
ATOM     41  N   LIG d   1       9.490   4.928 -11.173  0.00  0.00    -0.191 NA
ATOM     42  H   LIG d   1       8.717   1.784  -6.586  0.00  0.00     0.063 H 
ENDBRANCH  21  27
ENDBRANCH   1  17
TORSDOF 2
ENDMDL
MODEL 4
REMARK VINA RESULT:      -7.4      3.321      5.959
REMARK  2 active torsions:
REMARK  status: ('A' for Active; 'I' for Inactive)
REMARK    1  A    between atoms: C_3  and  C_20 
REMARK    2  A    between atoms: C_6  and  C_7 
ROOT
ATOM      1  C   LIG d   1      10.482   7.677  -4.423  0.00  0.00     0.274 A 
ATOM      2  N   LIG d   1      10.461   6.673  -3.588  0.00  0.00    -0.160 N 
ATOM      3  C   LIG d   1      10.650   7.056  -2.289  0.00  0.00     0.232 A 
ATOM      4  C   LIG d   1      10.702   6.324  -1.108  0.00  0.00     0.029 A 
ATOM      5  C   LIG d   1      10.905   6.981   0.113  0.00  0.00     0.058 A 
ATOM      6  C   LIG d   1      11.056   8.365   0.151  0.00  0.00    -0.043 A 
ATOM      7  C   LIG d   1      11.005   9.101  -1.025  0.00  0.00    -0.043 A 
ATOM      8  C   LIG d   1      10.804   8.458  -2.232  0.00  0.00     0.101 A 
ATOM      9  C   LIG d   1      10.700   8.927  -3.640  0.00  0.00     0.265 A 
ATOM     10  O   LIG d   1      10.775  10.064  -4.056  0.00  0.00    -0.280 OA
ATOM     11  C   LIG d   1      10.958   6.225   1.328  0.00  0.00     0.099 C 
ATOM     12  N   LIG d   1      10.999   5.625   2.291  0.00  0.00    -0.191 NA
ATOM     13  O   LIG d   1      10.268   5.328  -3.986  0.00  0.00    -0.619 OA
ATOM     14  H   LIG d   1      10.585   5.252  -1.132  0.00  0.00     0.070 H 
ATOM     15  H   LIG d   1      11.211   8.867   1.095  0.00  0.00     0.063 H 
ATOM     16  H   LIG d   1      11.122  10.174  -0.998  0.00  0.00     0.063 H 
ENDROOT
BRANCH   1  17
ATOM     17  C   LIG d   1      10.312   7.590  -5.885  0.00  0.00     0.051 A 
ATOM     18  C   LIG d   1       9.188   8.161  -6.495  0.00  0.00    -0.047 A 
ATOM     19  C   LIG d   1       9.029   8.077  -7.848  0.00  0.00    -0.047 A 
ATOM     20  H   LIG d   1       8.445   8.664  -5.894  0.00  0.00     0.063 H 
ATOM     21  C   LIG d   1       9.995   7.429  -8.626  0.00  0.00     0.051 A 
ATOM     22  H   LIG d   1       8.160   8.514  -8.316  0.00  0.00     0.063 H 
ATOM     23  C   LIG d   1      11.119   6.859  -8.017  0.00  0.00    -0.047 A 
ATOM     24  C   LIG d   1      11.276   6.939  -6.664  0.00  0.00    -0.047 A 
ATOM     25  H   LIG d   1      11.863   6.356  -8.618  0.00  0.00     0.063 H 
ATOM     26  H   LIG d   1      12.143   6.500  -6.194  0.00  0.00     0.063 H 
BRANCH  21  27
ATOM     27  C   LIG d   1       9.826   7.342 -10.089  0.00  0.00     0.274 A 
ATOM     28  C   LIG d   1       9.204   6.210 -10.832  0.00  0.00     0.265 A 
ATOM     29  C   LIG d   1       9.285   6.626 -12.258  0.00  0.00     0.101 A 
ATOM     30  O   LIG d   1       8.738   5.185 -10.379  0.00  0.00    -0.280 OA
ATOM     31  C   LIG d   1       9.909   7.891 -12.248  0.00  0.00     0.232 A 
ATOM     32  C   LIG d   1       8.893   6.039 -13.447  0.00  0.00    -0.043 A 
ATOM     33  N   LIG d   1      10.190   8.248 -10.957  0.00  0.00    -0.160 N 
ATOM     34  C   LIG d   1      10.125   8.546 -13.455  0.00  0.00     0.029 A 
ATOM     35  O   LIG d   1      10.813   9.469 -10.601  0.00  0.00    -0.619 OA
ATOM     36  C   LIG d   1       9.726   7.946 -14.657  0.00  0.00     0.058 A 
ATOM     37  H   LIG d   1      10.601   9.516 -13.466  0.00  0.00     0.070 H 
ATOM     38  C   LIG d   1       9.112   6.696 -14.650  0.00  0.00    -0.043 A 
ATOM     39  C   LIG d   1       9.951   8.623 -15.898  0.00  0.00     0.099 C 
ATOM     40  H   LIG d   1       8.805   6.239 -15.579  0.00  0.00     0.063 H 
ATOM     41  N   LIG d   1      10.130   9.159 -16.883  0.00  0.00    -0.191 NA
ATOM     42  H   LIG d   1       8.417   5.070 -13.439  0.00  0.00     0.063 H 
ENDBRANCH  21  27
ENDBRANCH   1  17
TORSDOF 2
ENDMDL
MODEL 5
REMARK VINA RESULT:      -7.4      3.267     12.167
REMARK  2 active torsions:
REMARK  status: ('A' for Active; 'I' for Inactive)
REMARK    1  A    between atoms: C_3  and  C_20 
REMARK    2  A    between atoms: C_6  and  C_7 
ROOT
ATOM      1  C   LIG d   1       9.819   7.288  -9.987  0.00  0.00     0.274 A 
ATOM      2  N   LIG d   1      10.211   8.177 -10.860  0.00  0.00    -0.160 N 
ATOM      3  C   LIG d   1       9.920   7.824 -12.149  0.00  0.00     0.232 A 
ATOM      4  C   LIG d   1      10.159   8.466 -13.358  0.00  0.00     0.029 A 
ATOM      5  C   LIG d   1       9.740   7.875 -14.558  0.00  0.00     0.058 A 
ATOM      6  C   LIG d   1       9.085   6.646 -14.545  0.00  0.00    -0.043 A 
ATOM      7  C   LIG d   1       8.844   6.001 -13.340  0.00  0.00    -0.043 A 
ATOM      8  C   LIG d   1       9.255   6.580 -12.154  0.00  0.00     0.101 A 
ATOM      9  C   LIG d   1       9.160   6.173 -10.726  0.00  0.00     0.265 A 
ATOM     10  O   LIG d   1       8.662   5.166 -10.268  0.00  0.00    -0.280 OA
ATOM     11  C   LIG d   1       9.987   8.538 -15.803  0.00  0.00     0.099 C 
ATOM     12  N   LIG d   1      10.183   9.064 -16.790  0.00  0.00    -0.191 NA
ATOM     13  O   LIG d   1      10.875   9.378 -10.508  0.00  0.00    -0.619 OA
ATOM     14  H   LIG d   1      10.665   9.419 -13.373  0.00  0.00     0.070 H 
ATOM     15  H   LIG d   1       8.763   6.195 -15.473  0.00  0.00     0.063 H 
ATOM     16  H   LIG d   1       8.337   5.047 -13.329  0.00  0.00     0.063 H 
ENDROOT
BRANCH   1  17
ATOM     17  C   LIG d   1       9.990   7.375  -8.526  0.00  0.00     0.051 A 
ATOM     18  C   LIG d   1      11.107   6.792  -7.914  0.00  0.00    -0.047 A 
ATOM     19  C   LIG d   1      11.262   6.869  -6.561  0.00  0.00    -0.047 A 
ATOM     20  H   LIG d   1      11.843   6.278  -8.515  0.00  0.00     0.063 H 
ATOM     21  C   LIG d   1      10.309   7.539  -5.785  0.00  0.00     0.051 A 
ATOM     22  H   LIG d   1      12.121   6.416  -6.090  0.00  0.00     0.063 H 
ATOM     23  C   LIG d   1       9.193   8.123  -6.396  0.00  0.00    -0.047 A 
ATOM     24  C   LIG d   1       9.035   8.042  -7.748  0.00  0.00    -0.047 A 
ATOM     25  H   LIG d   1       8.456   8.637  -5.796  0.00  0.00     0.063 H 
ATOM     26  H   LIG d   1       8.174   8.492  -8.219  0.00  0.00     0.063 H 
BRANCH  21  27
ATOM     27  C   LIG d   1      10.479   7.626  -4.322  0.00  0.00     0.274 A 
ATOM     28  C   LIG d   1      10.689   8.877  -3.539  0.00  0.00     0.265 A 
ATOM     29  C   LIG d   1      10.797   8.407  -2.131  0.00  0.00     0.101 A 
ATOM     30  O   LIG d   1      10.755  10.016  -3.953  0.00  0.00    -0.280 OA
ATOM     31  C   LIG d   1      10.653   7.005  -2.189  0.00  0.00     0.232 A 
ATOM     32  C   LIG d   1      10.995   9.051  -0.924  0.00  0.00    -0.043 A 
ATOM     33  N   LIG d   1      10.466   6.622  -3.488  0.00  0.00    -0.160 N 
ATOM     34  C   LIG d   1      10.710   6.274  -1.008  0.00  0.00     0.029 A 
ATOM     35  O   LIG d   1      10.281   5.275  -3.887  0.00  0.00    -0.619 OA
ATOM     36  C   LIG d   1      10.910   6.930   0.213  0.00  0.00     0.058 A 
ATOM     37  H   LIG d   1      10.601   5.199  -1.032  0.00  0.00     0.070 H 
ATOM     38  C   LIG d   1      11.051   8.316   0.252  0.00  0.00    -0.043 A 
ATOM     39  C   LIG d   1      10.969   6.174   1.427  0.00  0.00     0.099 C 
ATOM     40  H   LIG d   1      11.204   8.817   1.196  0.00  0.00     0.063 H 
ATOM     41  N   LIG d   1      11.016   5.573   2.390  0.00  0.00    -0.191 NA
ATOM     42  H   LIG d   1      11.104  10.125  -0.896  0.00  0.00     0.063 H 
ENDBRANCH  21  27
ENDBRANCH   1  17
TORSDOF 2
ENDMDL
MODEL 6
REMARK VINA RESULT:      -7.3      3.077     12.132
REMARK  2 active torsions:
REMARK  status: ('A' for Active; 'I' for Inactive)
REMARK    1  A    between atoms: C_3  and  C_20 
REMARK    2  A    between atoms: C_6  and  C_7 
ROOT
ATOM      1  C   LIG d   1       9.886   7.441 -10.158  0.00  0.00     0.274 A 
ATOM      2  N   LIG d   1       9.294   6.481 -10.815  0.00  0.00    -0.160 N 
ATOM      3  C   LIG d   1       9.304   6.674 -12.169  0.00  0.00     0.232 A 
ATOM      4  C   LIG d   1       8.793   5.914 -13.214  0.00  0.00     0.029 A 
ATOM      5  C   LIG d   1       8.952   6.349 -14.537  0.00  0.00     0.058 A 
ATOM      6  C   LIG d   1       9.620   7.540 -14.810  0.00  0.00    -0.043 A 
ATOM      7  C   LIG d   1      10.132   8.302 -13.770  0.00  0.00    -0.043 A 
ATOM      8  C   LIG d   1       9.978   7.878 -12.464  0.00  0.00     0.101 A 
ATOM      9  C   LIG d   1      10.391   8.436 -11.147  0.00  0.00     0.265 A 
ATOM     10  O   LIG d   1      10.999   9.463 -10.929  0.00  0.00    -0.280 OA
ATOM     11  C   LIG d   1       8.425   5.564 -15.612  0.00  0.00     0.099 C 
ATOM     12  N   LIG d   1       8.007   4.942 -16.465  0.00  0.00    -0.191 NA
ATOM     13  O   LIG d   1       8.698   5.358 -10.190  0.00  0.00    -0.619 OA
ATOM     14  H   LIG d   1       8.275   4.990 -13.007  0.00  0.00     0.070 H 
ATOM     15  H   LIG d   1       9.741   7.870 -15.832  0.00  0.00     0.063 H 
ATOM     16  H   LIG d   1      10.649   9.227 -13.980  0.00  0.00     0.063 H 
ENDROOT
BRANCH   1  17
ATOM     17  C   LIG d   1      10.037   7.525  -8.694  0.00  0.00     0.051 A 
ATOM     18  C   LIG d   1       9.026   8.102  -7.917  0.00  0.00    -0.047 A 
ATOM     19  C   LIG d   1       9.168   8.183  -6.562  0.00  0.00    -0.047 A 
ATOM     20  H   LIG d   1       8.135   8.487  -8.390  0.00  0.00     0.063 H 
ATOM     21  C   LIG d   1      10.322   7.680  -5.949  0.00  0.00     0.051 A 
ATOM     22  H   LIG d   1       8.389   8.632  -5.964  0.00  0.00     0.063 H 
ATOM     23  C   LIG d   1      11.333   7.102  -6.726  0.00  0.00    -0.047 A 
ATOM     24  C   LIG d   1      11.192   7.025  -8.080  0.00  0.00    -0.047 A 
ATOM     25  H   LIG d   1      12.224   6.717  -6.252  0.00  0.00     0.063 H 
ATOM     26  H   LIG d   1      11.972   6.579  -8.679  0.00  0.00     0.063 H 
BRANCH  21  27
ATOM     27  C   LIG d   1      10.473   7.763  -4.484  0.00  0.00     0.274 A 
ATOM     28  C   LIG d   1      10.616   9.016  -3.690  0.00  0.00     0.265 A 
ATOM     29  C   LIG d   1      10.733   8.541  -2.284  0.00  0.00     0.101 A 
ATOM     30  O   LIG d   1      10.632  10.160  -4.094  0.00  0.00    -0.280 OA
ATOM     31  C   LIG d   1      10.656   7.134  -2.354  0.00  0.00     0.232 A 
ATOM     32  C   LIG d   1      10.888   9.183  -1.070  0.00  0.00    -0.043 A 
ATOM     33  N   LIG d   1      10.500   6.752  -3.658  0.00  0.00    -0.160 N 
ATOM     34  C   LIG d   1      10.737   6.397  -1.178  0.00  0.00     0.029 A 
ATOM     35  O   LIG d   1      10.384   5.402  -4.068  0.00  0.00    -0.619 OA
ATOM     36  C   LIG d   1      10.894   7.052   0.050  0.00  0.00     0.058 A 
ATOM     37  H   LIG d   1      10.679   5.318  -1.212  0.00  0.00     0.070 H 
ATOM     38  C   LIG d   1      10.969   8.442   0.101  0.00  0.00    -0.043 A 
ATOM     39  C   LIG d   1      10.977   6.289   1.258  0.00  0.00     0.099 C 
ATOM     40  H   LIG d   1      11.088   8.942   1.050  0.00  0.00     0.063 H 
ATOM     41  N   LIG d   1      11.043   5.684   2.217  0.00  0.00    -0.191 NA
ATOM     42  H   LIG d   1      10.946  10.261  -1.033  0.00  0.00     0.063 H 
ENDBRANCH  21  27
ENDBRANCH   1  17
TORSDOF 2
ENDMDL
MODEL 7
REMARK VINA RESULT:      -7.2      3.405     12.522
REMARK  2 active torsions:
REMARK  status: ('A' for Active; 'I' for Inactive)
REMARK    1  A    between atoms: C_3  and  C_20 
REMARK    2  A    between atoms: C_6  and  C_7 
ROOT
ATOM      1  C   LIG d   1       9.781   7.422 -10.693  0.00  0.00     0.274 A 
ATOM      2  N   LIG d   1       9.245   6.443 -11.372  0.00  0.00    -0.160 N 
ATOM      3  C   LIG d   1       9.304   6.636 -12.724  0.00  0.00     0.232 A 
ATOM      4  C   LIG d   1       8.859   5.860 -13.788  0.00  0.00     0.029 A 
ATOM      5  C   LIG d   1       9.058   6.298 -15.105  0.00  0.00     0.058 A 
ATOM      6  C   LIG d   1       9.701   7.509 -15.353  0.00  0.00    -0.043 A 
ATOM      7  C   LIG d   1      10.147   8.287 -14.294  0.00  0.00    -0.043 A 
ATOM      8  C   LIG d   1       9.953   7.859 -12.994  0.00  0.00     0.101 A 
ATOM      9  C   LIG d   1      10.295   8.430 -11.663  0.00  0.00     0.265 A 
ATOM     10  O   LIG d   1      10.863   9.476 -11.423  0.00  0.00    -0.280 OA
ATOM     11  C   LIG d   1       8.599   5.497 -16.199  0.00  0.00     0.099 C 
ATOM     12  N   LIG d   1       8.235   4.862 -17.066  0.00  0.00    -0.191 NA
ATOM     13  O   LIG d   1       8.658   5.304 -10.769  0.00  0.00    -0.619 OA
ATOM     14  H   LIG d   1       8.361   4.921 -13.601  0.00  0.00     0.070 H 
ATOM     15  H   LIG d   1       9.853   7.841 -16.370  0.00  0.00     0.063 H 
ATOM     16  H   LIG d   1      10.644   9.226 -14.485  0.00  0.00     0.063 H 
ENDROOT
BRANCH   1  17
ATOM     17  C   LIG d   1       9.869   7.511  -9.224  0.00  0.00     0.051 A 
ATOM     18  C   LIG d   1      10.898   6.850  -8.543  0.00  0.00    -0.047 A 
ATOM     19  C   LIG d   1      10.977   6.929  -7.183  0.00  0.00    -0.047 A 
ATOM     20  H   LIG d   1      11.627   6.273  -9.094  0.00  0.00     0.063 H 
ATOM     21  C   LIG d   1      10.035   7.680  -6.470  0.00  0.00     0.051 A 
ATOM     22  H   LIG d   1      11.768   6.416  -6.658  0.00  0.00     0.063 H 
ATOM     23  C   LIG d   1       9.006   8.342  -7.152  0.00  0.00    -0.047 A 
ATOM     24  C   LIG d   1       8.925   8.259  -8.511  0.00  0.00    -0.047 A 
ATOM     25  H   LIG d   1       8.278   8.919  -6.601  0.00  0.00     0.063 H 
ATOM     26  H   LIG d   1       8.132   8.770  -9.036  0.00  0.00     0.063 H 
BRANCH  21  27
ATOM     27  C   LIG d   1      10.123   7.770  -5.001  0.00  0.00     0.274 A 
ATOM     28  C   LIG d   1       9.693   6.722  -4.033  0.00  0.00     0.265 A 
ATOM     29  C   LIG d   1       9.998   7.312  -2.702  0.00  0.00     0.101 A 
ATOM     30  O   LIG d   1       9.207   5.636  -4.274  0.00  0.00    -0.280 OA
ATOM     31  C   LIG d   1      10.549   8.583  -2.969  0.00  0.00     0.232 A 
ATOM     32  C   LIG d   1       9.843   6.866  -1.403  0.00  0.00    -0.043 A 
ATOM     33  N   LIG d   1      10.597   8.780  -4.322  0.00  0.00    -0.160 N 
ATOM     34  C   LIG d   1      10.939   9.386  -1.904  0.00  0.00     0.029 A 
ATOM     35  O   LIG d   1      11.105   9.959  -4.923  0.00  0.00    -0.619 OA
ATOM     36  C   LIG d   1      10.780   8.929  -0.589  0.00  0.00     0.058 A 
ATOM     37  H   LIG d   1      11.363  10.362  -2.090  0.00  0.00     0.070 H 
ATOM     38  C   LIG d   1      10.234   7.672  -0.342  0.00  0.00    -0.043 A 
ATOM     39  C   LIG d   1      11.182   9.759   0.506  0.00  0.00     0.099 C 
ATOM     40  H   LIG d   1      10.116   7.324   0.673  0.00  0.00     0.063 H 
ATOM     41  N   LIG d   1      11.502  10.417   1.375  0.00  0.00    -0.191 NA
ATOM     42  H   LIG d   1       9.420   5.891  -1.213  0.00  0.00     0.063 H 
ENDBRANCH  21  27
ENDBRANCH   1  17
TORSDOF 2
ENDMDL
MODEL 8
REMARK VINA RESULT:      -7.1      3.390      6.203
REMARK  2 active torsions:
REMARK  status: ('A' for Active; 'I' for Inactive)
REMARK    1  A    between atoms: C_3  and  C_20 
REMARK    2  A    between atoms: C_6  and  C_7 
ROOT
ATOM      1  C   LIG d   1      10.354   7.622  -4.434  0.00  0.00     0.274 A 
ATOM      2  N   LIG d   1      10.814   8.642  -3.761  0.00  0.00    -0.160 N 
ATOM      3  C   LIG d   1      10.829   8.428  -2.410  0.00  0.00     0.232 A 
ATOM      4  C   LIG d   1      11.229   9.235  -1.352  0.00  0.00     0.029 A 
ATOM      5  C   LIG d   1      11.145   8.756  -0.037  0.00  0.00     0.058 A 
ATOM      6  C   LIG d   1      10.661   7.475   0.215  0.00  0.00    -0.043 A 
ATOM      7  C   LIG d   1      10.260   6.665  -0.838  0.00  0.00    -0.043 A 
ATOM      8  C   LIG d   1      10.343   7.132  -2.137  0.00  0.00     0.101 A 
ATOM      9  C   LIG d   1      10.007   6.545  -3.462  0.00  0.00     0.265 A 
ATOM     10  O   LIG d   1       9.556   5.443  -3.699  0.00  0.00    -0.280 OA
ATOM     11  C   LIG d   1      11.557   9.590   1.052  0.00  0.00     0.099 C 
ATOM     12  N   LIG d   1      11.885  10.251   1.915  0.00  0.00    -0.191 NA
ATOM     13  O   LIG d   1      11.247   9.847  -4.367  0.00  0.00    -0.619 OA
ATOM     14  H   LIG d   1      11.605  10.229  -1.542  0.00  0.00     0.070 H 
ATOM     15  H   LIG d   1      10.599   7.111   1.231  0.00  0.00     0.063 H 
ATOM     16  H   LIG d   1       9.885   5.671  -0.644  0.00  0.00     0.063 H 
ENDROOT
BRANCH   1  17
ATOM     17  C   LIG d   1      10.209   7.544  -5.899  0.00  0.00     0.051 A 
ATOM     18  C   LIG d   1      11.102   6.771  -6.651  0.00  0.00    -0.047 A 
ATOM     19  C   LIG d   1      10.970   6.703  -8.008  0.00  0.00    -0.047 A 
ATOM     20  H   LIG d   1      11.897   6.232  -6.158  0.00  0.00     0.063 H 
ATOM     21  C   LIG d   1       9.936   7.398  -8.646  0.00  0.00     0.051 A 
ATOM     22  H   LIG d   1      11.661   6.110  -8.587  0.00  0.00     0.063 H 
ATOM     23  C   LIG d   1       9.043   8.171  -7.893  0.00  0.00    -0.047 A 
ATOM     24  C   LIG d   1       9.178   8.242  -6.538  0.00  0.00    -0.047 A 
ATOM     25  H   LIG d   1       8.247   8.709  -8.386  0.00  0.00     0.063 H 
ATOM     26  H   LIG d   1       8.488   8.838  -5.957  0.00  0.00     0.063 H 
BRANCH  21  27
ATOM     27  C   LIG d   1       9.790   7.321 -10.111  0.00  0.00     0.274 A 
ATOM     28  C   LIG d   1       9.135   6.217 -10.868  0.00  0.00     0.265 A 
ATOM     29  C   LIG d   1       9.260   6.631 -12.292  0.00  0.00     0.101 A 
ATOM     30  O   LIG d   1       8.619   5.212 -10.426  0.00  0.00    -0.280 OA
ATOM     31  C   LIG d   1       9.936   7.869 -12.267  0.00  0.00     0.232 A 
ATOM     32  C   LIG d   1       8.867   6.063 -13.488  0.00  0.00    -0.043 A 
ATOM     33  N   LIG d   1      10.208   8.212 -10.970  0.00  0.00    -0.160 N 
ATOM     34  C   LIG d   1      10.202   8.515 -13.468  0.00  0.00     0.029 A 
ATOM     35  O   LIG d   1      10.875   9.405 -10.601  0.00  0.00    -0.619 OA
ATOM     36  C   LIG d   1       9.802   7.935 -14.679  0.00  0.00     0.058 A 
ATOM     37  H   LIG d   1      10.719   9.465 -13.469  0.00  0.00     0.070 H 
ATOM     38  C   LIG d   1       9.135   6.712 -14.686  0.00  0.00    -0.043 A 
ATOM     39  C   LIG d   1      10.078   8.603 -15.914  0.00  0.00     0.099 C 
ATOM     40  H   LIG d   1       8.827   6.270 -15.621  0.00  0.00     0.063 H 
ATOM     41  N   LIG d   1      10.297   9.133 -16.895  0.00  0.00    -0.191 NA
ATOM     42  H   LIG d   1       8.351   5.114 -13.492  0.00  0.00     0.063 H 
ENDBRANCH  21  27
ENDBRANCH   1  17
TORSDOF 2
ENDMDL
MODEL 9
REMARK VINA RESULT:      -7.1      3.015     11.979
REMARK  2 active torsions:
REMARK  status: ('A' for Active; 'I' for Inactive)
REMARK    1  A    between atoms: C_3  and  C_20 
REMARK    2  A    between atoms: C_6  and  C_7 
ROOT
ATOM      1  C   LIG d   1       9.888   7.241  -9.183  0.00  0.00     0.274 A 
ATOM      2  N   LIG d   1      10.237   8.206  -9.990  0.00  0.00    -0.160 N 
ATOM      3  C   LIG d   1       9.945   7.939 -11.299  0.00  0.00     0.232 A 
ATOM      4  C   LIG d   1      10.147   8.678 -12.460  0.00  0.00     0.029 A 
ATOM      5  C   LIG d   1       9.737   8.161 -13.697  0.00  0.00     0.058 A 
ATOM      6  C   LIG d   1       9.129   6.911 -13.770  0.00  0.00    -0.043 A 
ATOM      7  C   LIG d   1       8.925   6.170 -12.614  0.00  0.00    -0.043 A 
ATOM      8  C   LIG d   1       9.327   6.675 -11.392  0.00  0.00     0.101 A 
ATOM      9  C   LIG d   1       9.263   6.159  -9.997  0.00  0.00     0.265 A 
ATOM     10  O   LIG d   1       8.808   5.103  -9.611  0.00  0.00    -0.280 OA
ATOM     11  C   LIG d   1       9.946   8.924 -14.890  0.00  0.00     0.099 C 
ATOM     12  N   LIG d   1      10.111   9.529 -15.837  0.00  0.00    -0.191 NA
ATOM     13  O   LIG d   1      10.859   9.402  -9.556  0.00  0.00    -0.619 OA
ATOM     14  H   LIG d   1      10.617   9.648 -12.408  0.00  0.00     0.070 H 
ATOM     15  H   LIG d   1       8.814   6.518 -14.726  0.00  0.00     0.063 H 
ATOM     16  H   LIG d   1       8.454   5.199 -12.670  0.00  0.00     0.063 H 
ENDROOT
BRANCH   1  17
ATOM     17  C   LIG d   1      10.071   7.226  -7.720  0.00  0.00     0.051 A 
ATOM     18  C   LIG d   1       9.192   7.939  -6.896  0.00  0.00    -0.047 A 
ATOM     19  C   LIG d   1       9.365   7.928  -5.542  0.00  0.00    -0.047 A 
ATOM     20  H   LIG d   1       8.380   8.501  -7.332  0.00  0.00     0.063 H 
ATOM     21  C   LIG d   1      10.416   7.195  -4.978  0.00  0.00     0.051 A 
ATOM     22  H   LIG d   1       8.689   8.481  -4.908  0.00  0.00     0.063 H 
ATOM     23  C   LIG d   1      11.295   6.482  -5.802  0.00  0.00    -0.047 A 
ATOM     24  C   LIG d   1      11.125   6.497  -7.155  0.00  0.00    -0.047 A 
ATOM     25  H   LIG d   1      12.107   5.920  -5.366  0.00  0.00     0.063 H 
ATOM     26  H   LIG d   1      11.802   5.946  -7.790  0.00  0.00     0.063 H 
BRANCH  21  27
ATOM     27  C   LIG d   1      10.601   7.179  -3.515  0.00  0.00     0.274 A 
ATOM     28  C   LIG d   1      10.303   6.035  -2.608  0.00  0.00     0.265 A 
ATOM     29  C   LIG d   1      10.663   6.542  -1.256  0.00  0.00     0.101 A 
ATOM     30  O   LIG d   1       9.868   4.941  -2.903  0.00  0.00    -0.280 OA
ATOM     31  C   LIG d   1      11.116   7.862  -1.456  0.00  0.00     0.232 A 
ATOM     32  C   LIG d   1      10.626   5.989   0.010  0.00  0.00    -0.043 A 
ATOM     33  N   LIG d   1      11.059   8.164  -2.789  0.00  0.00    -0.160 N 
ATOM     34  C   LIG d   1      11.530   8.606  -0.358  0.00  0.00     0.029 A 
ATOM     35  O   LIG d   1      11.452   9.415  -3.325  0.00  0.00    -0.619 OA
ATOM     36  C   LIG d   1      11.491   8.042   0.924  0.00  0.00     0.058 A 
ATOM     37  H   LIG d   1      11.881   9.620  -0.492  0.00  0.00     0.070 H 
ATOM     38  C   LIG d   1      11.040   6.736   1.105  0.00  0.00    -0.043 A 
ATOM     39  C   LIG d   1      11.917   8.811   2.054  0.00  0.00     0.099 C 
ATOM     40  H   LIG d   1      11.014   6.306   2.095  0.00  0.00     0.063 H 
ATOM     41  N   LIG d   1      12.256   9.422   2.950  0.00  0.00    -0.191 NA
ATOM     42  H   LIG d   1      10.276   4.977   0.149  0.00  0.00     0.063 H 
ENDBRANCH  21  27
ENDBRANCH   1  17
TORSDOF 2
ENDMDL
MODEL 10
REMARK VINA RESULT:      -7.1      5.051      9.877
REMARK  2 active torsions:
REMARK  status: ('A' for Active; 'I' for Inactive)
REMARK    1  A    between atoms: C_3  and  C_20 
REMARK    2  A    between atoms: C_6  and  C_7 
ROOT
ATOM      1  C   LIG d   1       9.180   1.989  -4.288  0.00  0.00     0.274 A 
ATOM      2  N   LIG d   1       8.045   1.374  -4.088  0.00  0.00    -0.160 N 
ATOM      3  C   LIG d   1       8.022   0.112  -4.615  0.00  0.00     0.232 A 
ATOM      4  C   LIG d   1       7.033  -0.864  -4.631  0.00  0.00     0.029 A 
ATOM      5  C   LIG d   1       7.279  -2.099  -5.246  0.00  0.00     0.058 A 
ATOM      6  C   LIG d   1       8.512  -2.355  -5.841  0.00  0.00    -0.043 A 
ATOM      7  C   LIG d   1       9.503  -1.384  -5.828  0.00  0.00    -0.043 A 
ATOM      8  C   LIG d   1       9.265  -0.164  -5.222  0.00  0.00     0.101 A 
ATOM      9  C   LIG d   1      10.083   1.065  -5.032  0.00  0.00     0.265 A 
ATOM     10  O   LIG d   1      11.222   1.268  -5.398  0.00  0.00    -0.280 OA
ATOM     11  C   LIG d   1       6.258  -3.103  -5.262  0.00  0.00     0.099 C 
ATOM     12  N   LIG d   1       5.448  -3.899  -5.274  0.00  0.00    -0.191 NA
ATOM     13  O   LIG d   1       6.951   1.956  -3.403  0.00  0.00    -0.619 OA
ATOM     14  H   LIG d   1       6.076  -0.671  -4.171  0.00  0.00     0.070 H 
ATOM     15  H   LIG d   1       8.697  -3.309  -6.313  0.00  0.00     0.063 H 
ATOM     16  H   LIG d   1      10.460  -1.580  -6.290  0.00  0.00     0.063 H 
ENDROOT
BRANCH   1  17
ATOM     17  C   LIG d   1       9.514   3.355  -3.847  0.00  0.00     0.051 A 
ATOM     18  C   LIG d   1      10.182   3.557  -2.633  0.00  0.00    -0.047 A 
ATOM     19  C   LIG d   1      10.487   4.822  -2.223  0.00  0.00    -0.047 A 
ATOM     20  H   LIG d   1      10.451   2.710  -2.018  0.00  0.00     0.063 H 
ATOM     21  C   LIG d   1      10.141   5.918  -3.023  0.00  0.00     0.051 A 
ATOM     22  H   LIG d   1      10.997   4.977  -1.285  0.00  0.00     0.063 H 
ATOM     23  C   LIG d   1       9.474   5.717  -4.237  0.00  0.00    -0.047 A 
ATOM     24  C   LIG d   1       9.165   4.452  -4.644  0.00  0.00    -0.047 A 
ATOM     25  H   LIG d   1       9.205   6.563  -4.852  0.00  0.00     0.063 H 
ATOM     26  H   LIG d   1       8.651   4.297  -5.582  0.00  0.00     0.063 H 
BRANCH  21  27
ATOM     27  C   LIG d   1      10.475   7.286  -2.583  0.00  0.00     0.274 A 
ATOM     28  C   LIG d   1      11.567   8.139  -3.131  0.00  0.00     0.265 A 
ATOM     29  C   LIG d   1      11.468   9.400  -2.347  0.00  0.00     0.101 A 
ATOM     30  O   LIG d   1      12.355   7.868  -4.013  0.00  0.00    -0.280 OA
ATOM     31  C   LIG d   1      10.394   9.206  -1.454  0.00  0.00     0.232 A 
ATOM     32  C   LIG d   1      12.178  10.586  -2.356  0.00  0.00    -0.043 A 
ATOM     33  N   LIG d   1       9.860   7.961  -1.649  0.00  0.00    -0.160 N 
ATOM     34  C   LIG d   1      10.054  10.230  -0.577  0.00  0.00     0.029 A 
ATOM     35  O   LIG d   1       8.760   7.458  -0.913  0.00  0.00    -0.619 OA
ATOM     36  C   LIG d   1      10.776  11.430  -0.589  0.00  0.00     0.058 A 
ATOM     37  H   LIG d   1       9.234  10.099   0.114  0.00  0.00     0.070 H 
ATOM     38  C   LIG d   1      11.835  11.605  -1.478  0.00  0.00    -0.043 A 
ATOM     39  C   LIG d   1      10.424  12.482   0.315  0.00  0.00     0.099 C 
ATOM     40  H   LIG d   1      12.387  12.533  -1.484  0.00  0.00     0.063 H 
ATOM     41  N   LIG d   1      10.144  13.317   1.033  0.00  0.00    -0.191 NA
ATOM     42  H   LIG d   1      12.998  10.720  -3.045  0.00  0.00     0.063 H 
ENDBRANCH  21  27
ENDBRANCH   1  17
TORSDOF 2
ENDMDL
