MODEL 1
REMARK VINA RESULT:      -7.3      0.000      0.000
REMARK  4 active torsions:
REMARK  status: ('A' for Active; 'I' for Inactive)
REMARK    1  A    between atoms: C_1  and  C_2 
REMARK    2  A    between atoms: C_5  and  C_8 
REMARK    3  A    between atoms: C_8  and  N_9 
REMARK    4  A    between atoms: C_29  and  C_31 
ROOT
ATOM      1  N   LIG d   1       7.356  -5.885  -6.815  0.00  0.00    -0.287 N 
ATOM      2  C   LIG d   1       6.555  -5.498  -7.965  0.00  0.00     0.092 A 
ATOM      3  C   LIG d   1       6.227  -4.040  -7.954  0.00  0.00     0.234 A 
ATOM      4  O   LIG d   1       5.581  -3.599  -8.882  0.00  0.00    -0.274 OA
ATOM      5  N   LIG d   1       6.589  -3.207  -6.995  0.00  0.00    -0.276 N 
ATOM      6  C   LIG d   1       7.303  -3.610  -5.784  0.00  0.00     0.107 A 
ATOM      7  H   LIG d   1       8.202  -3.001  -5.688  0.00  0.00     0.060 H 
ATOM      8  C   LIG d   1       7.698  -5.051  -5.836  0.00  0.00     0.237 A 
ATOM      9  O   LIG d   1       8.373  -5.487  -4.928  0.00  0.00    -0.274 OA
ATOM     10  C   LIG d   1       6.405  -3.364  -4.564  0.00  0.00     0.002 C 
ATOM     11  C   LIG d   1       5.780  -1.998  -4.687  0.00  0.00    -0.015 A 
ATOM     12  C   LIG d   1       5.155  -1.199  -3.653  0.00  0.00     0.003 A 
ATOM     13  C   LIG d   1       4.940  -1.415  -2.288  0.00  0.00    -0.052 A 
ATOM     14  C   LIG d   1       4.301  -0.418  -1.595  0.00  0.00    -0.061 A 
ATOM     15  C   LIG d   1       3.881   0.752  -2.207  0.00  0.00    -0.060 A 
ATOM     16  C   LIG d   1       4.080   0.991  -3.556  0.00  0.00    -0.038 A 
ATOM     17  C   LIG d   1       4.729  -0.003  -4.286  0.00  0.00     0.047 A 
ATOM     18  N   LIG d   1       5.077  -0.093  -5.602  0.00  0.00    -0.356 N 
ATOM     19  H   LIG d   1       4.906   0.586  -6.272  0.00  0.00     0.166 HD
ATOM     20  C   LIG d   1       5.707  -1.287  -5.833  0.00  0.00     0.046 A 
ATOM     21  C   LIG d   1       6.254  -1.776  -7.155  0.00  0.00     0.092 C 
ATOM     22  H   LIG d   1       7.150  -1.212  -7.417  0.00  0.00     0.062 H 
ATOM     23  H   LIG d   1       7.107  -5.730  -8.875  0.00  0.00     0.056 H 
ATOM     24  H   LIG d   1       5.626  -6.069  -7.958  0.00  0.00     0.056 H 
ATOM     25  H   LIG d   1       7.004  -3.411  -3.654  0.00  0.00     0.034 H 
ATOM     26  H   LIG d   1       5.623  -4.122  -4.528  0.00  0.00     0.034 H 
ATOM     27  H   LIG d   1       5.263  -2.324  -1.802  0.00  0.00     0.062 H 
ATOM     28  H   LIG d   1       4.118  -0.549  -0.538  0.00  0.00     0.062 H 
ATOM     29  H   LIG d   1       3.383   1.503  -1.613  0.00  0.00     0.062 H 
ATOM     30  H   LIG d   1       3.747   1.907  -4.022  0.00  0.00     0.064 H 
ENDROOT
BRANCH   1  31
ATOM     31  C   LIG d   1       7.811  -7.275  -6.728  0.00  0.00     0.040 C 
ATOM     32  H   LIG d   1       7.798  -7.724  -7.722  0.00  0.00     0.051 H 
ATOM     33  H   LIG d   1       8.827  -7.300  -6.332  0.00  0.00     0.051 H 
BRANCH  31  34
ATOM     34  C   LIG d   1       6.896  -8.048  -5.815  0.00  0.00    -0.030 A 
ATOM     35  C   LIG d   1       5.533  -8.065  -6.055  0.00  0.00    -0.057 A 
ATOM     36  C   LIG d   1       4.693  -8.774  -5.218  0.00  0.00    -0.059 A 
ATOM     37  H   LIG d   1       5.127  -7.525  -6.897  0.00  0.00     0.062 H 
ATOM     38  C   LIG d   1       5.214  -9.467  -4.141  0.00  0.00    -0.050 A 
ATOM     39  H   LIG d   1       3.630  -8.789  -5.405  0.00  0.00     0.062 H 
ATOM     40  C   LIG d   1       6.575  -9.450  -3.901  0.00  0.00    -0.059 A 
ATOM     41  C   LIG d   1       7.416  -8.744  -4.741  0.00  0.00    -0.057 A 
ATOM     42  H   LIG d   1       6.982  -9.990  -3.060  0.00  0.00     0.062 H 
ATOM     43  H   LIG d   1       8.481  -8.734  -4.556  0.00  0.00     0.062 H 
BRANCH  38  44
ATOM     44  C   LIG d   1       4.298 -10.241  -3.228  0.00  0.00    -0.040 C 
ATOM     45  H   LIG d   1       4.804 -10.432  -2.282  0.00  0.00     0.028 H 
ATOM     46  H   LIG d   1       3.393  -9.662  -3.046  0.00  0.00     0.028 H 
ATOM     47  H   LIG d   1       4.035 -11.189  -3.697  0.00  0.00     0.028 H 
ENDBRANCH  38  44
ENDBRANCH  31  34
ENDBRANCH   1  31
BRANCH  21  48
ATOM     48  C   LIG d   1       5.213  -1.611  -8.233  0.00  0.00    -0.021 A 
ATOM     49  C   LIG d   1       5.570  -1.091  -9.464  0.00  0.00    -0.055 A 
ATOM     50  C   LIG d   1       4.615  -0.939 -10.452  0.00  0.00    -0.043 A 
ATOM     51  H   LIG d   1       6.594  -0.804  -9.652  0.00  0.00     0.062 H 
ATOM     52  C   LIG d   1       3.304  -1.307 -10.209  0.00  0.00     0.041 A 
ATOM     53  H   LIG d   1       4.893  -0.532 -11.413  0.00  0.00     0.063 H 
ATOM     54  C   LIG d   1       2.948  -1.828  -8.978  0.00  0.00    -0.043 A 
ATOM     55 CL   LIG d   1       2.105  -1.117 -11.451  0.00  0.00    -0.084 Cl
ATOM     56  C   LIG d   1       3.904  -1.979  -7.990  0.00  0.00    -0.055 A 
ATOM     57  H   LIG d   1       1.924  -2.112  -8.787  0.00  0.00     0.063 H 
ATOM     58  H   LIG d   1       3.625  -2.385  -7.029  0.00  0.00     0.062 H 
ENDBRANCH  21  48
TORSDOF 4
ENDMDL
MODEL 2
REMARK VINA RESULT:      -7.3      2.603      5.066
REMARK  4 active torsions:
REMARK  status: ('A' for Active; 'I' for Inactive)
REMARK    1  A    between atoms: C_1  and  C_2 
REMARK    2  A    between atoms: C_5  and  C_8 
REMARK    3  A    between atoms: C_8  and  N_9 
REMARK    4  A    between atoms: C_29  and  C_31 
ROOT
ATOM      1  N   LIG d   1       7.826  -5.046  -5.730  0.00  0.00    -0.287 N 
ATOM      2  C   LIG d   1       7.600  -4.211  -4.562  0.00  0.00     0.092 A 
ATOM      3  C   LIG d   1       6.370  -3.374  -4.701  0.00  0.00     0.234 A 
ATOM      4  O   LIG d   1       6.068  -2.653  -3.773  0.00  0.00    -0.274 OA
ATOM      5  N   LIG d   1       5.599  -3.364  -5.774  0.00  0.00    -0.276 N 
ATOM      6  C   LIG d   1       5.879  -4.121  -6.993  0.00  0.00     0.107 A 
ATOM      7  H   LIG d   1       5.008  -4.731  -7.235  0.00  0.00     0.060 H 
ATOM      8  C   LIG d   1       7.064  -5.017  -6.820  0.00  0.00     0.237 A 
ATOM      9  O   LIG d   1       7.347  -5.763  -7.732  0.00  0.00    -0.274 OA
ATOM     10  C   LIG d   1       6.134  -3.142  -8.147  0.00  0.00     0.002 C 
ATOM     11  C   LIG d   1       5.077  -2.068  -8.117  0.00  0.00    -0.015 A 
ATOM     12  C   LIG d   1       4.700  -1.150  -9.172  0.00  0.00     0.003 A 
ATOM     13  C   LIG d   1       5.158  -0.968 -10.480  0.00  0.00    -0.052 A 
ATOM     14  C   LIG d   1       4.557   0.021 -11.218  0.00  0.00    -0.061 A 
ATOM     15  C   LIG d   1       3.543   0.811 -10.701  0.00  0.00    -0.060 A 
ATOM     16  C   LIG d   1       3.071   0.654  -9.409  0.00  0.00    -0.038 A 
ATOM     17  C   LIG d   1       3.662  -0.345  -8.637  0.00  0.00     0.047 A 
ATOM     18  N   LIG d   1       3.444  -0.760  -7.355  0.00  0.00    -0.356 N 
ATOM     19  H   LIG d   1       2.787  -0.383  -6.750  0.00  0.00     0.166 HD
ATOM     20  C   LIG d   1       4.293  -1.792  -7.053  0.00  0.00     0.046 A 
ATOM     21  C   LIG d   1       4.373  -2.537  -5.741  0.00  0.00     0.092 C 
ATOM     22  H   LIG d   1       3.498  -3.176  -5.623  0.00  0.00     0.062 H 
ATOM     23  H   LIG d   1       7.496  -4.850  -3.685  0.00  0.00     0.056 H 
ATOM     24  H   LIG d   1       8.459  -3.555  -4.423  0.00  0.00     0.056 H 
ATOM     25  H   LIG d   1       6.086  -3.676  -9.097  0.00  0.00     0.034 H 
ATOM     26  H   LIG d   1       7.119  -2.690  -8.030  0.00  0.00     0.034 H 
ATOM     27  H   LIG d   1       5.949  -1.578 -10.891  0.00  0.00     0.062 H 
ATOM     28  H   LIG d   1       4.885   0.190 -12.233  0.00  0.00     0.062 H 
ATOM     29  H   LIG d   1       3.106   1.575 -11.326  0.00  0.00     0.062 H 
ATOM     30  H   LIG d   1       2.280   1.277  -9.017  0.00  0.00     0.064 H 
ENDROOT
BRANCH   1  31
ATOM     31  C   LIG d   1       8.960  -5.973  -5.706  0.00  0.00     0.040 C 
ATOM     32  H   LIG d   1       9.005  -6.517  -6.650  0.00  0.00     0.051 H 
ATOM     33  H   LIG d   1       9.884  -5.412  -5.567  0.00  0.00     0.051 H 
BRANCH  31  34
ATOM     34  C   LIG d   1       8.788  -6.949  -4.572  0.00  0.00    -0.030 A 
ATOM     35  C   LIG d   1       7.825  -7.939  -4.651  0.00  0.00    -0.057 A 
ATOM     36  C   LIG d   1       7.668  -8.834  -3.610  0.00  0.00    -0.059 A 
ATOM     37  H   LIG d   1       7.198  -8.012  -5.526  0.00  0.00     0.062 H 
ATOM     38  C   LIG d   1       8.473  -8.741  -2.490  0.00  0.00    -0.050 A 
ATOM     39  H   LIG d   1       6.916  -9.607  -3.672  0.00  0.00     0.062 H 
ATOM     40  C   LIG d   1       9.435  -7.753  -2.410  0.00  0.00    -0.059 A 
ATOM     41  C   LIG d   1       9.596  -6.860  -3.454  0.00  0.00    -0.057 A 
ATOM     42  H   LIG d   1      10.064  -7.680  -1.536  0.00  0.00     0.062 H 
ATOM     43  H   LIG d   1      10.351  -6.089  -3.393  0.00  0.00     0.062 H 
BRANCH  38  44
ATOM     44  C   LIG d   1       8.301  -9.718  -1.355  0.00  0.00    -0.040 C 
ATOM     45  H   LIG d   1       7.261 -10.038  -1.305  0.00  0.00     0.028 H 
ATOM     46  H   LIG d   1       8.941 -10.585  -1.522  0.00  0.00     0.028 H 
ATOM     47  H   LIG d   1       8.579  -9.237  -0.417  0.00  0.00     0.028 H 
ENDBRANCH  38  44
ENDBRANCH  31  34
ENDBRANCH   1  31
BRANCH  21  48
ATOM     48  C   LIG d   1       4.447  -1.557  -4.598  0.00  0.00    -0.021 A 
ATOM     49  C   LIG d   1       3.676  -1.754  -3.467  0.00  0.00    -0.055 A 
ATOM     50  C   LIG d   1       3.744  -0.855  -2.419  0.00  0.00    -0.043 A 
ATOM     51  H   LIG d   1       3.022  -2.611  -3.403  0.00  0.00     0.062 H 
ATOM     52  C   LIG d   1       4.583   0.242  -2.503  0.00  0.00     0.041 A 
ATOM     53  H   LIG d   1       3.141  -1.009  -1.536  0.00  0.00     0.063 H 
ATOM     54  C   LIG d   1       5.354   0.439  -3.634  0.00  0.00    -0.043 A 
ATOM     55 CL   LIG d   1       4.668   1.371  -1.187  0.00  0.00    -0.084 Cl
ATOM     56  C   LIG d   1       5.285  -0.462  -4.681  0.00  0.00    -0.055 A 
ATOM     57  H   LIG d   1       6.006   1.297  -3.701  0.00  0.00     0.063 H 
ATOM     58  H   LIG d   1       5.888  -0.307  -5.565  0.00  0.00     0.062 H 
ENDBRANCH  21  48
TORSDOF 4
ENDMDL
MODEL 3
REMARK VINA RESULT:      -7.2      5.744      8.510
REMARK  4 active torsions:
REMARK  status: ('A' for Active; 'I' for Inactive)
REMARK    1  A    between atoms: C_1  and  C_2 
REMARK    2  A    between atoms: C_5  and  C_8 
REMARK    3  A    between atoms: C_8  and  N_9 
REMARK    4  A    between atoms: C_29  and  C_31 
ROOT
ATOM      1  N   LIG d   1      11.680  -0.469  -6.239  0.00  0.00    -0.287 N 
ATOM      2  C   LIG d   1      11.983  -1.728  -5.579  0.00  0.00     0.092 A 
ATOM      3  C   LIG d   1      10.745  -2.463  -5.179  0.00  0.00     0.234 A 
ATOM      4  O   LIG d   1      10.877  -3.542  -4.641  0.00  0.00    -0.274 OA
ATOM      5  N   LIG d   1       9.520  -2.006  -5.367  0.00  0.00    -0.276 N 
ATOM      6  C   LIG d   1       9.211  -0.694  -5.934  0.00  0.00     0.107 A 
ATOM      7  H   LIG d   1       8.537  -0.826  -6.780  0.00  0.00     0.060 H 
ATOM      8  C   LIG d   1      10.447   0.003  -6.405  0.00  0.00     0.237 A 
ATOM      9  O   LIG d   1      10.317   1.065  -6.975  0.00  0.00    -0.274 OA
ATOM     10  C   LIG d   1       8.509   0.162  -4.871  0.00  0.00     0.002 C 
ATOM     11  C   LIG d   1       7.447  -0.671  -4.199  0.00  0.00    -0.015 A 
ATOM     12  C   LIG d   1       6.324  -0.222  -3.402  0.00  0.00     0.003 A 
ATOM     13  C   LIG d   1       5.880   1.047  -3.019  0.00  0.00    -0.052 A 
ATOM     14  C   LIG d   1       4.749   1.102  -2.243  0.00  0.00    -0.061 A 
ATOM     15  C   LIG d   1       4.071  -0.041  -1.850  0.00  0.00    -0.060 A 
ATOM     16  C   LIG d   1       4.488  -1.309  -2.214  0.00  0.00    -0.038 A 
ATOM     17  C   LIG d   1       5.633  -1.395  -3.004  0.00  0.00     0.047 A 
ATOM     18  N   LIG d   1       6.305  -2.461  -3.528  0.00  0.00    -0.356 N 
ATOM     19  H   LIG d   1       6.055  -3.391  -3.413  0.00  0.00     0.166 HD
ATOM     20  C   LIG d   1       7.387  -2.019  -4.243  0.00  0.00     0.046 A 
ATOM     21  C   LIG d   1       8.387  -2.876  -4.985  0.00  0.00     0.092 C 
ATOM     22  H   LIG d   1       7.924  -3.297  -5.877  0.00  0.00     0.062 H 
ATOM     23  H   LIG d   1      12.562  -2.353  -6.259  0.00  0.00     0.056 H 
ATOM     24  H   LIG d   1      12.578  -1.527  -4.688  0.00  0.00     0.056 H 
ATOM     25  H   LIG d   1       8.047   1.028  -5.345  0.00  0.00     0.034 H 
ATOM     26  H   LIG d   1       9.237   0.493  -4.130  0.00  0.00     0.034 H 
ATOM     27  H   LIG d   1       6.403   1.943  -3.320  0.00  0.00     0.062 H 
ATOM     28  H   LIG d   1       4.376   2.065  -1.929  0.00  0.00     0.062 H 
ATOM     29  H   LIG d   1       3.186   0.062  -1.240  0.00  0.00     0.062 H 
ATOM     30  H   LIG d   1       3.951  -2.192  -1.900  0.00  0.00     0.064 H 
ENDROOT
BRANCH   1  31
ATOM     31  C   LIG d   1      12.799   0.329  -6.749  0.00  0.00     0.040 C 
ATOM     32  H   LIG d   1      13.403  -0.281  -7.422  0.00  0.00     0.051 H 
ATOM     33  H   LIG d   1      12.412   1.192  -7.290  0.00  0.00     0.051 H 
BRANCH  31  34
ATOM     34  C   LIG d   1      13.648   0.798  -5.597  0.00  0.00    -0.030 A 
ATOM     35  C   LIG d   1      14.921   0.285  -5.423  0.00  0.00    -0.057 A 
ATOM     36  C   LIG d   1      15.701   0.715  -4.365  0.00  0.00    -0.059 A 
ATOM     37  H   LIG d   1      15.305  -0.451  -6.113  0.00  0.00     0.062 H 
ATOM     38  C   LIG d   1      15.209   1.658  -3.483  0.00  0.00    -0.050 A 
ATOM     39  H   LIG d   1      16.695   0.314  -4.229  0.00  0.00     0.062 H 
ATOM     40  C   LIG d   1      13.938   2.171  -3.656  0.00  0.00    -0.059 A 
ATOM     41  C   LIG d   1      13.159   1.744  -4.717  0.00  0.00    -0.057 A 
ATOM     42  H   LIG d   1      13.553   2.907  -2.967  0.00  0.00     0.062 H 
ATOM     43  H   LIG d   1      12.167   2.148  -4.855  0.00  0.00     0.062 H 
BRANCH  38  44
ATOM     44  C   LIG d   1      16.060   2.127  -2.330  0.00  0.00    -0.040 C 
ATOM     45  H   LIG d   1      16.594   1.279  -1.903  0.00  0.00     0.028 H 
ATOM     46  H   LIG d   1      16.777   2.867  -2.686  0.00  0.00     0.028 H 
ATOM     47  H   LIG d   1      15.422   2.576  -1.568  0.00  0.00     0.028 H 
ENDBRANCH  38  44
ENDBRANCH  31  34
ENDBRANCH   1  31
BRANCH  21  48
ATOM     48  C   LIG d   1       8.875  -3.987  -4.089  0.00  0.00    -0.021 A 
ATOM     49  C   LIG d   1       8.920  -5.286  -4.561  0.00  0.00    -0.055 A 
ATOM     50  C   LIG d   1       9.366  -6.304  -3.741  0.00  0.00    -0.043 A 
ATOM     51  H   LIG d   1       8.606  -5.504  -5.572  0.00  0.00     0.062 H 
ATOM     52  C   LIG d   1       9.768  -6.023  -2.446  0.00  0.00     0.041 A 
ATOM     53  H   LIG d   1       9.401  -7.319  -4.109  0.00  0.00     0.063 H 
ATOM     54  C   LIG d   1       9.723  -4.724  -1.975  0.00  0.00    -0.043 A 
ATOM     55 CL   LIG d   1      10.329  -7.302  -1.415  0.00  0.00    -0.084 Cl
ATOM     56  C   LIG d   1       9.276  -3.706  -2.798  0.00  0.00    -0.055 A 
ATOM     57  H   LIG d   1      10.033  -4.505  -0.964  0.00  0.00     0.063 H 
ATOM     58  H   LIG d   1       9.241  -2.691  -2.428  0.00  0.00     0.062 H 
ENDBRANCH  21  48
TORSDOF 4
ENDMDL
MODEL 4
REMARK VINA RESULT:      -7.1      3.270      7.165
REMARK  4 active torsions:
REMARK  status: ('A' for Active; 'I' for Inactive)
REMARK    1  A    between atoms: C_1  and  C_2 
REMARK    2  A    between atoms: C_5  and  C_8 
REMARK    3  A    between atoms: C_8  and  N_9 
REMARK    4  A    between atoms: C_29  and  C_31 
ROOT
ATOM      1  N   LIG d   1       4.219  -0.443 -10.305  0.00  0.00    -0.287 N 
ATOM      2  C   LIG d   1       5.361  -1.341 -10.279  0.00  0.00     0.092 A 
ATOM      3  C   LIG d   1       5.420  -2.137  -9.016  0.00  0.00     0.234 A 
ATOM      4  O   LIG d   1       6.321  -2.940  -8.896  0.00  0.00    -0.274 OA
ATOM      5  N   LIG d   1       4.559  -2.013  -8.023  0.00  0.00    -0.276 N 
ATOM      6  C   LIG d   1       3.470  -1.037  -7.997  0.00  0.00     0.107 A 
ATOM      7  H   LIG d   1       2.532  -1.562  -7.814  0.00  0.00     0.060 H 
ATOM      8  C   LIG d   1       3.366  -0.300  -9.293  0.00  0.00     0.237 A 
ATOM      9  O   LIG d   1       2.447   0.478  -9.431  0.00  0.00    -0.274 OA
ATOM     10  C   LIG d   1       3.712  -0.042  -6.854  0.00  0.00     0.002 C 
ATOM     11  C   LIG d   1       4.107  -0.808  -5.617  0.00  0.00    -0.015 A 
ATOM     12  C   LIG d   1       4.098  -0.357  -4.241  0.00  0.00     0.003 A 
ATOM     13  C   LIG d   1       3.743   0.855  -3.642  0.00  0.00    -0.052 A 
ATOM     14  C   LIG d   1       3.861   0.932  -2.276  0.00  0.00    -0.061 A 
ATOM     15  C   LIG d   1       4.312  -0.134  -1.516  0.00  0.00    -0.060 A 
ATOM     16  C   LIG d   1       4.671  -1.345  -2.082  0.00  0.00    -0.038 A 
ATOM     17  C   LIG d   1       4.560  -1.453  -3.467  0.00  0.00     0.047 A 
ATOM     18  N   LIG d   1       4.824  -2.477  -4.329  0.00  0.00    -0.356 N 
ATOM     19  H   LIG d   1       5.155  -3.352  -4.074  0.00  0.00     0.166 HD
ATOM     20  C   LIG d   1       4.548  -2.084  -5.613  0.00  0.00     0.046 A 
ATOM     21  C   LIG d   1       4.700  -2.920  -6.863  0.00  0.00     0.092 C 
ATOM     22  H   LIG d   1       3.925  -3.685  -6.893  0.00  0.00     0.062 H 
ATOM     23  H   LIG d   1       5.293  -2.024 -11.126  0.00  0.00     0.056 H 
ATOM     24  H   LIG d   1       6.276  -0.755 -10.370  0.00  0.00     0.056 H 
ATOM     25  H   LIG d   1       2.798   0.520  -6.659  0.00  0.00     0.034 H 
ATOM     26  H   LIG d   1       4.513   0.644  -7.131  0.00  0.00     0.034 H 
ATOM     27  H   LIG d   1       3.391   1.692  -4.227  0.00  0.00     0.062 H 
ATOM     28  H   LIG d   1       3.595   1.853  -1.779  0.00  0.00     0.062 H 
ATOM     29  H   LIG d   1       4.385  -0.018  -0.445  0.00  0.00     0.062 H 
ATOM     30  H   LIG d   1       5.022  -2.169  -1.478  0.00  0.00     0.064 H 
ENDROOT
BRANCH   1  31
ATOM     31  C   LIG d   1       3.994   0.353 -11.514  0.00  0.00     0.040 C 
ATOM     32  H   LIG d   1       3.202   1.080 -11.329  0.00  0.00     0.051 H 
ATOM     33  H   LIG d   1       4.912   0.877 -11.780  0.00  0.00     0.051 H 
BRANCH  31  34
ATOM     34  C   LIG d   1       3.588  -0.555 -12.646  0.00  0.00    -0.030 A 
ATOM     35  C   LIG d   1       2.449  -1.332 -12.534  0.00  0.00    -0.057 A 
ATOM     36  C   LIG d   1       2.076  -2.165 -13.572  0.00  0.00    -0.059 A 
ATOM     37  H   LIG d   1       1.851  -1.287 -11.636  0.00  0.00     0.062 H 
ATOM     38  C   LIG d   1       2.841  -2.222 -14.722  0.00  0.00    -0.050 A 
ATOM     39  H   LIG d   1       1.187  -2.772 -13.485  0.00  0.00     0.062 H 
ATOM     40  C   LIG d   1       3.979  -1.445 -14.834  0.00  0.00    -0.059 A 
ATOM     41  C   LIG d   1       4.349  -0.608 -13.798  0.00  0.00    -0.057 A 
ATOM     42  H   LIG d   1       4.576  -1.489 -15.732  0.00  0.00     0.062 H 
ATOM     43  H   LIG d   1       5.237   0.001 -13.887  0.00  0.00     0.062 H 
BRANCH  38  44
ATOM     44  C   LIG d   1       2.434  -3.130 -15.854  0.00  0.00    -0.040 C 
ATOM     45  H   LIG d   1       1.383  -2.966 -16.092  0.00  0.00     0.028 H 
ATOM     46  H   LIG d   1       3.044  -2.912 -16.731  0.00  0.00     0.028 H 
ATOM     47  H   LIG d   1       2.582  -4.168 -15.557  0.00  0.00     0.028 H 
ENDBRANCH  38  44
ENDBRANCH  31  34
ENDBRANCH   1  31
BRANCH  21  48
ATOM     48  C   LIG d   1       6.061  -3.569  -6.884  0.00  0.00    -0.021 A 
ATOM     49  C   LIG d   1       7.183  -2.834  -6.549  0.00  0.00    -0.055 A 
ATOM     50  C   LIG d   1       8.430  -3.429  -6.569  0.00  0.00    -0.043 A 
ATOM     51  H   LIG d   1       7.084  -1.794  -6.272  0.00  0.00     0.062 H 
ATOM     52  C   LIG d   1       8.555  -4.761  -6.923  0.00  0.00     0.041 A 
ATOM     53  H   LIG d   1       9.306  -2.854  -6.308  0.00  0.00     0.063 H 
ATOM     54  C   LIG d   1       7.432  -5.496  -7.257  0.00  0.00    -0.043 A 
ATOM     55 CL   LIG d   1      10.122  -5.508  -6.947  0.00  0.00    -0.084 Cl
ATOM     56  C   LIG d   1       6.185  -4.899  -7.237  0.00  0.00    -0.055 A 
ATOM     57  H   LIG d   1       7.530  -6.534  -7.538  0.00  0.00     0.063 H 
ATOM     58  H   LIG d   1       5.309  -5.474  -7.499  0.00  0.00     0.062 H 
ENDBRANCH  21  48
TORSDOF 4
ENDMDL
MODEL 5
REMARK VINA RESULT:      -7.0      3.812      7.788
REMARK  4 active torsions:
REMARK  status: ('A' for Active; 'I' for Inactive)
REMARK    1  A    between atoms: C_1  and  C_2 
REMARK    2  A    between atoms: C_5  and  C_8 
REMARK    3  A    between atoms: C_8  and  N_9 
REMARK    4  A    between atoms: C_29  and  C_31 
ROOT
ATOM      1  N   LIG d   1       8.847   0.691  -6.504  0.00  0.00    -0.287 N 
ATOM      2  C   LIG d   1       7.712   1.035  -7.344  0.00  0.00     0.092 A 
ATOM      3  C   LIG d   1       6.496   0.237  -6.998  0.00  0.00     0.234 A 
ATOM      4  O   LIG d   1       5.479   0.459  -7.621  0.00  0.00    -0.274 OA
ATOM      5  N   LIG d   1       6.465  -0.697  -6.065  0.00  0.00    -0.276 N 
ATOM      6  C   LIG d   1       7.629  -1.121  -5.289  0.00  0.00     0.107 A 
ATOM      7  H   LIG d   1       7.392  -1.044  -4.228  0.00  0.00     0.060 H 
ATOM      8  C   LIG d   1       8.822  -0.268  -5.582  0.00  0.00     0.237 A 
ATOM      9  O   LIG d   1       9.830  -0.463  -4.937  0.00  0.00    -0.274 OA
ATOM     10  C   LIG d   1       7.949  -2.586  -5.619  0.00  0.00     0.002 C 
ATOM     11  C   LIG d   1       6.666  -3.379  -5.605  0.00  0.00    -0.015 A 
ATOM     12  C   LIG d   1       6.499  -4.815  -5.515  0.00  0.00     0.003 A 
ATOM     13  C   LIG d   1       7.409  -5.871  -5.415  0.00  0.00    -0.052 A 
ATOM     14  C   LIG d   1       6.886  -7.138  -5.346  0.00  0.00    -0.061 A 
ATOM     15  C   LIG d   1       5.521  -7.372  -5.375  0.00  0.00    -0.060 A 
ATOM     16  C   LIG d   1       4.597  -6.346  -5.474  0.00  0.00    -0.038 A 
ATOM     17  C   LIG d   1       5.100  -5.048  -5.543  0.00  0.00     0.047 A 
ATOM     18  N   LIG d   1       4.487  -3.833  -5.646  0.00  0.00    -0.356 N 
ATOM     19  H   LIG d   1       3.529  -3.693  -5.686  0.00  0.00     0.166 HD
ATOM     20  C   LIG d   1       5.430  -2.840  -5.680  0.00  0.00     0.046 A 
ATOM     21  C   LIG d   1       5.171  -1.355  -5.783  0.00  0.00     0.092 C 
ATOM     22  H   LIG d   1       4.762  -0.983  -4.843  0.00  0.00     0.062 H 
ATOM     23  H   LIG d   1       7.488   2.094  -7.220  0.00  0.00     0.056 H 
ATOM     24  H   LIG d   1       7.972   0.847  -8.386  0.00  0.00     0.056 H 
ATOM     25  H   LIG d   1       8.635  -2.988  -4.872  0.00  0.00     0.034 H 
ATOM     26  H   LIG d   1       8.405  -2.646  -6.607  0.00  0.00     0.034 H 
ATOM     27  H   LIG d   1       8.475  -5.698  -5.393  0.00  0.00     0.062 H 
ATOM     28  H   LIG d   1       7.559  -7.979  -5.268  0.00  0.00     0.062 H 
ATOM     29  H   LIG d   1       5.164  -8.390  -5.317  0.00  0.00     0.062 H 
ATOM     30  H   LIG d   1       3.535  -6.542  -5.496  0.00  0.00     0.064 H 
ENDROOT
BRANCH   1  31
ATOM     31  C   LIG d   1      10.091   1.443  -6.684  0.00  0.00     0.040 C 
ATOM     32  H   LIG d   1      10.880   0.989  -6.082  0.00  0.00     0.051 H 
ATOM     33  H   LIG d   1      10.379   1.422  -7.735  0.00  0.00     0.051 H 
BRANCH  31  34
ATOM     34  C   LIG d   1       9.884   2.870  -6.247  0.00  0.00    -0.030 A 
ATOM     35  C   LIG d   1       9.505   3.147  -4.946  0.00  0.00    -0.057 A 
ATOM     36  C   LIG d   1       9.315   4.456  -4.545  0.00  0.00    -0.059 A 
ATOM     37  H   LIG d   1       9.358   2.340  -4.244  0.00  0.00     0.062 H 
ATOM     38  C   LIG d   1       9.505   5.488  -5.444  0.00  0.00    -0.050 A 
ATOM     39  H   LIG d   1       9.020   4.672  -3.529  0.00  0.00     0.062 H 
ATOM     40  C   LIG d   1       9.884   5.212  -6.744  0.00  0.00    -0.059 A 
ATOM     41  C   LIG d   1      10.079   3.903  -7.144  0.00  0.00    -0.057 A 
ATOM     42  H   LIG d   1      10.033   6.018  -7.447  0.00  0.00     0.062 H 
ATOM     43  H   LIG d   1      10.379   3.687  -8.159  0.00  0.00     0.062 H 
BRANCH  38  44
ATOM     44  C   LIG d   1       9.299   6.916  -5.007  0.00  0.00    -0.040 C 
ATOM     45  H   LIG d   1       8.996   6.936  -3.961  0.00  0.00     0.028 H 
ATOM     46  H   LIG d   1      10.229   7.471  -5.128  0.00  0.00     0.028 H 
ATOM     47  H   LIG d   1       8.521   7.374  -5.619  0.00  0.00     0.028 H 
ENDBRANCH  38  44
ENDBRANCH  31  34
ENDBRANCH   1  31
BRANCH  21  48
ATOM     48  C   LIG d   1       4.202  -1.080  -6.906  0.00  0.00    -0.021 A 
ATOM     49  C   LIG d   1       3.243  -0.095  -6.765  0.00  0.00    -0.055 A 
ATOM     50  C   LIG d   1       2.354   0.156  -7.793  0.00  0.00    -0.043 A 
ATOM     51  H   LIG d   1       3.188   0.478  -5.851  0.00  0.00     0.062 H 
ATOM     52  C   LIG d   1       2.426  -0.579  -8.964  0.00  0.00     0.041 A 
ATOM     53  H   LIG d   1       1.604   0.925  -7.683  0.00  0.00     0.063 H 
ATOM     54  C   LIG d   1       3.386  -1.564  -9.104  0.00  0.00    -0.043 A 
ATOM     55 CL   LIG d   1       1.310  -0.264 -10.256  0.00  0.00    -0.084 Cl
ATOM     56  C   LIG d   1       4.274  -1.815  -8.074  0.00  0.00    -0.055 A 
ATOM     57  H   LIG d   1       3.439  -2.141 -10.015  0.00  0.00     0.063 H 
ATOM     58  H   LIG d   1       5.024  -2.585  -8.184  0.00  0.00     0.062 H 
ENDBRANCH  21  48
TORSDOF 4
ENDMDL
MODEL 6
REMARK VINA RESULT:      -6.9      7.978     10.487
REMARK  4 active torsions:
REMARK  status: ('A' for Active; 'I' for Inactive)
REMARK    1  A    between atoms: C_1  and  C_2 
REMARK    2  A    between atoms: C_5  and  C_8 
REMARK    3  A    between atoms: C_8  and  N_9 
REMARK    4  A    between atoms: C_29  and  C_31 
ROOT
ATOM      1  N   LIG d   1       9.079   1.649  -4.702  0.00  0.00    -0.287 N 
ATOM      2  C   LIG d   1       9.566   2.251  -3.473  0.00  0.00     0.092 A 
ATOM      3  C   LIG d   1       9.592   3.743  -3.551  0.00  0.00     0.234 A 
ATOM      4  O   LIG d   1       9.959   4.354  -2.569  0.00  0.00    -0.274 OA
ATOM      5  N   LIG d   1       9.249   4.434  -4.623  0.00  0.00    -0.276 N 
ATOM      6  C   LIG d   1       8.859   3.832  -5.897  0.00  0.00     0.107 A 
ATOM      7  H   LIG d   1       7.889   4.231  -6.192  0.00  0.00     0.060 H 
ATOM      8  C   LIG d   1       8.758   2.344  -5.791  0.00  0.00     0.237 A 
ATOM      9  O   LIG d   1       8.358   1.732  -6.758  0.00  0.00    -0.274 OA
ATOM     10  C   LIG d   1       9.894   4.204  -6.968  0.00  0.00     0.002 C 
ATOM     11  C   LIG d   1      10.200   5.676  -6.858  0.00  0.00    -0.015 A 
ATOM     12  C   LIG d   1      10.828   6.539  -7.837  0.00  0.00     0.003 A 
ATOM     13  C   LIG d   1      11.323   6.309  -9.124  0.00  0.00    -0.052 A 
ATOM     14  C   LIG d   1      11.864   7.385  -9.783  0.00  0.00    -0.061 A 
ATOM     15  C   LIG d   1      11.924   8.645  -9.210  0.00  0.00    -0.060 A 
ATOM     16  C   LIG d   1      11.442   8.900  -7.938  0.00  0.00    -0.038 A 
ATOM     17  C   LIG d   1      10.886   7.826  -7.245  0.00  0.00     0.047 A 
ATOM     18  N   LIG d   1      10.332   7.728  -6.002  0.00  0.00    -0.356 N 
ATOM     19  H   LIG d   1      10.240   8.459  -5.372  0.00  0.00     0.166 HD
ATOM     20  C   LIG d   1       9.922   6.439  -5.779  0.00  0.00     0.046 A 
ATOM     21  C   LIG d   1       9.256   5.909  -4.530  0.00  0.00     0.092 C 
ATOM     22  H   LIG d   1       8.233   6.282  -4.469  0.00  0.00     0.062 H 
ATOM     23  H   LIG d   1       8.917   1.950  -2.650  0.00  0.00     0.056 H 
ATOM     24  H   LIG d   1      10.576   1.890  -3.277  0.00  0.00     0.056 H 
ATOM     25  H   LIG d   1       9.490   3.988  -7.958  0.00  0.00     0.034 H 
ATOM     26  H   LIG d   1      10.806   3.628  -6.810  0.00  0.00     0.034 H 
ATOM     27  H   LIG d   1      11.282   5.330  -9.579  0.00  0.00     0.062 H 
ATOM     28  H   LIG d   1      12.256   7.245 -10.780  0.00  0.00     0.062 H 
ATOM     29  H   LIG d   1      12.360   9.455  -9.774  0.00  0.00     0.062 H 
ATOM     30  H   LIG d   1      11.495   9.887  -7.501  0.00  0.00     0.064 H 
ENDROOT
BRANCH   1  31
ATOM     31  C   LIG d   1       8.934   0.192  -4.747  0.00  0.00     0.040 C 
ATOM     32  H   LIG d   1       8.915  -0.140  -5.786  0.00  0.00     0.051 H 
ATOM     33  H   LIG d   1       9.776  -0.273  -4.233  0.00  0.00     0.051 H 
BRANCH  31  34
ATOM     34  C   LIG d   1       7.649  -0.207  -4.070  0.00  0.00    -0.030 A 
ATOM     35  C   LIG d   1       7.300  -1.542  -3.979  0.00  0.00    -0.057 A 
ATOM     36  C   LIG d   1       6.120  -1.908  -3.358  0.00  0.00    -0.059 A 
ATOM     37  H   LIG d   1       7.949  -2.299  -4.394  0.00  0.00     0.062 H 
ATOM     38  C   LIG d   1       5.290  -0.939  -2.826  0.00  0.00    -0.050 A 
ATOM     39  H   LIG d   1       5.848  -2.951  -3.287  0.00  0.00     0.062 H 
ATOM     40  C   LIG d   1       5.638   0.395  -2.915  0.00  0.00    -0.059 A 
ATOM     41  C   LIG d   1       6.821   0.761  -3.533  0.00  0.00    -0.057 A 
ATOM     42  H   LIG d   1       4.991   1.152  -2.500  0.00  0.00     0.062 H 
ATOM     43  H   LIG d   1       7.095   1.804  -3.600  0.00  0.00     0.062 H 
BRANCH  38  44
ATOM     44  C   LIG d   1       4.005  -1.338  -2.148  0.00  0.00    -0.040 C 
ATOM     45  H   LIG d   1       4.065  -2.381  -1.839  0.00  0.00     0.028 H 
ATOM     46  H   LIG d   1       3.845  -0.708  -1.272  0.00  0.00     0.028 H 
ATOM     47  H   LIG d   1       3.174  -1.212  -2.842  0.00  0.00     0.028 H 
ENDBRANCH  38  44
ENDBRANCH  31  34
ENDBRANCH   1  31
BRANCH  21  48
ATOM     48  C   LIG d   1      10.031   6.342  -3.312  0.00  0.00    -0.021 A 
ATOM     49  C   LIG d   1      11.411   6.261  -3.306  0.00  0.00    -0.055 A 
ATOM     50  C   LIG d   1      12.122   6.658  -2.189  0.00  0.00    -0.043 A 
ATOM     51  H   LIG d   1      11.934   5.889  -4.176  0.00  0.00     0.062 H 
ATOM     52  C   LIG d   1      11.452   7.136  -1.077  0.00  0.00     0.041 A 
ATOM     53  H   LIG d   1      13.200   6.594  -2.185  0.00  0.00     0.063 H 
ATOM     54  C   LIG d   1      10.071   7.217  -1.083  0.00  0.00    -0.043 A 
ATOM     55 CL   LIG d   1      12.345   7.634   0.326  0.00  0.00    -0.084 Cl
ATOM     56  C   LIG d   1       9.362   6.820  -2.201  0.00  0.00    -0.055 A 
ATOM     57  H   LIG d   1       9.548   7.586  -0.214  0.00  0.00     0.063 H 
ATOM     58  H   LIG d   1       8.283   6.883  -2.205  0.00  0.00     0.062 H 
ENDBRANCH  21  48
TORSDOF 4
ENDMDL
MODEL 7
REMARK VINA RESULT:      -6.9      3.350      7.127
REMARK  4 active torsions:
REMARK  status: ('A' for Active; 'I' for Inactive)
REMARK    1  A    between atoms: C_1  and  C_2 
REMARK    2  A    between atoms: C_5  and  C_8 
REMARK    3  A    between atoms: C_8  and  N_9 
REMARK    4  A    between atoms: C_29  and  C_31 
ROOT
ATOM      1  N   LIG d   1       5.297  -3.808  -5.979  0.00  0.00    -0.287 N 
ATOM      2  C   LIG d   1       5.455  -2.795  -7.008  0.00  0.00     0.092 A 
ATOM      3  C   LIG d   1       4.505  -2.997  -8.144  0.00  0.00     0.234 A 
ATOM      4  O   LIG d   1       4.531  -2.193  -9.052  0.00  0.00    -0.274 OA
ATOM      5  N   LIG d   1       3.648  -3.998  -8.222  0.00  0.00    -0.276 N 
ATOM      6  C   LIG d   1       3.556  -5.079  -7.242  0.00  0.00     0.107 A 
ATOM      7  H   LIG d   1       2.527  -5.149  -6.890  0.00  0.00     0.060 H 
ATOM      8  C   LIG d   1       4.451  -4.832  -6.070  0.00  0.00     0.237 A 
ATOM      9  O   LIG d   1       4.403  -5.614  -5.145  0.00  0.00    -0.274 OA
ATOM     10  C   LIG d   1       3.940  -6.404  -7.915  0.00  0.00     0.002 C 
ATOM     11  C   LIG d   1       3.241  -6.494  -9.247  0.00  0.00    -0.015 A 
ATOM     12  C   LIG d   1       3.018  -7.667 -10.067  0.00  0.00     0.003 A 
ATOM     13  C   LIG d   1       3.351  -9.015  -9.905  0.00  0.00    -0.052 A 
ATOM     14  C   LIG d   1       2.972  -9.874 -10.906  0.00  0.00    -0.061 A 
ATOM     15  C   LIG d   1       2.291  -9.437 -12.031  0.00  0.00    -0.060 A 
ATOM     16  C   LIG d   1       1.948  -8.109 -12.218  0.00  0.00    -0.038 A 
ATOM     17  C   LIG d   1       2.320  -7.214 -11.216  0.00  0.00     0.047 A 
ATOM     18  N   LIG d   1       2.146  -5.867 -11.082  0.00  0.00    -0.356 N 
ATOM     19  H   LIG d   1       1.699  -5.295 -11.724  0.00  0.00     0.166 HD
ATOM     20  C   LIG d   1       2.698  -5.445  -9.902  0.00  0.00     0.046 A 
ATOM     21  C   LIG d   1       2.718  -4.029  -9.372  0.00  0.00     0.092 C 
ATOM     22  H   LIG d   1       1.718  -3.740  -9.049  0.00  0.00     0.062 H 
ATOM     23  H   LIG d   1       5.279  -1.813  -6.569  0.00  0.00     0.056 H 
ATOM     24  H   LIG d   1       6.475  -2.835  -7.391  0.00  0.00     0.056 H 
ATOM     25  H   LIG d   1       3.631  -7.238  -7.283  0.00  0.00     0.034 H 
ATOM     26  H   LIG d   1       5.020  -6.437  -8.065  0.00  0.00     0.034 H 
ATOM     27  H   LIG d   1       3.883  -9.364  -9.032  0.00  0.00     0.062 H 
ATOM     28  H   LIG d   1       3.212 -10.922 -10.815  0.00  0.00     0.062 H 
ATOM     29  H   LIG d   1       2.016 -10.157 -12.787  0.00  0.00     0.062 H 
ATOM     30  H   LIG d   1       1.418  -7.781 -13.100  0.00  0.00     0.064 H 
ENDROOT
BRANCH   1  31
ATOM     31  C   LIG d   1       6.118  -3.698  -4.770  0.00  0.00     0.040 C 
ATOM     32  H   LIG d   1       6.005  -4.602  -4.170  0.00  0.00     0.051 H 
ATOM     33  H   LIG d   1       7.164  -3.577  -5.051  0.00  0.00     0.051 H 
BRANCH  31  34
ATOM     34  C   LIG d   1       5.672  -2.504  -3.967  0.00  0.00    -0.030 A 
ATOM     35  C   LIG d   1       4.428  -2.502  -3.362  0.00  0.00    -0.057 A 
ATOM     36  C   LIG d   1       4.019  -1.406  -2.626  0.00  0.00    -0.059 A 
ATOM     37  H   LIG d   1       3.777  -3.357  -3.465  0.00  0.00     0.062 H 
ATOM     38  C   LIG d   1       4.853  -0.312  -2.492  0.00  0.00    -0.050 A 
ATOM     39  H   LIG d   1       3.048  -1.405  -2.153  0.00  0.00     0.062 H 
ATOM     40  C   LIG d   1       6.097  -0.313  -3.096  0.00  0.00    -0.059 A 
ATOM     41  C   LIG d   1       6.508  -1.411  -3.830  0.00  0.00    -0.057 A 
ATOM     42  H   LIG d   1       6.748   0.541  -2.993  0.00  0.00     0.062 H 
ATOM     43  H   LIG d   1       7.481  -1.414  -4.299  0.00  0.00     0.062 H 
BRANCH  38  44
ATOM     44  C   LIG d   1       4.408   0.882  -1.689  0.00  0.00    -0.040 C 
ATOM     45  H   LIG d   1       5.281   1.405  -1.300  0.00  0.00     0.028 H 
ATOM     46  H   LIG d   1       3.834   1.555  -2.326  0.00  0.00     0.028 H 
ATOM     47  H   LIG d   1       3.785   0.549  -0.858  0.00  0.00     0.028 H 
ENDBRANCH  38  44
ENDBRANCH  31  34
ENDBRANCH   1  31
BRANCH  21  48
ATOM     48  C   LIG d   1       3.200  -3.087 -10.446  0.00  0.00    -0.021 A 
ATOM     49  C   LIG d   1       2.541  -1.891 -10.663  0.00  0.00    -0.055 A 
ATOM     50  C   LIG d   1       2.983  -1.027 -11.647  0.00  0.00    -0.043 A 
ATOM     51  H   LIG d   1       1.681  -1.632 -10.062  0.00  0.00     0.062 H 
ATOM     52  C   LIG d   1       4.085  -1.360 -12.415  0.00  0.00     0.041 A 
ATOM     53  H   LIG d   1       2.468  -0.094 -11.817  0.00  0.00     0.063 H 
ATOM     54  C   LIG d   1       4.744  -2.556 -12.197  0.00  0.00    -0.043 A 
ATOM     55 CL   LIG d   1       4.640  -0.275 -13.652  0.00  0.00    -0.084 Cl
ATOM     56  C   LIG d   1       4.301  -3.419 -11.212  0.00  0.00    -0.055 A 
ATOM     57  H   LIG d   1       5.602  -2.818 -12.799  0.00  0.00     0.063 H 
ATOM     58  H   LIG d   1       4.816  -4.354 -11.043  0.00  0.00     0.062 H 
ENDBRANCH  21  48
TORSDOF 4
ENDMDL
MODEL 8
REMARK VINA RESULT:      -6.8      3.041      7.018
REMARK  4 active torsions:
REMARK  status: ('A' for Active; 'I' for Inactive)
REMARK    1  A    between atoms: C_1  and  C_2 
REMARK    2  A    between atoms: C_5  and  C_8 
REMARK    3  A    between atoms: C_8  and  N_9 
REMARK    4  A    between atoms: C_29  and  C_31 
ROOT
ATOM      1  N   LIG d   1       4.912  -3.817  -8.350  0.00  0.00    -0.287 N 
ATOM      2  C   LIG d   1       4.407  -2.759  -7.490  0.00  0.00     0.092 A 
ATOM      3  C   LIG d   1       5.411  -2.345  -6.463  0.00  0.00     0.234 A 
ATOM      4  O   LIG d   1       5.106  -1.449  -5.705  0.00  0.00    -0.274 OA
ATOM      5  N   LIG d   1       6.601  -2.900  -6.326  0.00  0.00    -0.276 N 
ATOM      6  C   LIG d   1       7.074  -4.035  -7.118  0.00  0.00     0.107 A 
ATOM      7  H   LIG d   1       8.027  -3.771  -7.577  0.00  0.00     0.060 H 
ATOM      8  C   LIG d   1       6.101  -4.394  -8.195  0.00  0.00     0.237 A 
ATOM      9  O   LIG d   1       6.417  -5.265  -8.977  0.00  0.00    -0.274 OA
ATOM     10  C   LIG d   1       7.288  -5.241  -6.193  0.00  0.00     0.002 C 
ATOM     11  C   LIG d   1       8.026  -4.784  -4.960  0.00  0.00    -0.015 A 
ATOM     12  C   LIG d   1       8.742  -5.588  -3.991  0.00  0.00     0.003 A 
ATOM     13  C   LIG d   1       8.972  -6.963  -3.886  0.00  0.00    -0.052 A 
ATOM     14  C   LIG d   1       9.712  -7.389  -2.811  0.00  0.00    -0.061 A 
ATOM     15  C   LIG d   1      10.212  -6.506  -1.866  0.00  0.00    -0.060 A 
ATOM     16  C   LIG d   1       9.998  -5.141  -1.946  0.00  0.00    -0.038 A 
ATOM     17  C   LIG d   1       9.251  -4.680  -3.028  0.00  0.00     0.047 A 
ATOM     18  N   LIG d   1       8.861  -3.427  -3.404  0.00  0.00    -0.356 N 
ATOM     19  H   LIG d   1       9.070  -2.611  -2.926  0.00  0.00     0.166 HD
ATOM     20  C   LIG d   1       8.131  -3.498  -4.561  0.00  0.00     0.046 A 
ATOM     21  C   LIG d   1       7.518  -2.338  -5.311  0.00  0.00     0.092 C 
ATOM     22  H   LIG d   1       8.300  -1.756  -5.798  0.00  0.00     0.062 H 
ATOM     23  H   LIG d   1       4.152  -1.896  -8.104  0.00  0.00     0.056 H 
ATOM     24  H   LIG d   1       3.509  -3.112  -6.984  0.00  0.00     0.056 H 
ATOM     25  H   LIG d   1       7.877  -5.999  -6.710  0.00  0.00     0.034 H 
ATOM     26  H   LIG d   1       6.322  -5.657  -5.907  0.00  0.00     0.034 H 
ATOM     27  H   LIG d   1       8.585  -7.659  -4.616  0.00  0.00     0.062 H 
ATOM     28  H   LIG d   1       9.910  -8.444  -2.696  0.00  0.00     0.062 H 
ATOM     29  H   LIG d   1      10.788  -6.897  -1.041  0.00  0.00     0.062 H 
ATOM     30  H   LIG d   1      10.393  -4.464  -1.203  0.00  0.00     0.064 H 
ENDROOT
BRANCH   1  31
ATOM     31  C   LIG d   1       4.060  -4.278  -9.449  0.00  0.00     0.040 C 
ATOM     32  H   LIG d   1       4.416  -5.246  -9.804  0.00  0.00     0.051 H 
ATOM     33  H   LIG d   1       3.033  -4.376  -9.097  0.00  0.00     0.051 H 
BRANCH  31  34
ATOM     34  C   LIG d   1       4.112  -3.280 -10.577  0.00  0.00    -0.030 A 
ATOM     35  C   LIG d   1       3.102  -2.347 -10.721  0.00  0.00    -0.057 A 
ATOM     36  C   LIG d   1       3.149  -1.432 -11.756  0.00  0.00    -0.059 A 
ATOM     37  H   LIG d   1       2.277  -2.333 -10.026  0.00  0.00     0.062 H 
ATOM     38  C   LIG d   1       4.207  -1.449 -12.646  0.00  0.00    -0.050 A 
ATOM     39  H   LIG d   1       2.361  -0.702 -11.869  0.00  0.00     0.062 H 
ATOM     40  C   LIG d   1       5.217  -2.381 -12.502  0.00  0.00    -0.059 A 
ATOM     41  C   LIG d   1       5.171  -3.294 -11.464  0.00  0.00    -0.057 A 
ATOM     42  H   LIG d   1       6.043  -2.395 -13.197  0.00  0.00     0.062 H 
ATOM     43  H   LIG d   1       5.963  -4.021 -11.349  0.00  0.00     0.062 H 
BRANCH  38  44
ATOM     44  C   LIG d   1       4.259  -0.450 -13.774  0.00  0.00    -0.040 C 
ATOM     45  H   LIG d   1       3.770  -0.869 -14.653  0.00  0.00     0.028 H 
ATOM     46  H   LIG d   1       3.749   0.464 -13.473  0.00  0.00     0.028 H 
ATOM     47  H   LIG d   1       5.300  -0.225 -14.011  0.00  0.00     0.028 H 
ENDBRANCH  38  44
ENDBRANCH  31  34
ENDBRANCH   1  31
BRANCH  21  48
ATOM     48  C   LIG d   1       6.748  -1.460  -4.357  0.00  0.00    -0.021 A 
ATOM     49  C   LIG d   1       5.848  -2.023  -3.472  0.00  0.00    -0.055 A 
ATOM     50  C   LIG d   1       5.142  -1.219  -2.598  0.00  0.00    -0.043 A 
ATOM     51  H   LIG d   1       5.698  -3.093  -3.463  0.00  0.00     0.062 H 
ATOM     52  C   LIG d   1       5.337   0.151  -2.609  0.00  0.00     0.041 A 
ATOM     53  H   LIG d   1       4.439  -1.659  -1.907  0.00  0.00     0.063 H 
ATOM     54  C   LIG d   1       6.237   0.715  -3.495  0.00  0.00    -0.043 A 
ATOM     55 CL   LIG d   1       4.450   1.162  -1.511  0.00  0.00    -0.084 Cl
ATOM     56  C   LIG d   1       6.943  -0.092  -4.369  0.00  0.00    -0.055 A 
ATOM     57  H   LIG d   1       6.386   1.784  -3.507  0.00  0.00     0.063 H 
ATOM     58  H   LIG d   1       7.646   0.349  -5.061  0.00  0.00     0.062 H 
ENDBRANCH  21  48
TORSDOF 4
ENDMDL
MODEL 9
REMARK VINA RESULT:      -6.8      5.028      9.410
REMARK  4 active torsions:
REMARK  status: ('A' for Active; 'I' for Inactive)
REMARK    1  A    between atoms: C_1  and  C_2 
REMARK    2  A    between atoms: C_5  and  C_8 
REMARK    3  A    between atoms: C_8  and  N_9 
REMARK    4  A    between atoms: C_29  and  C_31 
ROOT
ATOM      1  N   LIG d   1       9.232   3.367  -6.353  0.00  0.00    -0.287 N 
ATOM      2  C   LIG d   1       8.701   2.778  -5.135  0.00  0.00     0.092 A 
ATOM      3  C   LIG d   1       8.021   1.473  -5.395  0.00  0.00     0.234 A 
ATOM      4  O   LIG d   1       7.560   0.876  -4.444  0.00  0.00    -0.274 OA
ATOM      5  N   LIG d   1       7.884   0.935  -6.593  0.00  0.00    -0.276 N 
ATOM      6  C   LIG d   1       8.322   1.573  -7.834  0.00  0.00     0.107 A 
ATOM      7  H   LIG d   1       8.974   0.886  -8.372  0.00  0.00     0.060 H 
ATOM      8  C   LIG d   1       9.071   2.839  -7.563  0.00  0.00     0.237 A 
ATOM      9  O   LIG d   1       9.563   3.419  -8.507  0.00  0.00    -0.274 OA
ATOM     10  C   LIG d   1       7.095   1.876  -8.706  0.00  0.00     0.002 C 
ATOM     11  C   LIG d   1       6.199   0.664  -8.722  0.00  0.00    -0.015 A 
ATOM     12  C   LIG d   1       5.134   0.346  -9.652  0.00  0.00     0.003 A 
ATOM     13  C   LIG d   1       4.621   1.012 -10.768  0.00  0.00    -0.052 A 
ATOM     14  C   LIG d   1       3.584   0.404 -11.432  0.00  0.00    -0.061 A 
ATOM     15  C   LIG d   1       3.061  -0.812 -11.023  0.00  0.00    -0.060 A 
ATOM     16  C   LIG d   1       3.550  -1.493  -9.921  0.00  0.00    -0.038 A 
ATOM     17  C   LIG d   1       4.604  -0.900  -9.228  0.00  0.00     0.047 A 
ATOM     18  N   LIG d   1       5.307  -1.287  -8.124  0.00  0.00    -0.356 N 
ATOM     19  H   LIG d   1       5.156  -2.104  -7.625  0.00  0.00     0.166 HD
ATOM     20  C   LIG d   1       6.260  -0.348  -7.830  0.00  0.00     0.046 A 
ATOM     21  C   LIG d   1       7.250  -0.397  -6.689  0.00  0.00     0.092 C 
ATOM     22  H   LIG d   1       8.008  -1.155  -6.889  0.00  0.00     0.062 H 
ATOM     23  H   LIG d   1       9.520   2.617  -4.434  0.00  0.00     0.056 H 
ATOM     24  H   LIG d   1       7.983   3.467  -4.691  0.00  0.00     0.056 H 
ATOM     25  H   LIG d   1       7.416   2.106  -9.722  0.00  0.00     0.034 H 
ATOM     26  H   LIG d   1       6.553   2.726  -8.290  0.00  0.00     0.034 H 
ATOM     27  H   LIG d   1       5.021   1.961 -11.094  0.00  0.00     0.062 H 
ATOM     28  H   LIG d   1       3.162   0.889 -12.300  0.00  0.00     0.062 H 
ATOM     29  H   LIG d   1       2.246  -1.245 -11.583  0.00  0.00     0.062 H 
ATOM     30  H   LIG d   1       3.133  -2.440  -9.612  0.00  0.00     0.064 H 
ENDROOT
BRANCH   1  31
ATOM     31  C   LIG d   1       9.987   4.618  -6.241  0.00  0.00     0.040 C 
ATOM     32  H   LIG d   1      10.978   4.485  -6.676  0.00  0.00     0.051 H 
ATOM     33  H   LIG d   1       9.460   5.409  -6.776  0.00  0.00     0.051 H 
BRANCH  31  34
ATOM     34  C   LIG d   1      10.122   4.996  -4.789  0.00  0.00    -0.030 A 
ATOM     35  C   LIG d   1      11.020   4.324  -3.980  0.00  0.00    -0.057 A 
ATOM     36  C   LIG d   1      11.144   4.671  -2.648  0.00  0.00    -0.059 A 
ATOM     37  H   LIG d   1      11.624   3.529  -4.390  0.00  0.00     0.062 H 
ATOM     38  C   LIG d   1      10.371   5.690  -2.124  0.00  0.00    -0.050 A 
ATOM     39  H   LIG d   1      11.845   4.146  -2.016  0.00  0.00     0.062 H 
ATOM     40  C   LIG d   1       9.474   6.363  -2.932  0.00  0.00    -0.059 A 
ATOM     41  C   LIG d   1       9.353   6.019  -4.267  0.00  0.00    -0.057 A 
ATOM     42  H   LIG d   1       8.870   7.159  -2.524  0.00  0.00     0.062 H 
ATOM     43  H   LIG d   1       8.654   6.547  -4.899  0.00  0.00     0.062 H 
BRANCH  38  44
ATOM     44  C   LIG d   1      10.506   6.069  -0.672  0.00  0.00    -0.040 C 
ATOM     45  H   LIG d   1      10.862   5.210  -0.104  0.00  0.00     0.028 H 
ATOM     46  H   LIG d   1      11.217   6.889  -0.575  0.00  0.00     0.028 H 
ATOM     47  H   LIG d   1       9.536   6.383  -0.287  0.00  0.00     0.028 H 
ENDBRANCH  38  44
ENDBRANCH  31  34
ENDBRANCH   1  31
BRANCH  21  48
ATOM     48  C   LIG d   1       6.534  -0.718  -5.401  0.00  0.00    -0.021 A 
ATOM     49  C   LIG d   1       7.101  -1.594  -4.495  0.00  0.00    -0.055 A 
ATOM     50  C   LIG d   1       6.445  -1.888  -3.315  0.00  0.00    -0.043 A 
ATOM     51  H   LIG d   1       8.058  -2.049  -4.709  0.00  0.00     0.062 H 
ATOM     52  C   LIG d   1       5.220  -1.305  -3.041  0.00  0.00     0.041 A 
ATOM     53  H   LIG d   1       6.887  -2.573  -2.607  0.00  0.00     0.063 H 
ATOM     54  C   LIG d   1       4.654  -0.428  -3.949  0.00  0.00    -0.043 A 
ATOM     55 CL   LIG d   1       4.395  -1.674  -1.559  0.00  0.00    -0.084 Cl
ATOM     56  C   LIG d   1       5.312  -0.135  -5.129  0.00  0.00    -0.055 A 
ATOM     57  H   LIG d   1       3.696   0.024  -3.737  0.00  0.00     0.063 H 
ATOM     58  H   LIG d   1       4.868   0.550  -5.837  0.00  0.00     0.062 H 
ENDBRANCH  21  48
TORSDOF 4
ENDMDL
