MODEL 1
REMARK VINA RESULT:      -6.2      0.000      0.000
REMARK  10 active torsions:
REMARK  status: ('A' for Active; 'I' for Inactive)
REMARK    1  A    between atoms: C_1  and  C_2 
REMARK    2  A    between atoms: C_2  and  C_3 
REMARK       I    between atoms: N_6  and  C_25 
REMARK    3  A    between atoms: C_9  and  C_11 
REMARK    4  A    between atoms: C_11  and  C_12 
REMARK       I    between atoms: C_12  and  N_14 
REMARK    5  A    between atoms: N_14  and  C_15 
REMARK    6  A    between atoms: C_15  and  C_16 
REMARK    7  A    between atoms: C_25  and  C_27 
REMARK    8  A    between atoms: C_27  and  C_28 
REMARK    9  A    between atoms: C_27  and  C_29 
REMARK   10  A    between atoms: C_27  and  C_30 
ROOT
ATOM      1  C   LIG d   1       5.924  -1.979  -6.694  0.00  0.00    -0.022 C 
ATOM      2  H   LIG d   1       6.650  -1.991  -7.507  0.00  0.00     0.032 H 
ATOM      3  C   LIG d   1       6.486  -1.173  -5.519  0.00  0.00     0.018 C 
ATOM      4  N   LIG d   1       5.555  -1.274  -4.387  0.00  0.00    -0.301 N 
ATOM      5  C   LIG d   1       5.149  -2.608  -3.924  0.00  0.00     0.015 C 
ATOM      6  C   LIG d   1       4.602  -3.398  -5.117  0.00  0.00    -0.034 C 
ATOM      7  C   LIG d   1       5.646  -3.412  -6.236  0.00  0.00    -0.027 C 
ATOM      8  H   LIG d   1       6.567  -3.862  -5.867  0.00  0.00     0.031 H 
ATOM      9  C   LIG d   1       5.084  -0.165  -3.784  0.00  0.00     0.221 C 
ATOM     10  O   LIG d   1       5.496   0.927  -4.114  0.00  0.00    -0.275 OA
ATOM     11  H   LIG d   1       7.458  -1.575  -5.230  0.00  0.00     0.047 H 
ATOM     12  H   LIG d   1       6.594  -0.127  -5.811  0.00  0.00     0.047 H 
ATOM     13  H   LIG d   1       6.011  -3.127  -3.506  0.00  0.00     0.046 H 
ATOM     14  H   LIG d   1       4.374  -2.511  -3.164  0.00  0.00     0.046 H 
ATOM     15  H   LIG d   1       3.688  -2.927  -5.477  0.00  0.00     0.028 H 
ATOM     16  H   LIG d   1       4.387  -4.421  -4.807  0.00  0.00     0.028 H 
ENDROOT
BRANCH   7  17
ATOM     17  C   LIG d   1       5.116  -4.230  -7.416  0.00  0.00     0.027 C 
ATOM     18  H   LIG d   1       5.304  -3.691  -8.345  0.00  0.00     0.036 H 
ATOM     19  H   LIG d   1       4.044  -4.387  -7.298  0.00  0.00     0.036 H 
BRANCH  17  20
ATOM     20  C   LIG d   1       5.818  -5.563  -7.459  0.00  0.00     0.214 C 
ATOM     21  O   LIG d   1       5.687  -6.286  -8.423  0.00  0.00    -0.276 OA
ATOM     22  N   LIG d   1       6.585  -5.954  -6.422  0.00  0.00    -0.311 N 
ATOM     23  H   LIG d   1       6.686  -5.377  -5.649  0.00  0.00     0.149 HD
BRANCH  22  24
ATOM     24  C   LIG d   1       7.267  -7.250  -6.463  0.00  0.00     0.037 C 
ATOM     25  H   LIG d   1       7.151  -7.690  -7.455  0.00  0.00     0.051 H 
ATOM     26  H   LIG d   1       8.326  -7.111  -6.249  0.00  0.00     0.051 H 
BRANCH  24  27
ATOM     27  C   LIG d   1       6.662  -8.169  -5.433  0.00  0.00    -0.027 A 
ATOM     28  C   LIG d   1       5.325  -8.514  -5.516  0.00  0.00    -0.011 A 
ATOM     29  C   LIG d   1       4.767  -9.359  -4.571  0.00  0.00     0.167 A 
ATOM     30  H   LIG d   1       4.716  -8.126  -6.320  0.00  0.00     0.066 H 
ATOM     31  C   LIG d   1       5.556  -9.858  -3.537  0.00  0.00     0.166 A 
ATOM     32  O   LIG d   1       3.500  -9.846  -4.428  0.00  0.00    -0.453 OA
ATOM     33  C   LIG d   1       6.894  -9.508  -3.459  0.00  0.00    -0.016 A 
ATOM     34  O   LIG d   1       4.782 -10.657  -2.745  0.00  0.00    -0.453 OA
ATOM     35  C   LIG d   1       7.445  -8.668  -4.409  0.00  0.00    -0.053 A 
ATOM     36  H   LIG d   1       7.507  -9.893  -2.658  0.00  0.00     0.066 H 
ATOM     37  H   LIG d   1       8.489  -8.399  -4.350  0.00  0.00     0.062 H 
ATOM     38  C   LIG d   1       3.420 -10.318  -3.070  0.00  0.00     0.233 C 
ATOM     39  H   LIG d   1       3.055  -9.529  -2.411  0.00  0.00     0.117 H 
ATOM     40  H   LIG d   1       2.779 -11.197  -3.007  0.00  0.00     0.117 H 
ENDBRANCH  24  27
ENDBRANCH  22  24
ENDBRANCH  17  20
ENDBRANCH   7  17
BRANCH   1  41
ATOM     41  C   LIG d   1       4.624  -1.335  -7.179  0.00  0.00    -0.051 C 
ATOM     42  H   LIG d   1       4.176  -1.959  -7.953  0.00  0.00     0.027 H 
ATOM     43  H   LIG d   1       3.930  -1.242  -6.343  0.00  0.00     0.027 H 
BRANCH  41  44
ATOM     44  C   LIG d   1       4.923   0.052  -7.750  0.00  0.00    -0.065 C 
ATOM     45  H   LIG d   1       5.924   0.361  -7.448  0.00  0.00     0.023 H 
ATOM     46  H   LIG d   1       4.867   0.017  -8.838  0.00  0.00     0.023 H 
ATOM     47  H   LIG d   1       4.192   0.767  -7.371  0.00  0.00     0.023 H 
ENDBRANCH  41  44
ENDBRANCH   1  41
BRANCH   9  48
ATOM     48  C   LIG d   1       4.043  -0.281  -2.700  0.00  0.00     0.039 C 
BRANCH  48  49
ATOM     49  C   LIG d   1       2.708  -0.704  -3.317  0.00  0.00    -0.052 C 
ATOM     50  H   LIG d   1       2.243  -1.464  -2.690  0.00  0.00     0.024 H 
ATOM     51  H   LIG d   1       2.051   0.161  -3.388  0.00  0.00     0.024 H 
ATOM     52  H   LIG d   1       2.882  -1.112  -4.313  0.00  0.00     0.024 H 
ENDBRANCH  48  49
BRANCH  48  53
ATOM     53  C   LIG d   1       4.486  -1.328  -1.677  0.00  0.00    -0.052 C 
ATOM     54  H   LIG d   1       4.828  -2.223  -2.198  0.00  0.00     0.024 H 
ATOM     55  H   LIG d   1       5.301  -0.926  -1.074  0.00  0.00     0.024 H 
ATOM     56  H   LIG d   1       3.647  -1.583  -1.030  0.00  0.00     0.024 H 
ENDBRANCH  48  53
BRANCH  48  57
ATOM     57  C   LIG d   1       3.878   1.072  -2.006  0.00  0.00    -0.052 C 
ATOM     58  H   LIG d   1       4.604   1.778  -2.407  0.00  0.00     0.024 H 
ATOM     59  H   LIG d   1       2.870   1.450  -2.180  0.00  0.00     0.024 H 
ATOM     60  H   LIG d   1       4.041   0.954  -0.934  0.00  0.00     0.024 H 
ENDBRANCH  48  57
ENDBRANCH   9  48
TORSDOF 10
ENDMDL
MODEL 2
REMARK VINA RESULT:      -6.1      3.269      6.640
REMARK  10 active torsions:
REMARK  status: ('A' for Active; 'I' for Inactive)
REMARK    1  A    between atoms: C_1  and  C_2 
REMARK    2  A    between atoms: C_2  and  C_3 
REMARK       I    between atoms: N_6  and  C_25 
REMARK    3  A    between atoms: C_9  and  C_11 
REMARK    4  A    between atoms: C_11  and  C_12 
REMARK       I    between atoms: C_12  and  N_14 
REMARK    5  A    between atoms: N_14  and  C_15 
REMARK    6  A    between atoms: C_15  and  C_16 
REMARK    7  A    between atoms: C_25  and  C_27 
REMARK    8  A    between atoms: C_27  and  C_28 
REMARK    9  A    between atoms: C_27  and  C_29 
REMARK   10  A    between atoms: C_27  and  C_30 
ROOT
ATOM      1  C   LIG d   1       7.121  -2.831  -4.841  0.00  0.00    -0.022 C 
ATOM      2  H   LIG d   1       8.127  -3.248  -4.891  0.00  0.00     0.032 H 
ATOM      3  C   LIG d   1       6.947  -2.074  -3.520  0.00  0.00     0.018 C 
ATOM      4  N   LIG d   1       5.551  -1.631  -3.410  0.00  0.00    -0.301 N 
ATOM      5  C   LIG d   1       4.480  -2.627  -3.555  0.00  0.00     0.015 C 
ATOM      6  C   LIG d   1       4.682  -3.378  -4.874  0.00  0.00    -0.034 C 
ATOM      7  C   LIG d   1       6.096  -3.964  -4.913  0.00  0.00    -0.027 C 
ATOM      8  H   LIG d   1       6.233  -4.634  -4.064  0.00  0.00     0.031 H 
ATOM      9  C   LIG d   1       5.257  -0.336  -3.177  0.00  0.00     0.221 C 
ATOM     10  O   LIG d   1       6.148   0.459  -2.967  0.00  0.00    -0.275 OA
ATOM     11  H   LIG d   1       7.189  -2.733  -2.686  0.00  0.00     0.047 H 
ATOM     12  H   LIG d   1       7.608  -1.206  -3.507  0.00  0.00     0.047 H 
ATOM     13  H   LIG d   1       4.521  -3.331  -2.724  0.00  0.00     0.046 H 
ATOM     14  H   LIG d   1       3.513  -2.125  -3.564  0.00  0.00     0.046 H 
ATOM     15  H   LIG d   1       4.551  -2.689  -5.709  0.00  0.00     0.028 H 
ATOM     16  H   LIG d   1       3.952  -4.184  -4.949  0.00  0.00     0.028 H 
ENDROOT
BRANCH   7  17
ATOM     17  C   LIG d   1       6.289  -4.744  -6.215  0.00  0.00     0.027 C 
ATOM     18  H   LIG d   1       6.547  -5.778  -5.985  0.00  0.00     0.036 H 
ATOM     19  H   LIG d   1       7.091  -4.290  -6.795  0.00  0.00     0.036 H 
BRANCH  17  20
ATOM     20  C   LIG d   1       5.011  -4.712  -7.014  0.00  0.00     0.214 C 
ATOM     21  O   LIG d   1       4.131  -5.514  -6.783  0.00  0.00    -0.276 OA
ATOM     22  N   LIG d   1       4.848  -3.794  -7.988  0.00  0.00    -0.311 N 
ATOM     23  H   LIG d   1       5.553  -3.155  -8.175  0.00  0.00     0.149 HD
BRANCH  22  24
ATOM     24  C   LIG d   1       3.606  -3.763  -8.764  0.00  0.00     0.037 C 
ATOM     25  H   LIG d   1       3.770  -4.238  -9.733  0.00  0.00     0.051 H 
ATOM     26  H   LIG d   1       2.826  -4.300  -8.225  0.00  0.00     0.051 H 
BRANCH  24  27
ATOM     27  C   LIG d   1       3.179  -2.332  -8.973  0.00  0.00    -0.027 A 
ATOM     28  C   LIG d   1       3.845  -1.312  -8.319  0.00  0.00    -0.011 A 
ATOM     29  C   LIG d   1       3.455   0.004  -8.510  0.00  0.00     0.167 A 
ATOM     30  H   LIG d   1       4.671  -1.540  -7.662  0.00  0.00     0.066 H 
ATOM     31  C   LIG d   1       2.391   0.294  -9.360  0.00  0.00     0.166 A 
ATOM     32  O   LIG d   1       3.936   1.173  -7.997  0.00  0.00    -0.453 OA
ATOM     33  C   LIG d   1       1.728  -0.733 -10.011  0.00  0.00    -0.016 A 
ATOM     34  O   LIG d   1       2.204   1.646  -9.378  0.00  0.00    -0.453 OA
ATOM     35  C   LIG d   1       2.126  -2.043  -9.820  0.00  0.00    -0.053 A 
ATOM     36  H   LIG d   1       0.901  -0.511 -10.670  0.00  0.00     0.066 H 
ATOM     37  H   LIG d   1       1.611  -2.844 -10.331  0.00  0.00     0.062 H 
ATOM     38  C   LIG d   1       2.898   2.147  -8.220  0.00  0.00     0.233 C 
ATOM     39  H   LIG d   1       2.226   2.194  -7.362  0.00  0.00     0.117 H 
ATOM     40  H   LIG d   1       3.330   3.127  -8.422  0.00  0.00     0.117 H 
ENDBRANCH  24  27
ENDBRANCH  22  24
ENDBRANCH  17  20
ENDBRANCH   7  17
BRANCH   1  41
ATOM     41  C   LIG d   1       6.906  -1.871  -6.012  0.00  0.00    -0.051 C 
ATOM     42  H   LIG d   1       7.015  -2.413  -6.951  0.00  0.00     0.027 H 
ATOM     43  H   LIG d   1       5.903  -1.446  -5.954  0.00  0.00     0.027 H 
BRANCH  41  44
ATOM     44  C   LIG d   1       7.940  -0.746  -5.947  0.00  0.00    -0.065 C 
ATOM     45  H   LIG d   1       7.433   0.206  -5.786  0.00  0.00     0.023 H 
ATOM     46  H   LIG d   1       8.630  -0.933  -5.125  0.00  0.00     0.023 H 
ATOM     47  H   LIG d   1       8.495  -0.708  -6.885  0.00  0.00     0.023 H 
ENDBRANCH  41  44
ENDBRANCH   1  41
BRANCH   9  48
ATOM     48  C   LIG d   1       3.822   0.123  -3.179  0.00  0.00     0.039 C 
BRANCH  48  49
ATOM     49  C   LIG d   1       3.347   0.309  -4.622  0.00  0.00    -0.052 C 
ATOM     50  H   LIG d   1       3.186   1.369  -4.818  0.00  0.00     0.024 H 
ATOM     51  H   LIG d   1       4.104  -0.076  -5.304  0.00  0.00     0.024 H 
ATOM     52  H   LIG d   1       2.414  -0.234  -4.770  0.00  0.00     0.024 H 
ENDBRANCH  48  49
BRANCH  48  53
ATOM     53  C   LIG d   1       2.949  -0.926  -2.487  0.00  0.00    -0.052 C 
ATOM     54  H   LIG d   1       3.406  -1.910  -2.600  0.00  0.00     0.024 H 
ATOM     55  H   LIG d   1       2.862  -0.686  -1.428  0.00  0.00     0.024 H 
ATOM     56  H   LIG d   1       1.958  -0.932  -2.941  0.00  0.00     0.024 H 
ENDBRANCH  48  53
BRANCH  48  57
ATOM     57  C   LIG d   1       3.711   1.452  -2.430  0.00  0.00    -0.052 C 
ATOM     58  H   LIG d   1       2.687   1.821  -2.492  0.00  0.00     0.024 H 
ATOM     59  H   LIG d   1       3.981   1.304  -1.384  0.00  0.00     0.024 H 
ATOM     60  H   LIG d   1       4.387   2.181  -2.879  0.00  0.00     0.024 H 
ENDBRANCH  48  57
ENDBRANCH   9  48
TORSDOF 10
ENDMDL
MODEL 3
REMARK VINA RESULT:      -6.0      0.977      1.609
REMARK  10 active torsions:
REMARK  status: ('A' for Active; 'I' for Inactive)
REMARK    1  A    between atoms: C_1  and  C_2 
REMARK    2  A    between atoms: C_2  and  C_3 
REMARK       I    between atoms: N_6  and  C_25 
REMARK    3  A    between atoms: C_9  and  C_11 
REMARK    4  A    between atoms: C_11  and  C_12 
REMARK       I    between atoms: C_12  and  N_14 
REMARK    5  A    between atoms: N_14  and  C_15 
REMARK    6  A    between atoms: C_15  and  C_16 
REMARK    7  A    between atoms: C_25  and  C_27 
REMARK    8  A    between atoms: C_27  and  C_28 
REMARK    9  A    between atoms: C_27  and  C_29 
REMARK   10  A    between atoms: C_27  and  C_30 
ROOT
ATOM      1  C   LIG d   1       6.127  -2.032  -6.789  0.00  0.00    -0.022 C 
ATOM      2  H   LIG d   1       6.911  -2.076  -7.545  0.00  0.00     0.032 H 
ATOM      3  C   LIG d   1       6.679  -1.376  -5.518  0.00  0.00     0.018 C 
ATOM      4  N   LIG d   1       5.653  -1.441  -4.468  0.00  0.00    -0.301 N 
ATOM      5  C   LIG d   1       5.063  -2.746  -4.138  0.00  0.00     0.015 C 
ATOM      6  C   LIG d   1       4.530  -3.385  -5.423  0.00  0.00    -0.034 C 
ATOM      7  C   LIG d   1       5.652  -3.449  -6.461  0.00  0.00    -0.027 C 
ATOM      8  H   LIG d   1       6.485  -4.027  -6.060  0.00  0.00     0.031 H 
ATOM      9  C   LIG d   1       5.263  -0.326  -3.820  0.00  0.00     0.221 C 
ATOM     10  O   LIG d   1       5.821   0.729  -4.037  0.00  0.00    -0.275 OA
ATOM     11  H   LIG d   1       7.572  -1.909  -5.191  0.00  0.00     0.047 H 
ATOM     12  H   LIG d   1       6.927  -0.334  -5.723  0.00  0.00     0.047 H 
ATOM     13  H   LIG d   1       5.825  -3.389  -3.698  0.00  0.00     0.046 H 
ATOM     14  H   LIG d   1       4.246  -2.608  -3.430  0.00  0.00     0.046 H 
ATOM     15  H   LIG d   1       3.707  -2.786  -5.812  0.00  0.00     0.028 H 
ATOM     16  H   LIG d   1       4.176  -4.394  -5.207  0.00  0.00     0.028 H 
ENDROOT
BRANCH   7  17
ATOM     17  C   LIG d   1       5.132  -4.118  -7.734  0.00  0.00     0.027 C 
ATOM     18  H   LIG d   1       5.960  -4.280  -8.425  0.00  0.00     0.036 H 
ATOM     19  H   LIG d   1       4.386  -3.477  -8.204  0.00  0.00     0.036 H 
BRANCH  17  20
ATOM     20  C   LIG d   1       4.505  -5.444  -7.384  0.00  0.00     0.214 C 
ATOM     21  O   LIG d   1       3.318  -5.619  -7.562  0.00  0.00    -0.276 OA
ATOM     22  N   LIG d   1       5.263  -6.433  -6.869  0.00  0.00    -0.311 N 
ATOM     23  H   LIG d   1       6.211  -6.291  -6.723  0.00  0.00     0.149 HD
BRANCH  22  24
ATOM     24  C   LIG d   1       4.653  -7.721  -6.528  0.00  0.00     0.037 C 
ATOM     25  H   LIG d   1       3.617  -7.564  -6.227  0.00  0.00     0.051 H 
ATOM     26  H   LIG d   1       4.684  -8.378  -7.397  0.00  0.00     0.051 H 
BRANCH  24  27
ATOM     27  C   LIG d   1       5.417  -8.353  -5.393  0.00  0.00    -0.027 A 
ATOM     28  C   LIG d   1       4.799  -9.287  -4.582  0.00  0.00    -0.011 A 
ATOM     29  C   LIG d   1       5.499  -9.871  -3.538  0.00  0.00     0.167 A 
ATOM     30  H   LIG d   1       3.771  -9.565  -4.764  0.00  0.00     0.066 H 
ATOM     31  C   LIG d   1       6.825  -9.512  -3.308  0.00  0.00     0.166 A 
ATOM     32  O   LIG d   1       5.131 -10.801  -2.611  0.00  0.00    -0.453 OA
ATOM     33  C   LIG d   1       7.437  -8.575  -4.124  0.00  0.00    -0.016 A 
ATOM     34  O   LIG d   1       7.288 -10.217  -2.235  0.00  0.00    -0.453 OA
ATOM     35  C   LIG d   1       6.734  -8.001  -5.167  0.00  0.00    -0.053 A 
ATOM     36  H   LIG d   1       8.466  -8.294  -3.948  0.00  0.00     0.066 H 
ATOM     37  H   LIG d   1       7.214  -7.274  -5.805  0.00  0.00     0.062 H 
ATOM     38  C   LIG d   1       6.113 -10.707  -1.561  0.00  0.00     0.233 C 
ATOM     39  H   LIG d   1       5.789 -10.001  -0.796  0.00  0.00     0.117 H 
ATOM     40  H   LIG d   1       6.300 -11.687  -1.123  0.00  0.00     0.117 H 
ENDBRANCH  24  27
ENDBRANCH  22  24
ENDBRANCH  17  20
ENDBRANCH   7  17
BRANCH   1  41
ATOM     41  C   LIG d   1       4.951  -1.208  -7.318  0.00  0.00    -0.051 C 
ATOM     42  H   LIG d   1       4.495  -1.726  -8.162  0.00  0.00     0.027 H 
ATOM     43  H   LIG d   1       4.211  -1.082  -6.528  0.00  0.00     0.027 H 
BRANCH  41  44
ATOM     44  C   LIG d   1       5.452   0.164  -7.771  0.00  0.00    -0.065 C 
ATOM     45  H   LIG d   1       6.379   0.403  -7.249  0.00  0.00     0.023 H 
ATOM     46  H   LIG d   1       5.634   0.149  -8.845  0.00  0.00     0.023 H 
ATOM     47  H   LIG d   1       4.701   0.920  -7.541  0.00  0.00     0.023 H 
ENDBRANCH  41  44
ENDBRANCH   1  41
BRANCH   9  48
ATOM     48  C   LIG d   1       4.131  -0.389  -2.827  0.00  0.00     0.039 C 
BRANCH  48  49
ATOM     49  C   LIG d   1       4.060   0.927  -2.050  0.00  0.00    -0.052 C 
ATOM     50  H   LIG d   1       3.836   1.743  -2.738  0.00  0.00     0.024 H 
ATOM     51  H   LIG d   1       3.276   0.861  -1.296  0.00  0.00     0.024 H 
ATOM     52  H   LIG d   1       5.017   1.114  -1.564  0.00  0.00     0.024 H 
ENDBRANCH  48  49
BRANCH  48  53
ATOM     53  C   LIG d   1       2.812  -0.615  -3.569  0.00  0.00    -0.052 C 
ATOM     54  H   LIG d   1       2.160  -1.249  -2.968  0.00  0.00     0.024 H 
ATOM     55  H   LIG d   1       2.325   0.344  -3.745  0.00  0.00     0.024 H 
ATOM     56  H   LIG d   1       3.012  -1.102  -4.525  0.00  0.00     0.024 H 
ENDBRANCH  48  53
BRANCH  48  57
ATOM     57  C   LIG d   1       4.372  -1.544  -1.853  0.00  0.00    -0.052 C 
ATOM     58  H   LIG d   1       5.364  -1.449  -1.414  0.00  0.00     0.024 H 
ATOM     59  H   LIG d   1       3.621  -1.516  -1.063  0.00  0.00     0.024 H 
ATOM     60  H   LIG d   1       4.301  -2.492  -2.388  0.00  0.00     0.024 H 
ENDBRANCH  48  57
ENDBRANCH   9  48
TORSDOF 10
ENDMDL
MODEL 4
REMARK VINA RESULT:      -6.0      1.400      2.014
REMARK  10 active torsions:
REMARK  status: ('A' for Active; 'I' for Inactive)
REMARK    1  A    between atoms: C_1  and  C_2 
REMARK    2  A    between atoms: C_2  and  C_3 
REMARK       I    between atoms: N_6  and  C_25 
REMARK    3  A    between atoms: C_9  and  C_11 
REMARK    4  A    between atoms: C_11  and  C_12 
REMARK       I    between atoms: C_12  and  N_14 
REMARK    5  A    between atoms: N_14  and  C_15 
REMARK    6  A    between atoms: C_15  and  C_16 
REMARK    7  A    between atoms: C_25  and  C_27 
REMARK    8  A    between atoms: C_27  and  C_28 
REMARK    9  A    between atoms: C_27  and  C_29 
REMARK   10  A    between atoms: C_27  and  C_30 
ROOT
ATOM      1  C   LIG d   1       5.601  -2.791  -6.410  0.00  0.00    -0.022 C 
ATOM      2  H   LIG d   1       6.275  -3.028  -7.232  0.00  0.00     0.032 H 
ATOM      3  C   LIG d   1       6.264  -1.767  -5.484  0.00  0.00     0.018 C 
ATOM      4  N   LIG d   1       5.399  -1.555  -4.315  0.00  0.00    -0.301 N 
ATOM      5  C   LIG d   1       4.969  -2.724  -3.535  0.00  0.00     0.015 C 
ATOM      6  C   LIG d   1       4.320  -3.737  -4.482  0.00  0.00    -0.034 C 
ATOM      7  C   LIG d   1       5.293  -4.063  -5.618  0.00  0.00    -0.027 C 
ATOM      8  H   LIG d   1       6.217  -4.464  -5.200  0.00  0.00     0.031 H 
ATOM      9  C   LIG d   1       5.009  -0.314  -3.965  0.00  0.00     0.221 C 
ATOM     10  O   LIG d   1       5.445   0.650  -4.560  0.00  0.00    -0.275 OA
ATOM     11  H   LIG d   1       7.234  -2.142  -5.158  0.00  0.00     0.047 H 
ATOM     12  H   LIG d   1       6.395  -0.824  -6.017  0.00  0.00     0.047 H 
ATOM     13  H   LIG d   1       5.833  -3.177  -3.050  0.00  0.00     0.046 H 
ATOM     14  H   LIG d   1       4.246  -2.413  -2.781  0.00  0.00     0.046 H 
ATOM     15  H   LIG d   1       3.406  -3.314  -4.897  0.00  0.00     0.028 H 
ATOM     16  H   LIG d   1       4.083  -4.648  -3.933  0.00  0.00     0.028 H 
ENDROOT
BRANCH   7  17
ATOM     17  C   LIG d   1       4.661  -5.102  -6.547  0.00  0.00     0.027 C 
ATOM     18  H   LIG d   1       4.634  -4.710  -7.565  0.00  0.00     0.036 H 
ATOM     19  H   LIG d   1       3.647  -5.319  -6.214  0.00  0.00     0.036 H 
BRANCH  17  20
ATOM     20  C   LIG d   1       5.481  -6.366  -6.519  0.00  0.00     0.214 C 
ATOM     21  O   LIG d   1       6.659  -6.332  -6.806  0.00  0.00    -0.276 OA
ATOM     22  N   LIG d   1       4.904  -7.536  -6.178  0.00  0.00    -0.311 N 
ATOM     23  H   LIG d   1       3.961  -7.564  -5.952  0.00  0.00     0.149 HD
BRANCH  22  24
ATOM     24  C   LIG d   1       5.701  -8.765  -6.151  0.00  0.00     0.037 C 
ATOM     25  H   LIG d   1       5.229  -9.519  -6.782  0.00  0.00     0.051 H 
ATOM     26  H   LIG d   1       6.703  -8.556  -6.521  0.00  0.00     0.051 H 
BRANCH  24  27
ATOM     27  C   LIG d   1       5.785  -9.278  -4.735  0.00  0.00    -0.027 A 
ATOM     28  C   LIG d   1       6.962  -9.147  -4.024  0.00  0.00    -0.011 A 
ATOM     29  C   LIG d   1       7.042  -9.616  -2.722  0.00  0.00     0.167 A 
ATOM     30  H   LIG d   1       7.821  -8.677  -4.481  0.00  0.00     0.066 H 
ATOM     31  C   LIG d   1       5.932 -10.220  -2.136  0.00  0.00     0.166 A 
ATOM     32  O   LIG d   1       8.064  -9.610  -1.819  0.00  0.00    -0.453 OA
ATOM     33  C   LIG d   1       4.755 -10.348  -2.855  0.00  0.00    -0.016 A 
ATOM     34  O   LIG d   1       6.260 -10.593  -0.864  0.00  0.00    -0.453 OA
ATOM     35  C   LIG d   1       4.682  -9.873  -4.151  0.00  0.00    -0.053 A 
ATOM     36  H   LIG d   1       3.894 -10.817  -2.402  0.00  0.00     0.066 H 
ATOM     37  H   LIG d   1       3.763  -9.969  -4.710  0.00  0.00     0.062 H 
ATOM     38  C   LIG d   1       7.700 -10.580  -0.818  0.00  0.00     0.233 C 
ATOM     39  H   LIG d   1       8.100 -11.562  -1.074  0.00  0.00     0.117 H 
ATOM     40  H   LIG d   1       8.052 -10.268   0.164  0.00  0.00     0.117 H 
ENDBRANCH  24  27
ENDBRANCH  22  24
ENDBRANCH  17  20
ENDBRANCH   7  17
BRANCH   1  41
ATOM     41  C   LIG d   1       4.300  -2.209  -6.967  0.00  0.00    -0.051 C 
ATOM     42  H   LIG d   1       3.820  -2.944  -7.613  0.00  0.00     0.027 H 
ATOM     43  H   LIG d   1       3.632  -1.958  -6.143  0.00  0.00     0.027 H 
BRANCH  41  44
ATOM     44  C   LIG d   1       4.610  -0.946  -7.773  0.00  0.00    -0.065 C 
ATOM     45  H   LIG d   1       4.462  -1.148  -8.835  0.00  0.00     0.023 H 
ATOM     46  H   LIG d   1       3.945  -0.142  -7.460  0.00  0.00     0.023 H 
ATOM     47  H   LIG d   1       5.645  -0.650  -7.601  0.00  0.00     0.023 H 
ENDBRANCH  41  44
ENDBRANCH   1  41
BRANCH   9  48
ATOM     48  C   LIG d   1       4.032  -0.122  -2.834  0.00  0.00     0.039 C 
BRANCH  48  49
ATOM     49  C   LIG d   1       2.666  -0.679  -3.240  0.00  0.00    -0.052 C 
ATOM     50  H   LIG d   1       1.973   0.145  -3.410  0.00  0.00     0.024 H 
ATOM     51  H   LIG d   1       2.770  -1.262  -4.154  0.00  0.00     0.024 H 
ATOM     52  H   LIG d   1       2.283  -1.317  -2.443  0.00  0.00     0.024 H 
ENDBRANCH  48  49
BRANCH  48  53
ATOM     53  C   LIG d   1       4.536  -0.861  -1.593  0.00  0.00    -0.052 C 
ATOM     54  H   LIG d   1       5.605  -0.683  -1.473  0.00  0.00     0.024 H 
ATOM     55  H   LIG d   1       4.007  -0.498  -0.712  0.00  0.00     0.024 H 
ATOM     56  H   LIG d   1       4.356  -1.931  -1.709  0.00  0.00     0.024 H 
ENDBRANCH  48  53
BRANCH  48  57
ATOM     57  C   LIG d   1       3.902   1.370  -2.520  0.00  0.00    -0.052 C 
ATOM     58  H   LIG d   1       3.825   1.932  -3.451  0.00  0.00     0.024 H 
ATOM     59  H   LIG d   1       3.008   1.539  -1.919  0.00  0.00     0.024 H 
ATOM     60  H   LIG d   1       4.780   1.704  -1.966  0.00  0.00     0.024 H 
ENDBRANCH  48  57
ENDBRANCH   9  48
TORSDOF 10
ENDMDL
MODEL 5
REMARK VINA RESULT:      -6.0      1.699      2.035
REMARK  10 active torsions:
REMARK  status: ('A' for Active; 'I' for Inactive)
REMARK    1  A    between atoms: C_1  and  C_2 
REMARK    2  A    between atoms: C_2  and  C_3 
REMARK       I    between atoms: N_6  and  C_25 
REMARK    3  A    between atoms: C_9  and  C_11 
REMARK    4  A    between atoms: C_11  and  C_12 
REMARK       I    between atoms: C_12  and  N_14 
REMARK    5  A    between atoms: N_14  and  C_15 
REMARK    6  A    between atoms: C_15  and  C_16 
REMARK    7  A    between atoms: C_25  and  C_27 
REMARK    8  A    between atoms: C_27  and  C_28 
REMARK    9  A    between atoms: C_27  and  C_29 
REMARK   10  A    between atoms: C_27  and  C_30 
ROOT
ATOM      1  C   LIG d   1       7.405  -2.070  -4.662  0.00  0.00    -0.022 C 
ATOM      2  H   LIG d   1       8.469  -2.299  -4.593  0.00  0.00     0.032 H 
ATOM      3  C   LIG d   1       6.993  -1.195  -3.474  0.00  0.00     0.018 C 
ATOM      4  N   LIG d   1       5.537  -1.002  -3.510  0.00  0.00    -0.301 N 
ATOM      5  C   LIG d   1       4.670  -2.187  -3.578  0.00  0.00     0.015 C 
ATOM      6  C   LIG d   1       5.108  -3.051  -4.764  0.00  0.00    -0.034 C 
ATOM      7  C   LIG d   1       6.599  -3.370  -4.635  0.00  0.00    -0.027 C 
ATOM      8  H   LIG d   1       6.778  -3.890  -3.694  0.00  0.00     0.031 H 
ATOM      9  C   LIG d   1       5.007   0.236  -3.480  0.00  0.00     0.221 C 
ATOM     10  O   LIG d   1       5.727   1.201  -3.332  0.00  0.00    -0.275 OA
ATOM     11  H   LIG d   1       7.274  -1.686  -2.542  0.00  0.00     0.047 H 
ATOM     12  H   LIG d   1       7.491  -0.227  -3.543  0.00  0.00     0.047 H 
ATOM     13  H   LIG d   1       4.761  -2.759  -2.656  0.00  0.00     0.046 H 
ATOM     14  H   LIG d   1       3.635  -1.874  -3.716  0.00  0.00     0.046 H 
ATOM     15  H   LIG d   1       4.931  -2.509  -5.693  0.00  0.00     0.028 H 
ATOM     16  H   LIG d   1       4.536  -3.979  -4.769  0.00  0.00     0.028 H 
ENDROOT
BRANCH   7  17
ATOM     17  C   LIG d   1       7.032  -4.261  -5.801  0.00  0.00     0.027 C 
ATOM     18  H   LIG d   1       7.706  -3.705  -6.453  0.00  0.00     0.036 H 
ATOM     19  H   LIG d   1       6.155  -4.574  -6.366  0.00  0.00     0.036 H 
BRANCH  17  20
ATOM     20  C   LIG d   1       7.744  -5.478  -5.266  0.00  0.00     0.214 C 
ATOM     21  O   LIG d   1       8.480  -5.377  -4.307  0.00  0.00    -0.276 OA
ATOM     22  N   LIG d   1       7.566  -6.677  -5.855  0.00  0.00    -0.311 N 
ATOM     23  H   LIG d   1       6.980  -6.757  -6.624  0.00  0.00     0.149 HD
BRANCH  22  24
ATOM     24  C   LIG d   1       8.258  -7.859  -5.335  0.00  0.00     0.037 C 
ATOM     25  H   LIG d   1       8.684  -8.426  -6.164  0.00  0.00     0.051 H 
ATOM     26  H   LIG d   1       9.056  -7.546  -4.662  0.00  0.00     0.051 H 
BRANCH  24  27
ATOM     27  C   LIG d   1       7.278  -8.725  -4.585  0.00  0.00    -0.027 A 
ATOM     28  C   LIG d   1       5.950  -8.754  -4.968  0.00  0.00    -0.011 A 
ATOM     29  C   LIG d   1       5.048  -9.551  -4.281  0.00  0.00     0.167 A 
ATOM     30  H   LIG d   1       5.616  -8.159  -5.805  0.00  0.00     0.066 H 
ATOM     31  C   LIG d   1       5.483 -10.318  -3.203  0.00  0.00     0.166 A 
ATOM     32  O   LIG d   1       3.710  -9.758  -4.453  0.00  0.00    -0.453 OA
ATOM     33  C   LIG d   1       6.815 -10.283  -2.825  0.00  0.00    -0.016 A 
ATOM     34  O   LIG d   1       4.417 -11.006  -2.700  0.00  0.00    -0.453 OA
ATOM     35  C   LIG d   1       7.710  -9.490  -3.518  0.00  0.00    -0.053 A 
ATOM     36  H   LIG d   1       7.155 -10.877  -1.989  0.00  0.00     0.066 H 
ATOM     37  H   LIG d   1       8.750  -9.467  -3.225  0.00  0.00     0.062 H 
ATOM     38  C   LIG d   1       3.250 -10.342  -3.220  0.00  0.00     0.233 C 
ATOM     39  H   LIG d   1       2.912  -9.566  -2.531  0.00  0.00     0.117 H 
ATOM     40  H   LIG d   1       2.451 -11.058  -3.410  0.00  0.00     0.117 H 
ENDBRANCH  24  27
ENDBRANCH  22  24
ENDBRANCH  17  20
ENDBRANCH   7  17
BRANCH   1  41
ATOM     41  C   LIG d   1       7.127  -1.322  -5.967  0.00  0.00    -0.051 C 
ATOM     42  H   LIG d   1       7.433  -1.940  -6.812  0.00  0.00     0.027 H 
ATOM     43  H   LIG d   1       6.061  -1.107  -6.043  0.00  0.00     0.027 H 
BRANCH  41  44
ATOM     44  C   LIG d   1       7.913  -0.011  -5.982  0.00  0.00    -0.065 C 
ATOM     45  H   LIG d   1       8.107   0.285  -7.014  0.00  0.00     0.023 H 
ATOM     46  H   LIG d   1       7.334   0.767  -5.485  0.00  0.00     0.023 H 
ATOM     47  H   LIG d   1       8.861  -0.148  -5.460  0.00  0.00     0.023 H 
ENDBRANCH  41  44
ENDBRANCH   1  41
BRANCH   9  48
ATOM     48  C   LIG d   1       3.519   0.423  -3.633  0.00  0.00     0.039 C 
BRANCH  48  49
ATOM     49  C   LIG d   1       3.138   1.846  -3.219  0.00  0.00    -0.052 C 
ATOM     50  H   LIG d   1       2.215   1.821  -2.639  0.00  0.00     0.024 H 
ATOM     51  H   LIG d   1       3.937   2.273  -2.613  0.00  0.00     0.024 H 
ATOM     52  H   LIG d   1       2.991   2.456  -4.110  0.00  0.00     0.024 H 
ENDBRANCH  48  49
BRANCH  48  53
ATOM     53  C   LIG d   1       3.123   0.194  -5.093  0.00  0.00    -0.052 C 
ATOM     54  H   LIG d   1       3.636  -0.689  -5.474  0.00  0.00     0.024 H 
ATOM     55  H   LIG d   1       2.046   0.045  -5.159  0.00  0.00     0.024 H 
ATOM     56  H   LIG d   1       3.407   1.063  -5.687  0.00  0.00     0.024 H 
ENDBRANCH  48  53
BRANCH  48  57
ATOM     57  C   LIG d   1       2.785  -0.581  -2.743  0.00  0.00    -0.052 C 
ATOM     58  H   LIG d   1       3.392  -1.480  -2.631  0.00  0.00     0.024 H 
ATOM     59  H   LIG d   1       2.610  -0.138  -1.762  0.00  0.00     0.024 H 
ATOM     60  H   LIG d   1       1.830  -0.843  -3.199  0.00  0.00     0.024 H 
ENDBRANCH  48  57
ENDBRANCH   9  48
TORSDOF 10
ENDMDL
MODEL 6
REMARK VINA RESULT:      -6.0      3.556      6.902
REMARK  10 active torsions:
REMARK  status: ('A' for Active; 'I' for Inactive)
REMARK    1  A    between atoms: C_1  and  C_2 
REMARK    2  A    between atoms: C_2  and  C_3 
REMARK       I    between atoms: N_6  and  C_25 
REMARK    3  A    between atoms: C_9  and  C_11 
REMARK    4  A    between atoms: C_11  and  C_12 
REMARK       I    between atoms: C_12  and  N_14 
REMARK    5  A    between atoms: N_14  and  C_15 
REMARK    6  A    between atoms: C_15  and  C_16 
REMARK    7  A    between atoms: C_25  and  C_27 
REMARK    8  A    between atoms: C_27  and  C_28 
REMARK    9  A    between atoms: C_27  and  C_29 
REMARK   10  A    between atoms: C_27  and  C_30 
ROOT
ATOM      1  C   LIG d   1       3.623  -3.050 -10.120  0.00  0.00    -0.022 C 
ATOM      2  H   LIG d   1       3.572  -3.938 -10.748  0.00  0.00     0.032 H 
ATOM      3  C   LIG d   1       4.295  -1.912 -10.896  0.00  0.00     0.018 C 
ATOM      4  N   LIG d   1       4.473  -0.765  -9.995  0.00  0.00    -0.301 N 
ATOM      5  C   LIG d   1       5.168  -0.972  -8.717  0.00  0.00     0.015 C 
ATOM      6  C   LIG d   1       4.486  -2.119  -7.966  0.00  0.00    -0.034 C 
ATOM      7  C   LIG d   1       4.441  -3.357  -8.864  0.00  0.00    -0.027 C 
ATOM      8  H   LIG d   1       5.456  -3.635  -9.151  0.00  0.00     0.031 H 
ATOM      9  C   LIG d   1       4.009   0.453 -10.336  0.00  0.00     0.221 C 
ATOM     10  O   LIG d   1       3.520   0.632 -11.431  0.00  0.00    -0.275 OA
ATOM     11  H   LIG d   1       5.267  -2.244 -11.262  0.00  0.00     0.047 H 
ATOM     12  H   LIG d   1       3.665  -1.622 -11.737  0.00  0.00     0.047 H 
ATOM     13  H   LIG d   1       6.210  -1.227  -8.906  0.00  0.00     0.046 H 
ATOM     14  H   LIG d   1       5.114  -0.061  -8.121  0.00  0.00     0.046 H 
ATOM     15  H   LIG d   1       3.471  -1.826  -7.699  0.00  0.00     0.028 H 
ATOM     16  H   LIG d   1       5.049  -2.346  -7.061  0.00  0.00     0.028 H 
ENDROOT
BRANCH   7  17
ATOM     17  C   LIG d   1       3.791  -4.515  -8.104  0.00  0.00     0.027 C 
ATOM     18  H   LIG d   1       3.959  -5.446  -8.647  0.00  0.00     0.036 H 
ATOM     19  H   LIG d   1       2.720  -4.336  -8.013  0.00  0.00     0.036 H 
BRANCH  17  20
ATOM     20  C   LIG d   1       4.401  -4.619  -6.730  0.00  0.00     0.214 C 
ATOM     21  O   LIG d   1       5.358  -5.342  -6.544  0.00  0.00    -0.276 OA
ATOM     22  N   LIG d   1       3.881  -3.912  -5.706  0.00  0.00    -0.311 N 
ATOM     23  H   LIG d   1       3.115  -3.338  -5.854  0.00  0.00     0.149 HD
BRANCH  22  24
ATOM     24  C   LIG d   1       4.475  -4.014  -4.370  0.00  0.00     0.037 C 
ATOM     25  H   LIG d   1       3.788  -4.541  -3.707  0.00  0.00     0.051 H 
ATOM     26  H   LIG d   1       5.414  -4.561  -4.431  0.00  0.00     0.051 H 
BRANCH  24  27
ATOM     27  C   LIG d   1       4.733  -2.630  -3.829  0.00  0.00    -0.027 A 
ATOM     28  C   LIG d   1       5.539  -1.755  -4.532  0.00  0.00    -0.011 A 
ATOM     29  C   LIG d   1       5.777  -0.482  -4.037  0.00  0.00     0.167 A 
ATOM     30  H   LIG d   1       5.982  -2.061  -5.468  0.00  0.00     0.066 H 
ATOM     31  C   LIG d   1       5.202  -0.091  -2.830  0.00  0.00     0.166 A 
ATOM     32  O   LIG d   1       6.518   0.555  -4.525  0.00  0.00    -0.453 OA
ATOM     33  C   LIG d   1       4.396  -0.974  -2.132  0.00  0.00    -0.016 A 
ATOM     34  O   LIG d   1       5.584   1.192  -2.562  0.00  0.00    -0.453 OA
ATOM     35  C   LIG d   1       4.159  -2.239  -2.634  0.00  0.00    -0.053 A 
ATOM     36  H   LIG d   1       3.950  -0.672  -1.195  0.00  0.00     0.066 H 
ATOM     37  H   LIG d   1       3.527  -2.926  -2.091  0.00  0.00     0.062 H 
ATOM     38  C   LIG d   1       6.724   1.440  -3.408  0.00  0.00     0.233 C 
ATOM     39  H   LIG d   1       7.648   1.190  -2.887  0.00  0.00     0.117 H 
ATOM     40  H   LIG d   1       6.739   2.478  -3.739  0.00  0.00     0.117 H 
ENDBRANCH  24  27
ENDBRANCH  22  24
ENDBRANCH  17  20
ENDBRANCH   7  17
BRANCH   1  41
ATOM     41  C   LIG d   1       2.209  -2.626  -9.717  0.00  0.00    -0.051 C 
ATOM     42  H   LIG d   1       2.051  -2.845  -8.661  0.00  0.00     0.027 H 
ATOM     43  H   LIG d   1       2.087  -1.556  -9.888  0.00  0.00     0.027 H 
BRANCH  41  44
ATOM     44  C   LIG d   1       1.187  -3.395 -10.556  0.00  0.00    -0.065 C 
ATOM     45  H   LIG d   1       0.669  -4.118  -9.925  0.00  0.00     0.023 H 
ATOM     46  H   LIG d   1       0.463  -2.697 -10.977  0.00  0.00     0.023 H 
ATOM     47  H   LIG d   1       1.699  -3.919 -11.363  0.00  0.00     0.023 H 
ENDBRANCH  41  44
ENDBRANCH   1  41
BRANCH   9  48
ATOM     48  C   LIG d   1       4.097   1.595  -9.355  0.00  0.00     0.039 C 
BRANCH  48  49
ATOM     49  C   LIG d   1       3.331   1.233  -8.081  0.00  0.00    -0.052 C 
ATOM     50  H   LIG d   1       3.276   0.148  -7.986  0.00  0.00     0.024 H 
ATOM     51  H   LIG d   1       3.847   1.649  -7.217  0.00  0.00     0.024 H 
ATOM     52  H   LIG d   1       2.323   1.644  -8.135  0.00  0.00     0.024 H 
ENDBRANCH  48  49
BRANCH  48  53
ATOM     53  C   LIG d   1       5.564   1.858  -9.010  0.00  0.00    -0.052 C 
ATOM     54  H   LIG d   1       6.118   2.080  -9.923  0.00  0.00     0.024 H 
ATOM     55  H   LIG d   1       5.632   2.706  -8.329  0.00  0.00     0.024 H 
ATOM     56  H   LIG d   1       5.990   0.975  -8.533  0.00  0.00     0.024 H 
ENDBRANCH  48  53
BRANCH  48  57
ATOM     57  C   LIG d   1       3.487   2.851  -9.979  0.00  0.00    -0.052 C 
ATOM     58  H   LIG d   1       4.235   3.353 -10.592  0.00  0.00     0.024 H 
ATOM     59  H   LIG d   1       2.636   2.572 -10.601  0.00  0.00     0.024 H 
ATOM     60  H   LIG d   1       3.154   3.525  -9.189  0.00  0.00     0.024 H 
ENDBRANCH  48  57
ENDBRANCH   9  48
TORSDOF 10
ENDMDL
MODEL 7
REMARK VINA RESULT:      -5.9      7.220     10.276
REMARK  10 active torsions:
REMARK  status: ('A' for Active; 'I' for Inactive)
REMARK    1  A    between atoms: C_1  and  C_2 
REMARK    2  A    between atoms: C_2  and  C_3 
REMARK       I    between atoms: N_6  and  C_25 
REMARK    3  A    between atoms: C_9  and  C_11 
REMARK    4  A    between atoms: C_11  and  C_12 
REMARK       I    between atoms: C_12  and  N_14 
REMARK    5  A    between atoms: N_14  and  C_15 
REMARK    6  A    between atoms: C_15  and  C_16 
REMARK    7  A    between atoms: C_25  and  C_27 
REMARK    8  A    between atoms: C_27  and  C_28 
REMARK    9  A    between atoms: C_27  and  C_29 
REMARK   10  A    between atoms: C_27  and  C_30 
ROOT
ATOM      1  C   LIG d   1      11.141   4.811  -1.883  0.00  0.00    -0.022 C 
ATOM      2  H   LIG d   1      11.409   3.771  -1.701  0.00  0.00     0.032 H 
ATOM      3  C   LIG d   1      10.710   5.466  -0.567  0.00  0.00     0.018 C 
ATOM      4  N   LIG d   1      10.229   6.825  -0.849  0.00  0.00    -0.301 N 
ATOM      5  C   LIG d   1       9.179   7.006  -1.861  0.00  0.00     0.015 C 
ATOM      6  C   LIG d   1       9.627   6.335  -3.162  0.00  0.00    -0.034 C 
ATOM      7  C   LIG d   1       9.984   4.873  -2.881  0.00  0.00    -0.027 C 
ATOM      8  H   LIG d   1       9.116   4.362  -2.464  0.00  0.00     0.031 H 
ATOM      9  C   LIG d   1      10.741   7.885  -0.192  0.00  0.00     0.221 C 
ATOM     10  O   LIG d   1      11.539   7.715   0.705  0.00  0.00    -0.275 OA
ATOM     11  H   LIG d   1       9.909   4.882  -0.113  0.00  0.00     0.047 H 
ATOM     12  H   LIG d   1      11.561   5.513   0.114  0.00  0.00     0.047 H 
ATOM     13  H   LIG d   1       8.254   6.548  -1.513  0.00  0.00     0.046 H 
ATOM     14  H   LIG d   1       9.019   8.071  -2.035  0.00  0.00     0.046 H 
ATOM     15  H   LIG d   1      10.501   6.853  -3.556  0.00  0.00     0.028 H 
ATOM     16  H   LIG d   1       8.818   6.379  -3.891  0.00  0.00     0.028 H 
ENDROOT
BRANCH   7  17
ATOM     17  C   LIG d   1      10.399   4.190  -4.186  0.00  0.00     0.027 C 
ATOM     18  H   LIG d   1      11.458   4.373  -4.370  0.00  0.00     0.036 H 
ATOM     19  H   LIG d   1       9.811   4.592  -5.010  0.00  0.00     0.036 H 
BRANCH  17  20
ATOM     20  C   LIG d   1      10.158   2.706  -4.075  0.00  0.00     0.214 C 
ATOM     21  O   LIG d   1      11.005   1.990  -3.582  0.00  0.00    -0.276 OA
ATOM     22  N   LIG d   1       9.005   2.174  -4.527  0.00  0.00    -0.311 N 
ATOM     23  H   LIG d   1       8.331   2.747  -4.924  0.00  0.00     0.149 HD
BRANCH  22  24
ATOM     24  C   LIG d   1       8.772   0.732  -4.419  0.00  0.00     0.037 C 
ATOM     25  H   LIG d   1       8.806   0.283  -5.412  0.00  0.00     0.051 H 
ATOM     26  H   LIG d   1       9.543   0.285  -3.792  0.00  0.00     0.051 H 
BRANCH  24  27
ATOM     27  C   LIG d   1       7.418   0.487  -3.803  0.00  0.00    -0.027 A 
ATOM     28  C   LIG d   1       6.959  -0.806  -3.639  0.00  0.00    -0.011 A 
ATOM     29  C   LIG d   1       5.715  -1.034  -3.072  0.00  0.00     0.167 A 
ATOM     30  H   LIG d   1       7.571  -1.641  -3.950  0.00  0.00     0.066 H 
ATOM     31  C   LIG d   1       4.930   0.044  -2.670  0.00  0.00     0.166 A 
ATOM     32  O   LIG d   1       5.042  -2.190  -2.801  0.00  0.00    -0.453 OA
ATOM     33  C   LIG d   1       5.396   1.337  -2.838  0.00  0.00    -0.016 A 
ATOM     34  O   LIG d   1       3.764  -0.437  -2.149  0.00  0.00    -0.453 OA
ATOM     35  C   LIG d   1       6.640   1.556  -3.400  0.00  0.00    -0.053 A 
ATOM     36  H   LIG d   1       4.789   2.175  -2.528  0.00  0.00     0.066 H 
ATOM     37  H   LIG d   1       7.005   2.565  -3.527  0.00  0.00     0.062 H 
ATOM     38  C   LIG d   1       3.669  -1.799  -2.608  0.00  0.00     0.233 C 
ATOM     39  H   LIG d   1       3.121  -1.848  -3.549  0.00  0.00     0.117 H 
ATOM     40  H   LIG d   1       3.195  -2.428  -1.855  0.00  0.00     0.117 H 
ENDBRANCH  24  27
ENDBRANCH  22  24
ENDBRANCH  17  20
ENDBRANCH   7  17
BRANCH   1  41
ATOM     41  C   LIG d   1      12.348   5.558  -2.453  0.00  0.00    -0.051 C 
ATOM     42  H   LIG d   1      12.647   5.100  -3.396  0.00  0.00     0.027 H 
ATOM     43  H   LIG d   1      12.082   6.602  -2.625  0.00  0.00     0.027 H 
BRANCH  41  44
ATOM     44  C   LIG d   1      13.509   5.486  -1.459  0.00  0.00    -0.065 C 
ATOM     45  H   LIG d   1      14.135   6.373  -1.566  0.00  0.00     0.023 H 
ATOM     46  H   LIG d   1      13.116   5.441  -0.444  0.00  0.00     0.023 H 
ATOM     47  H   LIG d   1      14.105   4.595  -1.659  0.00  0.00     0.023 H 
ENDBRANCH  41  44
ENDBRANCH   1  41
BRANCH   9  48
ATOM     48  C   LIG d   1      10.320   9.282  -0.572  0.00  0.00     0.039 C 
BRANCH  48  49
ATOM     49  C   LIG d   1      10.839  10.272   0.473  0.00  0.00    -0.052 C 
ATOM     50  H   LIG d   1      10.118  11.080   0.596  0.00  0.00     0.024 H 
ATOM     51  H   LIG d   1      10.976   9.758   1.423  0.00  0.00     0.024 H 
ATOM     52  H   LIG d   1      11.792  10.683   0.141  0.00  0.00     0.024 H 
ENDBRANCH  48  49
BRANCH  48  53
ATOM     53  C   LIG d   1      10.902   9.634  -1.942  0.00  0.00    -0.052 C 
ATOM     54  H   LIG d   1      11.661  10.410  -1.826  0.00  0.00     0.024 H 
ATOM     55  H   LIG d   1      11.355   8.747  -2.385  0.00  0.00     0.024 H 
ATOM     56  H   LIG d   1      10.107   9.999  -2.592  0.00  0.00     0.024 H 
ENDBRANCH  48  53
BRANCH  48  57
ATOM     57  C   LIG d   1       8.794   9.356  -0.632  0.00  0.00    -0.052 C 
ATOM     58  H   LIG d   1       8.391   9.398   0.379  0.00  0.00     0.024 H 
ATOM     59  H   LIG d   1       8.494  10.250  -1.180  0.00  0.00     0.024 H 
ATOM     60  H   LIG d   1       8.406   8.472  -1.140  0.00  0.00     0.024 H 
ENDBRANCH  48  57
ENDBRANCH   9  48
TORSDOF 10
ENDMDL
MODEL 8
REMARK VINA RESULT:      -5.8      5.048     10.803
REMARK  10 active torsions:
REMARK  status: ('A' for Active; 'I' for Inactive)
REMARK    1  A    between atoms: C_1  and  C_2 
REMARK    2  A    between atoms: C_2  and  C_3 
REMARK       I    between atoms: N_6  and  C_25 
REMARK    3  A    between atoms: C_9  and  C_11 
REMARK    4  A    between atoms: C_11  and  C_12 
REMARK       I    between atoms: C_12  and  N_14 
REMARK    5  A    between atoms: N_14  and  C_15 
REMARK    6  A    between atoms: C_15  and  C_16 
REMARK    7  A    between atoms: C_25  and  C_27 
REMARK    8  A    between atoms: C_27  and  C_28 
REMARK    9  A    between atoms: C_27  and  C_29 
REMARK   10  A    between atoms: C_27  and  C_30 
ROOT
ATOM      1  C   LIG d   1       6.009  -1.015  -3.115  0.00  0.00    -0.022 C 
ATOM      2  H   LIG d   1       6.234  -0.873  -2.058  0.00  0.00     0.032 H 
ATOM      3  C   LIG d   1       6.161  -2.496  -3.476  0.00  0.00     0.018 C 
ATOM      4  N   LIG d   1       5.980  -2.652  -4.925  0.00  0.00    -0.301 N 
ATOM      5  C   LIG d   1       6.801  -1.834  -5.830  0.00  0.00     0.015 C 
ATOM      6  C   LIG d   1       6.642  -0.361  -5.443  0.00  0.00    -0.034 C 
ATOM      7  C   LIG d   1       6.978  -0.187  -3.961  0.00  0.00    -0.027 C 
ATOM      8  H   LIG d   1       7.999  -0.524  -3.779  0.00  0.00     0.031 H 
ATOM      9  C   LIG d   1       5.082  -3.528  -5.416  0.00  0.00     0.221 C 
ATOM     10  O   LIG d   1       4.477  -4.262  -4.663  0.00  0.00    -0.275 OA
ATOM     11  H   LIG d   1       7.155  -2.842  -3.191  0.00  0.00     0.047 H 
ATOM     12  H   LIG d   1       5.405  -3.080  -2.949  0.00  0.00     0.047 H 
ATOM     13  H   LIG d   1       7.847  -2.126  -5.738  0.00  0.00     0.046 H 
ATOM     14  H   LIG d   1       6.468  -1.981  -6.857  0.00  0.00     0.046 H 
ATOM     15  H   LIG d   1       5.613  -0.047  -5.623  0.00  0.00     0.028 H 
ATOM     16  H   LIG d   1       7.318   0.247  -6.044  0.00  0.00     0.028 H 
ENDROOT
BRANCH   7  17
ATOM     17  C   LIG d   1       6.853   1.289  -3.580  0.00  0.00     0.027 C 
ATOM     18  H   LIG d   1       6.859   1.386  -2.494  0.00  0.00     0.036 H 
ATOM     19  H   LIG d   1       5.920   1.690  -3.975  0.00  0.00     0.036 H 
BRANCH  17  20
ATOM     20  C   LIG d   1       8.014   2.057  -4.158  0.00  0.00     0.214 C 
ATOM     21  O   LIG d   1       7.955   2.485  -5.291  0.00  0.00    -0.276 OA
ATOM     22  N   LIG d   1       9.122   2.264  -3.417  0.00  0.00    -0.311 N 
ATOM     23  H   LIG d   1       9.171   1.919  -2.512  0.00  0.00     0.149 HD
BRANCH  22  24
ATOM     24  C   LIG d   1      10.250   3.011  -3.979  0.00  0.00     0.037 C 
ATOM     25  H   LIG d   1      11.184   2.612  -3.581  0.00  0.00     0.051 H 
ATOM     26  H   LIG d   1      10.246   2.912  -5.064  0.00  0.00     0.051 H 
BRANCH  24  27
ATOM     27  C   LIG d   1      10.125   4.466  -3.606  0.00  0.00    -0.027 A 
ATOM     28  C   LIG d   1      10.057   4.833  -2.275  0.00  0.00    -0.011 A 
ATOM     29  C   LIG d   1       9.943   6.171  -1.930  0.00  0.00     0.167 A 
ATOM     30  H   LIG d   1      10.093   4.078  -1.504  0.00  0.00     0.066 H 
ATOM     31  C   LIG d   1       9.897   7.141  -2.928  0.00  0.00     0.166 A 
ATOM     32  O   LIG d   1       9.860   6.787  -0.716  0.00  0.00    -0.453 OA
ATOM     33  C   LIG d   1       9.966   6.766  -4.259  0.00  0.00    -0.016 A 
ATOM     34  O   LIG d   1       9.784   8.367  -2.338  0.00  0.00    -0.453 OA
ATOM     35  C   LIG d   1      10.085   5.430  -4.596  0.00  0.00    -0.053 A 
ATOM     36  H   LIG d   1       9.930   7.517  -5.035  0.00  0.00     0.066 H 
ATOM     37  H   LIG d   1      10.143   5.139  -5.634  0.00  0.00     0.062 H 
ATOM     38  C   LIG d   1       9.352   8.107  -0.989  0.00  0.00     0.233 C 
ATOM     39  H   LIG d   1       8.263   8.119  -0.927  0.00  0.00     0.117 H 
ATOM     40  H   LIG d   1       9.781   8.833  -0.299  0.00  0.00     0.117 H 
ENDBRANCH  24  27
ENDBRANCH  22  24
ENDBRANCH  17  20
ENDBRANCH   7  17
BRANCH   1  41
ATOM     41  C   LIG d   1       4.573  -0.566  -3.397  0.00  0.00    -0.051 C 
ATOM     42  H   LIG d   1       4.462   0.485  -3.128  0.00  0.00     0.027 H 
ATOM     43  H   LIG d   1       4.353  -0.695  -4.457  0.00  0.00     0.027 H 
BRANCH  41  44
ATOM     44  C   LIG d   1       3.603  -1.410  -2.569  0.00  0.00    -0.065 C 
ATOM     45  H   LIG d   1       2.583  -1.065  -2.741  0.00  0.00     0.023 H 
ATOM     46  H   LIG d   1       3.686  -2.456  -2.865  0.00  0.00     0.023 H 
ATOM     47  H   LIG d   1       3.846  -1.312  -1.510  0.00  0.00     0.023 H 
ENDBRANCH  41  44
ENDBRANCH   1  41
BRANCH   9  48
ATOM     48  C   LIG d   1       4.827  -3.595  -6.900  0.00  0.00     0.039 C 
BRANCH  48  49
ATOM     49  C   LIG d   1       4.270  -2.255  -7.383  0.00  0.00    -0.052 C 
ATOM     50  H   LIG d   1       4.291  -2.224  -8.472  0.00  0.00     0.024 H 
ATOM     51  H   LIG d   1       3.244  -2.142  -7.035  0.00  0.00     0.024 H 
ATOM     52  H   LIG d   1       4.880  -1.444  -6.985  0.00  0.00     0.024 H 
ENDBRANCH  48  49
BRANCH  48  53
ATOM     53  C   LIG d   1       6.138  -3.896  -7.629  0.00  0.00    -0.052 C 
ATOM     54  H   LIG d   1       6.230  -4.971  -7.784  0.00  0.00     0.024 H 
ATOM     55  H   LIG d   1       6.143  -3.389  -8.594  0.00  0.00     0.024 H 
ATOM     56  H   LIG d   1       6.977  -3.542  -7.029  0.00  0.00     0.024 H 
ENDBRANCH  48  53
BRANCH  48  57
ATOM     57  C   LIG d   1       3.815  -4.704  -7.193  0.00  0.00    -0.052 C 
ATOM     58  H   LIG d   1       3.219  -4.898  -6.302  0.00  0.00     0.024 H 
ATOM     59  H   LIG d   1       3.160  -4.393  -8.007  0.00  0.00     0.024 H 
ATOM     60  H   LIG d   1       4.344  -5.613  -7.481  0.00  0.00     0.024 H 
ENDBRANCH  48  57
ENDBRANCH   9  48
TORSDOF 10
ENDMDL
MODEL 9
REMARK VINA RESULT:      -5.8      2.065      3.630
REMARK  10 active torsions:
REMARK  status: ('A' for Active; 'I' for Inactive)
REMARK    1  A    between atoms: C_1  and  C_2 
REMARK    2  A    between atoms: C_2  and  C_3 
REMARK       I    between atoms: N_6  and  C_25 
REMARK    3  A    between atoms: C_9  and  C_11 
REMARK    4  A    between atoms: C_11  and  C_12 
REMARK       I    between atoms: C_12  and  N_14 
REMARK    5  A    between atoms: N_14  and  C_15 
REMARK    6  A    between atoms: C_15  and  C_16 
REMARK    7  A    between atoms: C_25  and  C_27 
REMARK    8  A    between atoms: C_27  and  C_28 
REMARK    9  A    between atoms: C_27  and  C_29 
REMARK   10  A    between atoms: C_27  and  C_30 
ROOT
ATOM      1  C   LIG d   1       5.878  -1.468  -3.758  0.00  0.00    -0.022 C 
ATOM      2  H   LIG d   1       5.929  -1.705  -2.695  0.00  0.00     0.032 H 
ATOM      3  C   LIG d   1       4.411  -1.356  -4.187  0.00  0.00     0.018 C 
ATOM      4  N   LIG d   1       4.357  -1.165  -5.642  0.00  0.00    -0.301 N 
ATOM      5  C   LIG d   1       5.055  -2.127  -6.507  0.00  0.00     0.015 C 
ATOM      6  C   LIG d   1       6.514  -2.231  -6.052  0.00  0.00    -0.034 C 
ATOM      7  C   LIG d   1       6.556  -2.578  -4.562  0.00  0.00    -0.027 C 
ATOM      8  H   LIG d   1       6.034  -3.520  -4.395  0.00  0.00     0.031 H 
ATOM      9  C   LIG d   1       3.679  -0.129  -6.174  0.00  0.00     0.221 C 
ATOM     10  O   LIG d   1       3.032   0.604  -5.458  0.00  0.00    -0.275 OA
ATOM     11  H   LIG d   1       3.880  -2.270  -3.918  0.00  0.00     0.047 H 
ATOM     12  H   LIG d   1       3.949  -0.503  -3.689  0.00  0.00     0.047 H 
ATOM     13  H   LIG d   1       4.577  -3.103  -6.427  0.00  0.00     0.046 H 
ATOM     14  H   LIG d   1       5.017  -1.783  -7.541  0.00  0.00     0.046 H 
ATOM     15  H   LIG d   1       7.014  -1.277  -6.218  0.00  0.00     0.028 H 
ATOM     16  H   LIG d   1       7.018  -3.010  -6.623  0.00  0.00     0.028 H 
ENDROOT
BRANCH   7  17
ATOM     17  C   LIG d   1       8.012  -2.716  -4.113  0.00  0.00     0.027 C 
ATOM     18  H   LIG d   1       8.122  -2.310  -3.107  0.00  0.00     0.036 H 
ATOM     19  H   LIG d   1       8.658  -2.168  -4.798  0.00  0.00     0.036 H 
BRANCH  17  20
ATOM     20  C   LIG d   1       8.402  -4.172  -4.111  0.00  0.00     0.214 C 
ATOM     21  O   LIG d   1       9.053  -4.625  -3.193  0.00  0.00    -0.276 OA
ATOM     22  N   LIG d   1       8.031  -4.971  -5.132  0.00  0.00    -0.311 N 
ATOM     23  H   LIG d   1       7.514  -4.608  -5.868  0.00  0.00     0.149 HD
BRANCH  22  24
ATOM     24  C   LIG d   1       8.410  -6.386  -5.130  0.00  0.00     0.037 C 
ATOM     25  H   LIG d   1       8.967  -6.614  -6.039  0.00  0.00     0.051 H 
ATOM     26  H   LIG d   1       9.033  -6.594  -4.261  0.00  0.00     0.051 H 
BRANCH  24  27
ATOM     27  C   LIG d   1       7.168  -7.238  -5.074  0.00  0.00    -0.027 A 
ATOM     28  C   LIG d   1       7.191  -8.447  -4.404  0.00  0.00    -0.011 A 
ATOM     29  C   LIG d   1       6.050  -9.232  -4.351  0.00  0.00     0.167 A 
ATOM     30  H   LIG d   1       8.098  -8.779  -3.919  0.00  0.00     0.066 H 
ATOM     31  C   LIG d   1       4.883  -8.800  -4.976  0.00  0.00     0.166 A 
ATOM     32  O   LIG d   1       5.811 -10.441  -3.765  0.00  0.00    -0.453 OA
ATOM     33  C   LIG d   1       4.868  -7.587  -5.646  0.00  0.00    -0.016 A 
ATOM     34  O   LIG d   1       3.912  -9.739  -4.782  0.00  0.00    -0.453 OA
ATOM     35  C   LIG d   1       6.008  -6.808  -5.690  0.00  0.00    -0.053 A 
ATOM     36  H   LIG d   1       3.964  -7.250  -6.132  0.00  0.00     0.066 H 
ATOM     37  H   LIG d   1       5.994  -5.860  -6.209  0.00  0.00     0.062 H 
ATOM     38  C   LIG d   1       4.607 -10.936  -4.383  0.00  0.00     0.233 C 
ATOM     39  H   LIG d   1       4.847 -11.547  -5.254  0.00  0.00     0.117 H 
ATOM     40  H   LIG d   1       4.015 -11.505  -3.667  0.00  0.00     0.117 H 
ENDBRANCH  24  27
ENDBRANCH  22  24
ENDBRANCH  17  20
ENDBRANCH   7  17
BRANCH   1  41
ATOM     41  C   LIG d   1       6.589  -0.139  -4.020  0.00  0.00    -0.051 C 
ATOM     42  H   LIG d   1       7.651  -0.246  -3.801  0.00  0.00     0.027 H 
ATOM     43  H   LIG d   1       6.460   0.142  -5.065  0.00  0.00     0.027 H 
BRANCH  41  44
ATOM     44  C   LIG d   1       5.990   0.946  -3.123  0.00  0.00    -0.065 C 
ATOM     45  H   LIG d   1       5.820   1.850  -3.710  0.00  0.00     0.023 H 
ATOM     46  H   LIG d   1       5.042   0.597  -2.713  0.00  0.00     0.023 H 
ATOM     47  H   LIG d   1       6.680   1.166  -2.308  0.00  0.00     0.023 H 
ENDBRANCH  41  44
ENDBRANCH   1  41
BRANCH   9  48
ATOM     48  C   LIG d   1       3.727   0.119  -7.661  0.00  0.00     0.039 C 
BRANCH  48  49
ATOM     49  C   LIG d   1       2.914   1.371  -7.995  0.00  0.00    -0.052 C 
ATOM     50  H   LIG d   1       2.496   1.277  -8.997  0.00  0.00     0.024 H 
ATOM     51  H   LIG d   1       2.106   1.482  -7.273  0.00  0.00     0.024 H 
ATOM     52  H   LIG d   1       3.562   2.247  -7.952  0.00  0.00     0.024 H 
ENDBRANCH  48  49
BRANCH  48  53
ATOM     53  C   LIG d   1       5.179   0.322  -8.098  0.00  0.00    -0.052 C 
ATOM     54  H   LIG d   1       5.651  -0.648  -8.253  0.00  0.00     0.024 H 
ATOM     55  H   LIG d   1       5.203   0.891  -9.027  0.00  0.00     0.024 H 
ATOM     56  H   LIG d   1       5.718   0.869  -7.323  0.00  0.00     0.024 H 
ENDBRANCH  48  53
BRANCH  48  57
ATOM     57  C   LIG d   1       3.137  -1.084  -8.397  0.00  0.00    -0.052 C 
ATOM     58  H   LIG d   1       2.682  -0.753  -9.331  0.00  0.00     0.024 H 
ATOM     59  H   LIG d   1       3.928  -1.802  -8.614  0.00  0.00     0.024 H 
ATOM     60  H   LIG d   1       2.378  -1.558  -7.773  0.00  0.00     0.024 H 
ENDBRANCH  48  57
ENDBRANCH   9  48
TORSDOF 10
ENDMDL
MODEL 10
REMARK VINA RESULT:      -5.7      2.327      3.044
REMARK  10 active torsions:
REMARK  status: ('A' for Active; 'I' for Inactive)
REMARK    1  A    between atoms: C_1  and  C_2 
REMARK    2  A    between atoms: C_2  and  C_3 
REMARK       I    between atoms: N_6  and  C_25 
REMARK    3  A    between atoms: C_9  and  C_11 
REMARK    4  A    between atoms: C_11  and  C_12 
REMARK       I    between atoms: C_12  and  N_14 
REMARK    5  A    between atoms: N_14  and  C_15 
REMARK    6  A    between atoms: C_15  and  C_16 
REMARK    7  A    between atoms: C_25  and  C_27 
REMARK    8  A    between atoms: C_27  and  C_28 
REMARK    9  A    between atoms: C_27  and  C_29 
REMARK   10  A    between atoms: C_27  and  C_30 
ROOT
ATOM      1  C   LIG d   1       5.997  -2.552  -6.402  0.00  0.00    -0.022 C 
ATOM      2  H   LIG d   1       6.743  -2.699  -7.182  0.00  0.00     0.032 H 
ATOM      3  C   LIG d   1       6.523  -1.542  -5.376  0.00  0.00     0.018 C 
ATOM      4  N   LIG d   1       5.564  -1.451  -4.267  0.00  0.00    -0.301 N 
ATOM      5  C   LIG d   1       5.158  -2.687  -3.582  0.00  0.00     0.015 C 
ATOM      6  C   LIG d   1       4.648  -3.684  -4.627  0.00  0.00    -0.034 C 
ATOM      7  C   LIG d   1       5.719  -3.883  -5.702  0.00  0.00    -0.027 C 
ATOM      8  H   LIG d   1       6.635  -4.248  -5.238  0.00  0.00     0.031 H 
ATOM      9  C   LIG d   1       5.069  -0.258  -3.882  0.00  0.00     0.221 C 
ATOM     10  O   LIG d   1       5.481   0.762  -4.392  0.00  0.00    -0.275 OA
ATOM     11  H   LIG d   1       7.490  -1.874  -4.999  0.00  0.00     0.047 H 
ATOM     12  H   LIG d   1       6.629  -0.564  -5.849  0.00  0.00     0.047 H 
ATOM     13  H   LIG d   1       6.014  -3.112  -3.059  0.00  0.00     0.046 H 
ATOM     14  H   LIG d   1       4.364  -2.465  -2.870  0.00  0.00     0.046 H 
ATOM     15  H   LIG d   1       3.739  -3.295  -5.086  0.00  0.00     0.028 H 
ATOM     16  H   LIG d   1       4.434  -4.637  -4.145  0.00  0.00     0.028 H 
ENDROOT
BRANCH   7  17
ATOM     17  C   LIG d   1       5.226  -4.905  -6.729  0.00  0.00     0.027 C 
ATOM     18  H   LIG d   1       5.836  -4.838  -7.630  0.00  0.00     0.036 H 
ATOM     19  H   LIG d   1       4.186  -4.697  -6.978  0.00  0.00     0.036 H 
BRANCH  17  20
ATOM     20  C   LIG d   1       5.336  -6.292  -6.150  0.00  0.00     0.214 C 
ATOM     21  O   LIG d   1       4.353  -6.838  -5.693  0.00  0.00    -0.276 OA
ATOM     22  N   LIG d   1       6.526  -6.924  -6.135  0.00  0.00    -0.311 N 
ATOM     23  H   LIG d   1       7.312  -6.486  -6.497  0.00  0.00     0.149 HD
BRANCH  22  24
ATOM     24  C   LIG d   1       6.632  -8.273  -5.572  0.00  0.00     0.037 C 
ATOM     25  H   LIG d   1       5.646  -8.612  -5.253  0.00  0.00     0.051 H 
ATOM     26  H   LIG d   1       7.023  -8.953  -6.328  0.00  0.00     0.051 H 
BRANCH  24  27
ATOM     27  C   LIG d   1       7.564  -8.250  -4.387  0.00  0.00    -0.027 A 
ATOM     28  C   LIG d   1       8.603  -7.340  -4.344  0.00  0.00    -0.011 A 
ATOM     29  C   LIG d   1       9.460  -7.317  -3.255  0.00  0.00     0.167 A 
ATOM     30  H   LIG d   1       8.747  -6.645  -5.159  0.00  0.00     0.066 H 
ATOM     31  C   LIG d   1       9.271  -8.214  -2.207  0.00  0.00     0.166 A 
ATOM     32  O   LIG d   1      10.541  -6.534  -2.971  0.00  0.00    -0.453 OA
ATOM     33  C   LIG d   1       8.227  -9.123  -2.257  0.00  0.00    -0.016 A 
ATOM     34  O   LIG d   1      10.234  -7.993  -1.265  0.00  0.00    -0.453 OA
ATOM     35  C   LIG d   1       7.373  -9.137  -3.344  0.00  0.00    -0.053 A 
ATOM     36  H   LIG d   1       8.079  -9.820  -1.445  0.00  0.00     0.066 H 
ATOM     37  H   LIG d   1       6.557  -9.843  -3.380  0.00  0.00     0.062 H 
ATOM     38  C   LIG d   1      11.257  -7.229  -1.932  0.00  0.00     0.233 C 
ATOM     39  H   LIG d   1      12.009  -7.891  -2.363  0.00  0.00     0.117 H 
ATOM     40  H   LIG d   1      11.719  -6.520  -1.246  0.00  0.00     0.117 H 
ENDBRANCH  24  27
ENDBRANCH  22  24
ENDBRANCH  17  20
ENDBRANCH   7  17
BRANCH   1  41
ATOM     41  C   LIG d   1       4.704  -2.021  -7.024  0.00  0.00    -0.051 C 
ATOM     42  H   LIG d   1       4.323  -2.745  -7.744  0.00  0.00     0.027 H 
ATOM     43  H   LIG d   1       3.961  -1.864  -6.241  0.00  0.00     0.027 H 
BRANCH  41  44
ATOM     44  C   LIG d   1       4.984  -0.695  -7.732  0.00  0.00    -0.065 C 
ATOM     45  H   LIG d   1       5.870  -0.231  -7.297  0.00  0.00     0.023 H 
ATOM     46  H   LIG d   1       5.156  -0.878  -8.793  0.00  0.00     0.023 H 
ATOM     47  H   LIG d   1       4.129  -0.029  -7.611  0.00  0.00     0.023 H 
ENDBRANCH  41  44
ENDBRANCH   1  41
BRANCH   9  48
ATOM     48  C   LIG d   1       4.003  -0.192  -2.819  0.00  0.00     0.039 C 
BRANCH  48  49
ATOM     49  C   LIG d   1       2.681  -0.709  -3.390  0.00  0.00    -0.052 C 
ATOM     50  H   LIG d   1       2.790  -1.757  -3.669  0.00  0.00     0.024 H 
ATOM     51  H   LIG d   1       1.898  -0.611  -2.638  0.00  0.00     0.024 H 
ATOM     52  H   LIG d   1       2.413  -0.126  -4.271  0.00  0.00     0.024 H 
ENDBRANCH  48  49
BRANCH  48  53
ATOM     53  C   LIG d   1       4.416  -1.058  -1.628  0.00  0.00    -0.052 C 
ATOM     54  H   LIG d   1       4.077  -0.590  -0.703  0.00  0.00     0.024 H 
ATOM     55  H   LIG d   1       3.965  -2.046  -1.721  0.00  0.00     0.024 H 
ATOM     56  H   LIG d   1       5.502  -1.156  -1.608  0.00  0.00     0.024 H 
ENDBRANCH  48  53
BRANCH  48  57
ATOM     57  C   LIG d   1       3.829   1.256  -2.361  0.00  0.00    -0.052 C 
ATOM     58  H   LIG d   1       2.952   1.688  -2.842  0.00  0.00     0.024 H 
ATOM     59  H   LIG d   1       3.698   1.282  -1.278  0.00  0.00     0.024 H 
ATOM     60  H   LIG d   1       4.714   1.833  -2.633  0.00  0.00     0.024 H 
ENDBRANCH  48  57
ENDBRANCH   9  48
TORSDOF 10
ENDMDL
