MODEL 1
REMARK VINA RESULT:      -5.6      0.000      0.000
REMARK  7 active torsions:
REMARK  status: ('A' for Active; 'I' for Inactive)
REMARK    1  A    between atoms: C_1  and  C_2 
REMARK    2  A    between atoms: C_2  and  C_3 
REMARK    3  A    between atoms: C_3  and  O_4 
REMARK    4  A    between atoms: O_4  and  C_5 
REMARK    5  A    between atoms: C_9  and  C_19 
REMARK    6  A    between atoms: C_10  and  C_16 
REMARK    7  A    between atoms: C_16  and  C_17 
ROOT
ATOM      1  C   LIG d   1       6.025  -1.225  -3.308  0.00  0.00     0.124 A 
ATOM      2  C   LIG d   1       7.323  -1.727  -3.389  0.00  0.00    -0.019 A 
ATOM      3  C   LIG d   1       7.569  -2.905  -4.033  0.00  0.00    -0.047 A 
ATOM      4  C   LIG d   1       6.512  -3.614  -4.615  0.00  0.00     0.021 A 
ATOM      5  C   LIG d   1       6.746  -4.881  -5.311  0.00  0.00    -0.029 A 
ATOM      6  C   LIG d   1       5.679  -5.520  -5.856  0.00  0.00     0.046 A 
ATOM      7  C   LIG d   1       4.392  -4.957  -5.744  0.00  0.00     0.341 A 
ATOM      8  O   LIG d   1       3.444  -5.539  -6.242  0.00  0.00    -0.245 OA
ATOM      9  O   LIG d   1       4.182  -3.798  -5.100  0.00  0.00    -0.422 OA
ATOM     10  C   LIG d   1       5.200  -3.112  -4.536  0.00  0.00     0.143 A 
ATOM     11  C   LIG d   1       4.966  -1.913  -3.880  0.00  0.00     0.023 A 
ATOM     12  H   LIG d   1       8.139  -1.181  -2.939  0.00  0.00     0.065 H 
ATOM     13  H   LIG d   1       8.576  -3.289  -4.092  0.00  0.00     0.063 H 
ATOM     14  H   LIG d   1       3.964  -1.518  -3.813  0.00  0.00     0.069 H 
ENDROOT
BRANCH   1  15
ATOM     15  O   LIG d   1       5.796  -0.052  -2.665  0.00  0.00    -0.492 OA
BRANCH  15  16
ATOM     16  C   LIG d   1       4.604   0.036  -1.882  0.00  0.00     0.089 C 
ATOM     17  H   LIG d   1       3.960  -0.817  -2.103  0.00  0.00     0.070 H 
ATOM     18  H   LIG d   1       4.862   0.031  -0.823  0.00  0.00     0.070 H 
BRANCH  16  19
ATOM     19  C   LIG d   1       3.865   1.332  -2.220  0.00  0.00    -0.021 C 
ATOM     20  H   LIG d   1       3.128   1.543  -1.446  0.00  0.00     0.029 H 
ATOM     21  H   LIG d   1       4.580   2.154  -2.274  0.00  0.00     0.029 H 
BRANCH  19  22
ATOM     22  C   LIG d   1       3.160   1.181  -3.569  0.00  0.00    -0.062 C 
ATOM     23  H   LIG d   1       2.837   2.159  -3.923  0.00  0.00     0.023 H 
ATOM     24  H   LIG d   1       3.849   0.743  -4.292  0.00  0.00     0.023 H 
ATOM     25  H   LIG d   1       2.292   0.530  -3.455  0.00  0.00     0.023 H 
ENDBRANCH  19  22
ENDBRANCH  16  19
ENDBRANCH  15  16
ENDBRANCH   1  15
BRANCH   5  26
ATOM     26  C   LIG d   1       8.134  -5.457  -5.422  0.00  0.00    -0.038 C 
ATOM     27  H   LIG d   1       8.087  -6.426  -5.920  0.00  0.00     0.028 H 
ATOM     28  H   LIG d   1       8.763  -4.781  -6.002  0.00  0.00     0.028 H 
ATOM     29  H   LIG d   1       8.557  -5.581  -4.425  0.00  0.00     0.028 H 
ENDBRANCH   5  26
BRANCH   6  30
ATOM     30  C   LIG d   1       5.872  -6.828  -6.582  0.00  0.00     0.019 C 
ATOM     31  H   LIG d   1       6.911  -6.916  -6.901  0.00  0.00     0.037 H 
ATOM     32  H   LIG d   1       5.220  -6.857  -7.455  0.00  0.00     0.037 H 
BRANCH  30  33
ATOM     33  C   LIG d   1       5.531  -7.970  -5.660  0.00  0.00     0.046 C 
ATOM     34  O   LIG d   1       6.328  -8.334  -4.829  0.00  0.00    -0.549 OA
ATOM     35  O   LIG d   1       4.338  -8.578  -5.759  0.00  0.00    -0.549 OA
ENDBRANCH  30  33
ENDBRANCH   6  30
TORSDOF 7
ENDMDL
MODEL 2
REMARK VINA RESULT:      -5.5      3.957      6.222
REMARK  7 active torsions:
REMARK  status: ('A' for Active; 'I' for Inactive)
REMARK    1  A    between atoms: C_1  and  C_2 
REMARK    2  A    between atoms: C_2  and  C_3 
REMARK    3  A    between atoms: C_3  and  O_4 
REMARK    4  A    between atoms: O_4  and  C_5 
REMARK    5  A    between atoms: C_9  and  C_19 
REMARK    6  A    between atoms: C_10  and  C_16 
REMARK    7  A    between atoms: C_16  and  C_17 
ROOT
ATOM      1  C   LIG d   1       9.231   2.110  -5.204  0.00  0.00     0.124 A 
ATOM      2  C   LIG d   1       9.521   0.763  -5.412  0.00  0.00    -0.019 A 
ATOM      3  C   LIG d   1       8.730  -0.206  -4.868  0.00  0.00    -0.047 A 
ATOM      4  C   LIG d   1       7.620   0.154  -4.095  0.00  0.00     0.021 A 
ATOM      5  C   LIG d   1       6.754  -0.865  -3.498  0.00  0.00    -0.029 A 
ATOM      6  C   LIG d   1       5.692  -0.451  -2.760  0.00  0.00     0.046 A 
ATOM      7  C   LIG d   1       5.449   0.927  -2.591  0.00  0.00     0.341 A 
ATOM      8  O   LIG d   1       4.489   1.285  -1.931  0.00  0.00    -0.245 OA
ATOM      9  O   LIG d   1       6.249   1.857  -3.137  0.00  0.00    -0.422 OA
ATOM     10  C   LIG d   1       7.322   1.513  -3.882  0.00  0.00     0.143 A 
ATOM     11  C   LIG d   1       8.135   2.486  -4.443  0.00  0.00     0.023 A 
ATOM     12  H   LIG d   1      10.378   0.485  -6.008  0.00  0.00     0.065 H 
ATOM     13  H   LIG d   1       8.960  -1.248  -5.032  0.00  0.00     0.063 H 
ATOM     14  H   LIG d   1       7.917   3.531  -4.286  0.00  0.00     0.069 H 
ENDROOT
BRANCH   1  15
ATOM     15  O   LIG d   1      10.027   3.064  -5.753  0.00  0.00    -0.492 OA
BRANCH  15  16
ATOM     16  C   LIG d   1      10.515   4.082  -4.878  0.00  0.00     0.089 C 
ATOM     17  H   LIG d   1      10.016   4.001  -3.911  0.00  0.00     0.070 H 
ATOM     18  H   LIG d   1      11.590   3.963  -4.744  0.00  0.00     0.070 H 
BRANCH  16  19
ATOM     19  C   LIG d   1      10.227   5.457  -5.484  0.00  0.00    -0.021 C 
ATOM     20  H   LIG d   1      11.135   6.059  -5.467  0.00  0.00     0.029 H 
ATOM     21  H   LIG d   1       9.891   5.336  -6.515  0.00  0.00     0.029 H 
BRANCH  19  22
ATOM     22  C   LIG d   1       9.135   6.155  -4.671  0.00  0.00    -0.062 C 
ATOM     23  H   LIG d   1       8.156   5.820  -5.014  0.00  0.00     0.023 H 
ATOM     24  H   LIG d   1       9.254   5.909  -3.616  0.00  0.00     0.023 H 
ATOM     25  H   LIG d   1       9.217   7.234  -4.804  0.00  0.00     0.023 H 
ENDBRANCH  19  22
ENDBRANCH  16  19
ENDBRANCH  15  16
ENDBRANCH   1  15
BRANCH   5  26
ATOM     26  C   LIG d   1       7.033  -2.332  -3.700  0.00  0.00    -0.038 C 
ATOM     27  H   LIG d   1       6.109  -2.844  -3.969  0.00  0.00     0.028 H 
ATOM     28  H   LIG d   1       7.764  -2.456  -4.499  0.00  0.00     0.028 H 
ATOM     29  H   LIG d   1       7.428  -2.757  -2.777  0.00  0.00     0.028 H 
ENDBRANCH   5  26
BRANCH   6  30
ATOM     30  C   LIG d   1       4.772  -1.464  -2.125  0.00  0.00     0.019 C 
ATOM     31  H   LIG d   1       4.367  -1.056  -1.199  0.00  0.00     0.037 H 
ATOM     32  H   LIG d   1       5.330  -2.374  -1.909  0.00  0.00     0.037 H 
BRANCH  30  33
ATOM     33  C   LIG d   1       3.643  -1.779  -3.072  0.00  0.00     0.046 C 
ATOM     34  O   LIG d   1       3.747  -2.696  -3.852  0.00  0.00    -0.549 OA
ATOM     35  O   LIG d   1       2.519  -1.046  -3.042  0.00  0.00    -0.549 OA
ENDBRANCH  30  33
ENDBRANCH   6  30
TORSDOF 7
ENDMDL
MODEL 3
REMARK VINA RESULT:      -5.5      4.616      6.452
REMARK  7 active torsions:
REMARK  status: ('A' for Active; 'I' for Inactive)
REMARK    1  A    between atoms: C_1  and  C_2 
REMARK    2  A    between atoms: C_2  and  C_3 
REMARK    3  A    between atoms: C_3  and  O_4 
REMARK    4  A    between atoms: O_4  and  C_5 
REMARK    5  A    between atoms: C_9  and  C_19 
REMARK    6  A    between atoms: C_10  and  C_16 
REMARK    7  A    between atoms: C_16  and  C_17 
ROOT
ATOM      1  C   LIG d   1       3.360  -0.775  -4.363  0.00  0.00     0.124 A 
ATOM      2  C   LIG d   1       2.475   0.244  -4.714  0.00  0.00    -0.019 A 
ATOM      3  C   LIG d   1       2.525   0.804  -5.957  0.00  0.00    -0.047 A 
ATOM      4  C   LIG d   1       3.470   0.356  -6.885  0.00  0.00     0.021 A 
ATOM      5  C   LIG d   1       3.547   0.940  -8.226  0.00  0.00    -0.029 A 
ATOM      6  C   LIG d   1       4.486   0.460  -9.082  0.00  0.00     0.046 A 
ATOM      7  C   LIG d   1       5.348  -0.576  -8.669  0.00  0.00     0.341 A 
ATOM      8  O   LIG d   1       6.182  -1.000  -9.449  0.00  0.00    -0.245 OA
ATOM      9  O   LIG d   1       5.276  -1.104  -7.437  0.00  0.00    -0.422 OA
ATOM     10  C   LIG d   1       4.366  -0.672  -6.538  0.00  0.00     0.143 A 
ATOM     11  C   LIG d   1       4.302  -1.233  -5.271  0.00  0.00     0.023 A 
ATOM     12  H   LIG d   1       1.746   0.590  -3.997  0.00  0.00     0.065 H 
ATOM     13  H   LIG d   1       1.837   1.593  -6.222  0.00  0.00     0.063 H 
ATOM     14  H   LIG d   1       4.984  -2.022  -4.992  0.00  0.00     0.069 H 
ENDROOT
BRANCH   1  15
ATOM     15  O   LIG d   1       3.298  -1.324  -3.124  0.00  0.00    -0.492 OA
BRANCH  15  16
ATOM     16  C   LIG d   1       4.435  -1.144  -2.278  0.00  0.00     0.089 C 
ATOM     17  H   LIG d   1       4.384  -1.847  -1.445  0.00  0.00     0.070 H 
ATOM     18  H   LIG d   1       5.346  -1.324  -2.849  0.00  0.00     0.070 H 
BRANCH  16  19
ATOM     19  C   LIG d   1       4.448   0.287  -1.737  0.00  0.00    -0.021 C 
ATOM     20  H   LIG d   1       3.451   0.717  -1.826  0.00  0.00     0.029 H 
ATOM     21  H   LIG d   1       4.747   0.277  -0.688  0.00  0.00     0.029 H 
BRANCH  19  22
ATOM     22  C   LIG d   1       5.441   1.128  -2.542  0.00  0.00    -0.062 C 
ATOM     23  H   LIG d   1       5.100   1.204  -3.573  0.00  0.00     0.023 H 
ATOM     24  H   LIG d   1       5.509   2.125  -2.107  0.00  0.00     0.023 H 
ATOM     25  H   LIG d   1       6.422   0.653  -2.517  0.00  0.00     0.023 H 
ENDBRANCH  19  22
ENDBRANCH  16  19
ENDBRANCH  15  16
ENDBRANCH   1  15
BRANCH   5  26
ATOM     26  C   LIG d   1       2.609   2.042  -8.644  0.00  0.00    -0.038 C 
ATOM     27  H   LIG d   1       3.144   2.991  -8.655  0.00  0.00     0.028 H 
ATOM     28  H   LIG d   1       2.222   1.831  -9.642  0.00  0.00     0.028 H 
ATOM     29  H   LIG d   1       1.779   2.101  -7.939  0.00  0.00     0.028 H 
ENDBRANCH   5  26
BRANCH   6  30
ATOM     30  C   LIG d   1       4.602   1.032 -10.473  0.00  0.00     0.019 C 
ATOM     31  H   LIG d   1       5.655   1.155 -10.728  0.00  0.00     0.037 H 
ATOM     32  H   LIG d   1       4.104   2.000 -10.510  0.00  0.00     0.037 H 
BRANCH  30  33
ATOM     33  C   LIG d   1       3.954   0.093 -11.457  0.00  0.00     0.046 C 
ATOM     34  O   LIG d   1       2.784  -0.187 -11.344  0.00  0.00    -0.549 OA
ATOM     35  O   LIG d   1       4.674  -0.426 -12.464  0.00  0.00    -0.549 OA
ENDBRANCH  30  33
ENDBRANCH   6  30
TORSDOF 7
ENDMDL
MODEL 4
REMARK VINA RESULT:      -5.4      4.786      6.177
REMARK  7 active torsions:
REMARK  status: ('A' for Active; 'I' for Inactive)
REMARK    1  A    between atoms: C_1  and  C_2 
REMARK    2  A    between atoms: C_2  and  C_3 
REMARK    3  A    between atoms: C_3  and  O_4 
REMARK    4  A    between atoms: O_4  and  C_5 
REMARK    5  A    between atoms: C_9  and  C_19 
REMARK    6  A    between atoms: C_10  and  C_16 
REMARK    7  A    between atoms: C_16  and  C_17 
ROOT
ATOM      1  C   LIG d   1       4.614  -1.706  -4.653  0.00  0.00     0.124 A 
ATOM      2  C   LIG d   1       4.840  -2.783  -5.508  0.00  0.00    -0.019 A 
ATOM      3  C   LIG d   1       4.551  -2.683  -6.837  0.00  0.00    -0.047 A 
ATOM      4  C   LIG d   1       4.020  -1.492  -7.346  0.00  0.00     0.021 A 
ATOM      5  C   LIG d   1       3.699  -1.356  -8.768  0.00  0.00    -0.029 A 
ATOM      6  C   LIG d   1       3.189  -0.174  -9.201  0.00  0.00     0.046 A 
ATOM      7  C   LIG d   1       2.987   0.880  -8.286  0.00  0.00     0.341 A 
ATOM      8  O   LIG d   1       2.534   1.937  -8.688  0.00  0.00    -0.245 OA
ATOM      9  O   LIG d   1       3.280   0.748  -6.983  0.00  0.00    -0.422 OA
ATOM     10  C   LIG d   1       3.789  -0.400  -6.488  0.00  0.00     0.143 A 
ATOM     11  C   LIG d   1       4.091  -0.518  -5.139  0.00  0.00     0.023 A 
ATOM     12  H   LIG d   1       5.248  -3.703  -5.115  0.00  0.00     0.065 H 
ATOM     13  H   LIG d   1       4.728  -3.521  -7.494  0.00  0.00     0.063 H 
ATOM     14  H   LIG d   1       3.918   0.312  -4.471  0.00  0.00     0.069 H 
ENDROOT
BRANCH   1  15
ATOM     15  O   LIG d   1       4.908  -1.820  -3.332  0.00  0.00    -0.492 OA
BRANCH  15  16
ATOM     16  C   LIG d   1       3.933  -1.336  -2.407  0.00  0.00     0.089 C 
ATOM     17  H   LIG d   1       3.031  -1.047  -2.947  0.00  0.00     0.070 H 
ATOM     18  H   LIG d   1       3.692  -2.120  -1.689  0.00  0.00     0.070 H 
BRANCH  16  19
ATOM     19  C   LIG d   1       4.493  -0.121  -1.664  0.00  0.00    -0.021 C 
ATOM     20  H   LIG d   1       4.341  -0.249  -0.593  0.00  0.00     0.029 H 
ATOM     21  H   LIG d   1       5.560  -0.028  -1.871  0.00  0.00     0.029 H 
BRANCH  19  22
ATOM     22  C   LIG d   1       3.771   1.142  -2.136  0.00  0.00    -0.062 C 
ATOM     23  H   LIG d   1       2.707   1.054  -1.924  0.00  0.00     0.023 H 
ATOM     24  H   LIG d   1       4.176   2.009  -1.613  0.00  0.00     0.023 H 
ATOM     25  H   LIG d   1       3.919   1.266  -3.210  0.00  0.00     0.023 H 
ENDBRANCH  19  22
ENDBRANCH  16  19
ENDBRANCH  15  16
ENDBRANCH   1  15
BRANCH   5  26
ATOM     26  C   LIG d   1       3.930  -2.496  -9.726  0.00  0.00    -0.038 C 
ATOM     27  H   LIG d   1       4.989  -2.750  -9.740  0.00  0.00     0.028 H 
ATOM     28  H   LIG d   1       3.352  -3.364  -9.404  0.00  0.00     0.028 H 
ATOM     29  H   LIG d   1       3.613  -2.201 -10.726  0.00  0.00     0.028 H 
ENDBRANCH   5  26
BRANCH   6  30
ATOM     30  C   LIG d   1       2.842   0.012 -10.656  0.00  0.00     0.019 C 
ATOM     31  H   LIG d   1       2.084   0.789 -10.753  0.00  0.00     0.037 H 
ATOM     32  H   LIG d   1       2.456  -0.924 -11.059  0.00  0.00     0.037 H 
BRANCH  30  33
ATOM     33  C   LIG d   1       4.077   0.417 -11.419  0.00  0.00     0.046 C 
ATOM     34  O   LIG d   1       4.867   1.186 -10.925  0.00  0.00    -0.549 OA
ATOM     35  O   LIG d   1       4.302  -0.081 -12.645  0.00  0.00    -0.549 OA
ENDBRANCH  30  33
ENDBRANCH   6  30
TORSDOF 7
ENDMDL
MODEL 5
REMARK VINA RESULT:      -5.2      4.085      7.240
REMARK  7 active torsions:
REMARK  status: ('A' for Active; 'I' for Inactive)
REMARK    1  A    between atoms: C_1  and  C_2 
REMARK    2  A    between atoms: C_2  and  C_3 
REMARK    3  A    between atoms: C_3  and  O_4 
REMARK    4  A    between atoms: O_4  and  C_5 
REMARK    5  A    between atoms: C_9  and  C_19 
REMARK    6  A    between atoms: C_10  and  C_16 
REMARK    7  A    between atoms: C_16  and  C_17 
ROOT
ATOM      1  C   LIG d   1       4.238  -1.668  -8.933  0.00  0.00     0.124 A 
ATOM      2  C   LIG d   1       4.809  -2.627  -8.098  0.00  0.00    -0.019 A 
ATOM      3  C   LIG d   1       4.770  -2.473  -6.742  0.00  0.00    -0.047 A 
ATOM      4  C   LIG d   1       4.154  -1.346  -6.187  0.00  0.00     0.021 A 
ATOM      5  C   LIG d   1       4.098  -1.154  -4.736  0.00  0.00    -0.029 A 
ATOM      6  C   LIG d   1       3.486  -0.040  -4.259  0.00  0.00     0.046 A 
ATOM      7  C   LIG d   1       2.923   0.890  -5.157  0.00  0.00     0.341 A 
ATOM      8  O   LIG d   1       2.371   1.883  -4.716  0.00  0.00    -0.245 OA
ATOM      9  O   LIG d   1       2.981   0.711  -6.486  0.00  0.00    -0.422 OA
ATOM     10  C   LIG d   1       3.576  -0.375  -7.025  0.00  0.00     0.143 A 
ATOM     11  C   LIG d   1       3.623  -0.546  -8.401  0.00  0.00     0.023 A 
ATOM     12  H   LIG d   1       5.285  -3.497  -8.526  0.00  0.00     0.065 H 
ATOM     13  H   LIG d   1       5.214  -3.219  -6.100  0.00  0.00     0.063 H 
ATOM     14  H   LIG d   1       3.183   0.192  -9.054  0.00  0.00     0.069 H 
ENDROOT
BRANCH   1  15
ATOM     15  O   LIG d   1       4.284  -1.835 -10.280  0.00  0.00    -0.492 OA
BRANCH  15  16
ATOM     16  C   LIG d   1       3.037  -2.022 -10.952  0.00  0.00     0.089 C 
ATOM     17  H   LIG d   1       3.033  -2.995 -11.446  0.00  0.00     0.070 H 
ATOM     18  H   LIG d   1       2.223  -1.979 -10.229  0.00  0.00     0.070 H 
BRANCH  16  19
ATOM     19  C   LIG d   1       2.850  -0.920 -11.996  0.00  0.00    -0.021 C 
ATOM     20  H   LIG d   1       2.413  -1.345 -12.899  0.00  0.00     0.029 H 
ATOM     21  H   LIG d   1       2.186  -0.151 -11.599  0.00  0.00     0.029 H 
BRANCH  19  22
ATOM     22  C   LIG d   1       4.207  -0.297 -12.329  0.00  0.00    -0.062 C 
ATOM     23  H   LIG d   1       4.220   0.742 -12.002  0.00  0.00     0.023 H 
ATOM     24  H   LIG d   1       4.996  -0.848 -11.817  0.00  0.00     0.023 H 
ATOM     25  H   LIG d   1       4.373  -0.342 -13.406  0.00  0.00     0.023 H 
ENDBRANCH  19  22
ENDBRANCH  16  19
ENDBRANCH  15  16
ENDBRANCH   1  15
BRANCH   5  26
ATOM     26  C   LIG d   1       4.702  -2.167  -3.799  0.00  0.00    -0.038 C 
ATOM     27  H   LIG d   1       4.880  -3.099  -4.335  0.00  0.00     0.028 H 
ATOM     28  H   LIG d   1       5.648  -1.786  -3.411  0.00  0.00     0.028 H 
ATOM     29  H   LIG d   1       4.018  -2.349  -2.970  0.00  0.00     0.028 H 
ENDBRANCH   5  26
BRANCH   6  30
ATOM     30  C   LIG d   1       3.404   0.200  -2.773  0.00  0.00     0.019 C 
ATOM     31  H   LIG d   1       3.393  -0.757  -2.251  0.00  0.00     0.037 H 
ATOM     32  H   LIG d   1       2.492   0.750  -2.544  0.00  0.00     0.037 H 
BRANCH  30  33
ATOM     33  C   LIG d   1       4.600   1.001  -2.327  0.00  0.00     0.046 C 
ATOM     34  O   LIG d   1       4.825   1.146  -1.149  0.00  0.00    -0.549 OA
ATOM     35  O   LIG d   1       5.419   1.547  -3.239  0.00  0.00    -0.549 OA
ENDBRANCH  30  33
ENDBRANCH   6  30
TORSDOF 7
ENDMDL
MODEL 6
REMARK VINA RESULT:      -5.0      3.255      6.975
REMARK  7 active torsions:
REMARK  status: ('A' for Active; 'I' for Inactive)
REMARK    1  A    between atoms: C_1  and  C_2 
REMARK    2  A    between atoms: C_2  and  C_3 
REMARK    3  A    between atoms: C_3  and  O_4 
REMARK    4  A    between atoms: O_4  and  C_5 
REMARK    5  A    between atoms: C_9  and  C_19 
REMARK    6  A    between atoms: C_10  and  C_16 
REMARK    7  A    between atoms: C_16  and  C_17 
ROOT
ATOM      1  C   LIG d   1       8.714  -3.238  -5.561  0.00  0.00     0.124 A 
ATOM      2  C   LIG d   1       7.628  -4.046  -5.230  0.00  0.00    -0.019 A 
ATOM      3  C   LIG d   1       6.571  -3.534  -4.535  0.00  0.00    -0.047 A 
ATOM      4  C   LIG d   1       6.579  -2.189  -4.149  0.00  0.00     0.021 A 
ATOM      5  C   LIG d   1       5.460  -1.612  -3.401  0.00  0.00    -0.029 A 
ATOM      6  C   LIG d   1       5.526  -0.300  -3.058  0.00  0.00     0.046 A 
ATOM      7  C   LIG d   1       6.650   0.466  -3.428  0.00  0.00     0.341 A 
ATOM      8  O   LIG d   1       6.694   1.644  -3.118  0.00  0.00    -0.245 OA
ATOM      9  O   LIG d   1       7.675  -0.069  -4.109  0.00  0.00    -0.422 OA
ATOM     10  C   LIG d   1       7.672  -1.367  -4.481  0.00  0.00     0.143 A 
ATOM     11  C   LIG d   1       8.737  -1.903  -5.190  0.00  0.00     0.023 A 
ATOM     12  H   LIG d   1       7.622  -5.085  -5.526  0.00  0.00     0.065 H 
ATOM     13  H   LIG d   1       5.733  -4.165  -4.281  0.00  0.00     0.063 H 
ATOM     14  H   LIG d   1       9.582  -1.283  -5.449  0.00  0.00     0.069 H 
ENDROOT
BRANCH   1  15
ATOM     15  O   LIG d   1       9.757  -3.761  -6.254  0.00  0.00    -0.492 OA
BRANCH  15  16
ATOM     16  C   LIG d   1      11.059  -3.591  -5.692  0.00  0.00     0.089 C 
ATOM     17  H   LIG d   1      11.812  -3.733  -6.468  0.00  0.00     0.070 H 
ATOM     18  H   LIG d   1      11.149  -2.587  -5.278  0.00  0.00     0.070 H 
BRANCH  16  19
ATOM     19  C   LIG d   1      11.274  -4.621  -4.580  0.00  0.00    -0.021 C 
ATOM     20  H   LIG d   1      12.254  -4.469  -4.129  0.00  0.00     0.029 H 
ATOM     21  H   LIG d   1      10.501  -4.500  -3.820  0.00  0.00     0.029 H 
BRANCH  19  22
ATOM     22  C   LIG d   1      11.194  -6.030  -5.169  0.00  0.00    -0.062 C 
ATOM     23  H   LIG d   1      10.724  -5.989  -6.151  0.00  0.00     0.023 H 
ATOM     24  H   LIG d   1      12.199  -6.442  -5.264  0.00  0.00     0.023 H 
ATOM     25  H   LIG d   1      10.602  -6.666  -4.509  0.00  0.00     0.023 H 
ENDBRANCH  19  22
ENDBRANCH  16  19
ENDBRANCH  15  16
ENDBRANCH   1  15
BRANCH   5  26
ATOM     26  C   LIG d   1       4.266  -2.452  -3.025  0.00  0.00    -0.038 C 
ATOM     27  H   LIG d   1       3.806  -2.855  -3.927  0.00  0.00     0.028 H 
ATOM     28  H   LIG d   1       4.588  -3.273  -2.383  0.00  0.00     0.028 H 
ATOM     29  H   LIG d   1       3.542  -1.836  -2.491  0.00  0.00     0.028 H 
ENDBRANCH   5  26
BRANCH   6  30
ATOM     30  C   LIG d   1       4.397   0.337  -2.287  0.00  0.00     0.019 C 
ATOM     31  H   LIG d   1       4.805   1.042  -1.562  0.00  0.00     0.037 H 
ATOM     32  H   LIG d   1       3.832  -0.435  -1.767  0.00  0.00     0.037 H 
BRANCH  30  33
ATOM     33  C   LIG d   1       3.488   1.069  -3.241  0.00  0.00     0.046 C 
ATOM     34  O   LIG d   1       3.541   2.273  -3.322  0.00  0.00    -0.549 OA
ATOM     35  O   LIG d   1       2.624   0.382  -4.004  0.00  0.00    -0.549 OA
ENDBRANCH  30  33
ENDBRANCH   6  30
TORSDOF 7
ENDMDL
MODEL 7
REMARK VINA RESULT:      -5.0      4.982      8.566
REMARK  7 active torsions:
REMARK  status: ('A' for Active; 'I' for Inactive)
REMARK    1  A    between atoms: C_1  and  C_2 
REMARK    2  A    between atoms: C_2  and  C_3 
REMARK    3  A    between atoms: C_3  and  O_4 
REMARK    4  A    between atoms: O_4  and  C_5 
REMARK    5  A    between atoms: C_9  and  C_19 
REMARK    6  A    between atoms: C_10  and  C_16 
REMARK    7  A    between atoms: C_16  and  C_17 
ROOT
ATOM      1  C   LIG d   1       6.214  -0.359  -4.706  0.00  0.00     0.124 A 
ATOM      2  C   LIG d   1       6.498  -0.237  -6.065  0.00  0.00    -0.019 A 
ATOM      3  C   LIG d   1       7.383   0.704  -6.504  0.00  0.00    -0.047 A 
ATOM      4  C   LIG d   1       8.008   1.554  -5.584  0.00  0.00     0.021 A 
ATOM      5  C   LIG d   1       8.961   2.574  -6.027  0.00  0.00    -0.029 A 
ATOM      6  C   LIG d   1       9.536   3.367  -5.085  0.00  0.00     0.046 A 
ATOM      7  C   LIG d   1       9.210   3.189  -3.725  0.00  0.00     0.341 A 
ATOM      8  O   LIG d   1       9.736   3.903  -2.890  0.00  0.00    -0.245 OA
ATOM      9  O   LIG d   1       8.332   2.256  -3.326  0.00  0.00    -0.422 OA
ATOM     10  C   LIG d   1       7.725   1.436  -4.211  0.00  0.00     0.143 A 
ATOM     11  C   LIG d   1       6.825   0.472  -3.781  0.00  0.00     0.023 A 
ATOM     12  H   LIG d   1       6.015  -0.892  -6.775  0.00  0.00     0.065 H 
ATOM     13  H   LIG d   1       7.599   0.794  -7.558  0.00  0.00     0.063 H 
ATOM     14  H   LIG d   1       6.599   0.372  -2.730  0.00  0.00     0.069 H 
ENDROOT
BRANCH   1  15
ATOM     15  O   LIG d   1       5.332  -1.301  -4.284  0.00  0.00    -0.492 OA
BRANCH  15  16
ATOM     16  C   LIG d   1       5.386  -1.668  -2.904  0.00  0.00     0.089 C 
ATOM     17  H   LIG d   1       6.048  -2.526  -2.782  0.00  0.00     0.070 H 
ATOM     18  H   LIG d   1       5.765  -0.830  -2.320  0.00  0.00     0.070 H 
BRANCH  16  19
ATOM     19  C   LIG d   1       3.982  -2.035  -2.419  0.00  0.00    -0.021 C 
ATOM     20  H   LIG d   1       3.748  -3.055  -2.722  0.00  0.00     0.029 H 
ATOM     21  H   LIG d   1       3.943  -1.961  -1.331  0.00  0.00     0.029 H 
BRANCH  19  22
ATOM     22  C   LIG d   1       2.963  -1.072  -3.031  0.00  0.00    -0.062 C 
ATOM     23  H   LIG d   1       2.177  -0.865  -2.305  0.00  0.00     0.023 H 
ATOM     24  H   LIG d   1       3.460  -0.142  -3.304  0.00  0.00     0.023 H 
ATOM     25  H   LIG d   1       2.525  -1.525  -3.922  0.00  0.00     0.023 H 
ENDBRANCH  19  22
ENDBRANCH  16  19
ENDBRANCH  15  16
ENDBRANCH   1  15
BRANCH   5  26
ATOM     26  C   LIG d   1       9.297   2.738  -7.486  0.00  0.00    -0.038 C 
ATOM     27  H   LIG d   1       8.433   3.140  -8.015  0.00  0.00     0.028 H 
ATOM     28  H   LIG d   1      10.138   3.424  -7.591  0.00  0.00     0.028 H 
ATOM     29  H   LIG d   1       9.563   1.769  -7.909  0.00  0.00     0.028 H 
ENDBRANCH   5  26
BRANCH   6  30
ATOM     30  C   LIG d   1      10.523   4.431  -5.494  0.00  0.00     0.019 C 
ATOM     31  H   LIG d   1      11.096   4.084  -6.354  0.00  0.00     0.037 H 
ATOM     32  H   LIG d   1      11.199   4.635  -4.664  0.00  0.00     0.037 H 
BRANCH  30  33
ATOM     33  C   LIG d   1       9.781   5.691  -5.859  0.00  0.00     0.046 C 
ATOM     34  O   LIG d   1       9.179   6.305  -5.010  0.00  0.00    -0.549 OA
ATOM     35  O   LIG d   1       9.795   6.134  -7.126  0.00  0.00    -0.549 OA
ENDBRANCH  30  33
ENDBRANCH   6  30
TORSDOF 7
ENDMDL
MODEL 8
REMARK VINA RESULT:      -4.8      5.051      6.194
REMARK  7 active torsions:
REMARK  status: ('A' for Active; 'I' for Inactive)
REMARK    1  A    between atoms: C_1  and  C_2 
REMARK    2  A    between atoms: C_2  and  C_3 
REMARK    3  A    between atoms: C_3  and  O_4 
REMARK    4  A    between atoms: O_4  and  C_5 
REMARK    5  A    between atoms: C_9  and  C_19 
REMARK    6  A    between atoms: C_10  and  C_16 
REMARK    7  A    between atoms: C_16  and  C_17 
ROOT
ATOM      1  C   LIG d   1       5.290  -1.322  -5.057  0.00  0.00     0.124 A 
ATOM      2  C   LIG d   1       6.432  -0.686  -5.542  0.00  0.00    -0.019 A 
ATOM      3  C   LIG d   1       6.426  -0.103  -6.776  0.00  0.00    -0.047 A 
ATOM      4  C   LIG d   1       5.268  -0.144  -7.560  0.00  0.00     0.021 A 
ATOM      5  C   LIG d   1       5.234   0.472  -8.888  0.00  0.00    -0.029 A 
ATOM      6  C   LIG d   1       4.080   0.400  -9.600  0.00  0.00     0.046 A 
ATOM      7  C   LIG d   1       2.957  -0.253  -9.051  0.00  0.00     0.341 A 
ATOM      8  O   LIG d   1       1.926  -0.307  -9.698  0.00  0.00    -0.245 OA
ATOM      9  O   LIG d   1       2.996  -0.821  -7.835  0.00  0.00    -0.422 OA
ATOM     10  C   LIG d   1       4.112  -0.784  -7.076  0.00  0.00     0.143 A 
ATOM     11  C   LIG d   1       4.133  -1.371  -5.819  0.00  0.00     0.023 A 
ATOM     12  H   LIG d   1       7.326  -0.655  -4.937  0.00  0.00     0.065 H 
ATOM     13  H   LIG d   1       7.314   0.388  -7.146  0.00  0.00     0.063 H 
ATOM     14  H   LIG d   1       3.253  -1.865  -5.437  0.00  0.00     0.069 H 
ENDROOT
BRANCH   1  15
ATOM     15  O   LIG d   1       5.310  -1.897  -3.828  0.00  0.00    -0.492 OA
BRANCH  15  16
ATOM     16  C   LIG d   1       5.693  -1.067  -2.730  0.00  0.00     0.089 C 
ATOM     17  H   LIG d   1       6.340  -1.630  -2.057  0.00  0.00     0.070 H 
ATOM     18  H   LIG d   1       6.228  -0.194  -3.103  0.00  0.00     0.070 H 
BRANCH  16  19
ATOM     19  C   LIG d   1       4.443  -0.613  -1.973  0.00  0.00    -0.021 C 
ATOM     20  H   LIG d   1       3.556  -0.863  -2.554  0.00  0.00     0.029 H 
ATOM     21  H   LIG d   1       4.399  -1.118  -1.008  0.00  0.00     0.029 H 
BRANCH  19  22
ATOM     22  C   LIG d   1       4.501   0.900  -1.754  0.00  0.00    -0.062 C 
ATOM     23  H   LIG d   1       3.780   1.184  -0.988  0.00  0.00     0.023 H 
ATOM     24  H   LIG d   1       5.503   1.182  -1.431  0.00  0.00     0.023 H 
ATOM     25  H   LIG d   1       4.263   1.412  -2.687  0.00  0.00     0.023 H 
ENDBRANCH  19  22
ENDBRANCH  16  19
ENDBRANCH  15  16
ENDBRANCH   1  15
BRANCH   5  26
ATOM     26  C   LIG d   1       6.447   1.170  -9.448  0.00  0.00    -0.038 C 
ATOM     27  H   LIG d   1       6.140   1.851 -10.242  0.00  0.00     0.028 H 
ATOM     28  H   LIG d   1       6.940   1.733  -8.656  0.00  0.00     0.028 H 
ATOM     29  H   LIG d   1       7.138   0.429  -9.851  0.00  0.00     0.028 H 
ENDBRANCH   5  26
BRANCH   6  30
ATOM     30  C   LIG d   1       3.998   1.020 -10.972  0.00  0.00     0.019 C 
ATOM     31  H   LIG d   1       4.756   1.798 -11.065  0.00  0.00     0.037 H 
ATOM     32  H   LIG d   1       3.009   1.456 -11.114  0.00  0.00     0.037 H 
BRANCH  30  33
ATOM     33  C   LIG d   1       4.235  -0.040 -12.017  0.00  0.00     0.046 C 
ATOM     34  O   LIG d   1       3.300  -0.519 -12.614  0.00  0.00    -0.549 OA
ATOM     35  O   LIG d   1       5.485  -0.446 -12.288  0.00  0.00    -0.549 OA
ENDBRANCH  30  33
ENDBRANCH   6  30
TORSDOF 7
ENDMDL
MODEL 9
REMARK VINA RESULT:      -4.8      4.427      5.678
REMARK  7 active torsions:
REMARK  status: ('A' for Active; 'I' for Inactive)
REMARK    1  A    between atoms: C_1  and  C_2 
REMARK    2  A    between atoms: C_2  and  C_3 
REMARK    3  A    between atoms: C_3  and  O_4 
REMARK    4  A    between atoms: O_4  and  C_5 
REMARK    5  A    between atoms: C_9  and  C_19 
REMARK    6  A    between atoms: C_10  and  C_16 
REMARK    7  A    between atoms: C_16  and  C_17 
ROOT
ATOM      1  C   LIG d   1       4.023  -0.311  -6.057  0.00  0.00     0.124 A 
ATOM      2  C   LIG d   1       3.060   0.443  -6.725  0.00  0.00    -0.019 A 
ATOM      3  C   LIG d   1       2.533   0.002  -7.904  0.00  0.00    -0.047 A 
ATOM      4  C   LIG d   1       2.964  -1.213  -8.448  0.00  0.00     0.021 A 
ATOM      5  C   LIG d   1       2.417  -1.710  -9.713  0.00  0.00    -0.029 A 
ATOM      6  C   LIG d   1       2.875  -2.897 -10.187  0.00  0.00     0.046 A 
ATOM      7  C   LIG d   1       3.847  -3.615  -9.461  0.00  0.00     0.341 A 
ATOM      8  O   LIG d   1       4.246  -4.681  -9.896  0.00  0.00    -0.245 OA
ATOM      9  O   LIG d   1       4.348  -3.152  -8.305  0.00  0.00    -0.422 OA
ATOM     10  C   LIG d   1       3.936  -1.979  -7.778  0.00  0.00     0.143 A 
ATOM     11  C   LIG d   1       4.460  -1.518  -6.580  0.00  0.00     0.023 A 
ATOM     12  H   LIG d   1       2.728   1.381  -6.306  0.00  0.00     0.065 H 
ATOM     13  H   LIG d   1       1.787   0.591  -8.417  0.00  0.00     0.063 H 
ATOM     14  H   LIG d   1       5.207  -2.096  -6.057  0.00  0.00     0.069 H 
ENDROOT
BRANCH   1  15
ATOM     15  O   LIG d   1       4.537   0.139  -4.884  0.00  0.00    -0.492 OA
BRANCH  15  16
ATOM     16  C   LIG d   1       4.195  -0.591  -3.704  0.00  0.00     0.089 C 
ATOM     17  H   LIG d   1       3.523  -1.409  -3.965  0.00  0.00     0.070 H 
ATOM     18  H   LIG d   1       5.101  -0.995  -3.251  0.00  0.00     0.070 H 
BRANCH  16  19
ATOM     19  C   LIG d   1       3.501   0.342  -2.710  0.00  0.00    -0.021 C 
ATOM     20  H   LIG d   1       3.041   1.170  -3.249  0.00  0.00     0.029 H 
ATOM     21  H   LIG d   1       2.733  -0.210  -2.168  0.00  0.00     0.029 H 
BRANCH  19  22
ATOM     22  C   LIG d   1       4.530   0.888  -1.719  0.00  0.00    -0.062 C 
ATOM     23  H   LIG d   1       4.907   1.846  -2.076  0.00  0.00     0.023 H 
ATOM     24  H   LIG d   1       4.060   1.023  -0.744  0.00  0.00     0.023 H 
ATOM     25  H   LIG d   1       5.357   0.183  -1.628  0.00  0.00     0.023 H 
ENDBRANCH  19  22
ENDBRANCH  16  19
ENDBRANCH  15  16
ENDBRANCH   1  15
BRANCH   5  26
ATOM     26  C   LIG d   1       1.374  -0.925 -10.465  0.00  0.00    -0.038 C 
ATOM     27  H   LIG d   1       1.838  -0.056 -10.931  0.00  0.00     0.028 H 
ATOM     28  H   LIG d   1       0.929  -1.557 -11.235  0.00  0.00     0.028 H 
ATOM     29  H   LIG d   1       0.598  -0.597  -9.774  0.00  0.00     0.028 H 
ENDBRANCH   5  26
BRANCH   6  30
ATOM     30  C   LIG d   1       2.342  -3.448 -11.486  0.00  0.00     0.019 C 
ATOM     31  H   LIG d   1       3.067  -4.143 -11.910  0.00  0.00     0.037 H 
ATOM     32  H   LIG d   1       2.171  -2.629 -12.184  0.00  0.00     0.037 H 
BRANCH  30  33
ATOM     33  C   LIG d   1       1.044  -4.170 -11.229  0.00  0.00     0.046 C 
ATOM     34  O   LIG d   1       1.008  -5.085 -10.441  0.00  0.00    -0.549 OA
ATOM     35  O   LIG d   1      -0.072  -3.793 -11.873  0.00  0.00    -0.549 OA
ENDBRANCH  30  33
ENDBRANCH   6  30
TORSDOF 7
ENDMDL
