MODEL 1
REMARK VINA RESULT:      -6.6      0.000      0.000
REMARK  5 active torsions:
REMARK  status: ('A' for Active; 'I' for Inactive)
REMARK    1  A    between atoms: C_1  and  C_2 
REMARK    2  A    between atoms: C_9  and  C_22 
REMARK    3  A    between atoms: C_10  and  C_14 
REMARK    4  A    between atoms: C_17  and  O_20 
REMARK    5  A    between atoms: O_20  and  C_21 
ROOT
ATOM      1  C   LIG d   1       4.536  -1.327  -3.060  0.00  0.00    -0.029 A 
ATOM      2  C   LIG d   1       4.484  -2.474  -3.824  0.00  0.00    -0.014 A 
ATOM      3  C   LIG d   1       4.363  -2.386  -5.207  0.00  0.00     0.140 A 
ATOM      4  C   LIG d   1       4.293  -1.122  -5.811  0.00  0.00     0.027 A 
ATOM      5  C   LIG d   1       4.348   0.033  -5.025  0.00  0.00    -0.032 A 
ATOM      6  C   LIG d   1       4.468  -0.076  -3.657  0.00  0.00     0.045 A 
ATOM      7 CL   LIG d   1       4.536   1.355  -2.677  0.00  0.00    -0.083 Cl
ATOM      8  C   LIG d   1       4.164  -1.024  -7.274  0.00  0.00     0.007 A 
ATOM      9  C   LIG d   1       4.111  -2.208  -8.006  0.00  0.00     0.075 A 
ATOM     10  C   LIG d   1       4.196  -3.480  -7.287  0.00  0.00     0.346 A 
ATOM     11  O   LIG d   1       4.156  -4.526  -7.911  0.00  0.00    -0.244 OA
ATOM     12  O   LIG d   1       4.313  -3.511  -5.951  0.00  0.00    -0.422 OA
ATOM     13  H   LIG d   1       4.538  -3.442  -3.348  0.00  0.00     0.066 H 
ATOM     14  H   LIG d   1       4.294   1.007  -5.488  0.00  0.00     0.064 H 
ENDROOT
BRANCH   9  15
ATOM     15  C   LIG d   1       3.977  -2.181  -9.478  0.00  0.00    -0.010 A 
ATOM     16  C   LIG d   1       2.710  -2.134 -10.065  0.00  0.00    -0.050 A 
ATOM     17  C   LIG d   1       2.590  -2.109 -11.438  0.00  0.00    -0.019 A 
ATOM     18  H   LIG d   1       1.828  -2.117  -9.443  0.00  0.00     0.062 H 
ATOM     19  C   LIG d   1       3.725  -2.130 -12.238  0.00  0.00     0.120 A 
ATOM     20  H   LIG d   1       1.611  -2.072 -11.893  0.00  0.00     0.065 H 
ATOM     21  C   LIG d   1       4.986  -2.177 -11.658  0.00  0.00    -0.019 A 
ATOM     22  C   LIG d   1       5.115  -2.197 -10.286  0.00  0.00    -0.050 A 
ATOM     23  H   LIG d   1       5.866  -2.194 -12.284  0.00  0.00     0.065 H 
ATOM     24  H   LIG d   1       6.096  -2.229  -9.836  0.00  0.00     0.062 H 
BRANCH  19  25
ATOM     25  O   LIG d   1       3.601  -2.104 -13.590  0.00  0.00    -0.495 OA
BRANCH  25  26
ATOM     26  C   LIG d   1       4.017  -0.911 -14.258  0.00  0.00     0.079 C 
ATOM     27  H   LIG d   1       4.169  -0.119 -13.525  0.00  0.00     0.066 H 
ATOM     28  H   LIG d   1       4.949  -1.098 -14.790  0.00  0.00     0.066 H 
ATOM     29  H   LIG d   1       3.248  -0.605 -14.967  0.00  0.00     0.066 H 
ENDBRANCH  25  26
ENDBRANCH  19  25
ENDBRANCH   9  15
BRANCH   8  30
ATOM     30  C   LIG d   1       4.089   0.290  -7.946  0.00  0.00    -0.016 A 
ATOM     31  C   LIG d   1       5.248   0.896  -8.436  0.00  0.00    -0.054 A 
ATOM     32  C   LIG d   1       5.169   2.123  -9.062  0.00  0.00    -0.061 A 
ATOM     33  H   LIG d   1       6.204   0.406  -8.323  0.00  0.00     0.062 H 
ATOM     34  C   LIG d   1       3.945   2.753  -9.205  0.00  0.00    -0.062 A 
ATOM     35  H   LIG d   1       6.065   2.592  -9.440  0.00  0.00     0.062 H 
ATOM     36  C   LIG d   1       2.793   2.157  -8.724  0.00  0.00    -0.061 A 
ATOM     37  H   LIG d   1       3.890   3.713  -9.697  0.00  0.00     0.062 H 
ATOM     38  C   LIG d   1       2.858   0.934  -8.090  0.00  0.00    -0.054 A 
ATOM     39  H   LIG d   1       1.841   2.655  -8.839  0.00  0.00     0.062 H 
ATOM     40  H   LIG d   1       1.958   0.473  -7.710  0.00  0.00     0.062 H 
ENDBRANCH   8  30
BRANCH   1  41
ATOM     41  C   LIG d   1       4.668  -1.434  -1.562  0.00  0.00    -0.038 C 
ATOM     42  H   LIG d   1       3.927  -2.136  -1.181  0.00  0.00     0.028 H 
ATOM     43  H   LIG d   1       5.668  -1.789  -1.311  0.00  0.00     0.028 H 
ATOM     44  H   LIG d   1       4.505  -0.454  -1.112  0.00  0.00     0.028 H 
ENDBRANCH   1  41
TORSDOF 5
ENDMDL
MODEL 2
REMARK VINA RESULT:      -6.0      2.245      3.646
REMARK  5 active torsions:
REMARK  status: ('A' for Active; 'I' for Inactive)
REMARK    1  A    between atoms: C_1  and  C_2 
REMARK    2  A    between atoms: C_9  and  C_22 
REMARK    3  A    between atoms: C_10  and  C_14 
REMARK    4  A    between atoms: C_17  and  O_20 
REMARK    5  A    between atoms: O_20  and  C_21 
ROOT
ATOM      1  C   LIG d   1       3.619   0.009  -3.752  0.00  0.00    -0.029 A 
ATOM      2  C   LIG d   1       3.168   0.908  -4.696  0.00  0.00    -0.014 A 
ATOM      3  C   LIG d   1       3.233   0.592  -6.048  0.00  0.00     0.140 A 
ATOM      4  C   LIG d   1       3.763  -0.648  -6.439  0.00  0.00     0.027 A 
ATOM      5  C   LIG d   1       4.216  -1.551  -5.473  0.00  0.00    -0.032 A 
ATOM      6  C   LIG d   1       4.142  -1.217  -4.138  0.00  0.00     0.045 A 
ATOM      7 CL   LIG d   1       4.704  -2.335  -2.934  0.00  0.00    -0.083 Cl
ATOM      8  C   LIG d   1       3.834  -0.987  -7.870  0.00  0.00     0.007 A 
ATOM      9  C   LIG d   1       3.371  -0.046  -8.788  0.00  0.00     0.075 A 
ATOM     10  C   LIG d   1       2.831   1.218  -8.285  0.00  0.00     0.346 A 
ATOM     11  O   LIG d   1       2.418   2.050  -9.072  0.00  0.00    -0.244 OA
ATOM     12  O   LIG d   1       2.790   1.474  -6.969  0.00  0.00    -0.422 OA
ATOM     13  H   LIG d   1       2.762   1.859  -4.383  0.00  0.00     0.066 H 
ATOM     14  H   LIG d   1       4.624  -2.505  -5.772  0.00  0.00     0.064 H 
ENDROOT
BRANCH   9  15
ATOM     15  C   LIG d   1       3.419  -0.321 -10.240  0.00  0.00    -0.010 A 
ATOM     16  C   LIG d   1       2.347  -0.956 -10.869  0.00  0.00    -0.050 A 
ATOM     17  C   LIG d   1       2.396  -1.210 -12.222  0.00  0.00    -0.019 A 
ATOM     18  H   LIG d   1       1.480  -1.247 -10.294  0.00  0.00     0.062 H 
ATOM     19  C   LIG d   1       3.510  -0.835 -12.962  0.00  0.00     0.120 A 
ATOM     20  H   LIG d   1       1.567  -1.701 -12.710  0.00  0.00     0.065 H 
ATOM     21  C   LIG d   1       4.579  -0.203 -12.340  0.00  0.00    -0.019 A 
ATOM     22  C   LIG d   1       4.535   0.059 -10.987  0.00  0.00    -0.050 A 
ATOM     23  H   LIG d   1       5.444   0.086 -12.918  0.00  0.00     0.065 H 
ATOM     24  H   LIG d   1       5.365   0.555 -10.507  0.00  0.00     0.062 H 
BRANCH  19  25
ATOM     25  O   LIG d   1       3.555  -1.087 -14.296  0.00  0.00    -0.495 OA
BRANCH  25  26
ATOM     26  C   LIG d   1       4.601  -0.460 -15.041  0.00  0.00     0.079 C 
ATOM     27  H   LIG d   1       4.648   0.597 -14.782  0.00  0.00     0.066 H 
ATOM     28  H   LIG d   1       5.552  -0.936 -14.802  0.00  0.00     0.066 H 
ATOM     29  H   LIG d   1       4.400  -0.564 -16.107  0.00  0.00     0.066 H 
ENDBRANCH  25  26
ENDBRANCH  19  25
ENDBRANCH   9  15
BRANCH   8  30
ATOM     30  C   LIG d   1       4.385  -2.282  -8.319  0.00  0.00    -0.016 A 
ATOM     31  C   LIG d   1       5.749  -2.408  -8.595  0.00  0.00    -0.054 A 
ATOM     32  C   LIG d   1       6.255  -3.621  -9.014  0.00  0.00    -0.061 A 
ATOM     33  H   LIG d   1       6.405  -1.558  -8.481  0.00  0.00     0.062 H 
ATOM     34  C   LIG d   1       5.415  -4.711  -9.162  0.00  0.00    -0.062 A 
ATOM     35  H   LIG d   1       7.308  -3.720  -9.228  0.00  0.00     0.062 H 
ATOM     36  C   LIG d   1       4.063  -4.593  -8.890  0.00  0.00    -0.061 A 
ATOM     37  H   LIG d   1       5.817  -5.659  -9.490  0.00  0.00     0.062 H 
ATOM     38  C   LIG d   1       3.543  -3.385  -8.476  0.00  0.00    -0.054 A 
ATOM     39  H   LIG d   1       3.414  -5.448  -9.007  0.00  0.00     0.062 H 
ATOM     40  H   LIG d   1       2.487  -3.294  -8.269  0.00  0.00     0.062 H 
ENDBRANCH   8  30
BRANCH   1  41
ATOM     41  C   LIG d   1       3.543   0.361  -2.289  0.00  0.00    -0.038 C 
ATOM     42  H   LIG d   1       4.549   0.501  -1.896  0.00  0.00     0.028 H 
ATOM     43  H   LIG d   1       2.974   1.284  -2.167  0.00  0.00     0.028 H 
ATOM     44  H   LIG d   1       3.049  -0.445  -1.746  0.00  0.00     0.028 H 
ENDBRANCH   1  41
TORSDOF 5
ENDMDL
MODEL 3
REMARK VINA RESULT:      -6.0      2.805      6.497
REMARK  5 active torsions:
REMARK  status: ('A' for Active; 'I' for Inactive)
REMARK    1  A    between atoms: C_1  and  C_2 
REMARK    2  A    between atoms: C_9  and  C_22 
REMARK    3  A    between atoms: C_10  and  C_14 
REMARK    4  A    between atoms: C_17  and  O_20 
REMARK    5  A    between atoms: O_20  and  C_21 
ROOT
ATOM      1  C   LIG d   1       2.942  -4.263 -11.454  0.00  0.00    -0.029 A 
ATOM      2  C   LIG d   1       3.218  -4.752 -10.195  0.00  0.00    -0.014 A 
ATOM      3  C   LIG d   1       3.534  -3.878  -9.160  0.00  0.00     0.140 A 
ATOM      4  C   LIG d   1       3.570  -2.498  -9.414  0.00  0.00     0.027 A 
ATOM      5  C   LIG d   1       3.287  -2.014 -10.695  0.00  0.00    -0.032 A 
ATOM      6  C   LIG d   1       2.975  -2.899 -11.706  0.00  0.00     0.045 A 
ATOM      7 CL   LIG d   1       2.623  -2.303 -13.298  0.00  0.00    -0.083 Cl
ATOM      8  C   LIG d   1       3.905  -1.568  -8.323  0.00  0.00     0.007 A 
ATOM      9  C   LIG d   1       4.182  -2.107  -7.068  0.00  0.00     0.075 A 
ATOM     10  C   LIG d   1       4.115  -3.560  -6.899  0.00  0.00     0.346 A 
ATOM     11  O   LIG d   1       4.350  -4.048  -5.808  0.00  0.00    -0.244 OA
ATOM     12  O   LIG d   1       3.804  -4.360  -7.929  0.00  0.00    -0.422 OA
ATOM     13  H   LIG d   1       3.188  -5.816 -10.011  0.00  0.00     0.066 H 
ATOM     14  H   LIG d   1       3.313  -0.953 -10.892  0.00  0.00     0.064 H 
ENDROOT
BRANCH   9  15
ATOM     15  C   LIG d   1       4.531  -1.230  -5.930  0.00  0.00    -0.010 A 
ATOM     16  C   LIG d   1       5.868  -0.946  -5.649  0.00  0.00    -0.050 A 
ATOM     17  C   LIG d   1       6.189  -0.128  -4.587  0.00  0.00    -0.019 A 
ATOM     18  H   LIG d   1       6.650  -1.367  -6.264  0.00  0.00     0.062 H 
ATOM     19  C   LIG d   1       5.184   0.414  -3.796  0.00  0.00     0.120 A 
ATOM     20  H   LIG d   1       7.224   0.093  -4.370  0.00  0.00     0.065 H 
ATOM     21  C   LIG d   1       3.852   0.133  -4.072  0.00  0.00    -0.019 A 
ATOM     22  C   LIG d   1       3.523  -0.680  -5.135  0.00  0.00    -0.050 A 
ATOM     23  H   LIG d   1       3.074   0.555  -3.454  0.00  0.00     0.065 H 
ATOM     24  H   LIG d   1       2.487  -0.893  -5.351  0.00  0.00     0.062 H 
BRANCH  19  25
ATOM     25  O   LIG d   1       5.505   1.220  -2.751  0.00  0.00    -0.495 OA
BRANCH  25  26
ATOM     26  C   LIG d   1       4.692   1.119  -1.580  0.00  0.00     0.079 C 
ATOM     27  H   LIG d   1       4.866   0.157  -1.099  0.00  0.00     0.066 H 
ATOM     28  H   LIG d   1       4.948   1.923  -0.890  0.00  0.00     0.066 H 
ATOM     29  H   LIG d   1       3.642   1.200  -1.860  0.00  0.00     0.066 H 
ENDBRANCH  25  26
ENDBRANCH  19  25
ENDBRANCH   9  15
BRANCH   8  30
ATOM     30  C   LIG d   1       3.951  -0.109  -8.552  0.00  0.00    -0.016 A 
ATOM     31  C   LIG d   1       5.145   0.503  -8.941  0.00  0.00    -0.054 A 
ATOM     32  C   LIG d   1       5.180   1.866  -9.152  0.00  0.00    -0.061 A 
ATOM     33  H   LIG d   1       6.039  -0.089  -9.074  0.00  0.00     0.062 H 
ATOM     34  C   LIG d   1       4.036   2.625  -8.980  0.00  0.00    -0.062 A 
ATOM     35  H   LIG d   1       6.102   2.340  -9.452  0.00  0.00     0.062 H 
ATOM     36  C   LIG d   1       2.850   2.025  -8.596  0.00  0.00    -0.061 A 
ATOM     37  H   LIG d   1       4.070   3.692  -9.148  0.00  0.00     0.062 H 
ATOM     38  C   LIG d   1       2.803   0.664  -8.376  0.00  0.00    -0.054 A 
ATOM     39  H   LIG d   1       1.962   2.624  -8.464  0.00  0.00     0.062 H 
ATOM     40  H   LIG d   1       1.877   0.198  -8.071  0.00  0.00     0.062 H 
ENDBRANCH   8  30
BRANCH   1  41
ATOM     41  C   LIG d   1       2.599  -5.219 -12.568  0.00  0.00    -0.038 C 
ATOM     42  H   LIG d   1       2.677  -6.243 -12.204  0.00  0.00     0.028 H 
ATOM     43  H   LIG d   1       1.580  -5.030 -12.907  0.00  0.00     0.028 H 
ATOM     44  H   LIG d   1       3.292  -5.075 -13.397  0.00  0.00     0.028 H 
ENDBRANCH   1  41
TORSDOF 5
ENDMDL
MODEL 4
REMARK VINA RESULT:      -5.9      1.392      1.828
REMARK  5 active torsions:
REMARK  status: ('A' for Active; 'I' for Inactive)
REMARK    1  A    between atoms: C_1  and  C_2 
REMARK    2  A    between atoms: C_9  and  C_22 
REMARK    3  A    between atoms: C_10  and  C_14 
REMARK    4  A    between atoms: C_17  and  O_20 
REMARK    5  A    between atoms: O_20  and  C_21 
ROOT
ATOM      1  C   LIG d   1       6.073  -1.858  -4.078  0.00  0.00    -0.029 A 
ATOM      2  C   LIG d   1       5.611  -2.951  -4.782  0.00  0.00    -0.014 A 
ATOM      3  C   LIG d   1       4.997  -2.777  -6.017  0.00  0.00     0.140 A 
ATOM      4  C   LIG d   1       4.852  -1.481  -6.535  0.00  0.00     0.027 A 
ATOM      5  C   LIG d   1       5.325  -0.381  -5.813  0.00  0.00    -0.032 A 
ATOM      6  C   LIG d   1       5.931  -0.576  -4.591  0.00  0.00     0.045 A 
ATOM      7 CL   LIG d   1       6.519   0.786  -3.690  0.00  0.00    -0.083 Cl
ATOM      8  C   LIG d   1       4.201  -1.291  -7.843  0.00  0.00     0.007 A 
ATOM      9  C   LIG d   1       3.747  -2.424  -8.516  0.00  0.00     0.075 A 
ATOM     10  C   LIG d   1       3.947  -3.735  -7.897  0.00  0.00     0.346 A 
ATOM     11  O   LIG d   1       3.560  -4.735  -8.473  0.00  0.00    -0.244 OA
ATOM     12  O   LIG d   1       4.547  -3.849  -6.703  0.00  0.00    -0.422 OA
ATOM     13  H   LIG d   1       5.728  -3.944  -4.373  0.00  0.00     0.066 H 
ATOM     14  H   LIG d   1       5.214   0.617  -6.211  0.00  0.00     0.064 H 
ENDROOT
BRANCH   9  15
ATOM     15  C   LIG d   1       3.080  -2.304  -9.830  0.00  0.00    -0.010 A 
ATOM     16  C   LIG d   1       3.814  -2.467 -11.006  0.00  0.00    -0.050 A 
ATOM     17  C   LIG d   1       3.189  -2.354 -12.229  0.00  0.00    -0.019 A 
ATOM     18  H   LIG d   1       4.871  -2.682 -10.956  0.00  0.00     0.062 H 
ATOM     19  C   LIG d   1       1.829  -2.079 -12.293  0.00  0.00     0.120 A 
ATOM     20  H   LIG d   1       3.756  -2.481 -13.139  0.00  0.00     0.065 H 
ATOM     21  C   LIG d   1       1.094  -1.916 -11.126  0.00  0.00    -0.019 A 
ATOM     22  C   LIG d   1       1.712  -2.032  -9.899  0.00  0.00    -0.050 A 
ATOM     23  H   LIG d   1       0.038  -1.700 -11.180  0.00  0.00     0.065 H 
ATOM     24  H   LIG d   1       1.139  -1.909  -8.992  0.00  0.00     0.062 H 
BRANCH  19  25
ATOM     25  O   LIG d   1       1.215  -1.970 -13.500  0.00  0.00    -0.495 OA
BRANCH  25  26
ATOM     26  C   LIG d   1      -0.089  -2.541 -13.620  0.00  0.00     0.079 C 
ATOM     27  H   LIG d   1      -0.003  -3.622 -13.725  0.00  0.00     0.066 H 
ATOM     28  H   LIG d   1      -0.672  -2.306 -12.730  0.00  0.00     0.066 H 
ATOM     29  H   LIG d   1      -0.585  -2.130 -14.499  0.00  0.00     0.066 H 
ENDBRANCH  25  26
ENDBRANCH  19  25
ENDBRANCH   9  15
BRANCH   8  30
ATOM     30  C   LIG d   1       4.032   0.058  -8.421  0.00  0.00    -0.016 A 
ATOM     31  C   LIG d   1       4.998   0.578  -9.286  0.00  0.00    -0.054 A 
ATOM     32  C   LIG d   1       4.832   1.838  -9.821  0.00  0.00    -0.061 A 
ATOM     33  H   LIG d   1       5.873  -0.005  -9.533  0.00  0.00     0.062 H 
ATOM     34  C   LIG d   1       3.712   2.586  -9.504  0.00  0.00    -0.062 A 
ATOM     35  H   LIG d   1       5.579   2.241 -10.489  0.00  0.00     0.062 H 
ATOM     36  C   LIG d   1       2.751   2.076  -8.649  0.00  0.00    -0.061 A 
ATOM     37  H   LIG d   1       3.587   3.573  -9.928  0.00  0.00     0.062 H 
ATOM     38  C   LIG d   1       2.907   0.821  -8.102  0.00  0.00    -0.054 A 
ATOM     39  H   LIG d   1       1.879   2.666  -8.407  0.00  0.00     0.062 H 
ATOM     40  H   LIG d   1       2.157   0.426  -7.431  0.00  0.00     0.062 H 
ENDBRANCH   8  30
BRANCH   1  41
ATOM     41  C   LIG d   1       6.738  -2.058  -2.741  0.00  0.00    -0.038 C 
ATOM     42  H   LIG d   1       6.392  -1.294  -2.045  0.00  0.00     0.028 H 
ATOM     43  H   LIG d   1       6.483  -3.045  -2.353  0.00  0.00     0.028 H 
ATOM     44  H   LIG d   1       7.819  -1.981  -2.857  0.00  0.00     0.028 H 
ENDBRANCH   1  41
TORSDOF 5
ENDMDL
MODEL 5
REMARK VINA RESULT:      -5.8      2.921      6.309
REMARK  5 active torsions:
REMARK  status: ('A' for Active; 'I' for Inactive)
REMARK    1  A    between atoms: C_1  and  C_2 
REMARK    2  A    between atoms: C_9  and  C_22 
REMARK    3  A    between atoms: C_10  and  C_14 
REMARK    4  A    between atoms: C_17  and  O_20 
REMARK    5  A    between atoms: O_20  and  C_21 
ROOT
ATOM      1  C   LIG d   1       1.976  -4.321 -11.132  0.00  0.00    -0.029 A 
ATOM      2  C   LIG d   1       2.555  -4.816  -9.982  0.00  0.00    -0.014 A 
ATOM      3  C   LIG d   1       3.145  -3.950  -9.069  0.00  0.00     0.140 A 
ATOM      4  C   LIG d   1       3.146  -2.571  -9.331  0.00  0.00     0.027 A 
ATOM      5  C   LIG d   1       2.554  -2.081 -10.499  0.00  0.00    -0.032 A 
ATOM      6  C   LIG d   1       1.974  -2.957 -11.391  0.00  0.00     0.045 A 
ATOM      7 CL   LIG d   1       1.240  -2.354 -12.843  0.00  0.00    -0.083 Cl
ATOM      8  C   LIG d   1       3.770  -1.650  -8.367  0.00  0.00     0.007 A 
ATOM      9  C   LIG d   1       4.347  -2.195  -7.222  0.00  0.00     0.075 A 
ATOM     10  C   LIG d   1       4.293  -3.645  -7.033  0.00  0.00     0.346 A 
ATOM     11  O   LIG d   1       4.789  -4.139  -6.036  0.00  0.00    -0.244 OA
ATOM     12  O   LIG d   1       3.711  -4.439  -7.945  0.00  0.00    -0.422 OA
ATOM     13  H   LIG d   1       2.550  -5.879  -9.791  0.00  0.00     0.066 H 
ATOM     14  H   LIG d   1       2.553  -1.020 -10.703  0.00  0.00     0.064 H 
ENDROOT
BRANCH   9  15
ATOM     15  C   LIG d   1       4.995  -1.327  -6.216  0.00  0.00    -0.010 A 
ATOM     16  C   LIG d   1       4.277  -0.888  -5.102  0.00  0.00    -0.050 A 
ATOM     17  C   LIG d   1       4.886  -0.079  -4.167  0.00  0.00    -0.019 A 
ATOM     18  H   LIG d   1       3.247  -1.184  -4.974  0.00  0.00     0.062 H 
ATOM     19  C   LIG d   1       6.212   0.301  -4.331  0.00  0.00     0.120 A 
ATOM     20  H   LIG d   1       4.331   0.261  -3.305  0.00  0.00     0.065 H 
ATOM     21  C   LIG d   1       6.929  -0.133  -5.438  0.00  0.00    -0.019 A 
ATOM     22  C   LIG d   1       6.329  -0.947  -6.375  0.00  0.00    -0.050 A 
ATOM     23  H   LIG d   1       7.959   0.166  -5.563  0.00  0.00     0.065 H 
ATOM     24  H   LIG d   1       6.890  -1.287  -7.233  0.00  0.00     0.062 H 
BRANCH  19  25
ATOM     25  O   LIG d   1       6.808   1.098  -3.407  0.00  0.00    -0.495 OA
BRANCH  25  26
ATOM     26  C   LIG d   1       7.991   1.790  -3.812  0.00  0.00     0.079 C 
ATOM     27  H   LIG d   1       7.715   2.705  -4.334  0.00  0.00     0.066 H 
ATOM     28  H   LIG d   1       8.586   2.037  -2.934  0.00  0.00     0.066 H 
ATOM     29  H   LIG d   1       8.573   1.154  -4.478  0.00  0.00     0.066 H 
ENDBRANCH  25  26
ENDBRANCH  19  25
ENDBRANCH   9  15
BRANCH   8  30
ATOM     30  C   LIG d   1       3.788  -0.192  -8.609  0.00  0.00    -0.016 A 
ATOM     31  C   LIG d   1       2.769   0.617  -8.101  0.00  0.00    -0.054 A 
ATOM     32  C   LIG d   1       2.794   1.977  -8.330  0.00  0.00    -0.061 A 
ATOM     33  H   LIG d   1       1.963   0.178  -7.530  0.00  0.00     0.062 H 
ATOM     34  C   LIG d   1       3.825   2.540  -9.062  0.00  0.00    -0.062 A 
ATOM     35  H   LIG d   1       2.006   2.603  -7.939  0.00  0.00     0.062 H 
ATOM     36  C   LIG d   1       4.838   1.744  -9.567  0.00  0.00    -0.061 A 
ATOM     37  H   LIG d   1       3.839   3.606  -9.238  0.00  0.00     0.062 H 
ATOM     38  C   LIG d   1       4.823   0.383  -9.350  0.00  0.00    -0.054 A 
ATOM     39  H   LIG d   1       5.639   2.191 -10.137  0.00  0.00     0.062 H 
ATOM     40  H   LIG d   1       5.612  -0.237  -9.750  0.00  0.00     0.062 H 
ENDBRANCH   8  30
BRANCH   1  41
ATOM     41  C   LIG d   1       1.338  -5.269 -12.115  0.00  0.00    -0.038 C 
ATOM     42  H   LIG d   1       2.027  -5.456 -12.937  0.00  0.00     0.028 H 
ATOM     43  H   LIG d   1       1.106  -6.209 -11.613  0.00  0.00     0.028 H 
ATOM     44  H   LIG d   1       0.421  -4.826 -12.503  0.00  0.00     0.028 H 
ENDBRANCH   1  41
TORSDOF 5
ENDMDL
MODEL 6
REMARK VINA RESULT:      -5.8     11.001     14.318
REMARK  5 active torsions:
REMARK  status: ('A' for Active; 'I' for Inactive)
REMARK    1  A    between atoms: C_1  and  C_2 
REMARK    2  A    between atoms: C_9  and  C_22 
REMARK    3  A    between atoms: C_10  and  C_14 
REMARK    4  A    between atoms: C_17  and  O_20 
REMARK    5  A    between atoms: O_20  and  C_21 
ROOT
ATOM      1  C   LIG d   1       9.351   7.039  -7.869  0.00  0.00    -0.029 A 
ATOM      2  C   LIG d   1       9.162   8.354  -7.499  0.00  0.00    -0.014 A 
ATOM      3  C   LIG d   1       9.456   8.764  -6.203  0.00  0.00     0.140 A 
ATOM      4  C   LIG d   1       9.945   7.826  -5.280  0.00  0.00     0.027 A 
ATOM      5  C   LIG d   1      10.134   6.496  -5.668  0.00  0.00    -0.032 A 
ATOM      6  C   LIG d   1       9.836   6.111  -6.957  0.00  0.00     0.045 A 
ATOM      7 CL   LIG d   1      10.068   4.461  -7.443  0.00  0.00    -0.083 Cl
ATOM      8  C   LIG d   1      10.257   8.255  -3.907  0.00  0.00     0.007 A 
ATOM      9  C   LIG d   1      10.046   9.592  -3.576  0.00  0.00     0.075 A 
ATOM     10  C   LIG d   1       9.538  10.497  -4.608  0.00  0.00     0.346 A 
ATOM     11  O   LIG d   1       9.351  11.670  -4.338  0.00  0.00    -0.244 OA
ATOM     12  O   LIG d   1       9.270  10.052  -5.845  0.00  0.00    -0.422 OA
ATOM     13  H   LIG d   1       8.785   9.067  -8.217  0.00  0.00     0.066 H 
ATOM     14  H   LIG d   1      10.510   5.773  -4.959  0.00  0.00     0.064 H 
ENDROOT
BRANCH   9  15
ATOM     15  C   LIG d   1      10.334  10.087  -2.213  0.00  0.00    -0.010 A 
ATOM     16  C   LIG d   1      11.586  10.629  -1.915  0.00  0.00    -0.050 A 
ATOM     17  C   LIG d   1      11.850  11.089  -0.643  0.00  0.00    -0.019 A 
ATOM     18  H   LIG d   1      12.345  10.686  -2.680  0.00  0.00     0.062 H 
ATOM     19  C   LIG d   1      10.873  11.016   0.342  0.00  0.00     0.120 A 
ATOM     20  H   LIG d   1      12.818  11.509  -0.411  0.00  0.00     0.065 H 
ATOM     21  C   LIG d   1       9.626  10.478   0.049  0.00  0.00    -0.019 A 
ATOM     22  C   LIG d   1       9.353  10.020  -1.222  0.00  0.00    -0.050 A 
ATOM     23  H   LIG d   1       8.870  10.422   0.817  0.00  0.00     0.065 H 
ATOM     24  H   LIG d   1       8.382   9.606  -1.450  0.00  0.00     0.062 H 
BRANCH  19  25
ATOM     25  O   LIG d   1      11.137  11.472   1.594  0.00  0.00    -0.495 OA
BRANCH  25  26
ATOM     26  C   LIG d   1      12.293  10.945   2.246  0.00  0.00     0.079 C 
ATOM     27  H   LIG d   1      12.369  11.368   3.248  0.00  0.00     0.066 H 
ATOM     28  H   LIG d   1      12.210   9.861   2.314  0.00  0.00     0.066 H 
ATOM     29  H   LIG d   1      13.183  11.207   1.674  0.00  0.00     0.066 H 
ENDBRANCH  25  26
ENDBRANCH  19  25
ENDBRANCH   9  15
BRANCH   8  30
ATOM     30  C   LIG d   1      10.774   7.296  -2.908  0.00  0.00    -0.016 A 
ATOM     31  C   LIG d   1      12.151   7.097  -2.773  0.00  0.00    -0.054 A 
ATOM     32  C   LIG d   1      12.625   6.201  -1.839  0.00  0.00    -0.061 A 
ATOM     33  H   LIG d   1      12.841   7.643  -3.400  0.00  0.00     0.062 H 
ATOM     34  C   LIG d   1      11.742   5.500  -1.036  0.00  0.00    -0.062 A 
ATOM     35  H   LIG d   1      13.689   6.045  -1.733  0.00  0.00     0.062 H 
ATOM     36  C   LIG d   1      10.378   5.693  -1.164  0.00  0.00    -0.061 A 
ATOM     37  H   LIG d   1      12.120   4.799  -0.305  0.00  0.00     0.062 H 
ATOM     38  C   LIG d   1       9.889   6.582  -2.099  0.00  0.00    -0.054 A 
ATOM     39  H   LIG d   1       9.695   5.143  -0.534  0.00  0.00     0.062 H 
ATOM     40  H   LIG d   1       8.824   6.728  -2.201  0.00  0.00     0.062 H 
ENDBRANCH   8  30
BRANCH   1  41
ATOM     41  C   LIG d   1       9.030   6.606  -9.276  0.00  0.00    -0.038 C 
ATOM     42  H   LIG d   1       9.905   6.132  -9.719  0.00  0.00     0.028 H 
ATOM     43  H   LIG d   1       8.202   5.896  -9.257  0.00  0.00     0.028 H 
ATOM     44  H   LIG d   1       8.750   7.477  -9.869  0.00  0.00     0.028 H 
ENDBRANCH   1  41
TORSDOF 5
ENDMDL
MODEL 7
REMARK VINA RESULT:      -5.8      8.886     12.383
REMARK  5 active torsions:
REMARK  status: ('A' for Active; 'I' for Inactive)
REMARK    1  A    between atoms: C_1  and  C_2 
REMARK    2  A    between atoms: C_9  and  C_22 
REMARK    3  A    between atoms: C_10  and  C_14 
REMARK    4  A    between atoms: C_17  and  O_20 
REMARK    5  A    between atoms: O_20  and  C_21 
ROOT
ATOM      1  C   LIG d   1       9.176   6.183  -9.326  0.00  0.00    -0.029 A 
ATOM      2  C   LIG d   1       9.237   7.324  -8.554  0.00  0.00    -0.014 A 
ATOM      3  C   LIG d   1       9.580   7.241  -7.210  0.00  0.00     0.140 A 
ATOM      4  C   LIG d   1       9.862   5.985  -6.650  0.00  0.00     0.027 A 
ATOM      5  C   LIG d   1       9.798   4.835  -7.442  0.00  0.00    -0.032 A 
ATOM      6  C   LIG d   1       9.456   4.941  -8.774  0.00  0.00     0.045 A 
ATOM      7 CL   LIG d   1       9.375   3.516  -9.762  0.00  0.00    -0.083 Cl
ATOM      8  C   LIG d   1      10.225   5.891  -5.226  0.00  0.00     0.007 A 
ATOM      9  C   LIG d   1      10.269   7.069  -4.484  0.00  0.00     0.075 A 
ATOM     10  C   LIG d   1       9.964   8.333  -5.157  0.00  0.00     0.346 A 
ATOM     11  O   LIG d   1      10.001   9.373  -4.525  0.00  0.00    -0.244 OA
ATOM     12  O   LIG d   1       9.638   8.360  -6.458  0.00  0.00    -0.422 OA
ATOM     13  H   LIG d   1       9.017   8.285  -8.996  0.00  0.00     0.066 H 
ATOM     14  H   LIG d   1      10.015   3.868  -7.014  0.00  0.00     0.064 H 
ENDROOT
BRANCH   9  15
ATOM     15  C   LIG d   1      10.621   7.045  -3.048  0.00  0.00    -0.010 A 
ATOM     16  C   LIG d   1       9.619   6.927  -2.083  0.00  0.00    -0.050 A 
ATOM     17  C   LIG d   1       9.952   6.905  -0.746  0.00  0.00    -0.019 A 
ATOM     18  H   LIG d   1       8.585   6.853  -2.385  0.00  0.00     0.062 H 
ATOM     19  C   LIG d   1      11.282   6.999  -0.357  0.00  0.00     0.120 A 
ATOM     20  H   LIG d   1       9.178   6.813   0.002  0.00  0.00     0.065 H 
ATOM     21  C   LIG d   1      12.282   7.116  -1.314  0.00  0.00    -0.019 A 
ATOM     22  C   LIG d   1      11.957   7.135  -2.654  0.00  0.00    -0.050 A 
ATOM     23  H   LIG d   1      13.314   7.191  -1.008  0.00  0.00     0.065 H 
ATOM     24  H   LIG d   1      12.736   7.221  -3.396  0.00  0.00     0.062 H 
BRANCH  19  25
ATOM     25  O   LIG d   1      11.606   6.976   0.962  0.00  0.00    -0.495 OA
BRANCH  25  26
ATOM     26  C   LIG d   1      11.064   5.910   1.745  0.00  0.00     0.079 C 
ATOM     27  H   LIG d   1      10.145   5.551   1.283  0.00  0.00     0.066 H 
ATOM     28  H   LIG d   1      11.786   5.096   1.800  0.00  0.00     0.066 H 
ATOM     29  H   LIG d   1      10.847   6.273   2.750  0.00  0.00     0.066 H 
ENDBRANCH  25  26
ENDBRANCH  19  25
ENDBRANCH   9  15
BRANCH   8  30
ATOM     30  C   LIG d   1      10.529   4.586  -4.602  0.00  0.00    -0.016 A 
ATOM     31  C   LIG d   1      11.836   4.093  -4.608  0.00  0.00    -0.054 A 
ATOM     32  C   LIG d   1      12.112   2.874  -4.023  0.00  0.00    -0.061 A 
ATOM     33  H   LIG d   1      12.628   4.663  -5.071  0.00  0.00     0.062 H 
ATOM     34  C   LIG d   1      11.098   2.142  -3.431  0.00  0.00    -0.062 A 
ATOM     35  H   LIG d   1      13.121   2.491  -4.028  0.00  0.00     0.062 H 
ATOM     36  C   LIG d   1       9.802   2.626  -3.421  0.00  0.00    -0.061 A 
ATOM     37  H   LIG d   1      11.320   1.188  -2.974  0.00  0.00     0.062 H 
ATOM     38  C   LIG d   1       9.511   3.839  -4.007  0.00  0.00    -0.054 A 
ATOM     39  H   LIG d   1       9.015   2.048  -2.957  0.00  0.00     0.062 H 
ATOM     40  H   LIG d   1       8.497   4.213  -4.002  0.00  0.00     0.062 H 
ENDBRANCH   8  30
BRANCH   1  41
ATOM     41  C   LIG d   1       8.804   6.285 -10.783  0.00  0.00    -0.038 C 
ATOM     42  H   LIG d   1       8.366   7.264 -10.978  0.00  0.00     0.028 H 
ATOM     43  H   LIG d   1       9.697   6.157 -11.395  0.00  0.00     0.028 H 
ATOM     44  H   LIG d   1       8.080   5.508 -11.028  0.00  0.00     0.028 H 
ENDBRANCH   1  41
TORSDOF 5
ENDMDL
MODEL 8
REMARK VINA RESULT:      -5.5     10.847     13.793
REMARK  5 active torsions:
REMARK  status: ('A' for Active; 'I' for Inactive)
REMARK    1  A    between atoms: C_1  and  C_2 
REMARK    2  A    between atoms: C_9  and  C_22 
REMARK    3  A    between atoms: C_10  and  C_14 
REMARK    4  A    between atoms: C_17  and  O_20 
REMARK    5  A    between atoms: O_20  and  C_21 
ROOT
ATOM      1  C   LIG d   1       9.689   4.808  -6.343  0.00  0.00    -0.029 A 
ATOM      2  C   LIG d   1       9.688   4.579  -4.983  0.00  0.00    -0.014 A 
ATOM      3  C   LIG d   1       9.860   5.637  -4.097  0.00  0.00     0.140 A 
ATOM      4  C   LIG d   1      10.036   6.934  -4.603  0.00  0.00     0.027 A 
ATOM      5  C   LIG d   1      10.034   7.154  -5.983  0.00  0.00    -0.032 A 
ATOM      6  C   LIG d   1       9.861   6.090  -6.844  0.00  0.00     0.045 A 
ATOM      7 CL   LIG d   1       9.859   6.357  -8.559  0.00  0.00    -0.083 Cl
ATOM      8  C   LIG d   1      10.219   8.058  -3.669  0.00  0.00     0.007 A 
ATOM      9  C   LIG d   1      10.216   7.779  -2.303  0.00  0.00     0.075 A 
ATOM     10  C   LIG d   1      10.021   6.395  -1.871  0.00  0.00     0.346 A 
ATOM     11  O   LIG d   1      10.011   6.133  -0.681  0.00  0.00    -0.244 OA
ATOM     12  O   LIG d   1       9.858   5.409  -2.766  0.00  0.00    -0.422 OA
ATOM     13  H   LIG d   1       9.553   3.576  -4.605  0.00  0.00     0.066 H 
ATOM     14  H   LIG d   1      10.168   8.151  -6.374  0.00  0.00     0.064 H 
ENDROOT
BRANCH   9  15
ATOM     15  C   LIG d   1      10.400   8.860  -1.312  0.00  0.00    -0.010 A 
ATOM     16  C   LIG d   1      11.685   9.222  -0.901  0.00  0.00    -0.050 A 
ATOM     17  C   LIG d   1      11.852  10.231   0.023  0.00  0.00    -0.019 A 
ATOM     18  H   LIG d   1      12.545   8.713  -1.309  0.00  0.00     0.062 H 
ATOM     19  C   LIG d   1      10.746  10.887   0.547  0.00  0.00     0.120 A 
ATOM     20  H   LIG d   1      12.846  10.512   0.341  0.00  0.00     0.065 H 
ATOM     21  C   LIG d   1       9.466  10.530   0.141  0.00  0.00    -0.019 A 
ATOM     22  C   LIG d   1       9.291   9.526  -0.787  0.00  0.00    -0.050 A 
ATOM     23  H   LIG d   1       8.609  11.042   0.551  0.00  0.00     0.065 H 
ATOM     24  H   LIG d   1       8.296   9.252  -1.105  0.00  0.00     0.062 H 
BRANCH  19  25
ATOM     25  O   LIG d   1      10.915  11.881   1.457  0.00  0.00    -0.495 OA
BRANCH  25  26
ATOM     26  C   LIG d   1      12.226  12.438   1.574  0.00  0.00     0.079 C 
ATOM     27  H   LIG d   1      12.903  11.919   0.896  0.00  0.00     0.066 H 
ATOM     28  H   LIG d   1      12.195  13.497   1.319  0.00  0.00     0.066 H 
ATOM     29  H   LIG d   1      12.580  12.321   2.598  0.00  0.00     0.066 H 
ENDBRANCH  25  26
ENDBRANCH  19  25
ENDBRANCH   9  15
BRANCH   8  30
ATOM     30  C   LIG d   1      10.406   9.437  -4.164  0.00  0.00    -0.016 A 
ATOM     31  C   LIG d   1      11.692   9.938  -4.379  0.00  0.00    -0.054 A 
ATOM     32  C   LIG d   1      11.858  11.227  -4.841  0.00  0.00    -0.061 A 
ATOM     33  H   LIG d   1      12.554   9.318  -4.183  0.00  0.00     0.062 H 
ATOM     34  C   LIG d   1      10.754  12.023  -5.091  0.00  0.00    -0.062 A 
ATOM     35  H   LIG d   1      12.851  11.616  -5.008  0.00  0.00     0.062 H 
ATOM     36  C   LIG d   1       9.477  11.533  -4.881  0.00  0.00    -0.061 A 
ATOM     37  H   LIG d   1      10.890  13.032  -5.454  0.00  0.00     0.062 H 
ATOM     38  C   LIG d   1       9.297  10.248  -4.414  0.00  0.00    -0.054 A 
ATOM     39  H   LIG d   1       8.620  12.160  -5.079  0.00  0.00     0.062 H 
ATOM     40  H   LIG d   1       8.300   9.869  -4.245  0.00  0.00     0.062 H 
ENDBRANCH   8  30
BRANCH   1  41
ATOM     41  C   LIG d   1       9.501   3.654  -7.294  0.00  0.00    -0.038 C 
ATOM     42  H   LIG d   1       9.917   3.913  -8.267  0.00  0.00     0.028 H 
ATOM     43  H   LIG d   1      10.012   2.774  -6.902  0.00  0.00     0.028 H 
ATOM     44  H   LIG d   1       8.437   3.440  -7.399  0.00  0.00     0.028 H 
ENDBRANCH   1  41
TORSDOF 5
ENDMDL
MODEL 9
REMARK VINA RESULT:      -5.4      8.764     11.852
REMARK  5 active torsions:
REMARK  status: ('A' for Active; 'I' for Inactive)
REMARK    1  A    between atoms: C_1  and  C_2 
REMARK    2  A    between atoms: C_9  and  C_22 
REMARK    3  A    between atoms: C_10  and  C_14 
REMARK    4  A    between atoms: C_17  and  O_20 
REMARK    5  A    between atoms: O_20  and  C_21 
ROOT
ATOM      1  C   LIG d   1       9.247   3.278  -8.453  0.00  0.00    -0.029 A 
ATOM      2  C   LIG d   1       9.242   2.807  -7.157  0.00  0.00    -0.014 A 
ATOM      3  C   LIG d   1       9.500   3.671  -6.099  0.00  0.00     0.140 A 
ATOM      4  C   LIG d   1       9.765   5.023  -6.366  0.00  0.00     0.027 A 
ATOM      5  C   LIG d   1       9.766   5.489  -7.683  0.00  0.00    -0.032 A 
ATOM      6  C   LIG d   1       9.508   4.615  -8.718  0.00  0.00     0.045 A 
ATOM      7 CL   LIG d   1       9.508   5.189 -10.356  0.00  0.00    -0.083 Cl
ATOM      8  C   LIG d   1      10.040   5.942  -5.249  0.00  0.00     0.007 A 
ATOM      9  C   LIG d   1      10.029   5.421  -3.956  0.00  0.00     0.075 A 
ATOM     10  C   LIG d   1       9.737   3.998  -3.777  0.00  0.00     0.346 A 
ATOM     11  O   LIG d   1       9.720   3.526  -2.654  0.00  0.00    -0.244 OA
ATOM     12  O   LIG d   1       9.494   3.205  -4.832  0.00  0.00    -0.422 OA
ATOM     13  H   LIG d   1       9.037   1.764  -6.964  0.00  0.00     0.066 H 
ATOM     14  H   LIG d   1       9.970   6.529  -7.891  0.00  0.00     0.064 H 
ENDROOT
BRANCH   9  15
ATOM     15  C   LIG d   1      10.302   6.288  -2.790  0.00  0.00    -0.010 A 
ATOM     16  C   LIG d   1       9.256   6.962  -2.159  0.00  0.00    -0.050 A 
ATOM     17  C   LIG d   1       9.515   7.769  -1.072  0.00  0.00    -0.019 A 
ATOM     18  H   LIG d   1       8.245   6.851  -2.522  0.00  0.00     0.062 H 
ATOM     19  C   LIG d   1      10.815   7.912  -0.604  0.00  0.00     0.120 A 
ATOM     20  H   LIG d   1       8.706   8.292  -0.582  0.00  0.00     0.065 H 
ATOM     21  C   LIG d   1      11.858   7.243  -1.229  0.00  0.00    -0.019 A 
ATOM     22  C   LIG d   1      11.607   6.430  -2.314  0.00  0.00    -0.050 A 
ATOM     23  H   LIG d   1      12.868   7.357  -0.863  0.00  0.00     0.065 H 
ATOM     24  H   LIG d   1      12.418   5.906  -2.796  0.00  0.00     0.062 H 
BRANCH  19  25
ATOM     25  O   LIG d   1      11.066   8.708   0.468  0.00  0.00    -0.495 OA
BRANCH  25  26
ATOM     26  C   LIG d   1      10.603  10.058   0.397  0.00  0.00     0.079 C 
ATOM     27  H   LIG d   1       9.625  10.132   0.873  0.00  0.00     0.066 H 
ATOM     28  H   LIG d   1      11.308  10.711   0.910  0.00  0.00     0.066 H 
ATOM     29  H   LIG d   1      10.521  10.359  -0.647  0.00  0.00     0.066 H 
ENDBRANCH  25  26
ENDBRANCH  19  25
ENDBRANCH   9  15
BRANCH   8  30
ATOM     30  C   LIG d   1      10.323   7.372  -5.490  0.00  0.00    -0.016 A 
ATOM     31  C   LIG d   1       9.273   8.289  -5.583  0.00  0.00    -0.054 A 
ATOM     32  C   LIG d   1       9.545   9.623  -5.809  0.00  0.00    -0.061 A 
ATOM     33  H   LIG d   1       8.251   7.955  -5.480  0.00  0.00     0.062 H 
ATOM     34  C   LIG d   1      10.854  10.052  -5.943  0.00  0.00    -0.062 A 
ATOM     35  H   LIG d   1       8.735  10.333  -5.881  0.00  0.00     0.062 H 
ATOM     36  C   LIG d   1      11.898   9.148  -5.851  0.00  0.00    -0.061 A 
ATOM     37  H   LIG d   1      11.061  11.098  -6.119  0.00  0.00     0.062 H 
ATOM     38  C   LIG d   1      11.640   7.812  -5.632  0.00  0.00    -0.054 A 
ATOM     39  H   LIG d   1      12.917   9.491  -5.957  0.00  0.00     0.062 H 
ATOM     40  H   LIG d   1      12.456   7.107  -5.566  0.00  0.00     0.062 H 
ENDBRANCH   8  30
BRANCH   1  41
ATOM     41  C   LIG d   1       8.965   2.333  -9.593  0.00  0.00    -0.038 C 
ATOM     42  H   LIG d   1       9.136   1.308  -9.265  0.00  0.00     0.028 H 
ATOM     43  H   LIG d   1       7.927   2.445  -9.909  0.00  0.00     0.028 H 
ATOM     44  H   LIG d   1       9.627   2.563 -10.428  0.00  0.00     0.028 H 
ENDBRANCH   1  41
TORSDOF 5
ENDMDL
MODEL 10
REMARK VINA RESULT:      -5.1      3.338      6.310
REMARK  5 active torsions:
REMARK  status: ('A' for Active; 'I' for Inactive)
REMARK    1  A    between atoms: C_1  and  C_2 
REMARK    2  A    between atoms: C_9  and  C_22 
REMARK    3  A    between atoms: C_10  and  C_14 
REMARK    4  A    between atoms: C_17  and  O_20 
REMARK    5  A    between atoms: O_20  and  C_21 
ROOT
ATOM      1  C   LIG d   1       3.545  -5.841  -8.774  0.00  0.00    -0.029 A 
ATOM      2  C   LIG d   1       4.427  -5.889  -7.716  0.00  0.00    -0.014 A 
ATOM      3  C   LIG d   1       4.879  -4.712  -7.129  0.00  0.00     0.140 A 
ATOM      4  C   LIG d   1       4.427  -3.480  -7.627  0.00  0.00     0.027 A 
ATOM      5  C   LIG d   1       3.531  -3.444  -8.699  0.00  0.00    -0.032 A 
ATOM      6  C   LIG d   1       3.096  -4.624  -9.266  0.00  0.00     0.045 A 
ATOM      7 CL   LIG d   1       1.985  -4.585 -10.598  0.00  0.00    -0.083 Cl
ATOM      8  C   LIG d   1       4.902  -2.231  -7.009  0.00  0.00     0.007 A 
ATOM      9  C   LIG d   1       5.797  -2.328  -5.945  0.00  0.00     0.075 A 
ATOM     10  C   LIG d   1       6.208  -3.657  -5.493  0.00  0.00     0.346 A 
ATOM     11  O   LIG d   1       6.986  -3.761  -4.562  0.00  0.00    -0.244 OA
ATOM     12  O   LIG d   1       5.743  -4.764  -6.093  0.00  0.00    -0.422 OA
ATOM     13  H   LIG d   1       4.769  -6.844  -7.341  0.00  0.00     0.066 H 
ATOM     14  H   LIG d   1       3.182  -2.498  -9.083  0.00  0.00     0.064 H 
ENDROOT
BRANCH   9  15
ATOM     15  C   LIG d   1       6.318  -1.112  -5.284  0.00  0.00    -0.010 A 
ATOM     16  C   LIG d   1       7.457  -0.476  -5.783  0.00  0.00    -0.050 A 
ATOM     17  C   LIG d   1       7.938   0.657  -5.163  0.00  0.00    -0.019 A 
ATOM     18  H   LIG d   1       7.958  -0.873  -6.653  0.00  0.00     0.062 H 
ATOM     19  C   LIG d   1       7.293   1.167  -4.044  0.00  0.00     0.120 A 
ATOM     20  H   LIG d   1       8.819   1.149  -5.549  0.00  0.00     0.065 H 
ATOM     21  C   LIG d   1       6.160   0.538  -3.545  0.00  0.00    -0.019 A 
ATOM     22  C   LIG d   1       5.670  -0.593  -4.162  0.00  0.00    -0.050 A 
ATOM     23  H   LIG d   1       5.662   0.937  -2.674  0.00  0.00     0.065 H 
ATOM     24  H   LIG d   1       4.786  -1.078  -3.775  0.00  0.00     0.062 H 
BRANCH  19  25
ATOM     25  O   LIG d   1       7.771   2.284  -3.437  0.00  0.00    -0.495 OA
BRANCH  25  26
ATOM     26  C   LIG d   1       9.173   2.536  -3.550  0.00  0.00     0.079 C 
ATOM     27  H   LIG d   1       9.354   3.609  -3.504  0.00  0.00     0.066 H 
ATOM     28  H   LIG d   1       9.697   2.043  -2.732  0.00  0.00     0.066 H 
ATOM     29  H   LIG d   1       9.535   2.147  -4.501  0.00  0.00     0.066 H 
ENDBRANCH  25  26
ENDBRANCH  19  25
ENDBRANCH   9  15
BRANCH   8  30
ATOM     30  C   LIG d   1       4.448  -0.915  -7.505  0.00  0.00    -0.016 A 
ATOM     31  C   LIG d   1       5.179  -0.246  -8.490  0.00  0.00    -0.054 A 
ATOM     32  C   LIG d   1       4.748   0.982  -8.947  0.00  0.00    -0.061 A 
ATOM     33  H   LIG d   1       6.079  -0.688  -8.891  0.00  0.00     0.062 H 
ATOM     34  C   LIG d   1       3.596   1.551  -8.433  0.00  0.00    -0.062 A 
ATOM     35  H   LIG d   1       5.312   1.501  -9.708  0.00  0.00     0.062 H 
ATOM     36  C   LIG d   1       2.867   0.892  -7.458  0.00  0.00    -0.061 A 
ATOM     37  H   LIG d   1       3.263   2.513  -8.796  0.00  0.00     0.062 H 
ATOM     38  C   LIG d   1       3.289  -0.333  -6.988  0.00  0.00    -0.054 A 
ATOM     39  H   LIG d   1       1.969   1.342  -7.062  0.00  0.00     0.062 H 
ATOM     40  H   LIG d   1       2.722  -0.843  -6.223  0.00  0.00     0.062 H 
ENDBRANCH   8  30
BRANCH   1  41
ATOM     41  C   LIG d   1       3.061  -7.124  -9.402  0.00  0.00    -0.038 C 
ATOM     42  H   LIG d   1       2.047  -6.986  -9.774  0.00  0.00     0.028 H 
ATOM     43  H   LIG d   1       3.719  -7.393 -10.229  0.00  0.00     0.028 H 
ATOM     44  H   LIG d   1       3.070  -7.919  -8.656  0.00  0.00     0.028 H 
ENDBRANCH   1  41
TORSDOF 5
ENDMDL
