MODEL 1
REMARK VINA RESULT:      -7.1      0.000      0.000
REMARK  10 active torsions:
REMARK  status: ('A' for Active; 'I' for Inactive)
REMARK    1  A    between atoms: C_4  and  N_16 
REMARK    2  A    between atoms: C_5  and  C_7 
REMARK    3  A    between atoms: C_7  and  O_9 
REMARK    4  A    between atoms: O_9  and  C_10 
REMARK    5  A    between atoms: C_10  and  C_11 
REMARK    6  A    between atoms: C_11  and  C_13 
REMARK    7  A    between atoms: C_11  and  O_15 
REMARK    8  A    between atoms: C_13  and  O_14 
REMARK    9  A    between atoms: N_16  and  C_17 
REMARK   10  A    between atoms: C_26  and  C_27 
ROOT
ATOM      1  C   LIG d   1       3.174  -0.349 -12.013  0.00  0.00    -0.061 A 
ATOM      2  C   LIG d   1       2.244  -1.007 -11.225  0.00  0.00    -0.060 A 
ATOM      3  C   LIG d   1       2.150  -0.730  -9.876  0.00  0.00    -0.040 A 
ATOM      4  C   LIG d   1       2.984   0.221  -9.302  0.00  0.00     0.045 A 
ATOM      5  C   LIG d   1       3.926   0.890 -10.098  0.00  0.00     0.080 A 
ATOM      6  C   LIG d   1       4.013   0.594 -11.461  0.00  0.00    -0.046 A 
ATOM      7  H   LIG d   1       3.242  -0.576 -13.067  0.00  0.00     0.062 H 
ATOM      8  H   LIG d   1       1.592  -1.746 -11.667  0.00  0.00     0.062 H 
ATOM      9  H   LIG d   1       1.426  -1.252  -9.268  0.00  0.00     0.064 H 
ATOM     10  H   LIG d   1       4.736   1.103 -12.080  0.00  0.00     0.063 H 
ENDROOT
BRANCH   4  11
ATOM     11  N   LIG d   1       2.887   0.506  -7.945  0.00  0.00    -0.313 N 
ATOM     12  H   LIG d   1       2.422   1.303  -7.648  0.00  0.00     0.152 HD
BRANCH  11  13
ATOM     13  C   LIG d   1       3.457  -0.353  -7.014  0.00  0.00     0.042 A 
ATOM     14  C   LIG d   1       3.372  -0.086  -5.627  0.00  0.00     0.022 A 
ATOM     15  C   LIG d   1       3.967  -0.992  -4.718  0.00  0.00     0.084 A 
ATOM     16  C   LIG d   1       2.710   1.051  -5.143  0.00  0.00    -0.051 A 
ATOM     17  N   LIG d   1       4.599  -2.080  -5.175  0.00  0.00    -0.254 NA
ATOM     18  C   LIG d   1       3.884  -0.730  -3.339  0.00  0.00     0.081 A 
ATOM     19  C   LIG d   1       4.685  -2.337  -6.459  0.00  0.00     0.030 A 
ATOM     20  C   LIG d   1       4.127  -1.499  -7.414  0.00  0.00    -0.022 A 
ATOM     21  H   LIG d   1       5.205  -3.227  -6.782  0.00  0.00     0.083 H 
ATOM     22  H   LIG d   1       4.214  -1.738  -8.464  0.00  0.00     0.065 H 
ATOM     23  C   LIG d   1       3.235   0.384  -2.902  0.00  0.00    -0.048 A 
ATOM     24  C   LIG d   1       2.649   1.273  -3.799  0.00  0.00    -0.060 A 
ATOM     25  H   LIG d   1       3.173   0.582  -1.842  0.00  0.00     0.062 H 
ATOM     26  H   LIG d   1       2.136   2.147  -3.427  0.00  0.00     0.062 H 
ATOM     27  H   LIG d   1       2.253   1.748  -5.829  0.00  0.00     0.062 H 
BRANCH  18  28
ATOM     28  C   LIG d   1       4.511  -1.678  -2.349  0.00  0.00     0.419 C 
ATOM     29  F   LIG d   1       5.819  -1.971  -2.748  0.00  0.00    -0.166 F 
ATOM     30  F   LIG d   1       4.531  -1.083  -1.083  0.00  0.00    -0.166 F 
ATOM     31  F   LIG d   1       3.763  -2.858  -2.297  0.00  0.00    -0.166 F 
ENDBRANCH  18  28
ENDBRANCH  11  13
ENDBRANCH   4  11
BRANCH   5  32
ATOM     32  C   LIG d   1       4.821   1.897  -9.500  0.00  0.00     0.341 C 
ATOM     33  O   LIG d   1       4.353   2.853  -8.912  0.00  0.00    -0.245 OA
BRANCH  32  34
ATOM     34  O   LIG d   1       6.157   1.758  -9.604  0.00  0.00    -0.458 OA
BRANCH  34  35
ATOM     35  C   LIG d   1       6.821   0.985  -8.570  0.00  0.00     0.121 C 
ATOM     36  H   LIG d   1       6.080   0.605  -7.867  0.00  0.00     0.072 H 
ATOM     37  H   LIG d   1       7.351   0.149  -9.025  0.00  0.00     0.072 H 
BRANCH  35  38
ATOM     38  C   LIG d   1       7.819   1.877  -7.827  0.00  0.00     0.112 C 
ATOM     39  H   LIG d   1       7.277   2.626  -7.249  0.00  0.00     0.065 H 
BRANCH  38  40
ATOM     40  C   LIG d   1       8.730   2.575  -8.838  0.00  0.00     0.073 C 
ATOM     41  H   LIG d   1       9.646   2.895  -8.341  0.00  0.00     0.058 H 
ATOM     42  H   LIG d   1       8.977   1.883  -9.643  0.00  0.00     0.058 H 
BRANCH  40  43
ATOM     43  O   LIG d   1       8.059   3.715  -9.379  0.00  0.00    -0.392 OA
ATOM     44  H   LIG d   1       7.838   3.633 -10.316  0.00  0.00     0.209 HD
ENDBRANCH  40  43
ENDBRANCH  38  40
BRANCH  38  45
ATOM     45  O   LIG d   1       8.609   1.076  -6.947  0.00  0.00    -0.386 OA
ATOM     46  H   LIG d   1       9.452   1.478  -6.697  0.00  0.00     0.210 HD
ENDBRANCH  38  45
ENDBRANCH  35  38
ENDBRANCH  34  35
ENDBRANCH  32  34
ENDBRANCH   5  32
TORSDOF 10
ENDMDL
MODEL 2
REMARK VINA RESULT:      -6.9      3.754      6.404
REMARK  10 active torsions:
REMARK  status: ('A' for Active; 'I' for Inactive)
REMARK    1  A    between atoms: C_4  and  N_16 
REMARK    2  A    between atoms: C_5  and  C_7 
REMARK    3  A    between atoms: C_7  and  O_9 
REMARK    4  A    between atoms: O_9  and  C_10 
REMARK    5  A    between atoms: C_10  and  C_11 
REMARK    6  A    between atoms: C_11  and  C_13 
REMARK    7  A    between atoms: C_11  and  O_15 
REMARK    8  A    between atoms: C_13  and  O_14 
REMARK    9  A    between atoms: N_16  and  C_17 
REMARK   10  A    between atoms: C_26  and  C_27 
ROOT
ATOM      1  C   LIG d   1       3.781  -1.187  -2.035  0.00  0.00    -0.061 A 
ATOM      2  C   LIG d   1       2.919  -0.637  -2.970  0.00  0.00    -0.060 A 
ATOM      3  C   LIG d   1       3.323  -0.471  -4.279  0.00  0.00    -0.040 A 
ATOM      4  C   LIG d   1       4.597  -0.865  -4.670  0.00  0.00     0.045 A 
ATOM      5  C   LIG d   1       5.472  -1.422  -3.724  0.00  0.00     0.080 A 
ATOM      6  C   LIG d   1       5.049  -1.579  -2.401  0.00  0.00    -0.046 A 
ATOM      7  H   LIG d   1       3.456  -1.309  -1.011  0.00  0.00     0.062 H 
ATOM      8  H   LIG d   1       1.927  -0.333  -2.672  0.00  0.00     0.062 H 
ATOM      9  H   LIG d   1       2.646  -0.038  -5.002  0.00  0.00     0.064 H 
ATOM     10  H   LIG d   1       5.717  -2.005  -1.668  0.00  0.00     0.063 H 
ENDROOT
BRANCH   4  11
ATOM     11  N   LIG d   1       5.004  -0.703  -5.989  0.00  0.00    -0.313 N 
ATOM     12  H   LIG d   1       5.721  -0.088  -6.203  0.00  0.00     0.152 HD
BRANCH  11  13
ATOM     13  C   LIG d   1       4.382  -1.423  -7.000  0.00  0.00     0.042 A 
ATOM     14  C   LIG d   1       3.590  -0.775  -7.976  0.00  0.00     0.022 A 
ATOM     15  C   LIG d   1       2.977  -1.553  -8.988  0.00  0.00     0.084 A 
ATOM     16  C   LIG d   1       3.403   0.614  -7.960  0.00  0.00    -0.051 A 
ATOM     17  N   LIG d   1       3.152  -2.879  -9.009  0.00  0.00    -0.254 NA
ATOM     18  C   LIG d   1       2.189  -0.912  -9.960  0.00  0.00     0.081 A 
ATOM     19  C   LIG d   1       3.884  -3.492  -8.108  0.00  0.00     0.030 A 
ATOM     20  C   LIG d   1       4.518  -2.801  -7.085  0.00  0.00    -0.022 A 
ATOM     21  H   LIG d   1       3.997  -4.564  -8.164  0.00  0.00     0.083 H 
ATOM     22  H   LIG d   1       5.115  -3.332  -6.358  0.00  0.00     0.065 H 
ATOM     23  C   LIG d   1       2.029   0.440  -9.914  0.00  0.00    -0.048 A 
ATOM     24  C   LIG d   1       2.633   1.202  -8.918  0.00  0.00    -0.060 A 
ATOM     25  H   LIG d   1       1.423   0.928 -10.663  0.00  0.00     0.062 H 
ATOM     26  H   LIG d   1       2.494   2.273  -8.907  0.00  0.00     0.062 H 
ATOM     27  H   LIG d   1       3.867   1.216  -7.192  0.00  0.00     0.062 H 
BRANCH  18  28
ATOM     28  C   LIG d   1       1.525  -1.716 -11.047  0.00  0.00     0.419 C 
ATOM     29  F   LIG d   1       0.799  -2.765 -10.474  0.00  0.00    -0.166 F 
ATOM     30  F   LIG d   1       0.660  -0.892 -11.775  0.00  0.00    -0.166 F 
ATOM     31  F   LIG d   1       2.501  -2.238 -11.903  0.00  0.00    -0.166 F 
ENDBRANCH  18  28
ENDBRANCH  11  13
ENDBRANCH   4  11
BRANCH   5  32
ATOM     32  C   LIG d   1       6.827  -1.839  -4.124  0.00  0.00     0.341 C 
ATOM     33  O   LIG d   1       7.022  -2.968  -4.528  0.00  0.00    -0.245 OA
BRANCH  32  34
ATOM     34  O   LIG d   1       7.852  -0.966  -4.042  0.00  0.00    -0.458 OA
BRANCH  34  35
ATOM     35  C   LIG d   1       8.412  -0.490  -5.294  0.00  0.00     0.121 C 
ATOM     36  H   LIG d   1       9.457  -0.789  -5.362  0.00  0.00     0.072 H 
ATOM     37  H   LIG d   1       7.857  -0.920  -6.128  0.00  0.00     0.072 H 
BRANCH  35  38
ATOM     38  C   LIG d   1       8.312   1.036  -5.350  0.00  0.00     0.112 C 
ATOM     39  H   LIG d   1       9.190   1.440  -5.854  0.00  0.00     0.065 H 
BRANCH  38  40
ATOM     40  C   LIG d   1       8.238   1.595  -3.928  0.00  0.00     0.073 C 
ATOM     41  H   LIG d   1       8.727   0.904  -3.240  0.00  0.00     0.058 H 
ATOM     42  H   LIG d   1       8.741   2.561  -3.891  0.00  0.00     0.058 H 
BRANCH  40  43
ATOM     43  O   LIG d   1       6.870   1.756  -3.549  0.00  0.00    -0.392 OA
ATOM     44  H   LIG d   1       6.391   0.924  -3.438  0.00  0.00     0.209 HD
ENDBRANCH  40  43
ENDBRANCH  38  40
BRANCH  38  45
ATOM     45  O   LIG d   1       7.136   1.409  -6.070  0.00  0.00    -0.386 OA
ATOM     46  H   LIG d   1       6.341   1.475  -5.521  0.00  0.00     0.210 HD
ENDBRANCH  38  45
ENDBRANCH  35  38
ENDBRANCH  34  35
ENDBRANCH  32  34
ENDBRANCH   5  32
TORSDOF 10
ENDMDL
MODEL 3
REMARK VINA RESULT:      -6.8      4.718      7.023
REMARK  10 active torsions:
REMARK  status: ('A' for Active; 'I' for Inactive)
REMARK    1  A    between atoms: C_4  and  N_16 
REMARK    2  A    between atoms: C_5  and  C_7 
REMARK    3  A    between atoms: C_7  and  O_9 
REMARK    4  A    between atoms: O_9  and  C_10 
REMARK    5  A    between atoms: C_10  and  C_11 
REMARK    6  A    between atoms: C_11  and  C_13 
REMARK    7  A    between atoms: C_11  and  O_15 
REMARK    8  A    between atoms: C_13  and  O_14 
REMARK    9  A    between atoms: N_16  and  C_17 
REMARK   10  A    between atoms: C_26  and  C_27 
ROOT
ATOM      1  C   LIG d   1       8.531  -6.475  -4.665  0.00  0.00    -0.061 A 
ATOM      2  C   LIG d   1       8.895  -5.142  -4.763  0.00  0.00    -0.060 A 
ATOM      3  C   LIG d   1       8.004  -4.210  -5.256  0.00  0.00    -0.040 A 
ATOM      4  C   LIG d   1       6.730  -4.603  -5.647  0.00  0.00     0.045 A 
ATOM      5  C   LIG d   1       6.359  -5.953  -5.548  0.00  0.00     0.080 A 
ATOM      6  C   LIG d   1       7.274  -6.886  -5.052  0.00  0.00    -0.046 A 
ATOM      7  H   LIG d   1       9.237  -7.198  -4.282  0.00  0.00     0.062 H 
ATOM      8  H   LIG d   1       9.883  -4.831  -4.458  0.00  0.00     0.062 H 
ATOM      9  H   LIG d   1       8.297  -3.173  -5.334  0.00  0.00     0.064 H 
ATOM     10  H   LIG d   1       6.997  -7.926  -4.974  0.00  0.00     0.063 H 
ENDROOT
BRANCH   4  11
ATOM     11  N   LIG d   1       5.830  -3.665  -6.138  0.00  0.00    -0.313 N 
ATOM     12  H   LIG d   1       5.161  -3.929  -6.787  0.00  0.00     0.152 HD
BRANCH  11  13
ATOM     13  C   LIG d   1       5.891  -2.349  -5.699  0.00  0.00     0.042 A 
ATOM     14  C   LIG d   1       5.258  -1.952  -4.498  0.00  0.00     0.022 A 
ATOM     15  C   LIG d   1       5.349  -0.599  -4.092  0.00  0.00     0.084 A 
ATOM     16  C   LIG d   1       4.549  -2.868  -3.709  0.00  0.00    -0.051 A 
ATOM     17  N   LIG d   1       6.025   0.280  -4.840  0.00  0.00    -0.254 NA
ATOM     18  C   LIG d   1       4.721  -0.200  -2.898  0.00  0.00     0.081 A 
ATOM     19  C   LIG d   1       6.615  -0.077  -5.957  0.00  0.00     0.030 A 
ATOM     20  C   LIG d   1       6.573  -1.384  -6.424  0.00  0.00    -0.022 A 
ATOM     21  H   LIG d   1       7.150   0.666  -6.529  0.00  0.00     0.083 H 
ATOM     22  H   LIG d   1       7.069  -1.647  -7.346  0.00  0.00     0.065 H 
ATOM     23  C   LIG d   1       4.041  -1.116  -2.155  0.00  0.00    -0.048 A 
ATOM     24  C   LIG d   1       3.953  -2.446  -2.557  0.00  0.00    -0.060 A 
ATOM     25  H   LIG d   1       3.560  -0.806  -1.239  0.00  0.00     0.062 H 
ATOM     26  H   LIG d   1       3.411  -3.153  -1.948  0.00  0.00     0.062 H 
ATOM     27  H   LIG d   1       4.475  -3.902  -4.010  0.00  0.00     0.062 H 
BRANCH  18  28
ATOM     28  C   LIG d   1       4.802   1.234  -2.443  0.00  0.00     0.419 C 
ATOM     29  F   LIG d   1       3.818   1.986  -3.094  0.00  0.00    -0.166 F 
ATOM     30  F   LIG d   1       4.599   1.296  -1.060  0.00  0.00    -0.166 F 
ATOM     31  F   LIG d   1       6.065   1.750  -2.752  0.00  0.00    -0.166 F 
ENDBRANCH  18  28
ENDBRANCH  11  13
ENDBRANCH   4  11
BRANCH   5  32
ATOM     32  C   LIG d   1       5.014  -6.384  -5.965  0.00  0.00     0.341 C 
ATOM     33  O   LIG d   1       4.031  -5.925  -5.416  0.00  0.00    -0.245 OA
BRANCH  32  34
ATOM     34  O   LIG d   1       4.872  -7.286  -6.956  0.00  0.00    -0.458 OA
BRANCH  34  35
ATOM     35  C   LIG d   1       5.276  -6.871  -8.287  0.00  0.00     0.121 C 
ATOM     36  H   LIG d   1       5.711  -5.873  -8.241  0.00  0.00     0.072 H 
ATOM     37  H   LIG d   1       6.016  -7.571  -8.677  0.00  0.00     0.072 H 
BRANCH  35  38
ATOM     38  C   LIG d   1       4.055  -6.855  -9.209  0.00  0.00     0.112 C 
ATOM     39  H   LIG d   1       4.349  -7.176 -10.208  0.00  0.00     0.065 H 
BRANCH  38  40
ATOM     40  C   LIG d   1       3.485  -5.437  -9.276  0.00  0.00     0.073 C 
ATOM     41  H   LIG d   1       4.296  -4.726  -9.433  0.00  0.00     0.058 H 
ATOM     42  H   LIG d   1       2.777  -5.369 -10.102  0.00  0.00     0.058 H 
BRANCH  40  43
ATOM     43  O   LIG d   1       2.816  -5.133  -8.050  0.00  0.00    -0.392 OA
ATOM     44  H   LIG d   1       3.371  -4.679  -7.402  0.00  0.00     0.209 HD
ENDBRANCH  40  43
ENDBRANCH  38  40
BRANCH  38  45
ATOM     45  O   LIG d   1       3.060  -7.744  -8.696  0.00  0.00    -0.386 OA
ATOM     46  H   LIG d   1       3.299  -8.161  -7.856  0.00  0.00     0.210 HD
ENDBRANCH  38  45
ENDBRANCH  35  38
ENDBRANCH  34  35
ENDBRANCH  32  34
ENDBRANCH   5  32
TORSDOF 10
ENDMDL
MODEL 4
REMARK VINA RESULT:      -6.7      5.483      8.023
REMARK  10 active torsions:
REMARK  status: ('A' for Active; 'I' for Inactive)
REMARK    1  A    between atoms: C_4  and  N_16 
REMARK    2  A    between atoms: C_5  and  C_7 
REMARK    3  A    between atoms: C_7  and  O_9 
REMARK    4  A    between atoms: O_9  and  C_10 
REMARK    5  A    between atoms: C_10  and  C_11 
REMARK    6  A    between atoms: C_11  and  C_13 
REMARK    7  A    between atoms: C_11  and  O_15 
REMARK    8  A    between atoms: C_13  and  O_14 
REMARK    9  A    between atoms: N_16  and  C_17 
REMARK   10  A    between atoms: C_26  and  C_27 
ROOT
ATOM      1  C   LIG d   1       8.707  -6.344  -4.698  0.00  0.00    -0.061 A 
ATOM      2  C   LIG d   1       8.824  -4.963  -4.713  0.00  0.00    -0.060 A 
ATOM      3  C   LIG d   1       7.762  -4.177  -5.108  0.00  0.00    -0.040 A 
ATOM      4  C   LIG d   1       6.561  -4.766  -5.484  0.00  0.00     0.045 A 
ATOM      5  C   LIG d   1       6.439  -6.164  -5.469  0.00  0.00     0.080 A 
ATOM      6  C   LIG d   1       7.526  -6.947  -5.072  0.00  0.00    -0.046 A 
ATOM      7  H   LIG d   1       9.547  -6.951  -4.391  0.00  0.00     0.062 H 
ATOM      8  H   LIG d   1       9.754  -4.500  -4.419  0.00  0.00     0.062 H 
ATOM      9  H   LIG d   1       7.863  -3.101  -5.121  0.00  0.00     0.064 H 
ATOM     10  H   LIG d   1       7.441  -8.023  -5.059  0.00  0.00     0.063 H 
ENDROOT
BRANCH   4  11
ATOM     11  N   LIG d   1       5.488  -3.975  -5.877  0.00  0.00    -0.313 N 
ATOM     12  H   LIG d   1       4.734  -4.375  -6.337  0.00  0.00     0.152 HD
BRANCH  11  13
ATOM     13  C   LIG d   1       5.496  -2.613  -5.610  0.00  0.00     0.042 A 
ATOM     14  C   LIG d   1       4.972  -2.103  -4.399  0.00  0.00     0.022 A 
ATOM     15  C   LIG d   1       5.004  -0.707  -4.173  0.00  0.00     0.084 A 
ATOM     16  C   LIG d   1       4.427  -2.953  -3.425  0.00  0.00    -0.051 A 
ATOM     17  N   LIG d   1       5.523   0.109  -5.098  0.00  0.00    -0.254 NA
ATOM     18  C   LIG d   1       4.484  -0.197  -2.969  0.00  0.00     0.081 A 
ATOM     19  C   LIG d   1       6.012  -0.352  -6.226  0.00  0.00     0.030 A 
ATOM     20  C   LIG d   1       6.018  -1.708  -6.523  0.00  0.00    -0.022 A 
ATOM     21  H   LIG d   1       6.420   0.343  -6.944  0.00  0.00     0.083 H 
ATOM     22  H   LIG d   1       6.427  -2.058  -7.459  0.00  0.00     0.065 H 
ATOM     23  C   LIG d   1       3.963  -1.050  -2.045  0.00  0.00    -0.048 A 
ATOM     24  C   LIG d   1       3.933  -2.423  -2.271  0.00  0.00    -0.060 A 
ATOM     25  H   LIG d   1       3.565  -0.654  -1.123  0.00  0.00     0.062 H 
ATOM     26  H   LIG d   1       3.517  -3.079  -1.520  0.00  0.00     0.062 H 
ATOM     27  H   LIG d   1       4.399  -4.019  -3.589  0.00  0.00     0.062 H 
BRANCH  18  28
ATOM     28  C   LIG d   1       4.505   1.286  -2.704  0.00  0.00     0.419 C 
ATOM     29  F   LIG d   1       4.278   1.520  -1.344  0.00  0.00    -0.166 F 
ATOM     30  F   LIG d   1       5.753   1.807  -3.066  0.00  0.00    -0.166 F 
ATOM     31  F   LIG d   1       3.505   1.908  -3.458  0.00  0.00    -0.166 F 
ENDBRANCH  18  28
ENDBRANCH  11  13
ENDBRANCH   4  11
BRANCH   5  32
ATOM     32  C   LIG d   1       5.174  -6.803  -5.871  0.00  0.00     0.341 C 
ATOM     33  O   LIG d   1       4.605  -6.441  -6.883  0.00  0.00    -0.245 OA
BRANCH  32  34
ATOM     34  O   LIG d   1       4.647  -7.788  -5.118  0.00  0.00    -0.458 OA
BRANCH  34  35
ATOM     35  C   LIG d   1       4.642  -9.123  -5.690  0.00  0.00     0.121 C 
ATOM     36  H   LIG d   1       3.651  -9.347  -6.082  0.00  0.00     0.072 H 
ATOM     37  H   LIG d   1       5.372  -9.175  -6.498  0.00  0.00     0.072 H 
BRANCH  35  38
ATOM     38  C   LIG d   1       5.006 -10.142  -4.608  0.00  0.00     0.112 C 
ATOM     39  H   LIG d   1       5.545 -10.975  -5.060  0.00  0.00     0.065 H 
BRANCH  38  40
ATOM     40  C   LIG d   1       3.729 -10.661  -3.944  0.00  0.00     0.073 C 
ATOM     41  H   LIG d   1       3.085 -11.113  -4.699  0.00  0.00     0.058 H 
ATOM     42  H   LIG d   1       3.987 -11.407  -3.194  0.00  0.00     0.058 H 
BRANCH  40  43
ATOM     43  O   LIG d   1       3.042  -9.575  -3.320  0.00  0.00    -0.392 OA
ATOM     44  H   LIG d   1       2.119  -9.765  -3.105  0.00  0.00     0.209 HD
ENDBRANCH  40  43
ENDBRANCH  38  40
BRANCH  38  45
ATOM     45  O   LIG d   1       5.834  -9.517  -3.625  0.00  0.00    -0.386 OA
ATOM     46  H   LIG d   1       5.631  -8.583  -3.474  0.00  0.00     0.210 HD
ENDBRANCH  38  45
ENDBRANCH  35  38
ENDBRANCH  34  35
ENDBRANCH  32  34
ENDBRANCH   5  32
TORSDOF 10
ENDMDL
MODEL 5
REMARK VINA RESULT:      -6.6      2.998      4.416
REMARK  10 active torsions:
REMARK  status: ('A' for Active; 'I' for Inactive)
REMARK    1  A    between atoms: C_4  and  N_16 
REMARK    2  A    between atoms: C_5  and  C_7 
REMARK    3  A    between atoms: C_7  and  O_9 
REMARK    4  A    between atoms: O_9  and  C_10 
REMARK    5  A    between atoms: C_10  and  C_11 
REMARK    6  A    between atoms: C_11  and  C_13 
REMARK    7  A    between atoms: C_11  and  O_15 
REMARK    8  A    between atoms: C_13  and  O_14 
REMARK    9  A    between atoms: N_16  and  C_17 
REMARK   10  A    between atoms: C_26  and  C_27 
ROOT
ATOM      1  C   LIG d   1       3.818  -0.636 -11.954  0.00  0.00    -0.061 A 
ATOM      2  C   LIG d   1       3.922   0.632 -11.405  0.00  0.00    -0.060 A 
ATOM      3  C   LIG d   1       4.486   0.809 -10.158  0.00  0.00    -0.040 A 
ATOM      4  C   LIG d   1       4.962  -0.286  -9.448  0.00  0.00     0.045 A 
ATOM      5  C   LIG d   1       4.858  -1.572 -10.002  0.00  0.00     0.080 A 
ATOM      6  C   LIG d   1       4.280  -1.735 -11.264  0.00  0.00    -0.046 A 
ATOM      7  H   LIG d   1       3.371  -0.763 -12.930  0.00  0.00     0.062 H 
ATOM      8  H   LIG d   1       3.556   1.486 -11.954  0.00  0.00     0.062 H 
ATOM      9  H   LIG d   1       4.559   1.800  -9.735  0.00  0.00     0.064 H 
ATOM     10  H   LIG d   1       4.194  -2.720 -11.696  0.00  0.00     0.063 H 
ENDROOT
BRANCH   4  11
ATOM     11  N   LIG d   1       5.535  -0.110  -8.194  0.00  0.00    -0.313 N 
ATOM     12  H   LIG d   1       6.493   0.010  -8.111  0.00  0.00     0.152 HD
BRANCH  11  13
ATOM     13  C   LIG d   1       4.734  -0.105  -7.060  0.00  0.00     0.042 A 
ATOM     14  C   LIG d   1       5.259  -0.457  -5.794  0.00  0.00     0.022 A 
ATOM     15  C   LIG d   1       4.402  -0.436  -4.668  0.00  0.00     0.084 A 
ATOM     16  C   LIG d   1       6.604  -0.822  -5.638  0.00  0.00    -0.051 A 
ATOM     17  N   LIG d   1       3.118  -0.088  -4.811  0.00  0.00    -0.254 NA
ATOM     18  C   LIG d   1       4.921  -0.785  -3.408  0.00  0.00     0.081 A 
ATOM     19  C   LIG d   1       2.620   0.240  -5.980  0.00  0.00     0.030 A 
ATOM     20  C   LIG d   1       3.394   0.244  -7.132  0.00  0.00    -0.022 A 
ATOM     21  H   LIG d   1       1.578   0.514  -6.048  0.00  0.00     0.083 H 
ATOM     22  H   LIG d   1       2.956   0.519  -8.080  0.00  0.00     0.065 H 
ATOM     23  C   LIG d   1       6.232  -1.135  -3.292  0.00  0.00    -0.048 A 
ATOM     24  C   LIG d   1       7.072  -1.154  -4.402  0.00  0.00    -0.060 A 
ATOM     25  H   LIG d   1       6.626  -1.402  -2.323  0.00  0.00     0.062 H 
ATOM     26  H   LIG d   1       8.109  -1.431  -4.282  0.00  0.00     0.062 H 
ATOM     27  H   LIG d   1       7.264  -0.841  -6.492  0.00  0.00     0.062 H 
BRANCH  18  28
ATOM     28  C   LIG d   1       4.031  -0.772  -2.193  0.00  0.00     0.419 C 
ATOM     29  F   LIG d   1       2.790  -1.331  -2.517  0.00  0.00    -0.166 F 
ATOM     30  F   LIG d   1       4.626  -1.518  -1.170  0.00  0.00    -0.166 F 
ATOM     31  F   LIG d   1       3.850   0.547  -1.763  0.00  0.00    -0.166 F 
ENDBRANCH  18  28
ENDBRANCH  11  13
ENDBRANCH   4  11
BRANCH   5  32
ATOM     32  C   LIG d   1       5.354  -2.743  -9.257  0.00  0.00     0.341 C 
ATOM     33  O   LIG d   1       6.510  -2.780  -8.883  0.00  0.00    -0.245 OA
BRANCH  32  34
ATOM     34  O   LIG d   1       4.525  -3.771  -8.989  0.00  0.00    -0.458 OA
BRANCH  34  35
ATOM     35  C   LIG d   1       4.900  -4.651  -7.897  0.00  0.00     0.121 C 
ATOM     36  H   LIG d   1       4.640  -5.678  -8.151  0.00  0.00     0.072 H 
ATOM     37  H   LIG d   1       5.974  -4.581  -7.725  0.00  0.00     0.072 H 
BRANCH  35  38
ATOM     38  C   LIG d   1       4.154  -4.234  -6.627  0.00  0.00     0.112 C 
ATOM     39  H   LIG d   1       3.748  -3.231  -6.757  0.00  0.00     0.065 H 
BRANCH  38  40
ATOM     40  C   LIG d   1       5.119  -4.244  -5.441  0.00  0.00     0.073 C 
ATOM     41  H   LIG d   1       5.622  -5.210  -5.390  0.00  0.00     0.058 H 
ATOM     42  H   LIG d   1       5.859  -3.455  -5.568  0.00  0.00     0.058 H 
BRANCH  40  43
ATOM     43  O   LIG d   1       4.391  -4.023  -4.231  0.00  0.00    -0.392 OA
ATOM     44  H   LIG d   1       3.921  -3.179  -4.204  0.00  0.00     0.209 HD
ENDBRANCH  40  43
ENDBRANCH  38  40
BRANCH  38  45
ATOM     45  O   LIG d   1       3.086  -5.151  -6.381  0.00  0.00    -0.386 OA
ATOM     46  H   LIG d   1       2.627  -5.447  -7.179  0.00  0.00     0.210 HD
ENDBRANCH  38  45
ENDBRANCH  35  38
ENDBRANCH  34  35
ENDBRANCH  32  34
ENDBRANCH   5  32
TORSDOF 10
ENDMDL
MODEL 6
REMARK VINA RESULT:      -6.6      3.871      6.546
REMARK  10 active torsions:
REMARK  status: ('A' for Active; 'I' for Inactive)
REMARK    1  A    between atoms: C_4  and  N_16 
REMARK    2  A    between atoms: C_5  and  C_7 
REMARK    3  A    between atoms: C_7  and  O_9 
REMARK    4  A    between atoms: O_9  and  C_10 
REMARK    5  A    between atoms: C_10  and  C_11 
REMARK    6  A    between atoms: C_11  and  C_13 
REMARK    7  A    between atoms: C_11  and  O_15 
REMARK    8  A    between atoms: C_13  and  O_14 
REMARK    9  A    between atoms: N_16  and  C_17 
REMARK   10  A    between atoms: C_26  and  C_27 
ROOT
ATOM      1  C   LIG d   1       3.522  -1.525  -2.366  0.00  0.00    -0.061 A 
ATOM      2  C   LIG d   1       2.683  -0.809  -3.204  0.00  0.00    -0.060 A 
ATOM      3  C   LIG d   1       3.139  -0.353  -4.425  0.00  0.00    -0.040 A 
ATOM      4  C   LIG d   1       4.442  -0.619  -4.825  0.00  0.00     0.045 A 
ATOM      5  C   LIG d   1       5.294  -1.343  -3.977  0.00  0.00     0.080 A 
ATOM      6  C   LIG d   1       4.820  -1.794  -2.742  0.00  0.00    -0.046 A 
ATOM      7  H   LIG d   1       3.157  -1.874  -1.411  0.00  0.00     0.062 H 
ATOM      8  H   LIG d   1       1.668  -0.602  -2.899  0.00  0.00     0.062 H 
ATOM      9  H   LIG d   1       2.479   0.209  -5.071  0.00  0.00     0.064 H 
ATOM     10  H   LIG d   1       5.469  -2.351  -2.084  0.00  0.00     0.063 H 
ENDROOT
BRANCH   4  11
ATOM     11  N   LIG d   1       4.901  -0.164  -6.056  0.00  0.00    -0.313 N 
ATOM     12  H   LIG d   1       5.498   0.598  -6.099  0.00  0.00     0.152 HD
BRANCH  11  13
ATOM     13  C   LIG d   1       4.504  -0.803  -7.222  0.00  0.00     0.042 A 
ATOM     14  C   LIG d   1       4.334  -0.081  -8.427  0.00  0.00     0.022 A 
ATOM     15  C   LIG d   1       3.929  -0.778  -9.591  0.00  0.00     0.084 A 
ATOM     16  C   LIG d   1       4.559   1.301  -8.488  0.00  0.00    -0.051 A 
ATOM     17  N   LIG d   1       3.713  -2.097  -9.539  0.00  0.00    -0.254 NA
ATOM     18  C   LIG d   1       3.759  -0.063 -10.790  0.00  0.00     0.081 A 
ATOM     19  C   LIG d   1       3.867  -2.777  -8.427  0.00  0.00     0.030 A 
ATOM     20  C   LIG d   1       4.262  -2.168  -7.244  0.00  0.00    -0.022 A 
ATOM     21  H   LIG d   1       3.682  -3.841  -8.432  0.00  0.00     0.083 H 
ATOM     22  H   LIG d   1       4.381  -2.754  -6.345  0.00  0.00     0.065 H 
ATOM     23  C   LIG d   1       3.986   1.279 -10.814  0.00  0.00    -0.048 A 
ATOM     24  C   LIG d   1       4.384   1.961  -9.668  0.00  0.00    -0.060 A 
ATOM     25  H   LIG d   1       3.854   1.823 -11.737  0.00  0.00     0.062 H 
ATOM     26  H   LIG d   1       4.562   3.025  -9.714  0.00  0.00     0.062 H 
ATOM     27  H   LIG d   1       4.868   1.840  -7.605  0.00  0.00     0.062 H 
BRANCH  18  28
ATOM     28  C   LIG d   1       3.327  -0.781 -12.044  0.00  0.00     0.419 C 
ATOM     29  F   LIG d   1       1.935  -0.918 -12.046  0.00  0.00    -0.166 F 
ATOM     30  F   LIG d   1       3.726  -0.043 -13.163  0.00  0.00    -0.166 F 
ATOM     31  F   LIG d   1       3.922  -2.046 -12.084  0.00  0.00    -0.166 F 
ENDBRANCH  18  28
ENDBRANCH  11  13
ENDBRANCH   4  11
BRANCH   5  32
ATOM     32  C   LIG d   1       6.681  -1.627  -4.387  0.00  0.00     0.341 C 
ATOM     33  O   LIG d   1       6.949  -2.676  -4.940  0.00  0.00    -0.245 OA
BRANCH  32  34
ATOM     34  O   LIG d   1       7.652  -0.724  -4.149  0.00  0.00    -0.458 OA
BRANCH  34  35
ATOM     35  C   LIG d   1       8.550  -0.417  -5.248  0.00  0.00     0.121 C 
ATOM     36  H   LIG d   1       9.543  -0.807  -5.026  0.00  0.00     0.072 H 
ATOM     37  H   LIG d   1       8.176  -0.878  -6.162  0.00  0.00     0.072 H 
BRANCH  35  38
ATOM     38  C   LIG d   1       8.626   1.099  -5.437  0.00  0.00     0.112 C 
ATOM     39  H   LIG d   1       9.476   1.344  -6.073  0.00  0.00     0.065 H 
BRANCH  38  40
ATOM     40  C   LIG d   1       8.797   1.776  -4.075  0.00  0.00     0.073 C 
ATOM     41  H   LIG d   1       9.427   1.155  -3.438  0.00  0.00     0.058 H 
ATOM     42  H   LIG d   1       9.265   2.750  -4.210  0.00  0.00     0.058 H 
BRANCH  40  43
ATOM     43  O   LIG d   1       7.518   1.943  -3.462  0.00  0.00    -0.392 OA
ATOM     44  H   LIG d   1       7.048   1.114  -3.298  0.00  0.00     0.209 HD
ENDBRANCH  40  43
ENDBRANCH  38  40
BRANCH  38  45
ATOM     45  O   LIG d   1       7.422   1.563  -6.050  0.00  0.00    -0.386 OA
ATOM     46  H   LIG d   1       7.551   1.959  -6.923  0.00  0.00     0.210 HD
ENDBRANCH  38  45
ENDBRANCH  35  38
ENDBRANCH  34  35
ENDBRANCH  32  34
ENDBRANCH   5  32
TORSDOF 10
ENDMDL
MODEL 7
REMARK VINA RESULT:      -6.5      3.079      4.123
REMARK  10 active torsions:
REMARK  status: ('A' for Active; 'I' for Inactive)
REMARK    1  A    between atoms: C_4  and  N_16 
REMARK    2  A    between atoms: C_5  and  C_7 
REMARK    3  A    between atoms: C_7  and  O_9 
REMARK    4  A    between atoms: O_9  and  C_10 
REMARK    5  A    between atoms: C_10  and  C_11 
REMARK    6  A    between atoms: C_11  and  C_13 
REMARK    7  A    between atoms: C_11  and  O_15 
REMARK    8  A    between atoms: C_13  and  O_14 
REMARK    9  A    between atoms: N_16  and  C_17 
REMARK   10  A    between atoms: C_26  and  C_27 
ROOT
ATOM      1  C   LIG d   1       4.119   0.688 -11.486  0.00  0.00    -0.061 A 
ATOM      2  C   LIG d   1       4.259   1.483 -10.360  0.00  0.00    -0.060 A 
ATOM      3  C   LIG d   1       3.742   1.073  -9.148  0.00  0.00    -0.040 A 
ATOM      4  C   LIG d   1       3.084  -0.147  -9.048  0.00  0.00     0.045 A 
ATOM      5  C   LIG d   1       2.940  -0.953 -10.188  0.00  0.00     0.080 A 
ATOM      6  C   LIG d   1       3.465  -0.522 -11.409  0.00  0.00    -0.046 A 
ATOM      7  H   LIG d   1       4.524   1.020 -12.431  0.00  0.00     0.062 H 
ATOM      8  H   LIG d   1       4.772   2.430 -10.432  0.00  0.00     0.062 H 
ATOM      9  H   LIG d   1       3.851   1.700  -8.275  0.00  0.00     0.064 H 
ATOM     10  H   LIG d   1       3.358  -1.136 -12.291  0.00  0.00     0.063 H 
ENDROOT
BRANCH   4  11
ATOM     11  N   LIG d   1       2.566  -0.563  -7.827  0.00  0.00    -0.313 N 
ATOM     12  H   LIG d   1       1.611  -0.690  -7.724  0.00  0.00     0.152 HD
BRANCH  11  13
ATOM     13  C   LIG d   1       3.418  -0.798  -6.757  0.00  0.00     0.042 A 
ATOM     14  C   LIG d   1       3.344  -0.015  -5.580  0.00  0.00     0.022 A 
ATOM     15  C   LIG d   1       4.234  -0.294  -4.516  0.00  0.00     0.084 A 
ATOM     16  C   LIG d   1       2.410   1.022  -5.452  0.00  0.00    -0.051 A 
ATOM     17  N   LIG d   1       5.127  -1.284  -4.632  0.00  0.00    -0.254 NA
ATOM     18  C   LIG d   1       4.163   0.482  -3.345  0.00  0.00     0.081 A 
ATOM     19  C   LIG d   1       5.205  -2.016  -5.719  0.00  0.00     0.030 A 
ATOM     20  C   LIG d   1       4.369  -1.806  -6.807  0.00  0.00    -0.022 A 
ATOM     21  H   LIG d   1       5.941  -2.804  -5.769  0.00  0.00     0.083 H 
ATOM     22  H   LIG d   1       4.457  -2.425  -7.687  0.00  0.00     0.065 H 
ATOM     23  C   LIG d   1       3.244   1.482  -3.253  0.00  0.00    -0.048 A 
ATOM     24  C   LIG d   1       2.370   1.753  -4.302  0.00  0.00    -0.060 A 
ATOM     25  H   LIG d   1       3.192   2.075  -2.352  0.00  0.00     0.062 H 
ATOM     26  H   LIG d   1       1.647   2.550  -4.203  0.00  0.00     0.062 H 
ATOM     27  H   LIG d   1       1.727   1.242  -6.259  0.00  0.00     0.062 H 
BRANCH  18  28
ATOM     28  C   LIG d   1       5.099   0.206  -2.196  0.00  0.00     0.419 C 
ATOM     29  F   LIG d   1       6.421   0.365  -2.624  0.00  0.00    -0.166 F 
ATOM     30  F   LIG d   1       4.834   1.101  -1.154  0.00  0.00    -0.166 F 
ATOM     31  F   LIG d   1       4.909  -1.104  -1.745  0.00  0.00    -0.166 F 
ENDBRANCH  18  28
ENDBRANCH  11  13
ENDBRANCH   4  11
BRANCH   5  32
ATOM     32  C   LIG d   1       2.240  -2.246 -10.098  0.00  0.00     0.341 C 
ATOM     33  O   LIG d   1       1.142  -2.379 -10.603  0.00  0.00    -0.245 OA
BRANCH  32  34
ATOM     34  O   LIG d   1       2.816  -3.282  -9.457  0.00  0.00    -0.458 OA
BRANCH  34  35
ATOM     35  C   LIG d   1       4.125  -3.700  -9.926  0.00  0.00     0.121 C 
ATOM     36  H   LIG d   1       4.093  -3.853 -11.004  0.00  0.00     0.072 H 
ATOM     37  H   LIG d   1       4.859  -2.930  -9.691  0.00  0.00     0.072 H 
BRANCH  35  38
ATOM     38  C   LIG d   1       4.520  -5.008  -9.236  0.00  0.00     0.112 C 
ATOM     39  H   LIG d   1       4.900  -5.710  -9.978  0.00  0.00     0.065 H 
BRANCH  38  40
ATOM     40  C   LIG d   1       3.296  -5.611  -8.545  0.00  0.00     0.073 C 
ATOM     41  H   LIG d   1       2.403  -5.395  -9.133  0.00  0.00     0.058 H 
ATOM     42  H   LIG d   1       3.421  -6.690  -8.459  0.00  0.00     0.058 H 
BRANCH  40  43
ATOM     43  O   LIG d   1       3.156  -5.043  -7.241  0.00  0.00    -0.392 OA
ATOM     44  H   LIG d   1       2.251  -4.787  -7.018  0.00  0.00     0.209 HD
ENDBRANCH  40  43
ENDBRANCH  38  40
BRANCH  38  45
ATOM     45  O   LIG d   1       5.534  -4.745  -8.264  0.00  0.00    -0.386 OA
ATOM     46  H   LIG d   1       5.222  -4.781  -7.349  0.00  0.00     0.210 HD
ENDBRANCH  38  45
ENDBRANCH  35  38
ENDBRANCH  34  35
ENDBRANCH  32  34
ENDBRANCH   5  32
TORSDOF 10
ENDMDL
MODEL 8
REMARK VINA RESULT:      -6.5      5.426      7.770
REMARK  10 active torsions:
REMARK  status: ('A' for Active; 'I' for Inactive)
REMARK    1  A    between atoms: C_4  and  N_16 
REMARK    2  A    between atoms: C_5  and  C_7 
REMARK    3  A    between atoms: C_7  and  O_9 
REMARK    4  A    between atoms: O_9  and  C_10 
REMARK    5  A    between atoms: C_10  and  C_11 
REMARK    6  A    between atoms: C_11  and  C_13 
REMARK    7  A    between atoms: C_11  and  O_15 
REMARK    8  A    between atoms: C_13  and  O_14 
REMARK    9  A    between atoms: N_16  and  C_17 
REMARK   10  A    between atoms: C_26  and  C_27 
ROOT
ATOM      1  C   LIG d   1       3.600  -0.161  -2.350  0.00  0.00    -0.061 A 
ATOM      2  C   LIG d   1       4.287   1.041  -2.291  0.00  0.00    -0.060 A 
ATOM      3  C   LIG d   1       5.600   1.117  -2.711  0.00  0.00    -0.040 A 
ATOM      4  C   LIG d   1       6.238  -0.013  -3.207  0.00  0.00     0.045 A 
ATOM      5  C   LIG d   1       5.544  -1.232  -3.268  0.00  0.00     0.080 A 
ATOM      6  C   LIG d   1       4.217  -1.293  -2.834  0.00  0.00    -0.046 A 
ATOM      7  H   LIG d   1       2.574  -0.210  -2.015  0.00  0.00     0.062 H 
ATOM      8  H   LIG d   1       3.795   1.922  -1.909  0.00  0.00     0.062 H 
ATOM      9  H   LIG d   1       6.130   2.057  -2.657  0.00  0.00     0.064 H 
ATOM     10  H   LIG d   1       3.677  -2.227  -2.877  0.00  0.00     0.063 H 
ENDROOT
BRANCH   4  11
ATOM     11  N   LIG d   1       7.558   0.063  -3.635  0.00  0.00    -0.313 N 
ATOM     12  H   LIG d   1       8.261  -0.355  -3.115  0.00  0.00     0.152 HD
BRANCH  11  13
ATOM     13  C   LIG d   1       7.869   0.735  -4.809  0.00  0.00     0.042 A 
ATOM     14  C   LIG d   1       8.588   1.954  -4.783  0.00  0.00     0.022 A 
ATOM     15  C   LIG d   1       8.882   2.601  -6.007  0.00  0.00     0.084 A 
ATOM     16  C   LIG d   1       9.012   2.525  -3.575  0.00  0.00    -0.051 A 
ATOM     17  N   LIG d   1       8.480   2.060  -7.163  0.00  0.00    -0.254 NA
ATOM     18  C   LIG d   1       9.597   3.812  -5.984  0.00  0.00     0.081 A 
ATOM     19  C   LIG d   1       7.812   0.932  -7.199  0.00  0.00     0.030 A 
ATOM     20  C   LIG d   1       7.485   0.235  -6.044  0.00  0.00    -0.022 A 
ATOM     21  H   LIG d   1       7.508   0.532  -8.155  0.00  0.00     0.083 H 
ATOM     22  H   LIG d   1       6.934  -0.692  -6.106  0.00  0.00     0.065 H 
ATOM     23  C   LIG d   1       9.994   4.339  -4.793  0.00  0.00    -0.048 A 
ATOM     24  C   LIG d   1       9.704   3.699  -3.592  0.00  0.00    -0.060 A 
ATOM     25  H   LIG d   1      10.543   5.269  -4.781  0.00  0.00     0.062 H 
ATOM     26  H   LIG d   1      10.034   4.136  -2.661  0.00  0.00     0.062 H 
ATOM     27  H   LIG d   1       8.793   2.037  -2.637  0.00  0.00     0.062 H 
BRANCH  18  28
ATOM     28  C   LIG d   1       9.922   4.523  -7.273  0.00  0.00     0.419 C 
ATOM     29  F   LIG d   1       8.791   4.538  -8.095  0.00  0.00    -0.166 F 
ATOM     30  F   LIG d   1      10.314   5.837  -6.994  0.00  0.00    -0.166 F 
ATOM     31  F   LIG d   1      10.964   3.854  -7.923  0.00  0.00    -0.166 F 
ENDBRANCH  18  28
ENDBRANCH  11  13
ENDBRANCH   4  11
BRANCH   5  32
ATOM     32  C   LIG d   1       6.211  -2.439  -3.787  0.00  0.00     0.341 C 
ATOM     33  O   LIG d   1       5.606  -3.203  -4.512  0.00  0.00    -0.245 OA
BRANCH  32  34
ATOM     34  O   LIG d   1       7.493  -2.694  -3.459  0.00  0.00    -0.458 OA
BRANCH  34  35
ATOM     35  C   LIG d   1       8.170  -3.736  -4.210  0.00  0.00     0.121 C 
ATOM     36  H   LIG d   1       8.004  -4.699  -3.729  0.00  0.00     0.072 H 
ATOM     37  H   LIG d   1       7.777  -3.765  -5.227  0.00  0.00     0.072 H 
BRANCH  35  38
ATOM     38  C   LIG d   1       9.671  -3.439  -4.254  0.00  0.00     0.112 C 
ATOM     39  H   LIG d   1      10.108  -3.907  -5.136  0.00  0.00     0.065 H 
BRANCH  38  40
ATOM     40  C   LIG d   1      10.339  -3.998  -2.996  0.00  0.00     0.073 C 
ATOM     41  H   LIG d   1      10.528  -5.063  -3.128  0.00  0.00     0.058 H 
ATOM     42  H   LIG d   1      11.282  -3.479  -2.825  0.00  0.00     0.058 H 
BRANCH  40  43
ATOM     43  O   LIG d   1       9.478  -3.803  -1.872  0.00  0.00    -0.392 OA
ATOM     44  H   LIG d   1       8.568  -3.577  -2.108  0.00  0.00     0.209 HD
ENDBRANCH  40  43
ENDBRANCH  38  40
BRANCH  38  45
ATOM     45  O   LIG d   1       9.875  -2.026  -4.314  0.00  0.00    -0.386 OA
ATOM     46  H   LIG d   1       9.724  -1.643  -5.189  0.00  0.00     0.210 HD
ENDBRANCH  38  45
ENDBRANCH  35  38
ENDBRANCH  34  35
ENDBRANCH  32  34
ENDBRANCH   5  32
TORSDOF 10
ENDMDL
MODEL 9
REMARK VINA RESULT:      -6.5      3.459      5.174
REMARK  10 active torsions:
REMARK  status: ('A' for Active; 'I' for Inactive)
REMARK    1  A    between atoms: C_4  and  N_16 
REMARK    2  A    between atoms: C_5  and  C_7 
REMARK    3  A    between atoms: C_7  and  O_9 
REMARK    4  A    between atoms: O_9  and  C_10 
REMARK    5  A    between atoms: C_10  and  C_11 
REMARK    6  A    between atoms: C_11  and  C_13 
REMARK    7  A    between atoms: C_11  and  O_15 
REMARK    8  A    between atoms: C_13  and  O_14 
REMARK    9  A    between atoms: N_16  and  C_17 
REMARK   10  A    between atoms: C_26  and  C_27 
ROOT
ATOM      1  C   LIG d   1       3.954   0.658 -11.718  0.00  0.00    -0.061 A 
ATOM      2  C   LIG d   1       3.971   1.359 -10.523  0.00  0.00    -0.060 A 
ATOM      3  C   LIG d   1       3.707   0.715  -9.332  0.00  0.00    -0.040 A 
ATOM      4  C   LIG d   1       3.432  -0.647  -9.323  0.00  0.00     0.045 A 
ATOM      5  C   LIG d   1       3.414  -1.359 -10.532  0.00  0.00     0.080 A 
ATOM      6  C   LIG d   1       3.678  -0.692 -11.731  0.00  0.00    -0.046 A 
ATOM      7  H   LIG d   1       4.158   1.173 -12.646  0.00  0.00     0.062 H 
ATOM      8  H   LIG d   1       4.188   2.417 -10.525  0.00  0.00     0.062 H 
ATOM      9  H   LIG d   1       3.718   1.270  -8.405  0.00  0.00     0.064 H 
ATOM     10  H   LIG d   1       3.665  -1.232 -12.665  0.00  0.00     0.063 H 
ENDROOT
BRANCH   4  11
ATOM     11  N   LIG d   1       3.171  -1.298  -8.123  0.00  0.00    -0.313 N 
ATOM     12  H   LIG d   1       2.351  -1.803  -8.014  0.00  0.00     0.152 HD
BRANCH  11  13
ATOM     13  C   LIG d   1       4.086  -1.226  -7.082  0.00  0.00     0.042 A 
ATOM     14  C   LIG d   1       3.801  -0.486  -5.910  0.00  0.00     0.022 A 
ATOM     15  C   LIG d   1       4.765  -0.443  -4.875  0.00  0.00     0.084 A 
ATOM     16  C   LIG d   1       2.588   0.200  -5.758  0.00  0.00    -0.051 A 
ATOM     17  N   LIG d   1       5.925  -1.097  -5.015  0.00  0.00    -0.254 NA
ATOM     18  C   LIG d   1       4.485   0.292  -3.710  0.00  0.00     0.081 A 
ATOM     19  C   LIG d   1       6.201  -1.786  -6.097  0.00  0.00     0.030 A 
ATOM     20  C   LIG d   1       5.308  -1.878  -7.156  0.00  0.00    -0.022 A 
ATOM     21  H   LIG d   1       7.149  -2.298  -6.166  0.00  0.00     0.083 H 
ATOM     22  H   LIG d   1       5.563  -2.453  -8.033  0.00  0.00     0.065 H 
ATOM     23  C   LIG d   1       3.297   0.946  -3.594  0.00  0.00    -0.048 A 
ATOM     24  C   LIG d   1       2.350   0.902  -4.614  0.00  0.00    -0.060 A 
ATOM     25  H   LIG d   1       3.085   1.510  -2.698  0.00  0.00     0.062 H 
ATOM     26  H   LIG d   1       1.414   1.427  -4.496  0.00  0.00     0.062 H 
ATOM     27  H   LIG d   1       1.846   0.173  -6.542  0.00  0.00     0.062 H 
BRANCH  18  28
ATOM     28  C   LIG d   1       5.495   0.354  -2.593  0.00  0.00     0.419 C 
ATOM     29  F   LIG d   1       5.892  -0.943  -2.251  0.00  0.00    -0.166 F 
ATOM     30  F   LIG d   1       6.609   1.088  -3.013  0.00  0.00    -0.166 F 
ATOM     31  F   LIG d   1       4.920   0.975  -1.479  0.00  0.00    -0.166 F 
ENDBRANCH  18  28
ENDBRANCH  11  13
ENDBRANCH   4  11
BRANCH   5  32
ATOM     32  C   LIG d   1       3.118  -2.803 -10.537  0.00  0.00     0.341 C 
ATOM     33  O   LIG d   1       3.795  -3.565  -9.875  0.00  0.00    -0.245 OA
BRANCH  32  34
ATOM     34  O   LIG d   1       2.095  -3.278 -11.275  0.00  0.00    -0.458 OA
BRANCH  34  35
ATOM     35  C   LIG d   1       0.857  -3.570 -10.575  0.00  0.00     0.121 C 
ATOM     36  H   LIG d   1       0.910  -3.172  -9.562  0.00  0.00     0.072 H 
ATOM     37  H   LIG d   1       0.023  -3.108 -11.103  0.00  0.00     0.072 H 
BRANCH  35  38
ATOM     38  C   LIG d   1       0.648  -5.085 -10.519  0.00  0.00     0.112 C 
ATOM     39  H   LIG d   1       0.946  -5.528 -11.469  0.00  0.00     0.065 H 
BRANCH  38  40
ATOM     40  C   LIG d   1      -0.828  -5.387 -10.257  0.00  0.00     0.073 C 
ATOM     41  H   LIG d   1      -1.130  -6.260 -10.837  0.00  0.00     0.058 H 
ATOM     42  H   LIG d   1      -0.975  -5.588  -9.196  0.00  0.00     0.058 H 
BRANCH  40  43
ATOM     43  O   LIG d   1      -1.621  -4.262 -10.642  0.00  0.00    -0.392 OA
ATOM     44  H   LIG d   1      -2.456  -4.187 -10.161  0.00  0.00     0.209 HD
ENDBRANCH  40  43
ENDBRANCH  38  40
BRANCH  38  45
ATOM     45  O   LIG d   1       1.441  -5.636  -9.466  0.00  0.00    -0.386 OA
ATOM     46  H   LIG d   1       1.404  -6.601  -9.407  0.00  0.00     0.210 HD
ENDBRANCH  38  45
ENDBRANCH  35  38
ENDBRANCH  34  35
ENDBRANCH  32  34
ENDBRANCH   5  32
TORSDOF 10
ENDMDL
MODEL 10
REMARK VINA RESULT:      -6.4      3.219      4.853
REMARK  10 active torsions:
REMARK  status: ('A' for Active; 'I' for Inactive)
REMARK    1  A    between atoms: C_4  and  N_16 
REMARK    2  A    between atoms: C_5  and  C_7 
REMARK    3  A    between atoms: C_7  and  O_9 
REMARK    4  A    between atoms: O_9  and  C_10 
REMARK    5  A    between atoms: C_10  and  C_11 
REMARK    6  A    between atoms: C_11  and  C_13 
REMARK    7  A    between atoms: C_11  and  O_15 
REMARK    8  A    between atoms: C_13  and  O_14 
REMARK    9  A    between atoms: N_16  and  C_17 
REMARK   10  A    between atoms: C_26  and  C_27 
ROOT
ATOM      1  C   LIG d   1       3.865   1.766 -10.721  0.00  0.00    -0.061 A 
ATOM      2  C   LIG d   1       3.789   2.393  -9.488  0.00  0.00    -0.060 A 
ATOM      3  C   LIG d   1       3.264   1.729  -8.398  0.00  0.00    -0.040 A 
ATOM      4  C   LIG d   1       2.817   0.420  -8.529  0.00  0.00     0.045 A 
ATOM      5  C   LIG d   1       2.893  -0.218  -9.777  0.00  0.00     0.080 A 
ATOM      6  C   LIG d   1       3.423   0.470 -10.872  0.00  0.00    -0.046 A 
ATOM      7  H   LIG d   1       4.274   2.297 -11.569  0.00  0.00     0.062 H 
ATOM      8  H   LIG d   1       4.137   3.409  -9.380  0.00  0.00     0.062 H 
ATOM      9  H   LIG d   1       3.204   2.227  -7.440  0.00  0.00     0.064 H 
ATOM     10  H   LIG d   1       3.484  -0.013 -11.836  0.00  0.00     0.063 H 
ENDROOT
BRANCH   4  11
ATOM     11  N   LIG d   1       2.293  -0.252  -7.431  0.00  0.00    -0.313 N 
ATOM     12  H   LIG d   1       1.476  -0.766  -7.522  0.00  0.00     0.152 HD
BRANCH  11  13
ATOM     13  C   LIG d   1       2.941  -0.189  -6.205  0.00  0.00     0.042 A 
ATOM     14  C   LIG d   1       4.111  -0.944  -5.958  0.00  0.00     0.022 A 
ATOM     15  C   LIG d   1       4.736  -0.844  -4.692  0.00  0.00     0.084 A 
ATOM     16  C   LIG d   1       4.660  -1.782  -6.940  0.00  0.00    -0.051 A 
ATOM     17  N   LIG d   1       4.218  -0.046  -3.752  0.00  0.00    -0.254 NA
ATOM     18  C   LIG d   1       5.900  -1.594  -4.443  0.00  0.00     0.081 A 
ATOM     19  C   LIG d   1       3.132   0.659  -3.969  0.00  0.00     0.030 A 
ATOM     20  C   LIG d   1       2.461   0.617  -5.184  0.00  0.00    -0.022 A 
ATOM     21  H   LIG d   1       2.749   1.289  -3.181  0.00  0.00     0.083 H 
ATOM     22  H   LIG d   1       1.570   1.209  -5.333  0.00  0.00     0.065 H 
ATOM     23  C   LIG d   1       6.406  -2.398  -5.419  0.00  0.00    -0.048 A 
ATOM     24  C   LIG d   1       5.789  -2.493  -6.663  0.00  0.00    -0.060 A 
ATOM     25  H   LIG d   1       7.300  -2.971  -5.224  0.00  0.00     0.062 H 
ATOM     26  H   LIG d   1       6.213  -3.135  -7.421  0.00  0.00     0.062 H 
ATOM     27  H   LIG d   1       4.190  -1.864  -7.908  0.00  0.00     0.062 H 
BRANCH  18  28
ATOM     28  C   LIG d   1       6.584  -1.507  -3.104  0.00  0.00     0.419 C 
ATOM     29  F   LIG d   1       7.130  -0.229  -2.941  0.00  0.00    -0.166 F 
ATOM     30  F   LIG d   1       5.653  -1.750  -2.088  0.00  0.00    -0.166 F 
ATOM     31  F   LIG d   1       7.604  -2.462  -3.039  0.00  0.00    -0.166 F 
ENDBRANCH  18  28
ENDBRANCH  11  13
ENDBRANCH   4  11
BRANCH   5  32
ATOM     32  C   LIG d   1       2.418  -1.604  -9.932  0.00  0.00     0.341 C 
ATOM     33  O   LIG d   1       1.260  -1.819 -10.229  0.00  0.00    -0.245 OA
BRANCH  32  34
ATOM     34  O   LIG d   1       3.268  -2.632  -9.745  0.00  0.00    -0.458 OA
BRANCH  34  35
ATOM     35  C   LIG d   1       2.683  -3.955  -9.613  0.00  0.00     0.121 C 
ATOM     36  H   LIG d   1       1.706  -3.875  -9.136  0.00  0.00     0.072 H 
ATOM     37  H   LIG d   1       2.569  -4.402 -10.600  0.00  0.00     0.072 H 
BRANCH  35  38
ATOM     38  C   LIG d   1       3.598  -4.834  -8.758  0.00  0.00     0.112 C 
ATOM     39  H   LIG d   1       4.592  -4.388  -8.712  0.00  0.00     0.065 H 
BRANCH  38  40
ATOM     40  C   LIG d   1       3.694  -6.228  -9.380  0.00  0.00     0.073 C 
ATOM     41  H   LIG d   1       3.831  -6.137 -10.458  0.00  0.00     0.058 H 
ATOM     42  H   LIG d   1       4.542  -6.761  -8.951  0.00  0.00     0.058 H 
BRANCH  40  43
ATOM     43  O   LIG d   1       2.491  -6.953  -9.113  0.00  0.00    -0.392 OA
ATOM     44  H   LIG d   1       2.080  -6.735  -8.266  0.00  0.00     0.209 HD
ENDBRANCH  40  43
ENDBRANCH  38  40
BRANCH  38  45
ATOM     45  O   LIG d   1       3.061  -4.938  -7.438  0.00  0.00    -0.386 OA
ATOM     46  H   LIG d   1       2.340  -5.578  -7.355  0.00  0.00     0.210 HD
ENDBRANCH  38  45
ENDBRANCH  35  38
ENDBRANCH  34  35
ENDBRANCH  32  34
ENDBRANCH   5  32
TORSDOF 10
ENDMDL
