MODEL 1
REMARK VINA RESULT:      -3.6      0.000      0.000
REMARK  8 active torsions:
REMARK  status: ('A' for Active; 'I' for Inactive)
REMARK    1  A    between atoms: C_1  and  O_2 
REMARK    2  A    between atoms: O_2  and  C_3 
REMARK    3  A    between atoms: C_3  and  C_5 
REMARK    4  A    between atoms: C_5  and  C_7 
REMARK    5  A    between atoms: C_5  and  N_23 
REMARK    6  A    between atoms: C_7  and  C_8 
REMARK    7  A    between atoms: C_8  and  S_9 
REMARK    8  A    between atoms: S_9  and  C_10 
ROOT
ATOM      1  C   LIG d   1       3.873   0.108  -3.721  0.00  0.00     0.075 C 
ATOM      2  H   LIG d   1       4.775  -0.249  -4.220  0.00  0.00     0.097 H 
ENDROOT
BRANCH   1   3
ATOM      3  C   LIG d   1       4.251   1.080  -2.634  0.00  0.00     0.356 C 
ATOM      4  O   LIG d   1       3.399   1.538  -1.910  0.00  0.00    -0.244 OA
BRANCH   3   5
ATOM      5  O   LIG d   1       5.534   1.439  -2.470  0.00  0.00    -0.464 OA
BRANCH   5   6
ATOM      6  C   LIG d   1       6.494   0.908  -3.422  0.00  0.00     0.082 C 
ATOM      7  H   LIG d   1       6.305   1.339  -4.406  0.00  0.00     0.066 H 
ATOM      8  H   LIG d   1       7.503   1.163  -3.101  0.00  0.00     0.066 H 
ATOM      9  H   LIG d   1       6.391  -0.176  -3.475  0.00  0.00     0.066 H 
ENDBRANCH   5   6
ENDBRANCH   3   5
ENDBRANCH   1   3
BRANCH   1  10
ATOM     10  C   LIG d   1       3.126  -1.079  -3.108  0.00  0.00     0.010 C 
ATOM     11  H   LIG d   1       2.670  -0.773  -2.166  0.00  0.00     0.033 H 
ATOM     12  H   LIG d   1       2.351  -1.413  -3.795  0.00  0.00     0.033 H 
BRANCH  10  13
ATOM     13  C   LIG d   1       4.110  -2.222  -2.851  0.00  0.00    -0.001 C 
ATOM     14  H   LIG d   1       4.912  -1.872  -2.203  0.00  0.00     0.038 H 
ATOM     15  H   LIG d   1       3.589  -3.050  -2.370  0.00  0.00     0.038 H 
BRANCH  13  16
ATOM     16  S   LIG d   1       4.809  -2.784  -4.429  0.00  0.00    -0.164 SA
BRANCH  16  17
ATOM     17  C   LIG d   1       6.602  -2.705  -4.168  0.00  0.00    -0.018 C 
ATOM     18  H   LIG d   1       6.980  -1.749  -4.530  0.00  0.00     0.034 H 
ATOM     19  H   LIG d   1       6.818  -2.801  -3.104  0.00  0.00     0.034 H 
ATOM     20  H   LIG d   1       7.084  -3.517  -4.712  0.00  0.00     0.034 H 
ENDBRANCH  16  17
ENDBRANCH  13  16
ENDBRANCH  10  13
ENDBRANCH   1  10
BRANCH   1  21
ATOM     21  N   LIG d   1       3.022   0.797  -4.707  0.00  0.00     0.229 N 
ATOM     22  H   LIG d   1       3.222   0.453  -5.644  0.00  0.00     0.200 HD
ATOM     23  H   LIG d   1       2.039   0.638  -4.491  0.00  0.00     0.200 HD
ATOM     24  H   LIG d   1       3.212   1.805  -4.671  0.00  0.00     0.200 HD
ENDBRANCH   1  21
TORSDOF 8
ENDMDL
MODEL 2
REMARK VINA RESULT:      -3.5      1.902      2.356
REMARK  8 active torsions:
REMARK  status: ('A' for Active; 'I' for Inactive)
REMARK    1  A    between atoms: C_1  and  O_2 
REMARK    2  A    between atoms: O_2  and  C_3 
REMARK    3  A    between atoms: C_3  and  C_5 
REMARK    4  A    between atoms: C_5  and  C_7 
REMARK    5  A    between atoms: C_5  and  N_23 
REMARK    6  A    between atoms: C_7  and  C_8 
REMARK    7  A    between atoms: C_8  and  S_9 
REMARK    8  A    between atoms: S_9  and  C_10 
ROOT
ATOM      1  C   LIG d   1       3.520   0.072  -2.394  0.00  0.00     0.075 C 
ATOM      2  H   LIG d   1       2.692   0.365  -1.747  0.00  0.00     0.097 H 
ENDROOT
BRANCH   1   3
ATOM      3  C   LIG d   1       4.323   1.291  -2.766  0.00  0.00     0.356 C 
ATOM      4  O   LIG d   1       3.804   2.193  -3.380  0.00  0.00    -0.244 OA
BRANCH   3   5
ATOM      5  O   LIG d   1       5.616   1.376  -2.414  0.00  0.00    -0.464 OA
BRANCH   5   6
ATOM      6  C   LIG d   1       6.599   1.210  -3.469  0.00  0.00     0.082 C 
ATOM      7  H   LIG d   1       7.308   0.432  -3.186  0.00  0.00     0.066 H 
ATOM      8  H   LIG d   1       6.096   0.925  -4.393  0.00  0.00     0.066 H 
ATOM      9  H   LIG d   1       7.131   2.149  -3.620  0.00  0.00     0.066 H 
ENDBRANCH   5   6
ENDBRANCH   3   5
ENDBRANCH   1   3
BRANCH   1  10
ATOM     10  C   LIG d   1       2.968  -0.583  -3.663  0.00  0.00     0.010 C 
ATOM     11  H   LIG d   1       2.125  -1.222  -3.403  0.00  0.00     0.033 H 
ATOM     12  H   LIG d   1       2.638   0.190  -4.356  0.00  0.00     0.033 H 
BRANCH  10  13
ATOM     13  C   LIG d   1       4.064  -1.425  -4.319  0.00  0.00    -0.001 C 
ATOM     14  H   LIG d   1       4.975  -1.362  -3.724  0.00  0.00     0.038 H 
ATOM     15  H   LIG d   1       3.740  -2.463  -4.379  0.00  0.00     0.038 H 
BRANCH  13  16
ATOM     16  S   LIG d   1       4.389  -0.796  -5.990  0.00  0.00    -0.164 SA
BRANCH  16  17
ATOM     17  C   LIG d   1       2.938   0.227  -6.364  0.00  0.00    -0.018 C 
ATOM     18  H   LIG d   1       3.240   1.075  -6.978  0.00  0.00     0.034 H 
ATOM     19  H   LIG d   1       2.202  -0.369  -6.905  0.00  0.00     0.034 H 
ATOM     20  H   LIG d   1       2.500   0.589  -5.434  0.00  0.00     0.034 H 
ENDBRANCH  16  17
ENDBRANCH  13  16
ENDBRANCH  10  13
ENDBRANCH   1  10
BRANCH   1  21
ATOM     21  N   LIG d   1       4.388  -0.869  -1.664  0.00  0.00     0.229 N 
ATOM     22  H   LIG d   1       4.458  -0.594  -0.687  0.00  0.00     0.200 HD
ATOM     23  H   LIG d   1       4.006  -1.813  -1.724  0.00  0.00     0.200 HD
ATOM     24  H   LIG d   1       5.324  -0.860  -2.084  0.00  0.00     0.200 HD
ENDBRANCH   1  21
TORSDOF 8
ENDMDL
MODEL 3
REMARK VINA RESULT:      -3.5      2.512      2.849
REMARK  8 active torsions:
REMARK  status: ('A' for Active; 'I' for Inactive)
REMARK    1  A    between atoms: C_1  and  O_2 
REMARK    2  A    between atoms: O_2  and  C_3 
REMARK    3  A    between atoms: C_3  and  C_5 
REMARK    4  A    between atoms: C_5  and  C_7 
REMARK    5  A    between atoms: C_5  and  N_23 
REMARK    6  A    between atoms: C_7  and  C_8 
REMARK    7  A    between atoms: C_8  and  S_9 
REMARK    8  A    between atoms: S_9  and  C_10 
ROOT
ATOM      1  C   LIG d   1       4.650   0.057  -1.883  0.00  0.00     0.075 C 
ATOM      2  H   LIG d   1       4.851   0.489  -0.902  0.00  0.00     0.097 H 
ENDROOT
BRANCH   1   3
ATOM      3  C   LIG d   1       5.845   0.263  -2.777  0.00  0.00     0.356 C 
ATOM      4  O   LIG d   1       6.494  -0.686  -3.147  0.00  0.00    -0.244 OA
BRANCH   3   5
ATOM      5  O   LIG d   1       6.188   1.502  -3.165  0.00  0.00    -0.464 OA
BRANCH   5   6
ATOM      6  C   LIG d   1       7.462   1.651  -3.845  0.00  0.00     0.082 C 
ATOM      7  H   LIG d   1       8.162   2.174  -3.194  0.00  0.00     0.066 H 
ATOM      8  H   LIG d   1       7.860   0.667  -4.091  0.00  0.00     0.066 H 
ATOM      9  H   LIG d   1       7.319   2.225  -4.761  0.00  0.00     0.066 H 
ENDBRANCH   5   6
ENDBRANCH   3   5
ENDBRANCH   1   3
BRANCH   1  10
ATOM     10  C   LIG d   1       3.426   0.738  -2.500  0.00  0.00     0.010 C 
ATOM     11  H   LIG d   1       2.754   1.063  -1.706  0.00  0.00     0.033 H 
ATOM     12  H   LIG d   1       3.747   1.603  -3.080  0.00  0.00     0.033 H 
BRANCH  10  13
ATOM     13  C   LIG d   1       2.699  -0.250  -3.413  0.00  0.00    -0.001 C 
ATOM     14  H   LIG d   1       3.218  -1.209  -3.397  0.00  0.00     0.038 H 
ATOM     15  H   LIG d   1       1.676  -0.384  -3.064  0.00  0.00     0.038 H 
BRANCH  13  16
ATOM     16  S   LIG d   1       2.679   0.397  -5.109  0.00  0.00    -0.164 SA
BRANCH  16  17
ATOM     17  C   LIG d   1       4.030  -0.489  -5.933  0.00  0.00    -0.018 C 
ATOM     18  H   LIG d   1       4.894  -0.531  -5.269  0.00  0.00     0.034 H 
ATOM     19  H   LIG d   1       3.707  -1.502  -6.174  0.00  0.00     0.034 H 
ATOM     20  H   LIG d   1       4.302   0.035  -6.850  0.00  0.00     0.034 H 
ENDBRANCH  16  17
ENDBRANCH  13  16
ENDBRANCH  10  13
ENDBRANCH   1  10
BRANCH   1  21
ATOM     21  N   LIG d   1       4.411  -1.389  -1.729  0.00  0.00     0.229 N 
ATOM     22  H   LIG d   1       3.415  -1.588  -1.797  0.00  0.00     0.200 HD
ATOM     23  H   LIG d   1       4.909  -1.904  -2.454  0.00  0.00     0.200 HD
ATOM     24  H   LIG d   1       4.752  -1.692  -0.810  0.00  0.00     0.200 HD
ENDBRANCH   1  21
TORSDOF 8
ENDMDL
MODEL 4
REMARK VINA RESULT:      -3.4      2.303      2.935
REMARK  8 active torsions:
REMARK  status: ('A' for Active; 'I' for Inactive)
REMARK    1  A    between atoms: C_1  and  O_2 
REMARK    2  A    between atoms: O_2  and  C_3 
REMARK    3  A    between atoms: C_3  and  C_5 
REMARK    4  A    between atoms: C_5  and  C_7 
REMARK    5  A    between atoms: C_5  and  N_23 
REMARK    6  A    between atoms: C_7  and  C_8 
REMARK    7  A    between atoms: C_8  and  S_9 
REMARK    8  A    between atoms: S_9  and  C_10 
ROOT
ATOM      1  C   LIG d   1       3.399   0.933  -2.596  0.00  0.00     0.075 C 
ATOM      2  H   LIG d   1       2.657   1.109  -1.816  0.00  0.00     0.097 H 
ENDROOT
BRANCH   1   3
ATOM      3  C   LIG d   1       2.874  -0.090  -3.568  0.00  0.00     0.356 C 
ATOM      4  O   LIG d   1       2.874  -1.261  -3.272  0.00  0.00    -0.244 OA
BRANCH   3   5
ATOM      5  O   LIG d   1       2.404   0.299  -4.764  0.00  0.00    -0.464 OA
BRANCH   5   6
ATOM      6  C   LIG d   1       3.195  -0.053  -5.930  0.00  0.00     0.082 C 
ATOM      7  H   LIG d   1       3.024  -1.099  -6.182  0.00  0.00     0.066 H 
ATOM      8  H   LIG d   1       2.903   0.576  -6.771  0.00  0.00     0.066 H 
ATOM      9  H   LIG d   1       4.252   0.100  -5.711  0.00  0.00     0.066 H 
ENDBRANCH   5   6
ENDBRANCH   3   5
ENDBRANCH   1   3
BRANCH   1  10
ATOM     10  C   LIG d   1       4.693   0.419  -1.962  0.00  0.00     0.010 C 
ATOM     11  H   LIG d   1       4.851   0.918  -1.006  0.00  0.00     0.033 H 
ATOM     12  H   LIG d   1       4.616  -0.656  -1.802  0.00  0.00     0.033 H 
BRANCH  10  13
ATOM     13  C   LIG d   1       5.870   0.715  -2.893  0.00  0.00    -0.001 C 
ATOM     14  H   LIG d   1       5.512   1.255  -3.770  0.00  0.00     0.038 H 
ATOM     15  H   LIG d   1       6.606   1.323  -2.368  0.00  0.00     0.038 H 
BRANCH  13  16
ATOM     16  S   LIG d   1       6.635  -0.845  -3.414  0.00  0.00    -0.164 SA
BRANCH  16  17
ATOM     17  C   LIG d   1       6.823  -0.664  -5.210  0.00  0.00    -0.018 C 
ATOM     18  H   LIG d   1       5.888  -0.303  -5.637  0.00  0.00     0.034 H 
ATOM     19  H   LIG d   1       7.619   0.050  -5.422  0.00  0.00     0.034 H 
ATOM     20  H   LIG d   1       7.074  -1.630  -5.648  0.00  0.00     0.034 H 
ENDBRANCH  16  17
ENDBRANCH  13  16
ENDBRANCH  10  13
ENDBRANCH   1  10
BRANCH   1  21
ATOM     21  N   LIG d   1       3.645   2.196  -3.316  0.00  0.00     0.229 N 
ATOM     22  H   LIG d   1       3.125   2.955  -2.878  0.00  0.00     0.200 HD
ATOM     23  H   LIG d   1       4.640   2.416  -3.303  0.00  0.00     0.200 HD
ATOM     24  H   LIG d   1       3.337   2.095  -4.289  0.00  0.00     0.200 HD
ENDBRANCH   1  21
TORSDOF 8
ENDMDL
MODEL 5
REMARK VINA RESULT:      -3.4      2.166      3.033
REMARK  8 active torsions:
REMARK  status: ('A' for Active; 'I' for Inactive)
REMARK    1  A    between atoms: C_1  and  O_2 
REMARK    2  A    between atoms: O_2  and  C_3 
REMARK    3  A    between atoms: C_3  and  C_5 
REMARK    4  A    between atoms: C_5  and  C_7 
REMARK    5  A    between atoms: C_5  and  N_23 
REMARK    6  A    between atoms: C_7  and  C_8 
REMARK    7  A    between atoms: C_8  and  S_9 
REMARK    8  A    between atoms: S_9  and  C_10 
ROOT
ATOM      1  C   LIG d   1       3.503   1.062  -2.549  0.00  0.00     0.075 C 
ATOM      2  H   LIG d   1       2.816   1.284  -1.731  0.00  0.00     0.097 H 
ENDROOT
BRANCH   1   3
ATOM      3  C   LIG d   1       3.053  -0.187  -3.260  0.00  0.00     0.356 C 
ATOM      4  O   LIG d   1       2.785  -0.149  -4.437  0.00  0.00    -0.244 OA
BRANCH   3   5
ATOM      5  O   LIG d   1       2.950  -1.343  -2.585  0.00  0.00    -0.464 OA
BRANCH   5   6
ATOM      6  C   LIG d   1       3.952  -2.358  -2.859  0.00  0.00     0.082 C 
ATOM      7  H   LIG d   1       4.681  -1.966  -3.567  0.00  0.00     0.066 H 
ATOM      8  H   LIG d   1       4.456  -2.631  -1.932  0.00  0.00     0.066 H 
ATOM      9  H   LIG d   1       3.469  -3.239  -3.283  0.00  0.00     0.066 H 
ENDBRANCH   5   6
ENDBRANCH   3   5
ENDBRANCH   1   3
BRANCH   1  10
ATOM     10  C   LIG d   1       4.912   0.852  -1.988  0.00  0.00     0.010 C 
ATOM     11  H   LIG d   1       5.045   1.472  -1.102  0.00  0.00     0.033 H 
ATOM     12  H   LIG d   1       5.042  -0.196  -1.721  0.00  0.00     0.033 H 
BRANCH  10  13
ATOM     13  C   LIG d   1       5.945   1.243  -3.046  0.00  0.00    -0.001 C 
ATOM     14  H   LIG d   1       5.438   1.686  -3.903  0.00  0.00     0.038 H 
ATOM     15  H   LIG d   1       6.643   1.965  -2.624  0.00  0.00     0.038 H 
BRANCH  13  16
ATOM     16  S   LIG d   1       6.853  -0.235  -3.579  0.00  0.00    -0.164 SA
BRANCH  16  17
ATOM     17  C   LIG d   1       6.255  -0.534  -5.265  0.00  0.00    -0.018 C 
ATOM     18  H   LIG d   1       6.577  -1.522  -5.594  0.00  0.00     0.034 H 
ATOM     19  H   LIG d   1       5.165  -0.485  -5.277  0.00  0.00     0.034 H 
ATOM     20  H   LIG d   1       6.661   0.224  -5.934  0.00  0.00     0.034 H 
ENDBRANCH  16  17
ENDBRANCH  13  16
ENDBRANCH  10  13
ENDBRANCH   1  10
BRANCH   1  21
ATOM     21  N   LIG d   1       3.491   2.186  -3.502  0.00  0.00     0.229 N 
ATOM     22  H   LIG d   1       2.541   2.362  -3.823  0.00  0.00     0.200 HD
ATOM     23  H   LIG d   1       3.859   3.026  -3.056  0.00  0.00     0.200 HD
ATOM     24  H   LIG d   1       4.081   1.951  -4.309  0.00  0.00     0.200 HD
ENDBRANCH   1  21
TORSDOF 8
ENDMDL
MODEL 6
REMARK VINA RESULT:      -3.3      1.893      2.436
REMARK  8 active torsions:
REMARK  status: ('A' for Active; 'I' for Inactive)
REMARK    1  A    between atoms: C_1  and  O_2 
REMARK    2  A    between atoms: O_2  and  C_3 
REMARK    3  A    between atoms: C_3  and  C_5 
REMARK    4  A    between atoms: C_5  and  C_7 
REMARK    5  A    between atoms: C_5  and  N_23 
REMARK    6  A    between atoms: C_7  and  C_8 
REMARK    7  A    between atoms: C_8  and  S_9 
REMARK    8  A    between atoms: S_9  and  C_10 
ROOT
ATOM      1  C   LIG d   1       4.709   0.509  -2.245  0.00  0.00     0.075 C 
ATOM      2  H   LIG d   1       4.678   0.991  -1.267  0.00  0.00     0.097 H 
ENDROOT
BRANCH   1   3
ATOM      3  C   LIG d   1       3.624   1.079  -3.121  0.00  0.00     0.356 C 
ATOM      4  O   LIG d   1       3.584   2.267  -3.337  0.00  0.00    -0.244 OA
BRANCH   3   5
ATOM      5  O   LIG d   1       2.702   0.267  -3.662  0.00  0.00    -0.464 OA
BRANCH   5   6
ATOM      6  C   LIG d   1       2.410   0.449  -5.073  0.00  0.00     0.082 C 
ATOM      7  H   LIG d   1       1.494  -0.086  -5.326  0.00  0.00     0.066 H 
ATOM      8  H   LIG d   1       2.281   1.510  -5.283  0.00  0.00     0.066 H 
ATOM      9  H   LIG d   1       3.235   0.058  -5.668  0.00  0.00     0.066 H 
ENDBRANCH   5   6
ENDBRANCH   3   5
ENDBRANCH   1   3
BRANCH   1  10
ATOM     10  C   LIG d   1       4.494  -0.997  -2.079  0.00  0.00     0.010 C 
ATOM     11  H   LIG d   1       4.570  -1.259  -1.024  0.00  0.00     0.033 H 
ATOM     12  H   LIG d   1       3.505  -1.265  -2.450  0.00  0.00     0.033 H 
BRANCH  10  13
ATOM     13  C   LIG d   1       5.560  -1.754  -2.872  0.00  0.00    -0.001 C 
ATOM     14  H   LIG d   1       6.287  -1.047  -3.270  0.00  0.00     0.038 H 
ATOM     15  H   LIG d   1       6.065  -2.465  -2.218  0.00  0.00     0.038 H 
BRANCH  13  16
ATOM     16  S   LIG d   1       4.773  -2.648  -4.242  0.00  0.00    -0.164 SA
BRANCH  16  17
ATOM     17  C   LIG d   1       5.317  -1.750  -5.722  0.00  0.00    -0.018 C 
ATOM     18  H   LIG d   1       5.699  -0.771  -5.432  0.00  0.00     0.034 H 
ATOM     19  H   LIG d   1       6.105  -2.315  -6.220  0.00  0.00     0.034 H 
ATOM     20  H   LIG d   1       4.474  -1.625  -6.401  0.00  0.00     0.034 H 
ENDBRANCH  16  17
ENDBRANCH  13  16
ENDBRANCH  10  13
ENDBRANCH   1  10
BRANCH   1  21
ATOM     21  N   LIG d   1       6.018   0.777  -2.868  0.00  0.00     0.229 N 
ATOM     22  H   LIG d   1       6.700   1.029  -2.155  0.00  0.00     0.200 HD
ATOM     23  H   LIG d   1       6.341  -0.050  -3.369  0.00  0.00     0.200 HD
ATOM     24  H   LIG d   1       5.923   1.553  -3.532  0.00  0.00     0.200 HD
ENDBRANCH   1  21
TORSDOF 8
ENDMDL
MODEL 7
REMARK VINA RESULT:      -3.2      2.706      3.308
REMARK  8 active torsions:
REMARK  status: ('A' for Active; 'I' for Inactive)
REMARK    1  A    between atoms: C_1  and  O_2 
REMARK    2  A    between atoms: O_2  and  C_3 
REMARK    3  A    between atoms: C_3  and  C_5 
REMARK    4  A    between atoms: C_5  and  C_7 
REMARK    5  A    between atoms: C_5  and  N_23 
REMARK    6  A    between atoms: C_7  and  C_8 
REMARK    7  A    between atoms: C_8  and  S_9 
REMARK    8  A    between atoms: S_9  and  C_10 
ROOT
ATOM      1  C   LIG d   1       3.707  -0.733  -3.913  0.00  0.00     0.075 C 
ATOM      2  H   LIG d   1       4.115   0.278  -3.891  0.00  0.00     0.097 H 
ENDROOT
BRANCH   1   3
ATOM      3  C   LIG d   1       3.904  -1.384  -2.569  0.00  0.00     0.356 C 
ATOM      4  O   LIG d   1       3.652  -2.556  -2.423  0.00  0.00    -0.244 OA
BRANCH   3   5
ATOM      5  O   LIG d   1       4.362  -0.662  -1.534  0.00  0.00    -0.464 OA
BRANCH   5   6
ATOM      6  C   LIG d   1       4.571   0.757  -1.762  0.00  0.00     0.082 C 
ATOM      7  H   LIG d   1       4.947   0.911  -2.773  0.00  0.00     0.066 H 
ATOM      8  H   LIG d   1       3.626   1.287  -1.641  0.00  0.00     0.066 H 
ATOM      9  H   LIG d   1       5.296   1.137  -1.042  0.00  0.00     0.066 H 
ENDBRANCH   5   6
ENDBRANCH   3   5
ENDBRANCH   1   3
BRANCH   1  10
ATOM     10  C   LIG d   1       4.428  -1.550  -4.988  0.00  0.00     0.010 C 
ATOM     11  H   LIG d   1       5.325  -1.999  -4.561  0.00  0.00     0.033 H 
ATOM     12  H   LIG d   1       3.766  -2.336  -5.351  0.00  0.00     0.033 H 
BRANCH  10  13
ATOM     13  C   LIG d   1       4.818  -0.633  -6.148  0.00  0.00    -0.001 C 
ATOM     14  H   LIG d   1       4.472   0.379  -5.944  0.00  0.00     0.038 H 
ATOM     15  H   LIG d   1       5.902  -0.631  -6.262  0.00  0.00     0.038 H 
BRANCH  13  16
ATOM     16  S   LIG d   1       4.052  -1.237  -7.679  0.00  0.00    -0.164 SA
BRANCH  16  17
ATOM     17  C   LIG d   1       2.619  -0.148  -7.911  0.00  0.00    -0.018 C 
ATOM     18  H   LIG d   1       2.377  -0.088  -8.972  0.00  0.00     0.034 H 
ATOM     19  H   LIG d   1       1.765  -0.550  -7.366  0.00  0.00     0.034 H 
ATOM     20  H   LIG d   1       2.855   0.847  -7.534  0.00  0.00     0.034 H 
ENDBRANCH  16  17
ENDBRANCH  13  16
ENDBRANCH  10  13
ENDBRANCH   1  10
BRANCH   1  21
ATOM     21  N   LIG d   1       2.264  -0.662  -4.204  0.00  0.00     0.229 N 
ATOM     22  H   LIG d   1       1.927  -1.566  -4.529  0.00  0.00     0.200 HD
ATOM     23  H   LIG d   1       1.752  -0.392  -3.364  0.00  0.00     0.200 HD
ATOM     24  H   LIG d   1       2.101   0.040  -4.934  0.00  0.00     0.200 HD
ENDBRANCH   1  21
TORSDOF 8
ENDMDL
MODEL 8
REMARK VINA RESULT:      -3.2      2.341      3.268
REMARK  8 active torsions:
REMARK  status: ('A' for Active; 'I' for Inactive)
REMARK    1  A    between atoms: C_1  and  O_2 
REMARK    2  A    between atoms: O_2  and  C_3 
REMARK    3  A    between atoms: C_3  and  C_5 
REMARK    4  A    between atoms: C_5  and  C_7 
REMARK    5  A    between atoms: C_5  and  N_23 
REMARK    6  A    between atoms: C_7  and  C_8 
REMARK    7  A    between atoms: C_8  and  S_9 
REMARK    8  A    between atoms: S_9  and  C_10 
ROOT
ATOM      1  C   LIG d   1       4.736  -1.565  -3.835  0.00  0.00     0.075 C 
ATOM      2  H   LIG d   1       4.872  -0.507  -4.065  0.00  0.00     0.097 H 
ENDROOT
BRANCH   1   3
ATOM      3  C   LIG d   1       4.170  -1.709  -2.446  0.00  0.00     0.356 C 
ATOM      4  O   LIG d   1       3.492  -2.669  -2.166  0.00  0.00    -0.244 OA
BRANCH   3   5
ATOM      5  O   LIG d   1       4.420  -0.770  -1.519  0.00  0.00    -0.464 OA
BRANCH   5   6
ATOM      6  C   LIG d   1       4.399   0.614  -1.959  0.00  0.00     0.082 C 
ATOM      7  H   LIG d   1       4.162   0.653  -3.023  0.00  0.00     0.066 H 
ATOM      8  H   LIG d   1       3.642   1.162  -1.398  0.00  0.00     0.066 H 
ATOM      9  H   LIG d   1       5.377   1.064  -1.787  0.00  0.00     0.066 H 
ENDBRANCH   5   6
ENDBRANCH   3   5
ENDBRANCH   1   3
BRANCH   1  10
ATOM     10  C   LIG d   1       6.085  -2.283  -3.914  0.00  0.00     0.010 C 
ATOM     11  H   LIG d   1       6.131  -3.053  -3.145  0.00  0.00     0.033 H 
ATOM     12  H   LIG d   1       6.194  -2.742  -4.896  0.00  0.00     0.033 H 
BRANCH  10  13
ATOM     13  C   LIG d   1       7.213  -1.273  -3.694  0.00  0.00    -0.001 C 
ATOM     14  H   LIG d   1       7.198  -0.932  -2.660  0.00  0.00     0.038 H 
ATOM     15  H   LIG d   1       8.171  -1.745  -3.907  0.00  0.00     0.038 H 
BRANCH  13  16
ATOM     16  S   LIG d   1       6.979   0.145  -4.803  0.00  0.00    -0.164 SA
BRANCH  16  17
ATOM     17  C   LIG d   1       7.580   1.559  -3.839  0.00  0.00    -0.018 C 
ATOM     18  H   LIG d   1       7.736   1.253  -2.804  0.00  0.00     0.034 H 
ATOM     19  H   LIG d   1       8.523   1.911  -4.259  0.00  0.00     0.034 H 
ATOM     20  H   LIG d   1       6.844   2.362  -3.874  0.00  0.00     0.034 H 
ENDBRANCH  16  17
ENDBRANCH  13  16
ENDBRANCH  10  13
ENDBRANCH   1  10
BRANCH   1  21
ATOM     21  N   LIG d   1       3.786  -2.146  -4.801  0.00  0.00     0.229 N 
ATOM     22  H   LIG d   1       2.846  -2.148  -4.410  0.00  0.00     0.200 HD
ATOM     23  H   LIG d   1       3.793  -1.604  -5.665  0.00  0.00     0.200 HD
ATOM     24  H   LIG d   1       4.065  -3.111  -5.010  0.00  0.00     0.200 HD
ENDBRANCH   1  21
TORSDOF 8
ENDMDL
MODEL 9
REMARK VINA RESULT:      -3.1      3.743      4.362
REMARK  8 active torsions:
REMARK  status: ('A' for Active; 'I' for Inactive)
REMARK    1  A    between atoms: C_1  and  O_2 
REMARK    2  A    between atoms: O_2  and  C_3 
REMARK    3  A    between atoms: C_3  and  C_5 
REMARK    4  A    between atoms: C_5  and  C_7 
REMARK    5  A    between atoms: C_5  and  N_23 
REMARK    6  A    between atoms: C_7  and  C_8 
REMARK    7  A    between atoms: C_8  and  S_9 
REMARK    8  A    between atoms: S_9  and  C_10 
ROOT
ATOM      1  C   LIG d   1       3.727  -0.344  -5.522  0.00  0.00     0.075 C 
ATOM      2  H   LIG d   1       3.688  -1.431  -5.604  0.00  0.00     0.097 H 
ENDROOT
BRANCH   1   3
ATOM      3  C   LIG d   1       3.233   0.076  -4.163  0.00  0.00     0.356 C 
ATOM      4  O   LIG d   1       2.427  -0.605  -3.576  0.00  0.00    -0.244 OA
BRANCH   3   5
ATOM      5  O   LIG d   1       3.689   1.208  -3.603  0.00  0.00    -0.464 OA
BRANCH   5   6
ATOM      6  C   LIG d   1       4.055   1.149  -2.199  0.00  0.00     0.082 C 
ATOM      7  H   LIG d   1       3.594   0.274  -1.741  0.00  0.00     0.066 H 
ATOM      8  H   LIG d   1       5.139   1.077  -2.109  0.00  0.00     0.066 H 
ATOM      9  H   LIG d   1       3.707   2.050  -1.695  0.00  0.00     0.066 H 
ENDBRANCH   5   6
ENDBRANCH   3   5
ENDBRANCH   1   3
BRANCH   1  10
ATOM     10  C   LIG d   1       2.842   0.280  -6.604  0.00  0.00     0.010 C 
ATOM     11  H   LIG d   1       1.943  -0.324  -6.729  0.00  0.00     0.033 H 
ATOM     12  H   LIG d   1       2.562   1.290  -6.305  0.00  0.00     0.033 H 
BRANCH  10  13
ATOM     13  C   LIG d   1       3.611   0.332  -7.925  0.00  0.00    -0.001 C 
ATOM     14  H   LIG d   1       4.681   0.343  -7.721  0.00  0.00     0.038 H 
ATOM     15  H   LIG d   1       3.364  -0.543  -8.525  0.00  0.00     0.038 H 
BRANCH  13  16
ATOM     16  S   LIG d   1       3.152   1.836  -8.832  0.00  0.00    -0.164 SA
BRANCH  16  17
ATOM     17  C   LIG d   1       3.854   1.583 -10.485  0.00  0.00    -0.018 C 
ATOM     18  H   LIG d   1       4.780   1.014 -10.403  0.00  0.00     0.034 H 
ATOM     19  H   LIG d   1       3.143   1.032 -11.101  0.00  0.00     0.034 H 
ATOM     20  H   LIG d   1       4.061   2.549 -10.944  0.00  0.00     0.034 H 
ENDBRANCH  16  17
ENDBRANCH  13  16
ENDBRANCH  10  13
ENDBRANCH   1  10
BRANCH   1  21
ATOM     21  N   LIG d   1       5.124   0.099  -5.682  0.00  0.00     0.229 N 
ATOM     22  H   LIG d   1       5.749  -0.705  -5.673  0.00  0.00     0.200 HD
ATOM     23  H   LIG d   1       5.232   0.602  -6.562  0.00  0.00     0.200 HD
ATOM     24  H   LIG d   1       5.370   0.725  -4.907  0.00  0.00     0.200 HD
ENDBRANCH   1  21
TORSDOF 8
ENDMDL
MODEL 10
REMARK VINA RESULT:      -3.1      3.517      4.606
REMARK  8 active torsions:
REMARK  status: ('A' for Active; 'I' for Inactive)
REMARK    1  A    between atoms: C_1  and  O_2 
REMARK    2  A    between atoms: O_2  and  C_3 
REMARK    3  A    between atoms: C_3  and  C_5 
REMARK    4  A    between atoms: C_5  and  C_7 
REMARK    5  A    between atoms: C_5  and  N_23 
REMARK    6  A    between atoms: C_7  and  C_8 
REMARK    7  A    between atoms: C_8  and  S_9 
REMARK    8  A    between atoms: S_9  and  C_10 
ROOT
ATOM      1  C   LIG d   1       4.963  -1.899  -3.939  0.00  0.00     0.075 C 
ATOM      2  H   LIG d   1       4.855  -0.912  -4.391  0.00  0.00     0.097 H 
ENDROOT
BRANCH   1   3
ATOM      3  C   LIG d   1       4.701  -2.959  -4.977  0.00  0.00     0.356 C 
ATOM      4  O   LIG d   1       4.764  -2.683  -6.151  0.00  0.00    -0.244 OA
BRANCH   3   5
ATOM      5  O   LIG d   1       4.400  -4.211  -4.596  0.00  0.00    -0.464 OA
BRANCH   5   6
ATOM      6  C   LIG d   1       4.736  -5.280  -5.520  0.00  0.00     0.082 C 
ATOM      7  H   LIG d   1       3.825  -5.659  -5.984  0.00  0.00     0.066 H 
ATOM      8  H   LIG d   1       5.404  -4.897  -6.291  0.00  0.00     0.066 H 
ATOM      9  H   LIG d   1       5.230  -6.086  -4.977  0.00  0.00     0.066 H 
ENDBRANCH   5   6
ENDBRANCH   3   5
ENDBRANCH   1   3
BRANCH   1  10
ATOM     10  C   LIG d   1       3.960  -2.047  -2.792  0.00  0.00     0.010 C 
ATOM     11  H   LIG d   1       3.531  -3.048  -2.813  0.00  0.00     0.033 H 
ATOM     12  H   LIG d   1       4.470  -1.890  -1.842  0.00  0.00     0.033 H 
BRANCH  10  13
ATOM     13  C   LIG d   1       2.847  -1.010  -2.952  0.00  0.00    -0.001 C 
ATOM     14  H   LIG d   1       2.232  -1.268  -3.813  0.00  0.00     0.038 H 
ATOM     15  H   LIG d   1       2.230  -0.997  -2.055  0.00  0.00     0.038 H 
BRANCH  13  16
ATOM     16  S   LIG d   1       3.582   0.631  -3.203  0.00  0.00    -0.164 SA
BRANCH  16  17
ATOM     17  C   LIG d   1       4.539   0.920  -1.690  0.00  0.00    -0.018 C 
ATOM     18  H   LIG d   1       4.413   1.955  -1.373  0.00  0.00     0.034 H 
ATOM     19  H   LIG d   1       4.184   0.254  -0.903  0.00  0.00     0.034 H 
ATOM     20  H   LIG d   1       5.593   0.725  -1.884  0.00  0.00     0.034 H 
ENDBRANCH  16  17
ENDBRANCH  13  16
ENDBRANCH  10  13
ENDBRANCH   1  10
BRANCH   1  21
ATOM     21  N   LIG d   1       6.342  -2.048  -3.439  0.00  0.00     0.229 N 
ATOM     22  H   LIG d   1       6.334  -2.468  -2.511  0.00  0.00     0.200 HD
ATOM     23  H   LIG d   1       6.881  -2.637  -4.073  0.00  0.00     0.200 HD
ATOM     24  H   LIG d   1       6.784  -1.123  -3.385  0.00  0.00     0.200 HD
ENDBRANCH   1  21
TORSDOF 8
ENDMDL
