MODEL 1
REMARK VINA RESULT:      -6.8      0.000      0.000
REMARK  3 active torsions:
REMARK  status: ('A' for Active; 'I' for Inactive)
REMARK    1  A    between atoms: C_1  and  C_2 
REMARK       I    between atoms: N_15  and  C_16 
REMARK    2  A    between atoms: C_16  and  C_18 
REMARK    3  A    between atoms: C_24  and  N_45 
ROOT
ATOM      1  C   LIG d   1       8.064  -1.294  -6.759  0.00  0.00    -0.050 A 
ATOM      2  C   LIG d   1       7.675  -0.687  -5.579  0.00  0.00    -0.057 A 
ATOM      3  C   LIG d   1       6.368  -0.279  -5.409  0.00  0.00    -0.040 A 
ATOM      4  C   LIG d   1       5.438  -0.464  -6.422  0.00  0.00     0.041 A 
ATOM      5  C   LIG d   1       5.837  -1.076  -7.618  0.00  0.00    -0.016 A 
ATOM      6  C   LIG d   1       7.145  -1.484  -7.774  0.00  0.00    -0.053 A 
ATOM      7  C   LIG d   1       4.629  -1.123  -8.487  0.00  0.00     0.045 C 
ATOM      8  H   LIG d   1       4.124  -2.081  -8.347  0.00  0.00     0.042 H 
ATOM      9  C   LIG d   1       4.737  -0.830  -9.963  0.00  0.00    -0.023 C 
ATOM     10  C   LIG d   1       2.385  -0.080  -9.894  0.00  0.00    -0.030 C 
ATOM     11  C   LIG d   1       2.337  -0.262  -8.363  0.00  0.00     0.007 C 
ATOM     12  C   LIG d   1       3.753   0.006  -7.878  0.00  0.00     0.048 C 
ATOM     13  H   LIG d   1       4.103   0.974  -8.235  0.00  0.00     0.051 H 
ATOM     14  N   LIG d   1       4.061  -0.133  -6.468  0.00  0.00    -0.263 N 
ATOM     15  C   LIG d   1       3.219   0.019  -5.426  0.00  0.00     0.251 C 
ATOM     16  O   LIG d   1       2.085   0.414  -5.613  0.00  0.00    -0.270 OA
ATOM     17  H   LIG d   1       8.395  -0.539  -4.787  0.00  0.00     0.062 H 
ATOM     18  H   LIG d   1       6.069   0.190  -4.483  0.00  0.00     0.064 H 
ATOM     19  H   LIG d   1       7.453  -1.957  -8.695  0.00  0.00     0.062 H 
ATOM     20  H   LIG d   1       5.110   0.182 -10.115  0.00  0.00     0.082 H 
ATOM     21  H   LIG d   1       5.405  -1.550 -10.438  0.00  0.00     0.082 H 
ATOM     22  H   LIG d   1       2.638   0.957 -10.120  0.00  0.00     0.082 H 
ATOM     23  H   LIG d   1       1.401  -0.301 -10.309  0.00  0.00     0.082 H 
ATOM     24  H   LIG d   1       1.648   0.458  -7.922  0.00  0.00     0.034 H 
ATOM     25  H   LIG d   1       2.030  -1.278  -8.117  0.00  0.00     0.034 H 
ATOM     26  N   LIG d   1       3.358  -1.006 -10.529  0.00  0.00     0.234 N 
ATOM     27  H   LIG d   1       3.054  -1.971 -10.348  0.00  0.00     0.203 HD
ENDROOT
BRANCH  15  28
ATOM     28  C   LIG d   1       3.674  -0.297  -4.055  0.00  0.00     0.037 A 
ATOM     29  C   LIG d   1       4.071   0.728  -3.194  0.00  0.00    -0.050 A 
ATOM     30  C   LIG d   1       4.496   0.426  -1.917  0.00  0.00    -0.061 A 
ATOM     31  H   LIG d   1       4.045   1.755  -3.528  0.00  0.00     0.062 H 
ATOM     32  C   LIG d   1       4.530  -0.889  -1.488  0.00  0.00    -0.062 A 
ATOM     33  H   LIG d   1       4.802   1.218  -1.250  0.00  0.00     0.062 H 
ATOM     34  C   LIG d   1       4.139  -1.910  -2.337  0.00  0.00    -0.061 A 
ATOM     35  H   LIG d   1       4.863  -1.120  -0.487  0.00  0.00     0.062 H 
ATOM     36  C   LIG d   1       3.706  -1.621  -3.615  0.00  0.00    -0.050 A 
ATOM     37  H   LIG d   1       4.168  -2.934  -1.996  0.00  0.00     0.062 H 
ATOM     38  H   LIG d   1       3.397  -2.418  -4.274  0.00  0.00     0.062 H 
ENDBRANCH  15  28
BRANCH   1  39
ATOM     39  C   LIG d   1       9.490  -1.746  -6.941  0.00  0.00    -0.040 C 
ATOM     40  H   LIG d   1       9.524  -2.835  -6.979  0.00  0.00     0.028 H 
ATOM     41  H   LIG d   1       9.886  -1.337  -7.870  0.00  0.00     0.028 H 
ATOM     42  H   LIG d   1      10.092  -1.394  -6.103  0.00  0.00     0.028 H 
ENDBRANCH   1  39
BRANCH  26  43
ATOM     43  C   LIG d   1       3.383  -0.780 -11.980  0.00  0.00    -0.043 C 
ATOM     44  H   LIG d   1       2.494  -0.212 -12.253  0.00  0.00     0.078 H 
ATOM     45  H   LIG d   1       4.274  -0.204 -12.228  0.00  0.00     0.078 H 
ATOM     46  H   LIG d   1       3.394  -1.722 -12.530  0.00  0.00     0.078 H 
ENDBRANCH  26  43
TORSDOF 3
ENDMDL
MODEL 2
REMARK VINA RESULT:      -6.6      2.477      3.861
REMARK  3 active torsions:
REMARK  status: ('A' for Active; 'I' for Inactive)
REMARK    1  A    between atoms: C_1  and  C_2 
REMARK       I    between atoms: N_15  and  C_16 
REMARK    2  A    between atoms: C_16  and  C_18 
REMARK    3  A    between atoms: C_24  and  N_45 
ROOT
ATOM      1  C   LIG d   1       3.541   1.022  -8.489  0.00  0.00    -0.050 A 
ATOM      2  C   LIG d   1       3.074   1.078  -7.189  0.00  0.00    -0.057 A 
ATOM      3  C   LIG d   1       3.316   0.032  -6.321  0.00  0.00    -0.040 A 
ATOM      4  C   LIG d   1       4.020  -1.085  -6.749  0.00  0.00     0.041 A 
ATOM      5  C   LIG d   1       4.489  -1.139  -8.068  0.00  0.00    -0.016 A 
ATOM      6  C   LIG d   1       4.244  -0.087  -8.924  0.00  0.00    -0.053 A 
ATOM      7  C   LIG d   1       5.188  -2.447  -8.210  0.00  0.00     0.045 C 
ATOM      8  H   LIG d   1       6.250  -2.308  -8.003  0.00  0.00     0.042 H 
ATOM      9  C   LIG d   1       5.031  -3.266  -9.467  0.00  0.00    -0.023 C 
ATOM     10  C   LIG d   1       5.475  -5.276  -8.104  0.00  0.00    -0.030 C 
ATOM     11  C   LIG d   1       5.502  -4.435  -6.811  0.00  0.00     0.007 C 
ATOM     12  C   LIG d   1       4.551  -3.276  -7.062  0.00  0.00     0.048 C 
ATOM     13  H   LIG d   1       3.574  -3.644  -7.374  0.00  0.00     0.051 H 
ATOM     14  N   LIG d   1       4.385  -2.259  -6.042  0.00  0.00    -0.263 N 
ATOM     15  C   LIG d   1       4.543  -2.398  -4.711  0.00  0.00     0.251 C 
ATOM     16  O   LIG d   1       4.751  -3.497  -4.235  0.00  0.00    -0.270 OA
ATOM     17  H   LIG d   1       2.524   1.943  -6.851  0.00  0.00     0.062 H 
ATOM     18  H   LIG d   1       2.953   0.083  -5.306  0.00  0.00     0.064 H 
ATOM     19  H   LIG d   1       4.607  -0.127  -9.941  0.00  0.00     0.062 H 
ATOM     20  H   LIG d   1       3.983  -3.530  -9.610  0.00  0.00     0.082 H 
ATOM     21  H   LIG d   1       5.393  -2.702 -10.327  0.00  0.00     0.082 H 
ATOM     22  H   LIG d   1       4.471  -5.678  -8.245  0.00  0.00     0.082 H 
ATOM     23  H   LIG d   1       6.175  -6.106  -8.002  0.00  0.00     0.082 H 
ATOM     24  H   LIG d   1       5.152  -5.031  -5.969  0.00  0.00     0.034 H 
ATOM     25  H   LIG d   1       6.513  -4.072  -6.622  0.00  0.00     0.034 H 
ATOM     26  N   LIG d   1       5.892  -4.481  -9.288  0.00  0.00     0.234 N 
ATOM     27  H   LIG d   1       6.862  -4.173  -9.147  0.00  0.00     0.203 HD
ENDROOT
BRANCH  15  28
ATOM     28  C   LIG d   1       4.465  -1.214  -3.829  0.00  0.00     0.037 A 
ATOM     29  C   LIG d   1       3.259  -0.876  -3.213  0.00  0.00    -0.050 A 
ATOM     30  C   LIG d   1       3.194   0.231  -2.392  0.00  0.00    -0.061 A 
ATOM     31  H   LIG d   1       2.379  -1.479  -3.379  0.00  0.00     0.062 H 
ATOM     32  C   LIG d   1       4.320   1.006  -2.178  0.00  0.00    -0.062 A 
ATOM     33  H   LIG d   1       2.261   0.493  -1.915  0.00  0.00     0.062 H 
ATOM     34  C   LIG d   1       5.519   0.676  -2.786  0.00  0.00    -0.061 A 
ATOM     35  H   LIG d   1       4.264   1.870  -1.535  0.00  0.00     0.062 H 
ATOM     36  C   LIG d   1       5.600  -0.431  -3.605  0.00  0.00    -0.050 A 
ATOM     37  H   LIG d   1       6.395   1.284  -2.615  0.00  0.00     0.062 H 
ATOM     38  H   LIG d   1       6.537  -0.690  -4.074  0.00  0.00     0.062 H 
ENDBRANCH  15  28
BRANCH   1  39
ATOM     39  C   LIG d   1       3.283   2.167  -9.434  0.00  0.00    -0.040 C 
ATOM     40  H   LIG d   1       2.240   2.475  -9.355  0.00  0.00     0.028 H 
ATOM     41  H   LIG d   1       3.930   3.005  -9.175  0.00  0.00     0.028 H 
ATOM     42  H   LIG d   1       3.491   1.849 -10.455  0.00  0.00     0.028 H 
ENDBRANCH   1  39
BRANCH  26  43
ATOM     43  C   LIG d   1       5.830  -5.318 -10.494  0.00  0.00    -0.043 C 
ATOM     44  H   LIG d   1       6.843  -5.442 -10.876  0.00  0.00     0.078 H 
ATOM     45  H   LIG d   1       5.421  -6.291 -10.222  0.00  0.00     0.078 H 
ATOM     46  H   LIG d   1       5.205  -4.863 -11.263  0.00  0.00     0.078 H 
ENDBRANCH  26  43
TORSDOF 3
ENDMDL
MODEL 3
REMARK VINA RESULT:      -6.5      2.354      4.135
REMARK  3 active torsions:
REMARK  status: ('A' for Active; 'I' for Inactive)
REMARK    1  A    between atoms: C_1  and  C_2 
REMARK       I    between atoms: N_15  and  C_16 
REMARK    2  A    between atoms: C_16  and  C_18 
REMARK    3  A    between atoms: C_24  and  N_45 
ROOT
ATOM      1  C   LIG d   1       3.456   0.601  -8.040  0.00  0.00    -0.050 A 
ATOM      2  C   LIG d   1       3.114   0.330  -6.728  0.00  0.00    -0.057 A 
ATOM      3  C   LIG d   1       3.921  -0.481  -5.956  0.00  0.00    -0.040 A 
ATOM      4  C   LIG d   1       5.074  -1.038  -6.493  0.00  0.00     0.041 A 
ATOM      5  C   LIG d   1       5.414  -0.764  -7.824  0.00  0.00    -0.016 A 
ATOM      6  C   LIG d   1       4.602   0.051  -8.584  0.00  0.00    -0.053 A 
ATOM      7  C   LIG d   1       6.681  -1.501  -8.092  0.00  0.00     0.045 C 
ATOM      8  H   LIG d   1       7.527  -0.839  -7.902  0.00  0.00     0.042 H 
ATOM      9  C   LIG d   1       6.890  -2.209  -9.408  0.00  0.00    -0.023 C 
ATOM     10  C   LIG d   1       8.404  -3.762  -8.228  0.00  0.00    -0.030 C 
ATOM     11  C   LIG d   1       8.074  -3.106  -6.871  0.00  0.00     0.007 C 
ATOM     12  C   LIG d   1       6.645  -2.605  -7.000  0.00  0.00     0.048 C 
ATOM     13  H   LIG d   1       5.984  -3.412  -7.315  0.00  0.00     0.051 H 
ATOM     14  N   LIG d   1       6.041  -1.884  -5.895  0.00  0.00    -0.263 N 
ATOM     15  C   LIG d   1       6.335  -1.995  -4.585  0.00  0.00     0.251 C 
ATOM     16  O   LIG d   1       7.116  -2.848  -4.207  0.00  0.00    -0.270 OA
ATOM     17  H   LIG d   1       2.218   0.759  -6.305  0.00  0.00     0.062 H 
ATOM     18  H   LIG d   1       3.652  -0.685  -4.931  0.00  0.00     0.064 H 
ATOM     19  H   LIG d   1       4.865   0.264  -9.610  0.00  0.00     0.062 H 
ATOM     20  H   LIG d   1       6.126  -2.974  -9.544  0.00  0.00     0.082 H 
ATOM     21  H   LIG d   1       6.849  -1.491 -10.227  0.00  0.00     0.082 H 
ATOM     22  H   LIG d   1       7.749  -4.621  -8.374  0.00  0.00     0.082 H 
ATOM     23  H   LIG d   1       9.439  -4.107  -8.213  0.00  0.00     0.082 H 
ATOM     24  H   LIG d   1       8.142  -3.843  -6.072  0.00  0.00     0.034 H 
ATOM     25  H   LIG d   1       8.758  -2.279  -6.680  0.00  0.00     0.034 H 
ATOM     26  N   LIG d   1       8.267  -2.800  -9.352  0.00  0.00     0.234 N 
ATOM     27  H   LIG d   1       8.942  -2.038  -9.213  0.00  0.00     0.203 HD
ENDROOT
BRANCH  15  28
ATOM     28  C   LIG d   1       5.712  -1.079  -3.606  0.00  0.00     0.037 A 
ATOM     29  C   LIG d   1       6.114   0.256  -3.541  0.00  0.00    -0.050 A 
ATOM     30  C   LIG d   1       5.529   1.106  -2.624  0.00  0.00    -0.061 A 
ATOM     31  H   LIG d   1       6.880   0.623  -4.207  0.00  0.00     0.062 H 
ATOM     32  C   LIG d   1       4.546   0.637  -1.771  0.00  0.00    -0.062 A 
ATOM     33  H   LIG d   1       5.838   2.139  -2.574  0.00  0.00     0.062 H 
ATOM     34  C   LIG d   1       4.144  -0.686  -1.830  0.00  0.00    -0.061 A 
ATOM     35  H   LIG d   1       4.091   1.305  -1.056  0.00  0.00     0.062 H 
ATOM     36  C   LIG d   1       4.716  -1.545  -2.745  0.00  0.00    -0.050 A 
ATOM     37  H   LIG d   1       3.376  -1.046  -1.161  0.00  0.00     0.062 H 
ATOM     38  H   LIG d   1       4.398  -2.575  -2.794  0.00  0.00     0.062 H 
ENDBRANCH  15  28
BRANCH   1  39
ATOM     39  C   LIG d   1       2.578   1.493  -8.880  0.00  0.00    -0.040 C 
ATOM     40  H   LIG d   1       3.096   1.745  -9.805  0.00  0.00     0.028 H 
ATOM     41  H   LIG d   1       1.649   0.973  -9.113  0.00  0.00     0.028 H 
ATOM     42  H   LIG d   1       2.355   2.406  -8.328  0.00  0.00     0.028 H 
ENDBRANCH   1  39
BRANCH  26  43
ATOM     43  C   LIG d   1       8.570  -3.476 -10.621  0.00  0.00    -0.043 C 
ATOM     44  H   LIG d   1       8.600  -2.725 -11.410  0.00  0.00     0.078 H 
ATOM     45  H   LIG d   1       9.546  -3.955 -10.537  0.00  0.00     0.078 H 
ATOM     46  H   LIG d   1       7.817  -4.226 -10.863  0.00  0.00     0.078 H 
ENDBRANCH  26  43
TORSDOF 3
ENDMDL
MODEL 4
REMARK VINA RESULT:      -6.4      2.618      3.047
REMARK  3 active torsions:
REMARK  status: ('A' for Active; 'I' for Inactive)
REMARK    1  A    between atoms: C_1  and  C_2 
REMARK       I    between atoms: N_15  and  C_16 
REMARK    2  A    between atoms: C_16  and  C_18 
REMARK    3  A    between atoms: C_24  and  N_45 
ROOT
ATOM      1  C   LIG d   1       4.801  -5.606  -5.944  0.00  0.00    -0.050 A 
ATOM      2  C   LIG d   1       5.303  -4.671  -5.058  0.00  0.00    -0.057 A 
ATOM      3  C   LIG d   1       5.184  -3.324  -5.333  0.00  0.00    -0.040 A 
ATOM      4  C   LIG d   1       4.569  -2.898  -6.502  0.00  0.00     0.041 A 
ATOM      5  C   LIG d   1       4.064  -3.849  -7.398  0.00  0.00    -0.016 A 
ATOM      6  C   LIG d   1       4.186  -5.192  -7.111  0.00  0.00    -0.053 A 
ATOM      7  C   LIG d   1       3.480  -3.084  -8.535  0.00  0.00     0.045 C 
ATOM      8  H   LIG d   1       2.417  -2.924  -8.349  0.00  0.00     0.042 H 
ATOM      9  C   LIG d   1       3.669  -3.559  -9.954  0.00  0.00    -0.023 C 
ATOM     10  C   LIG d   1       3.450  -1.208 -10.675  0.00  0.00    -0.030 C 
ATOM     11  C   LIG d   1       3.390  -0.729  -9.209  0.00  0.00     0.007 C 
ATOM     12  C   LIG d   1       4.226  -1.726  -8.423  0.00  0.00     0.048 C 
ATOM     13  H   LIG d   1       5.222  -1.818  -8.857  0.00  0.00     0.051 H 
ATOM     14  N   LIG d   1       4.334  -1.586  -6.983  0.00  0.00    -0.263 N 
ATOM     15  C   LIG d   1       4.232  -0.453  -6.260  0.00  0.00     0.251 C 
ATOM     16  O   LIG d   1       4.139   0.621  -6.822  0.00  0.00    -0.270 OA
ATOM     17  H   LIG d   1       5.784  -4.996  -4.147  0.00  0.00     0.062 H 
ATOM     18  H   LIG d   1       5.574  -2.597  -4.635  0.00  0.00     0.064 H 
ATOM     19  H   LIG d   1       3.796  -5.926  -7.801  0.00  0.00     0.062 H 
ATOM     20  H   LIG d   1       4.731  -3.590 -10.198  0.00  0.00     0.082 H 
ATOM     21  H   LIG d   1       3.230  -4.549 -10.078  0.00  0.00     0.082 H 
ATOM     22  H   LIG d   1       4.481  -1.147 -11.026  0.00  0.00     0.082 H 
ATOM     23  H   LIG d   1       2.831  -0.552 -11.287  0.00  0.00     0.082 H 
ATOM     24  H   LIG d   1       3.819   0.269  -9.123  0.00  0.00     0.034 H 
ATOM     25  H   LIG d   1       2.358  -0.728  -8.858  0.00  0.00     0.034 H 
ATOM     26  N   LIG d   1       2.926  -2.590 -10.825  0.00  0.00     0.234 N 
ATOM     27  H   LIG d   1       1.937  -2.595 -10.545  0.00  0.00     0.203 HD
ENDROOT
BRANCH  15  28
ATOM     28  C   LIG d   1       4.232  -0.517  -4.783  0.00  0.00     0.037 A 
ATOM     29  C   LIG d   1       3.062  -0.845  -4.095  0.00  0.00    -0.050 A 
ATOM     30  C   LIG d   1       3.069  -0.901  -2.717  0.00  0.00    -0.061 A 
ATOM     31  H   LIG d   1       2.155  -1.055  -4.641  0.00  0.00     0.062 H 
ATOM     32  C   LIG d   1       4.231  -0.632  -2.015  0.00  0.00    -0.062 A 
ATOM     33  H   LIG d   1       2.165  -1.156  -2.184  0.00  0.00     0.062 H 
ATOM     34  C   LIG d   1       5.394  -0.305  -2.691  0.00  0.00    -0.061 A 
ATOM     35  H   LIG d   1       4.231  -0.678  -0.937  0.00  0.00     0.062 H 
ATOM     36  C   LIG d   1       5.403  -0.251  -4.070  0.00  0.00    -0.050 A 
ATOM     37  H   LIG d   1       6.298  -0.096  -2.138  0.00  0.00     0.062 H 
ATOM     38  H   LIG d   1       6.312  -0.001  -4.596  0.00  0.00     0.062 H 
ENDBRANCH  15  28
BRANCH   1  39
ATOM     39  C   LIG d   1       4.925  -7.077  -5.639  0.00  0.00    -0.040 C 
ATOM     40  H   LIG d   1       4.727  -7.246  -4.581  0.00  0.00     0.028 H 
ATOM     41  H   LIG d   1       4.205  -7.634  -6.238  0.00  0.00     0.028 H 
ATOM     42  H   LIG d   1       5.934  -7.413  -5.878  0.00  0.00     0.028 H 
ENDBRANCH   1  39
BRANCH  26  43
ATOM     43  C   LIG d   1       3.023  -3.006 -12.230  0.00  0.00    -0.043 C 
ATOM     44  H   LIG d   1       2.948  -4.093 -12.271  0.00  0.00     0.078 H 
ATOM     45  H   LIG d   1       2.195  -2.563 -12.783  0.00  0.00     0.078 H 
ATOM     46  H   LIG d   1       3.967  -2.691 -12.676  0.00  0.00     0.078 H 
ENDBRANCH  26  43
TORSDOF 3
ENDMDL
MODEL 5
REMARK VINA RESULT:      -6.0      3.465      4.723
REMARK  3 active torsions:
REMARK  status: ('A' for Active; 'I' for Inactive)
REMARK    1  A    between atoms: C_1  and  C_2 
REMARK       I    between atoms: N_15  and  C_16 
REMARK    2  A    between atoms: C_16  and  C_18 
REMARK    3  A    between atoms: C_24  and  N_45 
ROOT
ATOM      1  C   LIG d   1       9.201   0.708  -5.366  0.00  0.00    -0.050 A 
ATOM      2  C   LIG d   1       7.900   1.161  -5.251  0.00  0.00    -0.057 A 
ATOM      3  C   LIG d   1       6.864   0.261  -5.113  0.00  0.00    -0.040 A 
ATOM      4  C   LIG d   1       7.117  -1.104  -5.099  0.00  0.00     0.041 A 
ATOM      5  C   LIG d   1       8.437  -1.559  -5.219  0.00  0.00    -0.016 A 
ATOM      6  C   LIG d   1       9.465  -0.650  -5.352  0.00  0.00    -0.053 A 
ATOM      7  C   LIG d   1       8.372  -3.047  -5.172  0.00  0.00     0.045 C 
ATOM      8  H   LIG d   1       8.516  -3.379  -4.143  0.00  0.00     0.042 H 
ATOM      9  C   LIG d   1       9.236  -3.879  -6.088  0.00  0.00    -0.023 C 
ATOM     10  C   LIG d   1       7.516  -5.646  -5.954  0.00  0.00    -0.030 C 
ATOM     11  C   LIG d   1       6.590  -4.730  -5.128  0.00  0.00     0.007 C 
ATOM     12  C   LIG d   1       6.901  -3.315  -5.592  0.00  0.00     0.048 C 
ATOM     13  H   LIG d   1       6.808  -3.239  -6.675  0.00  0.00     0.051 H 
ATOM     14  N   LIG d   1       6.224  -2.196  -4.965  0.00  0.00    -0.263 N 
ATOM     15  C   LIG d   1       5.008  -2.194  -4.383  0.00  0.00     0.251 C 
ATOM     16  O   LIG d   1       4.305  -3.184  -4.441  0.00  0.00    -0.270 OA
ATOM     17  H   LIG d   1       7.697   2.221  -5.263  0.00  0.00     0.062 H 
ATOM     18  H   LIG d   1       5.850   0.621  -5.019  0.00  0.00     0.064 H 
ATOM     19  H   LIG d   1      10.483  -1.000  -5.444  0.00  0.00     0.062 H 
ATOM     20  H   LIG d   1       9.000  -3.655  -7.127  0.00  0.00     0.082 H 
ATOM     21  H   LIG d   1      10.289  -3.676  -5.892  0.00  0.00     0.082 H 
ATOM     22  H   LIG d   1       7.250  -5.562  -7.008  0.00  0.00     0.082 H 
ATOM     23  H   LIG d   1       7.369  -6.679  -5.636  0.00  0.00     0.082 H 
ATOM     24  H   LIG d   1       5.547  -4.969  -5.332  0.00  0.00     0.034 H 
ATOM     25  H   LIG d   1       6.803  -4.843  -4.065  0.00  0.00     0.034 H 
ATOM     26  N   LIG d   1       8.949  -5.311  -5.748  0.00  0.00     0.234 N 
ATOM     27  H   LIG d   1       9.179  -5.462  -4.758  0.00  0.00     0.203 HD
ENDROOT
BRANCH  15  28
ATOM     28  C   LIG d   1       4.531  -0.990  -3.670  0.00  0.00     0.037 A 
ATOM     29  C   LIG d   1       3.605  -0.139  -4.275  0.00  0.00    -0.050 A 
ATOM     30  C   LIG d   1       3.165   0.984  -3.605  0.00  0.00    -0.061 A 
ATOM     31  H   LIG d   1       3.235  -0.358  -5.265  0.00  0.00     0.062 H 
ATOM     32  C   LIG d   1       3.639   1.268  -2.336  0.00  0.00    -0.062 A 
ATOM     33  H   LIG d   1       2.448   1.643  -4.072  0.00  0.00     0.062 H 
ATOM     34  C   LIG d   1       4.557   0.427  -1.731  0.00  0.00    -0.061 A 
ATOM     35  H   LIG d   1       3.291   2.147  -1.816  0.00  0.00     0.062 H 
ATOM     36  C   LIG d   1       5.002  -0.702  -2.388  0.00  0.00    -0.050 A 
ATOM     37  H   LIG d   1       4.923   0.654  -0.741  0.00  0.00     0.062 H 
ATOM     38  H   LIG d   1       5.715  -1.359  -1.913  0.00  0.00     0.062 H 
ENDBRANCH  15  28
BRANCH   1  39
ATOM     39  C   LIG d   1      10.334   1.692  -5.510  0.00  0.00    -0.040 C 
ATOM     40  H   LIG d   1      10.525   1.875  -6.567  0.00  0.00     0.028 H 
ATOM     41  H   LIG d   1      10.066   2.629  -5.021  0.00  0.00     0.028 H 
ATOM     42  H   LIG d   1      11.231   1.283  -5.044  0.00  0.00     0.028 H 
ENDBRANCH   1  39
BRANCH  26  43
ATOM     43  C   LIG d   1       9.787  -6.195  -6.570  0.00  0.00    -0.043 C 
ATOM     44  H   LIG d   1      10.322  -5.582  -7.295  0.00  0.00     0.078 H 
ATOM     45  H   LIG d   1      10.503  -6.699  -5.921  0.00  0.00     0.078 H 
ATOM     46  H   LIG d   1       9.188  -6.939  -7.095  0.00  0.00     0.078 H 
ENDBRANCH  26  43
TORSDOF 3
ENDMDL
MODEL 6
REMARK VINA RESULT:      -6.0      3.592      4.362
REMARK  3 active torsions:
REMARK  status: ('A' for Active; 'I' for Inactive)
REMARK    1  A    between atoms: C_1  and  C_2 
REMARK       I    between atoms: N_15  and  C_16 
REMARK    2  A    between atoms: C_16  and  C_18 
REMARK    3  A    between atoms: C_24  and  N_45 
ROOT
ATOM      1  C   LIG d   1       9.150  -4.511  -3.352  0.00  0.00    -0.050 A 
ATOM      2  C   LIG d   1       8.661  -3.249  -3.068  0.00  0.00    -0.057 A 
ATOM      3  C   LIG d   1       7.653  -2.708  -3.840  0.00  0.00    -0.040 A 
ATOM      4  C   LIG d   1       7.130  -3.421  -4.911  0.00  0.00     0.041 A 
ATOM      5  C   LIG d   1       7.631  -4.697  -5.197  0.00  0.00    -0.016 A 
ATOM      6  C   LIG d   1       8.635  -5.229  -4.416  0.00  0.00    -0.053 A 
ATOM      7  C   LIG d   1       6.878  -5.186  -6.386  0.00  0.00     0.045 C 
ATOM      8  H   LIG d   1       6.019  -5.768  -6.050  0.00  0.00     0.042 H 
ATOM      9  C   LIG d   1       7.588  -5.937  -7.485  0.00  0.00    -0.023 C 
ATOM     10  C   LIG d   1       5.861  -5.105  -9.043  0.00  0.00    -0.030 C 
ATOM     11  C   LIG d   1       5.228  -4.241  -7.933  0.00  0.00     0.007 C 
ATOM     12  C   LIG d   1       6.377  -3.857  -7.014  0.00  0.00     0.048 C 
ATOM     13  H   LIG d   1       7.183  -3.392  -7.582  0.00  0.00     0.051 H 
ATOM     14  N   LIG d   1       6.105  -3.072  -5.825  0.00  0.00    -0.263 N 
ATOM     15  C   LIG d   1       5.096  -2.200  -5.631  0.00  0.00     0.251 C 
ATOM     16  O   LIG d   1       4.351  -1.917  -6.550  0.00  0.00    -0.270 OA
ATOM     17  H   LIG d   1       9.064  -2.689  -2.238  0.00  0.00     0.062 H 
ATOM     18  H   LIG d   1       7.271  -1.724  -3.612  0.00  0.00     0.064 H 
ATOM     19  H   LIG d   1       9.022  -6.214  -4.635  0.00  0.00     0.062 H 
ATOM     20  H   LIG d   1       8.362  -5.309  -7.925  0.00  0.00     0.082 H 
ATOM     21  H   LIG d   1       8.030  -6.850  -7.087  0.00  0.00     0.082 H 
ATOM     22  H   LIG d   1       6.567  -4.496  -9.608  0.00  0.00     0.082 H 
ATOM     23  H   LIG d   1       5.076  -5.449  -9.716  0.00  0.00     0.082 H 
ATOM     24  H   LIG d   1       4.780  -3.347  -8.365  0.00  0.00     0.034 H 
ATOM     25  H   LIG d   1       4.477  -4.817  -7.393  0.00  0.00     0.034 H 
ATOM     26  N   LIG d   1       6.535  -6.308  -8.488  0.00  0.00     0.234 N 
ATOM     27  H   LIG d   1       5.830  -6.888  -8.017  0.00  0.00     0.203 HD
ENDROOT
BRANCH  15  28
ATOM     28  C   LIG d   1       4.892  -1.588  -4.301  0.00  0.00     0.037 A 
ATOM     29  C   LIG d   1       5.329  -0.285  -4.055  0.00  0.00    -0.050 A 
ATOM     30  C   LIG d   1       5.137   0.280  -2.810  0.00  0.00    -0.061 A 
ATOM     31  H   LIG d   1       5.815   0.280  -4.836  0.00  0.00     0.062 H 
ATOM     32  C   LIG d   1       4.514  -0.441  -1.808  0.00  0.00    -0.062 A 
ATOM     33  H   LIG d   1       5.473   1.288  -2.619  0.00  0.00     0.062 H 
ATOM     34  C   LIG d   1       4.079  -1.734  -2.045  0.00  0.00    -0.061 A 
ATOM     35  H   LIG d   1       4.366   0.005  -0.836  0.00  0.00     0.062 H 
ATOM     36  C   LIG d   1       4.260  -2.309  -3.286  0.00  0.00    -0.050 A 
ATOM     37  H   LIG d   1       3.594  -2.292  -1.259  0.00  0.00     0.062 H 
ATOM     38  H   LIG d   1       3.916  -3.315  -3.472  0.00  0.00     0.062 H 
ENDBRANCH  15  28
BRANCH   1  39
ATOM     39  C   LIG d   1      10.245  -5.104  -2.504  0.00  0.00    -0.040 C 
ATOM     40  H   LIG d   1      10.716  -4.316  -1.916  0.00  0.00     0.028 H 
ATOM     41  H   LIG d   1       9.822  -5.853  -1.835  0.00  0.00     0.028 H 
ATOM     42  H   LIG d   1      10.990  -5.571  -3.148  0.00  0.00     0.028 H 
ENDBRANCH   1  39
BRANCH  26  43
ATOM     43  C   LIG d   1       7.139  -7.085  -9.579  0.00  0.00    -0.043 C 
ATOM     44  H   LIG d   1       6.892  -8.136  -9.426  0.00  0.00     0.078 H 
ATOM     45  H   LIG d   1       6.716  -6.745 -10.524  0.00  0.00     0.078 H 
ATOM     46  H   LIG d   1       8.222  -6.967  -9.601  0.00  0.00     0.078 H 
ENDBRANCH  26  43
TORSDOF 3
ENDMDL
MODEL 7
REMARK VINA RESULT:      -5.9      2.814      4.548
REMARK  3 active torsions:
REMARK  status: ('A' for Active; 'I' for Inactive)
REMARK    1  A    between atoms: C_1  and  C_2 
REMARK       I    between atoms: N_15  and  C_16 
REMARK    2  A    between atoms: C_16  and  C_18 
REMARK    3  A    between atoms: C_24  and  N_45 
ROOT
ATOM      1  C   LIG d   1       5.702  -1.851  -8.380  0.00  0.00    -0.050 A 
ATOM      2  C   LIG d   1       5.379  -2.321  -7.120  0.00  0.00    -0.057 A 
ATOM      3  C   LIG d   1       5.770  -1.620  -5.998  0.00  0.00    -0.040 A 
ATOM      4  C   LIG d   1       6.499  -0.445  -6.125  0.00  0.00     0.041 A 
ATOM      5  C   LIG d   1       6.827   0.026  -7.403  0.00  0.00    -0.016 A 
ATOM      6  C   LIG d   1       6.426  -0.681  -8.516  0.00  0.00    -0.053 A 
ATOM      7  C   LIG d   1       7.600   1.283  -7.200  0.00  0.00     0.045 C 
ATOM      8  H   LIG d   1       6.916   2.133  -7.232  0.00  0.00     0.042 H 
ATOM      9  C   LIG d   1       8.807   1.585  -8.053  0.00  0.00    -0.023 C 
ATOM     10  C   LIG d   1       9.686   2.925  -6.175  0.00  0.00    -0.030 C 
ATOM     11  C   LIG d   1       8.509   2.498  -5.274  0.00  0.00     0.007 C 
ATOM     12  C   LIG d   1       8.121   1.106  -5.747  0.00  0.00     0.048 C 
ATOM     13  H   LIG d   1       8.989   0.446  -5.747  0.00  0.00     0.051 H 
ATOM     14  N   LIG d   1       6.997   0.431  -5.128  0.00  0.00    -0.263 N 
ATOM     15  C   LIG d   1       6.527   0.600  -3.876  0.00  0.00     0.251 C 
ATOM     16  O   LIG d   1       7.127   1.310  -3.092  0.00  0.00    -0.270 OA
ATOM     17  H   LIG d   1       4.814  -3.236  -7.015  0.00  0.00     0.062 H 
ATOM     18  H   LIG d   1       5.511  -1.989  -5.017  0.00  0.00     0.064 H 
ATOM     19  H   LIG d   1       6.678  -0.318  -9.502  0.00  0.00     0.062 H 
ATOM     20  H   LIG d   1       9.560   0.809  -7.920  0.00  0.00     0.082 H 
ATOM     21  H   LIG d   1       8.516   1.647  -9.102  0.00  0.00     0.082 H 
ATOM     22  H   LIG d   1      10.528   2.254  -6.000  0.00  0.00     0.082 H 
ATOM     23  H   LIG d   1       9.985   3.940  -5.910  0.00  0.00     0.082 H 
ATOM     24  H   LIG d   1       8.827   2.464  -4.233  0.00  0.00     0.034 H 
ATOM     25  H   LIG d   1       7.677   3.192  -5.392  0.00  0.00     0.034 H 
ATOM     26  N   LIG d   1       9.308   2.928  -7.612  0.00  0.00     0.234 N 
ATOM     27  H   LIG d   1       8.557   3.616  -7.749  0.00  0.00     0.203 HD
ENDROOT
BRANCH  15  28
ATOM     28  C   LIG d   1       5.281  -0.075  -3.456  0.00  0.00     0.037 A 
ATOM     29  C   LIG d   1       5.339  -1.271  -2.737  0.00  0.00    -0.050 A 
ATOM     30  C   LIG d   1       4.172  -1.896  -2.350  0.00  0.00    -0.061 A 
ATOM     31  H   LIG d   1       6.295  -1.704  -2.485  0.00  0.00     0.062 H 
ATOM     32  C   LIG d   1       2.946  -1.342  -2.671  0.00  0.00    -0.062 A 
ATOM     33  H   LIG d   1       4.216  -2.820  -1.793  0.00  0.00     0.062 H 
ATOM     34  C   LIG d   1       2.881  -0.158  -3.385  0.00  0.00    -0.061 A 
ATOM     35  H   LIG d   1       2.036  -1.835  -2.366  0.00  0.00     0.062 H 
ATOM     36  C   LIG d   1       4.040   0.481  -3.774  0.00  0.00    -0.050 A 
ATOM     37  H   LIG d   1       1.921   0.269  -3.633  0.00  0.00     0.062 H 
ATOM     38  H   LIG d   1       3.988   1.408  -4.326  0.00  0.00     0.062 H 
ENDBRANCH  15  28
BRANCH   1  39
ATOM     39  C   LIG d   1       5.267  -2.614  -9.604  0.00  0.00    -0.040 C 
ATOM     40  H   LIG d   1       4.253  -2.986  -9.460  0.00  0.00     0.028 H 
ATOM     41  H   LIG d   1       5.292  -1.955 -10.472  0.00  0.00     0.028 H 
ATOM     42  H   LIG d   1       5.942  -3.455  -9.767  0.00  0.00     0.028 H 
ENDBRANCH   1  39
BRANCH  26  43
ATOM     43  C   LIG d   1      10.466   3.320  -8.428  0.00  0.00    -0.043 C 
ATOM     44  H   LIG d   1      11.183   3.827  -7.782  0.00  0.00     0.078 H 
ATOM     45  H   LIG d   1      10.920   2.421  -8.843  0.00  0.00     0.078 H 
ATOM     46  H   LIG d   1      10.174   3.987  -9.239  0.00  0.00     0.078 H 
ENDBRANCH  26  43
TORSDOF 3
ENDMDL
MODEL 8
REMARK VINA RESULT:      -5.6      7.655     10.112
REMARK  3 active torsions:
REMARK  status: ('A' for Active; 'I' for Inactive)
REMARK    1  A    between atoms: C_1  and  C_2 
REMARK       I    between atoms: N_15  and  C_16 
REMARK    2  A    between atoms: C_16  and  C_18 
REMARK    3  A    between atoms: C_24  and  N_45 
ROOT
ATOM      1  C   LIG d   1       9.418   7.516  -6.822  0.00  0.00    -0.050 A 
ATOM      2  C   LIG d   1       9.869   6.247  -7.136  0.00  0.00    -0.057 A 
ATOM      3  C   LIG d   1      10.202   5.363  -6.131  0.00  0.00    -0.040 A 
ATOM      4  C   LIG d   1      10.097   5.742  -4.800  0.00  0.00     0.041 A 
ATOM      5  C   LIG d   1       9.642   7.029  -4.486  0.00  0.00    -0.016 A 
ATOM      6  C   LIG d   1       9.308   7.903  -5.499  0.00  0.00    -0.053 A 
ATOM      7  C   LIG d   1       9.646   7.124  -2.999  0.00  0.00     0.045 C 
ATOM      8  H   LIG d   1       8.660   6.852  -2.621  0.00  0.00     0.042 H 
ATOM      9  C   LIG d   1      10.111   8.385  -2.314  0.00  0.00    -0.023 C 
ATOM     10  C   LIG d   1      10.753   6.990  -0.380  0.00  0.00    -0.030 C 
ATOM     11  C   LIG d   1      10.395   5.701  -1.149  0.00  0.00     0.007 C 
ATOM     12  C   LIG d   1      10.662   6.014  -2.612  0.00  0.00     0.048 C 
ATOM     13  H   LIG d   1      11.678   6.384  -2.745  0.00  0.00     0.051 H 
ATOM     14  N   LIG d   1      10.375   5.010  -3.619  0.00  0.00    -0.263 N 
ATOM     15  C   LIG d   1      10.372   3.671  -3.464  0.00  0.00     0.251 C 
ATOM     16  O   LIG d   1      10.740   3.179  -2.415  0.00  0.00    -0.270 OA
ATOM     17  H   LIG d   1       9.954   5.947  -8.170  0.00  0.00     0.062 H 
ATOM     18  H   LIG d   1      10.549   4.372  -6.382  0.00  0.00     0.064 H 
ATOM     19  H   LIG d   1       8.957   8.896  -5.257  0.00  0.00     0.062 H 
ATOM     20  H   LIG d   1      11.148   8.591  -2.577  0.00  0.00     0.082 H 
ATOM     21  H   LIG d   1       9.478   9.223  -2.608  0.00  0.00     0.082 H 
ATOM     22  H   LIG d   1      11.818   7.191  -0.502  0.00  0.00     0.082 H 
ATOM     23  H   LIG d   1      10.542   6.842   0.679  0.00  0.00     0.082 H 
ATOM     24  H   LIG d   1      11.031   4.880  -0.819  0.00  0.00     0.034 H 
ATOM     25  H   LIG d   1       9.345   5.452  -0.992  0.00  0.00     0.034 H 
ATOM     26  N   LIG d   1       9.945   8.149  -0.842  0.00  0.00     0.234 N 
ATOM     27  H   LIG d   1       8.955   7.950  -0.655  0.00  0.00     0.203 HD
ENDROOT
BRANCH  15  28
ATOM     28  C   LIG d   1       9.920   2.800  -4.570  0.00  0.00     0.037 A 
ATOM     29  C   LIG d   1      10.855   2.169  -5.392  0.00  0.00    -0.050 A 
ATOM     30  C   LIG d   1      10.426   1.358  -6.423  0.00  0.00    -0.061 A 
ATOM     31  H   LIG d   1      11.911   2.315  -5.222  0.00  0.00     0.062 H 
ATOM     32  C   LIG d   1       9.073   1.169  -6.642  0.00  0.00    -0.062 A 
ATOM     33  H   LIG d   1      11.148   0.868  -7.059  0.00  0.00     0.062 H 
ATOM     34  C   LIG d   1       8.141   1.793  -5.831  0.00  0.00    -0.061 A 
ATOM     35  H   LIG d   1       8.742   0.533  -7.450  0.00  0.00     0.062 H 
ATOM     36  C   LIG d   1       8.556   2.602  -4.793  0.00  0.00    -0.050 A 
ATOM     37  H   LIG d   1       7.086   1.641  -6.007  0.00  0.00     0.062 H 
ATOM     38  H   LIG d   1       7.828   3.083  -4.158  0.00  0.00     0.062 H 
ENDBRANCH  15  28
BRANCH   1  39
ATOM     39  C   LIG d   1       9.047   8.479  -7.920  0.00  0.00    -0.040 C 
ATOM     40  H   LIG d   1       8.823   7.923  -8.831  0.00  0.00     0.028 H 
ATOM     41  H   LIG d   1       8.171   9.054  -7.620  0.00  0.00     0.028 H 
ATOM     42  H   LIG d   1       9.881   9.157  -8.105  0.00  0.00     0.028 H 
ENDBRANCH   1  39
BRANCH  26  43
ATOM     43  C   LIG d   1      10.337   9.353  -0.097  0.00  0.00    -0.043 C 
ATOM     44  H   LIG d   1      11.347   9.206   0.284  0.00  0.00     0.078 H 
ATOM     45  H   LIG d   1      10.325  10.204  -0.779  0.00  0.00     0.078 H 
ATOM     46  H   LIG d   1       9.659   9.546   0.735  0.00  0.00     0.078 H 
ENDBRANCH  26  43
TORSDOF 3
ENDMDL
MODEL 9
REMARK VINA RESULT:      -5.5      2.282      5.973
REMARK  3 active torsions:
REMARK  status: ('A' for Active; 'I' for Inactive)
REMARK    1  A    between atoms: C_1  and  C_2 
REMARK       I    between atoms: N_15  and  C_16 
REMARK    2  A    between atoms: C_16  and  C_18 
REMARK    3  A    between atoms: C_24  and  N_45 
ROOT
ATOM      1  C   LIG d   1       4.346  -1.748  -3.545  0.00  0.00    -0.050 A 
ATOM      2  C   LIG d   1       3.739  -0.858  -4.412  0.00  0.00    -0.057 A 
ATOM      3  C   LIG d   1       4.378  -0.480  -5.574  0.00  0.00    -0.040 A 
ATOM      4  C   LIG d   1       5.636  -0.981  -5.878  0.00  0.00     0.041 A 
ATOM      5  C   LIG d   1       6.249  -1.880  -4.996  0.00  0.00    -0.016 A 
ATOM      6  C   LIG d   1       5.599  -2.254  -3.839  0.00  0.00    -0.053 A 
ATOM      7  C   LIG d   1       7.569  -2.222  -5.596  0.00  0.00     0.045 C 
ATOM      8  H   LIG d   1       7.464  -3.125  -6.199  0.00  0.00     0.042 H 
ATOM      9  C   LIG d   1       8.796  -2.343  -4.728  0.00  0.00    -0.023 C 
ATOM     10  C   LIG d   1      10.143  -1.713  -6.699  0.00  0.00    -0.030 C 
ATOM     11  C   LIG d   1       8.869  -1.467  -7.533  0.00  0.00     0.007 C 
ATOM     12  C   LIG d   1       7.814  -1.010  -6.537  0.00  0.00     0.048 C 
ATOM     13  H   LIG d   1       8.178  -0.163  -5.956  0.00  0.00     0.051 H 
ATOM     14  N   LIG d   1       6.467  -0.740  -7.001  0.00  0.00    -0.263 N 
ATOM     15  C   LIG d   1       6.087  -0.345  -8.232  0.00  0.00     0.251 C 
ATOM     16  O   LIG d   1       6.926  -0.070  -9.069  0.00  0.00    -0.270 OA
ATOM     17  H   LIG d   1       2.761  -0.463  -4.180  0.00  0.00     0.062 H 
ATOM     18  H   LIG d   1       3.897   0.212  -6.250  0.00  0.00     0.064 H 
ATOM     19  H   LIG d   1       6.071  -2.948  -3.158  0.00  0.00     0.062 H 
ATOM     20  H   LIG d   1       8.992  -1.396  -4.226  0.00  0.00     0.082 H 
ATOM     21  H   LIG d   1       8.654  -3.134  -3.990  0.00  0.00     0.082 H 
ATOM     22  H   LIG d   1      10.468  -0.768  -6.261  0.00  0.00     0.082 H 
ATOM     23  H   LIG d   1      10.930  -2.085  -7.355  0.00  0.00     0.082 H 
ATOM     24  H   LIG d   1       9.049  -0.686  -8.271  0.00  0.00     0.034 H 
ATOM     25  H   LIG d   1       8.561  -2.389  -8.026  0.00  0.00     0.034 H 
ATOM     26  N   LIG d   1       9.921  -2.732  -5.641  0.00  0.00     0.234 N 
ATOM     27  H   LIG d   1       9.678  -3.622  -6.093  0.00  0.00     0.203 HD
ENDROOT
BRANCH  15  28
ATOM     28  C   LIG d   1       4.651  -0.248  -8.568  0.00  0.00     0.037 A 
ATOM     29  C   LIG d   1       4.025   0.999  -8.620  0.00  0.00    -0.050 A 
ATOM     30  C   LIG d   1       2.684   1.081  -8.932  0.00  0.00    -0.061 A 
ATOM     31  H   LIG d   1       4.590   1.896  -8.416  0.00  0.00     0.062 H 
ATOM     32  C   LIG d   1       1.959  -0.067  -9.194  0.00  0.00    -0.062 A 
ATOM     33  H   LIG d   1       2.200   2.045  -8.974  0.00  0.00     0.062 H 
ATOM     34  C   LIG d   1       2.573  -1.307  -9.144  0.00  0.00    -0.061 A 
ATOM     35  H   LIG d   1       0.910   0.003  -9.439  0.00  0.00     0.062 H 
ATOM     36  C   LIG d   1       3.915  -1.404  -8.838  0.00  0.00    -0.050 A 
ATOM     37  H   LIG d   1       2.001  -2.200  -9.349  0.00  0.00     0.062 H 
ATOM     38  H   LIG d   1       4.393  -2.371  -8.803  0.00  0.00     0.062 H 
ENDBRANCH  15  28
BRANCH   1  39
ATOM     39  C   LIG d   1       3.644  -2.166  -2.279  0.00  0.00    -0.040 C 
ATOM     40  H   LIG d   1       2.769  -2.765  -2.529  0.00  0.00     0.028 H 
ATOM     41  H   LIG d   1       4.324  -2.755  -1.663  0.00  0.00     0.028 H 
ATOM     42  H   LIG d   1       3.331  -1.279  -1.728  0.00  0.00     0.028 H 
ENDBRANCH   1  39
BRANCH  26  43
ATOM     43  C   LIG d   1      11.154  -2.915  -4.863  0.00  0.00    -0.043 C 
ATOM     44  H   LIG d   1      11.828  -3.551  -5.436  0.00  0.00     0.078 H 
ATOM     45  H   LIG d   1      11.615  -1.941  -4.707  0.00  0.00     0.078 H 
ATOM     46  H   LIG d   1      10.951  -3.380  -3.897  0.00  0.00     0.078 H 
ENDBRANCH  26  43
TORSDOF 3
ENDMDL
MODEL 10
REMARK VINA RESULT:      -5.5      9.404     11.839
REMARK  3 active torsions:
REMARK  status: ('A' for Active; 'I' for Inactive)
REMARK    1  A    between atoms: C_1  and  C_2 
REMARK       I    between atoms: N_15  and  C_16 
REMARK    2  A    between atoms: C_16  and  C_18 
REMARK    3  A    between atoms: C_24  and  N_45 
ROOT
ATOM      1  C   LIG d   1       9.678   4.013  -3.543  0.00  0.00    -0.050 A 
ATOM      2  C   LIG d   1       9.182   4.633  -4.674  0.00  0.00    -0.057 A 
ATOM      3  C   LIG d   1       9.298   6.000  -4.821  0.00  0.00    -0.040 A 
ATOM      4  C   LIG d   1       9.904   6.763  -3.832  0.00  0.00     0.041 A 
ATOM      5  C   LIG d   1      10.402   6.130  -2.685  0.00  0.00    -0.016 A 
ATOM      6  C   LIG d   1      10.284   4.763  -2.552  0.00  0.00    -0.053 A 
ATOM      7  C   LIG d   1      10.977   7.206  -1.830  0.00  0.00     0.045 C 
ATOM      8  H   LIG d   1      12.041   7.306  -2.049  0.00  0.00     0.042 H 
ATOM      9  C   LIG d   1      10.777   7.185  -0.335  0.00  0.00    -0.023 C 
ATOM     10  C   LIG d   1      10.989   9.645  -0.363  0.00  0.00    -0.030 C 
ATOM     11  C   LIG d   1      11.060   9.655  -1.903  0.00  0.00     0.007 C 
ATOM     12  C   LIG d   1      10.232   8.464  -2.356  0.00  0.00     0.048 C 
ATOM     13  H   LIG d   1       9.233   8.506  -1.922  0.00  0.00     0.051 H 
ATOM     14  N   LIG d   1      10.135   8.160  -3.770  0.00  0.00    -0.263 N 
ATOM     15  C   LIG d   1      10.242   9.019  -4.803  0.00  0.00     0.251 C 
ATOM     16  O   LIG d   1      10.330  10.214  -4.594  0.00  0.00    -0.270 OA
ATOM     17  H   LIG d   1       8.708   4.045  -5.447  0.00  0.00     0.062 H 
ATOM     18  H   LIG d   1       8.914   6.479  -5.709  0.00  0.00     0.064 H 
ATOM     19  H   LIG d   1      10.668   4.275  -1.668  0.00  0.00     0.062 H 
ATOM     20  H   LIG d   1       9.714   7.227  -0.102  0.00  0.00     0.082 H 
ATOM     21  H   LIG d   1      11.216   6.280   0.086  0.00  0.00     0.082 H 
ATOM     22  H   LIG d   1       9.956   9.806  -0.054  0.00  0.00     0.082 H 
ATOM     23  H   LIG d   1      11.603  10.458   0.026  0.00  0.00     0.082 H 
ATOM     24  H   LIG d   1      10.632  10.578  -2.292  0.00  0.00     0.034 H 
ATOM     25  H   LIG d   1      12.095   9.553  -2.231  0.00  0.00     0.034 H 
ATOM     26  N   LIG d   1      11.513   8.375   0.204  0.00  0.00     0.234 N 
ATOM     27  H   LIG d   1      12.504   8.288  -0.053  0.00  0.00     0.203 HD
ENDROOT
BRANCH  15  28
ATOM     28  C   LIG d   1      10.254   8.510  -6.191  0.00  0.00     0.037 A 
ATOM     29  C   LIG d   1       9.092   8.555  -6.964  0.00  0.00    -0.050 A 
ATOM     30  C   LIG d   1       9.110   8.077  -8.259  0.00  0.00    -0.061 A 
ATOM     31  H   LIG d   1       8.183   8.963  -6.550  0.00  0.00     0.062 H 
ATOM     32  C   LIG d   1      10.275   7.554  -8.791  0.00  0.00    -0.062 A 
ATOM     33  H   LIG d   1       8.213   8.112  -8.858  0.00  0.00     0.062 H 
ATOM     34  C   LIG d   1      11.430   7.505  -8.029  0.00  0.00    -0.061 A 
ATOM     35  H   LIG d   1      10.284   7.181  -9.804  0.00  0.00     0.062 H 
ATOM     36  C   LIG d   1      11.427   7.985  -6.735  0.00  0.00    -0.050 A 
ATOM     37  H   LIG d   1      12.336   7.096  -8.450  0.00  0.00     0.062 H 
ATOM     38  H   LIG d   1      12.330   7.951  -6.144  0.00  0.00     0.062 H 
ENDBRANCH  15  28
BRANCH   1  39
ATOM     39  C   LIG d   1       9.557   2.518  -3.387  0.00  0.00    -0.040 C 
ATOM     40  H   LIG d   1      10.259   2.175  -2.627  0.00  0.00     0.028 H 
ATOM     41  H   LIG d   1       8.541   2.265  -3.084  0.00  0.00     0.028 H 
ATOM     42  H   LIG d   1       9.784   2.035  -4.337  0.00  0.00     0.028 H 
ENDBRANCH   1  39
BRANCH  26  43
ATOM     43  C   LIG d   1      11.405   8.405   1.670  0.00  0.00    -0.043 C 
ATOM     44  H   LIG d   1      10.617   7.714   1.968  0.00  0.00     0.078 H 
ATOM     45  H   LIG d   1      12.354   8.081   2.096  0.00  0.00     0.078 H 
ATOM     46  H   LIG d   1      11.167   9.406   2.032  0.00  0.00     0.078 H 
ENDBRANCH  26  43
TORSDOF 3
ENDMDL
