MODEL 1
REMARK VINA RESULT:      -4.9      0.000      0.000
REMARK  3 active torsions:
REMARK  status: ('A' for Active; 'I' for Inactive)
REMARK    1  A    between atoms: C_1  and  C_2 
REMARK    2  A    between atoms: CA_3  and  C_13 
REMARK    3  A    between atoms: CA_7  and  N_22 
ROOT
ATOM      1  C   LIG d   1       4.986  -1.300  -3.230  0.00  0.00    -0.040 C 
ATOM      2  CA  LIG d   1       5.460  -0.065  -3.293  0.00  0.00     0.060 C 
ATOM      3  N   LIG d   1       6.633   0.206  -4.019  0.00  0.00    -0.247 N 
ATOM      4  C   LIG d   1       7.224  -0.643  -5.102  0.00  0.00     0.129 C 
ATOM      5  H   LIG d   1       6.785  -0.548  -6.095  0.00  0.00     0.068 H 
ATOM      6  CA  LIG d   1       8.500   0.158  -4.868  0.00  0.00     0.082 C 
ATOM      7  HA  LIG d   1       9.272  -0.396  -4.335  0.00  0.00     0.098 H 
ATOM      8  C   LIG d   1       7.668   1.061  -3.973  0.00  0.00     0.272 C 
ATOM      9  O   LIG d   1       7.861   2.130  -3.432  0.00  0.00    -0.269 OA
ATOM     10  S   LIG d   1       7.233  -2.341  -4.434  0.00  0.00    -0.128 SA
ATOM     11  C   LIG d   1       5.502  -2.529  -3.904  0.00  0.00     0.018 C 
ATOM     12  H   LIG d   1       5.433  -3.369  -3.212  0.00  0.00     0.042 H 
ATOM     13  H   LIG d   1       4.886  -2.740  -4.779  0.00  0.00     0.042 H 
ENDROOT
BRANCH   6  14
ATOM     14  N   LIG d   1       8.986   0.843  -6.078  0.00  0.00     0.229 N 
ATOM     15  H1  LIG d   1       9.749   0.314  -6.497  0.00  0.00     0.200 HD
ATOM     16  H2  LIG d   1       8.229   0.937  -6.754  0.00  0.00     0.200 HD
ATOM     17  H3  LIG d   1       9.326   1.778  -5.824  0.00  0.00     0.200 HD
ENDBRANCH   6  14
BRANCH   2  18
ATOM     18  C   LIG d   1       4.759   1.027  -2.595  0.00  0.00     0.086 C 
ATOM     19  O   LIG d   1       4.957   1.218  -1.412  0.00  0.00    -0.543 OA
ATOM     20  OXT LIG d   1       3.897   1.814  -3.270  0.00  0.00    -0.543 OA
ENDBRANCH   2  18
BRANCH   1  21
ATOM     21  C   LIG d   1       3.761  -1.490  -2.371  0.00  0.00    -0.041 C 
ATOM     22  H   LIG d   1       3.016  -0.739  -2.632  0.00  0.00     0.028 H 
ATOM     23  H   LIG d   1       3.350  -2.485  -2.539  0.00  0.00     0.028 H 
ATOM     24  H   LIG d   1       4.035  -1.382  -1.321  0.00  0.00     0.028 H 
ENDBRANCH   1  21
TORSDOF 3
ENDMDL
MODEL 2
REMARK VINA RESULT:      -4.5      3.001      4.017
REMARK  3 active torsions:
REMARK  status: ('A' for Active; 'I' for Inactive)
REMARK    1  A    between atoms: C_1  and  C_2 
REMARK    2  A    between atoms: CA_3  and  C_13 
REMARK    3  A    between atoms: CA_7  and  N_22 
ROOT
ATOM      1  C   LIG d   1       6.216  -1.539  -4.343  0.00  0.00    -0.040 C 
ATOM      2  CA  LIG d   1       4.923  -1.313  -4.169  0.00  0.00     0.060 C 
ATOM      3  N   LIG d   1       4.136  -0.848  -5.237  0.00  0.00    -0.247 N 
ATOM      4  C   LIG d   1       4.462  -0.956  -6.694  0.00  0.00     0.129 C 
ATOM      5  H   LIG d   1       4.254  -1.912  -7.175  0.00  0.00     0.068 H 
ATOM      6  CA  LIG d   1       3.403   0.123  -6.889  0.00  0.00     0.082 C 
ATOM      7  HA  LIG d   1       3.816   1.107  -7.109  0.00  0.00     0.098 H 
ATOM      8  C   LIG d   1       3.051  -0.078  -5.425  0.00  0.00     0.272 C 
ATOM      9  O   LIG d   1       2.149   0.304  -4.709  0.00  0.00    -0.269 OA
ATOM     10  S   LIG d   1       6.190  -0.391  -6.847  0.00  0.00    -0.128 SA
ATOM     11  C   LIG d   1       7.019  -1.425  -5.598  0.00  0.00     0.018 C 
ATOM     12  H   LIG d   1       7.988  -0.985  -5.361  0.00  0.00     0.042 H 
ATOM     13  H   LIG d   1       7.174  -2.422  -6.012  0.00  0.00     0.042 H 
ENDROOT
BRANCH   6  14
ATOM     14  N   LIG d   1       2.319  -0.285  -7.799  0.00  0.00     0.229 N 
ATOM     15  H1  LIG d   1       1.887   0.536  -8.219  0.00  0.00     0.200 HD
ATOM     16  H2  LIG d   1       2.687  -0.887  -8.535  0.00  0.00     0.200 HD
ATOM     17  H3  LIG d   1       1.609  -0.803  -7.268  0.00  0.00     0.200 HD
ENDBRANCH   6  14
BRANCH   2  18
ATOM     18  C   LIG d   1       4.308  -1.547  -2.851  0.00  0.00     0.086 C 
ATOM     19  O   LIG d   1       3.777  -2.613  -2.608  0.00  0.00    -0.543 OA
ATOM     20  OXT LIG d   1       4.333  -0.578  -1.914  0.00  0.00    -0.543 OA
ENDBRANCH   2  18
BRANCH   1  21
ATOM     21  C   LIG d   1       6.977  -1.973  -3.117  0.00  0.00    -0.041 C 
ATOM     22  H   LIG d   1       6.729  -3.007  -2.882  0.00  0.00     0.028 H 
ATOM     23  H   LIG d   1       8.047  -1.889  -3.305  0.00  0.00     0.028 H 
ATOM     24  H   LIG d   1       6.705  -1.334  -2.276  0.00  0.00     0.028 H 
ENDBRANCH   1  21
TORSDOF 3
ENDMDL
MODEL 3
REMARK VINA RESULT:      -4.5      2.637      3.431
REMARK  3 active torsions:
REMARK  status: ('A' for Active; 'I' for Inactive)
REMARK    1  A    between atoms: C_1  and  C_2 
REMARK    2  A    between atoms: CA_3  and  C_13 
REMARK    3  A    between atoms: CA_7  and  N_22 
ROOT
ATOM      1  C   LIG d   1       4.020  -0.475  -6.487  0.00  0.00    -0.040 C 
ATOM      2  CA  LIG d   1       4.110  -0.464  -5.165  0.00  0.00     0.060 C 
ATOM      3  N   LIG d   1       5.170  -1.127  -4.523  0.00  0.00    -0.247 N 
ATOM      4  C   LIG d   1       6.479  -1.514  -5.140  0.00  0.00     0.129 C 
ATOM      5  H   LIG d   1       7.235  -0.733  -5.220  0.00  0.00     0.068 H 
ATOM      6  CA  LIG d   1       6.627  -2.452  -3.946  0.00  0.00     0.082 C 
ATOM      7  HA  LIG d   1       6.467  -3.501  -4.192  0.00  0.00     0.098 H 
ATOM      8  C   LIG d   1       5.402  -1.767  -3.365  0.00  0.00     0.272 C 
ATOM      9  O   LIG d   1       4.851  -1.789  -2.284  0.00  0.00    -0.269 OA
ATOM     10  S   LIG d   1       6.050  -2.321  -6.718  0.00  0.00    -0.128 SA
ATOM     11  C   LIG d   1       4.964  -1.073  -7.478  0.00  0.00     0.018 C 
ATOM     12  H   LIG d   1       4.389  -1.543  -8.277  0.00  0.00     0.042 H 
ATOM     13  H   LIG d   1       5.581  -0.281  -7.903  0.00  0.00     0.042 H 
ENDROOT
BRANCH   6  14
ATOM     14  N   LIG d   1       7.848  -2.203  -3.160  0.00  0.00     0.229 N 
ATOM     15  H1  LIG d   1       8.018  -1.202  -3.085  0.00  0.00     0.200 HD
ATOM     16  H2  LIG d   1       7.750  -2.601  -2.227  0.00  0.00     0.200 HD
ATOM     17  H3  LIG d   1       8.648  -2.645  -3.629  0.00  0.00     0.200 HD
ENDBRANCH   6  14
BRANCH   2  18
ATOM     18  C   LIG d   1       3.093   0.241  -4.365  0.00  0.00     0.086 C 
ATOM     19  O   LIG d   1       2.150  -0.372  -3.906  0.00  0.00    -0.543 OA
ATOM     20  OXT LIG d   1       3.209   1.565  -4.145  0.00  0.00    -0.543 OA
ENDBRANCH   2  18
BRANCH   1  21
ATOM     21  C   LIG d   1       2.809   0.209  -7.066  0.00  0.00    -0.041 C 
ATOM     22  H   LIG d   1       2.104   0.439  -6.268  0.00  0.00     0.028 H 
ATOM     23  H   LIG d   1       3.114   1.132  -7.559  0.00  0.00     0.028 H 
ATOM     24  H   LIG d   1       2.333  -0.450  -7.793  0.00  0.00     0.028 H 
ENDBRANCH   1  21
TORSDOF 3
ENDMDL
MODEL 4
REMARK VINA RESULT:      -4.5      3.051      3.679
REMARK  3 active torsions:
REMARK  status: ('A' for Active; 'I' for Inactive)
REMARK    1  A    between atoms: C_1  and  C_2 
REMARK    2  A    between atoms: CA_3  and  C_13 
REMARK    3  A    between atoms: CA_7  and  N_22 
ROOT
ATOM      1  C   LIG d   1       3.178  -0.083  -4.414  0.00  0.00    -0.040 C 
ATOM      2  CA  LIG d   1       4.209  -0.444  -5.162  0.00  0.00     0.060 C 
ATOM      3  N   LIG d   1       5.394  -0.900  -4.560  0.00  0.00    -0.247 N 
ATOM      4  C   LIG d   1       5.534  -1.442  -3.171  0.00  0.00     0.129 C 
ATOM      5  H   LIG d   1       5.252  -2.484  -3.019  0.00  0.00     0.068 H 
ATOM      6  CA  LIG d   1       7.027  -1.185  -3.349  0.00  0.00     0.082 C 
ATOM      7  HA  LIG d   1       7.390  -0.319  -2.797  0.00  0.00     0.098 H 
ATOM      8  C   LIG d   1       6.715  -0.893  -4.808  0.00  0.00     0.272 C 
ATOM      9  O   LIG d   1       7.390  -0.721  -5.801  0.00  0.00    -0.269 OA
ATOM     10  S   LIG d   1       4.659  -0.254  -2.098  0.00  0.00    -0.128 SA
ATOM     11  C   LIG d   1       3.042  -0.143  -2.927  0.00  0.00     0.018 C 
ATOM     12  H   LIG d   1       2.528   0.755  -2.582  0.00  0.00     0.042 H 
ATOM     13  H   LIG d   1       2.448  -1.017  -2.659  0.00  0.00     0.042 H 
ENDROOT
BRANCH   6  14
ATOM     14  N   LIG d   1       7.850  -2.394  -3.171  0.00  0.00     0.229 N 
ATOM     15  H1  LIG d   1       8.630  -2.385  -3.826  0.00  0.00     0.200 HD
ATOM     16  H2  LIG d   1       8.208  -2.435  -2.218  0.00  0.00     0.200 HD
ATOM     17  H3  LIG d   1       7.273  -3.224  -3.348  0.00  0.00     0.200 HD
ENDBRANCH   6  14
BRANCH   2  18
ATOM     18  C   LIG d   1       4.115  -0.363  -6.630  0.00  0.00     0.086 C 
ATOM     19  O   LIG d   1       3.761  -1.332  -7.271  0.00  0.00    -0.543 OA
ATOM     20  OXT LIG d   1       4.423   0.787  -7.262  0.00  0.00    -0.543 OA
ENDBRANCH   2  18
BRANCH   1  21
ATOM     21  C   LIG d   1       1.982   0.452  -5.159  0.00  0.00    -0.041 C 
ATOM     22  H   LIG d   1       1.869  -0.086  -6.099  0.00  0.00     0.028 H 
ATOM     23  H   LIG d   1       1.086   0.319  -4.553  0.00  0.00     0.028 H 
ATOM     24  H   LIG d   1       2.128   1.514  -5.363  0.00  0.00     0.028 H 
ENDBRANCH   1  21
TORSDOF 3
ENDMDL
MODEL 5
REMARK VINA RESULT:      -4.5      3.980      4.599
REMARK  3 active torsions:
REMARK  status: ('A' for Active; 'I' for Inactive)
REMARK    1  A    between atoms: C_1  and  C_2 
REMARK    2  A    between atoms: CA_3  and  C_13 
REMARK    3  A    between atoms: CA_7  and  N_22 
ROOT
ATOM      1  C   LIG d   1       3.724  -1.483  -3.432  0.00  0.00    -0.040 C 
ATOM      2  CA  LIG d   1       4.340  -1.907  -4.525  0.00  0.00     0.060 C 
ATOM      3  N   LIG d   1       4.260  -1.165  -5.715  0.00  0.00    -0.247 N 
ATOM      4  C   LIG d   1       3.910   0.286  -5.836  0.00  0.00     0.129 C 
ATOM      5  H   LIG d   1       4.707   1.003  -5.638  0.00  0.00     0.068 H 
ATOM      6  CA  LIG d   1       3.653  -0.021  -7.307  0.00  0.00     0.082 C 
ATOM      7  HA  LIG d   1       2.596  -0.057  -7.568  0.00  0.00     0.098 H 
ATOM      8  C   LIG d   1       4.264  -1.386  -7.041  0.00  0.00     0.272 C 
ATOM      9  O   LIG d   1       4.615  -2.310  -7.745  0.00  0.00    -0.269 OA
ATOM     10  S   LIG d   1       2.417   0.510  -4.812  0.00  0.00    -0.128 SA
ATOM     11  C   LIG d   1       2.950  -0.221  -3.232  0.00  0.00     0.018 C 
ATOM     12  H   LIG d   1       2.070  -0.437  -2.627  0.00  0.00     0.042 H 
ATOM     13  H   LIG d   1       3.575   0.500  -2.704  0.00  0.00     0.042 H 
ENDROOT
BRANCH   6  14
ATOM     14  N   LIG d   1       4.465   0.800  -8.223  0.00  0.00     0.229 N 
ATOM     15  H1  LIG d   1       4.280   1.789  -8.062  0.00  0.00     0.200 HD
ATOM     16  H2  LIG d   1       5.456   0.612  -8.075  0.00  0.00     0.200 HD
ATOM     17  H3  LIG d   1       4.221   0.567  -9.192  0.00  0.00     0.200 HD
ENDBRANCH   6  14
BRANCH   2  18
ATOM     18  C   LIG d   1       5.108  -3.164  -4.494  0.00  0.00     0.086 C 
ATOM     19  O   LIG d   1       6.298  -3.143  -4.250  0.00  0.00    -0.543 OA
ATOM     20  OXT LIG d   1       4.490  -4.338  -4.737  0.00  0.00    -0.543 OA
ENDBRANCH   2  18
BRANCH   1  21
ATOM     21  C   LIG d   1       3.821  -2.389  -2.231  0.00  0.00    -0.041 C 
ATOM     22  H   LIG d   1       4.439  -3.252  -2.476  0.00  0.00     0.028 H 
ATOM     23  H   LIG d   1       4.269  -1.844  -1.400  0.00  0.00     0.028 H 
ATOM     24  H   LIG d   1       2.822  -2.725  -1.949  0.00  0.00     0.028 H 
ENDBRANCH   1  21
TORSDOF 3
ENDMDL
MODEL 6
REMARK VINA RESULT:      -4.4      2.894      3.457
REMARK  3 active torsions:
REMARK  status: ('A' for Active; 'I' for Inactive)
REMARK    1  A    between atoms: C_1  and  C_2 
REMARK    2  A    between atoms: CA_3  and  C_13 
REMARK    3  A    between atoms: CA_7  and  N_22 
ROOT
ATOM      1  C   LIG d   1       4.899  -1.636  -3.785  0.00  0.00    -0.040 C 
ATOM      2  CA  LIG d   1       4.129  -0.886  -4.559  0.00  0.00     0.060 C 
ATOM      3  N   LIG d   1       4.279  -0.925  -5.956  0.00  0.00    -0.247 N 
ATOM      4  C   LIG d   1       4.921  -2.020  -6.751  0.00  0.00     0.129 C 
ATOM      5  H   LIG d   1       4.311  -2.899  -6.958  0.00  0.00     0.068 H 
ATOM      6  CA  LIG d   1       4.999  -0.994  -7.876  0.00  0.00     0.082 C 
ATOM      7  HA  LIG d   1       6.003  -0.604  -8.043  0.00  0.00     0.098 H 
ATOM      8  C   LIG d   1       4.133  -0.099  -7.006  0.00  0.00     0.272 C 
ATOM      9  O   LIG d   1       3.543   0.945  -7.187  0.00  0.00    -0.269 OA
ATOM     10  S   LIG d   1       6.498  -2.372  -5.904  0.00  0.00    -0.128 SA
ATOM     11  C   LIG d   1       5.937  -2.632  -4.191  0.00  0.00     0.018 C 
ATOM     12  H   LIG d   1       6.793  -2.545  -3.521  0.00  0.00     0.042 H 
ATOM     13  H   LIG d   1       5.519  -3.635  -4.105  0.00  0.00     0.042 H 
ENDROOT
BRANCH   6  14
ATOM     14  N   LIG d   1       4.317  -1.429  -9.108  0.00  0.00     0.229 N 
ATOM     15  H1  LIG d   1       4.445  -2.430  -9.243  0.00  0.00     0.200 HD
ATOM     16  H2  LIG d   1       3.321  -1.219  -9.048  0.00  0.00     0.200 HD
ATOM     17  H3  LIG d   1       4.717  -0.928  -9.910  0.00  0.00     0.200 HD
ENDBRANCH   6  14
BRANCH   2  18
ATOM     18  C   LIG d   1       3.116  -0.005  -3.953  0.00  0.00     0.086 C 
ATOM     19  O   LIG d   1       2.043  -0.460  -3.609  0.00  0.00    -0.543 OA
ATOM     20  OXT LIG d   1       3.378   1.306  -3.782  0.00  0.00    -0.543 OA
ENDBRANCH   2  18
BRANCH   1  21
ATOM     21  C   LIG d   1       4.699  -1.468  -2.301  0.00  0.00    -0.041 C 
ATOM     22  H   LIG d   1       4.311  -0.471  -2.097  0.00  0.00     0.028 H 
ATOM     23  H   LIG d   1       3.991  -2.214  -1.943  0.00  0.00     0.028 H 
ATOM     24  H   LIG d   1       5.653  -1.598  -1.789  0.00  0.00     0.028 H 
ENDBRANCH   1  21
TORSDOF 3
ENDMDL
MODEL 7
REMARK VINA RESULT:      -4.4      2.745      3.470
REMARK  3 active torsions:
REMARK  status: ('A' for Active; 'I' for Inactive)
REMARK    1  A    between atoms: C_1  and  C_2 
REMARK    2  A    between atoms: CA_3  and  C_13 
REMARK    3  A    between atoms: CA_7  and  N_22 
ROOT
ATOM      1  C   LIG d   1       5.361   0.227  -2.943  0.00  0.00    -0.040 C 
ATOM      2  CA  LIG d   1       4.885  -0.948  -3.327  0.00  0.00     0.060 C 
ATOM      3  N   LIG d   1       5.562  -1.701  -4.301  0.00  0.00    -0.247 N 
ATOM      4  C   LIG d   1       7.000  -1.561  -4.692  0.00  0.00     0.129 C 
ATOM      5  H   LIG d   1       7.734  -2.044  -4.047  0.00  0.00     0.068 H 
ATOM      6  CA  LIG d   1       6.612  -2.340  -5.944  0.00  0.00     0.082 C 
ATOM      7  HA  LIG d   1       6.551  -1.724  -6.840  0.00  0.00     0.098 H 
ATOM      8  C   LIG d   1       5.269  -2.579  -5.275  0.00  0.00     0.272 C 
ATOM      9  O   LIG d   1       4.312  -3.284  -5.522  0.00  0.00    -0.269 OA
ATOM     10  S   LIG d   1       7.264   0.228  -4.934  0.00  0.00    -0.128 SA
ATOM     11  C   LIG d   1       6.624   0.902  -3.368  0.00  0.00     0.018 C 
ATOM     12  H   LIG d   1       6.432   1.967  -3.494  0.00  0.00     0.042 H 
ATOM     13  H   LIG d   1       7.378   0.766  -2.593  0.00  0.00     0.042 H 
ENDROOT
BRANCH   6  14
ATOM     14  N   LIG d   1       7.391  -3.578  -6.123  0.00  0.00     0.229 N 
ATOM     15  H1  LIG d   1       8.289  -3.497  -5.650  0.00  0.00     0.200 HD
ATOM     16  H2  LIG d   1       6.877  -4.372  -5.744  0.00  0.00     0.200 HD
ATOM     17  H3  LIG d   1       7.553  -3.732  -7.125  0.00  0.00     0.200 HD
ENDBRANCH   6  14
BRANCH   2  18
ATOM     18  C   LIG d   1       3.639  -1.464  -2.733  0.00  0.00     0.086 C 
ATOM     19  O   LIG d   1       3.679  -2.388  -1.945  0.00  0.00    -0.543 OA
ATOM     20  OXT LIG d   1       2.455  -0.912  -3.066  0.00  0.00    -0.543 OA
ENDBRANCH   2  18
BRANCH   1  21
ATOM     21  C   LIG d   1       4.522   0.980  -1.942  0.00  0.00    -0.041 C 
ATOM     22  H   LIG d   1       4.676   2.050  -2.071  0.00  0.00     0.028 H 
ATOM     23  H   LIG d   1       3.470   0.742  -2.098  0.00  0.00     0.028 H 
ATOM     24  H   LIG d   1       4.815   0.689  -0.933  0.00  0.00     0.028 H 
ENDBRANCH   1  21
TORSDOF 3
ENDMDL
MODEL 8
REMARK VINA RESULT:      -4.4      3.218      4.532
REMARK  3 active torsions:
REMARK  status: ('A' for Active; 'I' for Inactive)
REMARK    1  A    between atoms: C_1  and  C_2 
REMARK    2  A    between atoms: CA_3  and  C_13 
REMARK    3  A    between atoms: CA_7  and  N_22 
ROOT
ATOM      1  C   LIG d   1       4.668  -2.074  -5.934  0.00  0.00    -0.040 C 
ATOM      2  CA  LIG d   1       4.215  -0.830  -5.924  0.00  0.00     0.060 C 
ATOM      3  N   LIG d   1       3.970  -0.176  -4.703  0.00  0.00    -0.247 N 
ATOM      4  C   LIG d   1       4.545  -0.541  -3.369  0.00  0.00     0.129 C 
ATOM      5  H   LIG d   1       5.558  -0.197  -3.160  0.00  0.00     0.068 H 
ATOM      6  CA  LIG d   1       3.426   0.317  -2.787  0.00  0.00     0.082 C 
ATOM      7  HA  LIG d   1       2.621  -0.262  -2.337  0.00  0.00     0.098 H 
ATOM      8  C   LIG d   1       3.138   0.758  -4.213  0.00  0.00     0.272 C 
ATOM      9  O   LIG d   1       2.436   1.614  -4.710  0.00  0.00    -0.269 OA
ATOM     10  S   LIG d   1       4.308  -2.343  -3.217  0.00  0.00    -0.128 SA
ATOM     11  C   LIG d   1       5.043  -2.936  -4.773  0.00  0.00     0.018 C 
ATOM     12  H   LIG d   1       4.700  -3.954  -4.961  0.00  0.00     0.042 H 
ATOM     13  H   LIG d   1       6.128  -2.942  -4.670  0.00  0.00     0.042 H 
ENDROOT
BRANCH   6  14
ATOM     14  N   LIG d   1       3.918   1.415  -1.937  0.00  0.00     0.229 N 
ATOM     15  H1  LIG d   1       4.916   1.553  -2.087  0.00  0.00     0.200 HD
ATOM     16  H2  LIG d   1       3.420   2.277  -2.156  0.00  0.00     0.200 HD
ATOM     17  H3  LIG d   1       3.757   1.177  -0.951  0.00  0.00     0.200 HD
ENDBRANCH   6  14
BRANCH   2  18
ATOM     18  C   LIG d   1       3.962  -0.130  -7.195  0.00  0.00     0.086 C 
ATOM     19  O   LIG d   1       4.788   0.643  -7.638  0.00  0.00    -0.543 OA
ATOM     20  OXT LIG d   1       2.813  -0.346  -7.867  0.00  0.00    -0.543 OA
ENDBRANCH   2  18
BRANCH   1  21
ATOM     21  C   LIG d   1       4.832  -2.701  -7.295  0.00  0.00    -0.041 C 
ATOM     22  H   LIG d   1       5.732  -2.310  -7.769  0.00  0.00     0.028 H 
ATOM     23  H   LIG d   1       4.918  -3.782  -7.189  0.00  0.00     0.028 H 
ATOM     24  H   LIG d   1       3.964  -2.464  -7.910  0.00  0.00     0.028 H 
ENDBRANCH   1  21
TORSDOF 3
ENDMDL
MODEL 9
REMARK VINA RESULT:      -4.2      1.714      2.251
REMARK  3 active torsions:
REMARK  status: ('A' for Active; 'I' for Inactive)
REMARK    1  A    between atoms: C_1  and  C_2 
REMARK    2  A    between atoms: CA_3  and  C_13 
REMARK    3  A    between atoms: CA_7  and  N_22 
ROOT
ATOM      1  C   LIG d   1       5.602  -2.484  -4.635  0.00  0.00    -0.040 C 
ATOM      2  CA  LIG d   1       5.173  -1.377  -4.049  0.00  0.00     0.060 C 
ATOM      3  N   LIG d   1       5.991  -0.234  -4.010  0.00  0.00    -0.247 N 
ATOM      4  C   LIG d   1       7.150   0.060  -4.911  0.00  0.00     0.129 C 
ATOM      5  H   LIG d   1       6.917   0.464  -5.896  0.00  0.00     0.068 H 
ATOM      6  CA  LIG d   1       7.554   1.086  -3.858  0.00  0.00     0.082 C 
ATOM      7  HA  LIG d   1       8.405   0.778  -3.251  0.00  0.00     0.098 H 
ATOM      8  C   LIG d   1       6.208   0.819  -3.204  0.00  0.00     0.272 C 
ATOM      9  O   LIG d   1       5.580   1.346  -2.310  0.00  0.00    -0.269 OA
ATOM     10  S   LIG d   1       8.145  -1.469  -4.934  0.00  0.00    -0.128 SA
ATOM     11  C   LIG d   1       6.886  -2.712  -5.364  0.00  0.00     0.018 C 
ATOM     12  H   LIG d   1       7.266  -3.702  -5.112  0.00  0.00     0.042 H 
ATOM     13  H   LIG d   1       6.698  -2.666  -6.437  0.00  0.00     0.042 H 
ENDROOT
BRANCH   6  14
ATOM     14  N   LIG d   1       7.668   2.454  -4.394  0.00  0.00     0.229 N 
ATOM     15  H1  LIG d   1       7.703   2.429  -5.411  0.00  0.00     0.200 HD
ATOM     16  H2  LIG d   1       6.869   3.014  -4.097  0.00  0.00     0.200 HD
ATOM     17  H3  LIG d   1       8.529   2.885  -4.039  0.00  0.00     0.200 HD
ENDBRANCH   6  14
BRANCH   2  18
ATOM     18  C   LIG d   1       3.835  -1.344  -3.433  0.00  0.00     0.086 C 
ATOM     19  O   LIG d   1       3.661  -1.829  -2.332  0.00  0.00    -0.543 OA
ATOM     20  OXT LIG d   1       2.804  -0.776  -4.089  0.00  0.00    -0.543 OA
ENDBRANCH   2  18
BRANCH   1  21
ATOM     21  C   LIG d   1       4.672  -3.668  -4.561  0.00  0.00    -0.041 C 
ATOM     22  H   LIG d   1       4.136  -3.650  -3.614  0.00  0.00     0.028 H 
ATOM     23  H   LIG d   1       3.959  -3.621  -5.384  0.00  0.00     0.028 H 
ATOM     24  H   LIG d   1       5.251  -4.589  -4.634  0.00  0.00     0.028 H 
ENDBRANCH   1  21
TORSDOF 3
ENDMDL
