MODEL 1
REMARK VINA RESULT:      -7.3      0.000      0.000
REMARK  5 active torsions:
REMARK  status: ('A' for Active; 'I' for Inactive)
REMARK    1  A    between atoms: C_1  and  N_2 
REMARK    2  A    between atoms: C_9  and  O_29 
REMARK    3  A    between atoms: C_11  and  C_13 
REMARK    4  A    between atoms: N_18  and  C_21 
REMARK    5  A    between atoms: O_29  and  C_30 
ROOT
ATOM      1  N   LIG d   1       4.006  -0.357  -3.444  0.00  0.00     0.242 N 
ATOM      2  C   LIG d   1       4.425   0.366  -2.233  0.00  0.00    -0.027 C 
ATOM      3  C   LIG d   1       5.447   1.430  -2.631  0.00  0.00     0.013 C 
ATOM      4  C   LIG d   1       6.530   0.813  -3.478  0.00  0.00    -0.026 A 
ATOM      5  C   LIG d   1       7.718   1.510  -3.642  0.00  0.00    -0.012 A 
ATOM      6  C   LIG d   1       8.740   0.986  -4.415  0.00  0.00     0.170 A 
ATOM      7  C   LIG d   1       8.574  -0.250  -5.031  0.00  0.00     0.208 A 
ATOM      8  C   LIG d   1       7.386  -0.946  -4.863  0.00  0.00     0.174 A 
ATOM      9  C   LIG d   1       6.363  -0.415  -4.084  0.00  0.00     0.054 A 
ATOM     10  C   LIG d   1       5.094  -1.212  -3.928  0.00  0.00     0.041 C 
ATOM     11  H   LIG d   1       5.247  -2.003  -3.179  0.00  0.00     0.096 H 
ATOM     12  O   LIG d   1       9.712  -0.548  -5.729  0.00  0.00    -0.449 OA
ATOM     13  C   LIG d   1      10.723   0.330  -5.203  0.00  0.00     0.233 C 
ATOM     14  O   LIG d   1       9.979   1.467  -4.726  0.00  0.00    -0.453 OA
ATOM     15  H   LIG d   1       3.549   0.841  -1.768  0.00  0.00     0.082 H 
ATOM     16  H   LIG d   1       4.877  -0.342  -1.523  0.00  0.00     0.082 H 
ATOM     17  H   LIG d   1       4.946   2.223  -3.206  0.00  0.00     0.036 H 
ATOM     18  H   LIG d   1       5.898   1.863  -1.726  0.00  0.00     0.036 H 
ATOM     19  H   LIG d   1       7.846   2.470  -3.163  0.00  0.00     0.066 H 
ATOM     20  H   LIG d   1      11.267  -0.180  -4.395  0.00  0.00     0.117 H 
ATOM     21  H   LIG d   1      11.428   0.601  -6.005  0.00  0.00     0.117 H 
ATOM     22  H   LIG d   1       3.772   0.380  -4.228  0.00  0.00     0.204 HD
ENDROOT
BRANCH  10  23
ATOM     23  C   LIG d   1       4.710  -1.801  -5.260  0.00  0.00     0.078 A 
ATOM     24  C   LIG d   1       4.538  -0.971  -6.383  0.00  0.00     0.267 A 
ATOM     25  N   LIG d   1       4.194  -1.518  -7.566  0.00  0.00    -0.255 N 
ATOM     26  O   LIG d   1       4.699   0.232  -6.286  0.00  0.00    -0.267 OA
ATOM     27  C   LIG d   1       4.015  -2.847  -7.678  0.00  0.00     0.165 A 
ATOM     28  N   LIG d   1       4.174  -3.658  -6.616  0.00  0.00    -0.347 N 
ATOM     29  S   LIG d   1       3.577  -3.514  -9.193  0.00  0.00    -0.013 SA
ATOM     30  C   LIG d   1       4.528  -3.145  -5.396  0.00  0.00    -0.023 A 
ATOM     31  H   LIG d   1       4.017  -4.742  -6.734  0.00  0.00     0.167 HD
ATOM     32  O   LIG d   1       4.693  -3.964  -4.335  0.00  0.00    -0.861 OA
BRANCH  25  33
ATOM     33  C   LIG d   1       4.023  -0.696  -8.688  0.00  0.00     0.070 A 
ATOM     34  C   LIG d   1       5.108  -0.397  -9.502  0.00  0.00     0.065 A 
ATOM     35  C   LIG d   1       4.937   0.414 -10.608  0.00  0.00    -0.041 A 
ATOM     36 CL   LIG d   1       6.676  -1.043  -9.133  0.00  0.00    -0.081 Cl
ATOM     37  C   LIG d   1       3.688   0.928 -10.903  0.00  0.00    -0.060 A 
ATOM     38  H   LIG d   1       5.780   0.647 -11.243  0.00  0.00     0.063 H 
ATOM     39  C   LIG d   1       2.606   0.632 -10.094  0.00  0.00    -0.060 A 
ATOM     40  H   LIG d   1       3.556   1.562 -11.768  0.00  0.00     0.062 H 
ATOM     41  C   LIG d   1       2.769  -0.182  -8.990  0.00  0.00    -0.036 A 
ATOM     42  H   LIG d   1       1.631   1.035 -10.328  0.00  0.00     0.062 H 
ATOM     43  H   LIG d   1       1.924  -0.416  -8.361  0.00  0.00     0.064 H 
ENDBRANCH  25  33
ENDBRANCH  10  23
BRANCH   1  44
ATOM     44  C   LIG d   1       2.790  -1.142  -3.196  0.00  0.00    -0.042 C 
ATOM     45  H   LIG d   1       3.019  -2.213  -3.291  0.00  0.00     0.078 H 
ATOM     46  H   LIG d   1       2.019  -0.865  -3.931  0.00  0.00     0.078 H 
ATOM     47  H   LIG d   1       2.420  -0.935  -2.181  0.00  0.00     0.078 H 
ENDBRANCH   1  44
BRANCH   8  48
ATOM     48  O   LIG d   1       7.221  -2.156  -5.462  0.00  0.00    -0.491 OA
BRANCH  48  49
ATOM     49  C   LIG d   1       8.075  -3.217  -5.030  0.00  0.00     0.079 C 
ATOM     50  H   LIG d   1       8.625  -3.620  -5.893  0.00  0.00     0.066 H 
ATOM     51  H   LIG d   1       7.468  -4.015  -4.577  0.00  0.00     0.066 H 
ATOM     52  H   LIG d   1       8.789  -2.833  -4.286  0.00  0.00     0.066 H 
ENDBRANCH  48  49
ENDBRANCH   8  48
TORSDOF 5
ENDMDL
MODEL 2
REMARK VINA RESULT:      -7.2      3.020      6.718
REMARK  5 active torsions:
REMARK  status: ('A' for Active; 'I' for Inactive)
REMARK    1  A    between atoms: C_1  and  N_2 
REMARK    2  A    between atoms: C_9  and  O_29 
REMARK    3  A    between atoms: C_11  and  C_13 
REMARK    4  A    between atoms: N_18  and  C_21 
REMARK    5  A    between atoms: O_29  and  C_30 
ROOT
ATOM      1  N   LIG d   1       5.522   1.467  -8.632  0.00  0.00     0.242 N 
ATOM      2  C   LIG d   1       4.792   2.144  -9.715  0.00  0.00    -0.027 C 
ATOM      3  C   LIG d   1       3.331   1.697  -9.670  0.00  0.00     0.013 C 
ATOM      4  C   LIG d   1       3.254   0.192  -9.619  0.00  0.00    -0.026 A 
ATOM      5  C   LIG d   1       2.048  -0.418  -9.929  0.00  0.00    -0.012 A 
ATOM      6  C   LIG d   1       1.927  -1.796  -9.891  0.00  0.00     0.170 A 
ATOM      7  C   LIG d   1       3.025  -2.575  -9.540  0.00  0.00     0.208 A 
ATOM      8  C   LIG d   1       4.231  -1.962  -9.234  0.00  0.00     0.174 A 
ATOM      9  C   LIG d   1       4.346  -0.576  -9.274  0.00  0.00     0.054 A 
ATOM     10  C   LIG d   1       5.679   0.041  -8.939  0.00  0.00     0.041 C 
ATOM     11  H   LIG d   1       6.349  -0.036  -9.808  0.00  0.00     0.096 H 
ATOM     12  O   LIG d   1       2.658  -3.893  -9.577  0.00  0.00    -0.449 OA
ATOM     13  C   LIG d   1       1.440  -3.928 -10.344  0.00  0.00     0.233 C 
ATOM     14  O   LIG d   1       0.869  -2.621 -10.146  0.00  0.00    -0.453 OA
ATOM     15  H   LIG d   1       4.856   3.233  -9.576  0.00  0.00     0.082 H 
ATOM     16  H   LIG d   1       5.238   1.872 -10.683  0.00  0.00     0.082 H 
ATOM     17  H   LIG d   1       2.847   2.114  -8.775  0.00  0.00     0.036 H 
ATOM     18  H   LIG d   1       2.809   2.056 -10.570  0.00  0.00     0.036 H 
ATOM     19  H   LIG d   1       1.196   0.188 -10.202  0.00  0.00     0.066 H 
ATOM     20  H   LIG d   1       1.679  -4.122 -11.400  0.00  0.00     0.117 H 
ATOM     21  H   LIG d   1       0.789  -4.729  -9.963  0.00  0.00     0.117 H 
ATOM     22  H   LIG d   1       4.936   1.557  -7.705  0.00  0.00     0.204 HD
ENDROOT
BRANCH  10  23
ATOM     23  C   LIG d   1       6.266  -0.663  -7.743  0.00  0.00     0.078 A 
ATOM     24  C   LIG d   1       5.600  -0.641  -6.505  0.00  0.00     0.267 A 
ATOM     25  N   LIG d   1       6.142  -1.277  -5.447  0.00  0.00    -0.255 N 
ATOM     26  O   LIG d   1       4.541  -0.050  -6.389  0.00  0.00    -0.267 OA
ATOM     27  C   LIG d   1       7.311  -1.931  -5.570  0.00  0.00     0.165 A 
ATOM     28  N   LIG d   1       7.966  -1.965  -6.746  0.00  0.00    -0.347 N 
ATOM     29  S   LIG d   1       7.977  -2.730  -4.210  0.00  0.00    -0.013 SA
ATOM     30  C   LIG d   1       7.447  -1.335  -7.848  0.00  0.00    -0.023 A 
ATOM     31  H   LIG d   1       8.923  -2.503  -6.818  0.00  0.00     0.167 HD
ATOM     32  O   LIG d   1       8.104  -1.377  -9.027  0.00  0.00    -0.861 OA
BRANCH  25  33
ATOM     33  C   LIG d   1       5.482  -1.259  -4.212  0.00  0.00     0.070 A 
ATOM     34  C   LIG d   1       5.711  -0.222  -3.316  0.00  0.00     0.065 A 
ATOM     35  C   LIG d   1       5.058  -0.207  -2.098  0.00  0.00    -0.041 A 
ATOM     36 CL   LIG d   1       6.815   1.054  -3.727  0.00  0.00    -0.081 Cl
ATOM     37  C   LIG d   1       4.179  -1.221  -1.771  0.00  0.00    -0.060 A 
ATOM     38  H   LIG d   1       5.235   0.600  -1.401  0.00  0.00     0.063 H 
ATOM     39  C   LIG d   1       3.948  -2.255  -2.661  0.00  0.00    -0.060 A 
ATOM     40  H   LIG d   1       3.669  -1.208  -0.818  0.00  0.00     0.062 H 
ATOM     41  C   LIG d   1       4.594  -2.274  -3.882  0.00  0.00    -0.036 A 
ATOM     42  H   LIG d   1       3.260  -3.046  -2.402  0.00  0.00     0.062 H 
ATOM     43  H   LIG d   1       4.411  -3.078  -4.578  0.00  0.00     0.064 H 
ENDBRANCH  25  33
ENDBRANCH  10  23
BRANCH   1  44
ATOM     44  C   LIG d   1       6.826   2.101  -8.397  0.00  0.00    -0.042 C 
ATOM     45  H   LIG d   1       6.683   3.032  -7.829  0.00  0.00     0.078 H 
ATOM     46  H   LIG d   1       7.301   2.330  -9.363  0.00  0.00     0.078 H 
ATOM     47  H   LIG d   1       7.469   1.417  -7.825  0.00  0.00     0.078 H 
ENDBRANCH   1  44
BRANCH   8  48
ATOM     48  O   LIG d   1       5.307  -2.720  -8.892  0.00  0.00    -0.491 OA
BRANCH  48  49
ATOM     49  C   LIG d   1       5.748  -3.689  -9.846  0.00  0.00     0.079 C 
ATOM     50  H   LIG d   1       6.846  -3.685  -9.893  0.00  0.00     0.066 H 
ATOM     51  H   LIG d   1       5.337  -3.441 -10.836  0.00  0.00     0.066 H 
ATOM     52  H   LIG d   1       5.397  -4.687  -9.544  0.00  0.00     0.066 H 
ENDBRANCH  48  49
ENDBRANCH   8  48
TORSDOF 5
ENDMDL
MODEL 3
REMARK VINA RESULT:      -6.4      2.889      6.664
REMARK  5 active torsions:
REMARK  status: ('A' for Active; 'I' for Inactive)
REMARK    1  A    between atoms: C_1  and  N_2 
REMARK    2  A    between atoms: C_9  and  O_29 
REMARK    3  A    between atoms: C_11  and  C_13 
REMARK    4  A    between atoms: N_18  and  C_21 
REMARK    5  A    between atoms: O_29  and  C_30 
ROOT
ATOM      1  N   LIG d   1       3.514   0.780  -9.049  0.00  0.00     0.242 N 
ATOM      2  C   LIG d   1       2.553   0.549 -10.139  0.00  0.00    -0.027 C 
ATOM      3  C   LIG d   1       1.805  -0.754  -9.859  0.00  0.00     0.013 C 
ATOM      4  C   LIG d   1       2.786  -1.857  -9.556  0.00  0.00    -0.026 A 
ATOM      5  C   LIG d   1       2.345  -3.170  -9.626  0.00  0.00    -0.012 A 
ATOM      6  C   LIG d   1       3.208  -4.217  -9.352  0.00  0.00     0.170 A 
ATOM      7  C   LIG d   1       4.528  -3.949  -9.004  0.00  0.00     0.208 A 
ATOM      8  C   LIG d   1       4.967  -2.635  -8.939  0.00  0.00     0.174 A 
ATOM      9  C   LIG d   1       4.095  -1.587  -9.216  0.00  0.00     0.054 A 
ATOM     10  C   LIG d   1       4.621  -0.177  -9.136  0.00  0.00     0.041 C 
ATOM     11  H   LIG d   1       5.187   0.056 -10.050  0.00  0.00     0.096 H 
ATOM     12  O   LIG d   1       5.174  -5.135  -8.786  0.00  0.00    -0.449 OA
ATOM     13  C   LIG d   1       4.343  -6.140  -9.396  0.00  0.00     0.233 C 
ATOM     14  O   LIG d   1       3.021  -5.570  -9.350  0.00  0.00    -0.453 OA
ATOM     15  H   LIG d   1       1.844   1.388 -10.186  0.00  0.00     0.082 H 
ATOM     16  H   LIG d   1       3.094   0.473 -11.094  0.00  0.00     0.082 H 
ATOM     17  H   LIG d   1       1.139  -0.615  -8.995  0.00  0.00     0.036 H 
ATOM     18  H   LIG d   1       1.208  -1.031 -10.741  0.00  0.00     0.036 H 
ATOM     19  H   LIG d   1       1.320  -3.377  -9.896  0.00  0.00     0.066 H 
ATOM     20  H   LIG d   1       4.683  -6.319 -10.427  0.00  0.00     0.117 H 
ATOM     21  H   LIG d   1       4.413  -7.075  -8.819  0.00  0.00     0.117 H 
ATOM     22  H   LIG d   1       2.999   0.625  -8.089  0.00  0.00     0.204 HD
ENDROOT
BRANCH  10  23
ATOM     23  C   LIG d   1       5.494  -0.041  -7.916  0.00  0.00     0.078 A 
ATOM     24  C   LIG d   1       4.972  -0.294  -6.634  0.00  0.00     0.267 A 
ATOM     25  N   LIG d   1       5.769  -0.166  -5.555  0.00  0.00    -0.255 N 
ATOM     26  O   LIG d   1       3.807  -0.625  -6.501  0.00  0.00    -0.267 OA
ATOM     27  C   LIG d   1       7.056   0.199  -5.697  0.00  0.00     0.165 A 
ATOM     28  N   LIG d   1       7.576   0.446  -6.913  0.00  0.00    -0.347 N 
ATOM     29  S   LIG d   1       8.046   0.354  -4.308  0.00  0.00    -0.013 SA
ATOM     30  C   LIG d   1       6.802   0.324  -8.037  0.00  0.00    -0.023 A 
ATOM     31  H   LIG d   1       8.631   0.749  -7.001  0.00  0.00     0.167 HD
ATOM     32  O   LIG d   1       7.329   0.566  -9.257  0.00  0.00    -0.861 OA
BRANCH  25  33
ATOM     33  C   LIG d   1       5.254  -0.418  -4.277  0.00  0.00     0.070 A 
ATOM     34  C   LIG d   1       5.228  -1.716  -3.781  0.00  0.00     0.065 A 
ATOM     35  C   LIG d   1       4.719  -1.962  -2.520  0.00  0.00    -0.041 A 
ATOM     36 CL   LIG d   1       5.835  -3.027  -4.744  0.00  0.00    -0.081 Cl
ATOM     37  C   LIG d   1       4.237  -0.918  -1.752  0.00  0.00    -0.060 A 
ATOM     38  H   LIG d   1       4.699  -2.970  -2.133  0.00  0.00     0.063 H 
ATOM     39  C   LIG d   1       4.262   0.374  -2.243  0.00  0.00    -0.060 A 
ATOM     40  H   LIG d   1       3.840  -1.112  -0.767  0.00  0.00     0.062 H 
ATOM     41  C   LIG d   1       4.773   0.628  -3.501  0.00  0.00    -0.036 A 
ATOM     42  H   LIG d   1       3.884   1.188  -1.641  0.00  0.00     0.062 H 
ATOM     43  H   LIG d   1       4.795   1.637  -3.882  0.00  0.00     0.064 H 
ENDBRANCH  25  33
ENDBRANCH  10  23
BRANCH   1  44
ATOM     44  C   LIG d   1       4.011   2.162  -9.067  0.00  0.00    -0.042 C 
ATOM     45  H   LIG d   1       3.416   2.775  -8.374  0.00  0.00     0.078 H 
ATOM     46  H   LIG d   1       3.922   2.570 -10.086  0.00  0.00     0.078 H 
ATOM     47  H   LIG d   1       5.066   2.177  -8.758  0.00  0.00     0.078 H 
ENDBRANCH   1  44
BRANCH   8  48
ATOM     48  O   LIG d   1       6.258  -2.369  -8.601  0.00  0.00    -0.491 OA
BRANCH  48  49
ATOM     49  C   LIG d   1       7.274  -2.891  -9.460  0.00  0.00     0.079 C 
ATOM     50  H   LIG d   1       8.257  -2.764  -8.984  0.00  0.00     0.066 H 
ATOM     51  H   LIG d   1       7.257  -2.350 -10.417  0.00  0.00     0.066 H 
ATOM     52  H   LIG d   1       7.089  -3.959  -9.640  0.00  0.00     0.066 H 
ENDBRANCH  48  49
ENDBRANCH   8  48
TORSDOF 5
ENDMDL
MODEL 4
REMARK VINA RESULT:      -6.3      2.726      5.062
REMARK  5 active torsions:
REMARK  status: ('A' for Active; 'I' for Inactive)
REMARK    1  A    between atoms: C_1  and  N_2 
REMARK    2  A    between atoms: C_9  and  O_29 
REMARK    3  A    between atoms: C_11  and  C_13 
REMARK    4  A    between atoms: N_18  and  C_21 
REMARK    5  A    between atoms: O_29  and  C_30 
ROOT
ATOM      1  N   LIG d   1       3.581  -1.507  -3.607  0.00  0.00     0.242 N 
ATOM      2  C   LIG d   1       2.608  -0.405  -3.547  0.00  0.00    -0.027 C 
ATOM      3  C   LIG d   1       2.032  -0.189  -4.946  0.00  0.00     0.013 C 
ATOM      4  C   LIG d   1       3.150  -0.072  -5.951  0.00  0.00    -0.026 A 
ATOM      5  C   LIG d   1       2.865   0.472  -7.194  0.00  0.00    -0.012 A 
ATOM      6  C   LIG d   1       3.858   0.596  -8.151  0.00  0.00     0.170 A 
ATOM      7  C   LIG d   1       5.151   0.171  -7.863  0.00  0.00     0.208 A 
ATOM      8  C   LIG d   1       5.433  -0.370  -6.617  0.00  0.00     0.174 A 
ATOM      9  C   LIG d   1       4.431  -0.491  -5.659  0.00  0.00     0.054 A 
ATOM     10  C   LIG d   1       4.789  -1.080  -4.320  0.00  0.00     0.041 C 
ATOM     11  H   LIG d   1       5.283  -0.315  -3.701  0.00  0.00     0.096 H 
ATOM     12  O   LIG d   1       5.942   0.398  -8.956  0.00  0.00    -0.449 OA
ATOM     13  C   LIG d   1       5.210   1.335  -9.768  0.00  0.00     0.233 C 
ATOM     14  O   LIG d   1       3.833   1.087  -9.425  0.00  0.00    -0.453 OA
ATOM     15  H   LIG d   1       1.802  -0.665  -2.846  0.00  0.00     0.082 H 
ATOM     16  H   LIG d   1       3.112   0.510  -3.203  0.00  0.00     0.082 H 
ATOM     17  H   LIG d   1       1.393  -1.043  -5.215  0.00  0.00     0.036 H 
ATOM     18  H   LIG d   1       1.435   0.734  -4.960  0.00  0.00     0.036 H 
ATOM     19  H   LIG d   1       1.862   0.802  -7.418  0.00  0.00     0.066 H 
ATOM     20  H   LIG d   1       5.523   2.359  -9.518  0.00  0.00     0.117 H 
ATOM     21  H   LIG d   1       5.416   1.138 -10.831  0.00  0.00     0.117 H 
ATOM     22  H   LIG d   1       3.130  -2.343  -4.162  0.00  0.00     0.204 HD
ENDROOT
BRANCH  10  23
ATOM     23  C   LIG d   1       5.692  -2.269  -4.525  0.00  0.00     0.078 A 
ATOM     24  C   LIG d   1       5.255  -3.375  -5.276  0.00  0.00     0.267 A 
ATOM     25  N   LIG d   1       6.078  -4.428  -5.448  0.00  0.00    -0.255 N 
ATOM     26  O   LIG d   1       4.141  -3.380  -5.768  0.00  0.00    -0.267 OA
ATOM     27  C   LIG d   1       7.310  -4.427  -4.907  0.00  0.00     0.165 A 
ATOM     28  N   LIG d   1       7.748  -3.380  -4.184  0.00  0.00    -0.347 N 
ATOM     29  S   LIG d   1       8.334  -5.779  -5.141  0.00  0.00    -0.013 SA
ATOM     30  C   LIG d   1       6.946  -2.286  -3.989  0.00  0.00    -0.023 A 
ATOM     31  H   LIG d   1       8.759  -3.406  -3.748  0.00  0.00     0.167 HD
ATOM     32  O   LIG d   1       7.391  -1.234  -3.268  0.00  0.00    -0.861 OA
BRANCH  25  33
ATOM     33  C   LIG d   1       5.648  -5.531  -6.197  0.00  0.00     0.070 A 
ATOM     34  C   LIG d   1       5.802  -5.537  -7.578  0.00  0.00     0.065 A 
ATOM     35  C   LIG d   1       5.377  -6.626  -8.314  0.00  0.00    -0.041 A 
ATOM     36 CL   LIG d   1       6.530  -4.178  -8.377  0.00  0.00    -0.081 Cl
ATOM     37  C   LIG d   1       4.798  -7.709  -7.678  0.00  0.00    -0.060 A 
ATOM     38  H   LIG d   1       5.497  -6.632  -9.388  0.00  0.00     0.063 H 
ATOM     39  C   LIG d   1       4.644  -7.706  -6.304  0.00  0.00    -0.060 A 
ATOM     40  H   LIG d   1       4.467  -8.559  -8.255  0.00  0.00     0.062 H 
ATOM     41  C   LIG d   1       5.071  -6.622  -5.561  0.00  0.00    -0.036 A 
ATOM     42  H   LIG d   1       4.191  -8.553  -5.810  0.00  0.00     0.062 H 
ATOM     43  H   LIG d   1       4.953  -6.622  -4.489  0.00  0.00     0.064 H 
ENDBRANCH  25  33
ENDBRANCH  10  23
BRANCH   1  44
ATOM     44  C   LIG d   1       3.909  -1.995  -2.260  0.00  0.00    -0.042 C 
ATOM     45  H   LIG d   1       3.319  -1.440  -1.516  0.00  0.00     0.078 H 
ATOM     46  H   LIG d   1       4.981  -1.841  -2.066  0.00  0.00     0.078 H 
ATOM     47  H   LIG d   1       3.674  -3.067  -2.191  0.00  0.00     0.078 H 
ENDBRANCH   1  44
BRANCH   8  48
ATOM     48  O   LIG d   1       6.696  -0.784  -6.330  0.00  0.00    -0.491 OA
BRANCH  48  49
ATOM     49  C   LIG d   1       7.729   0.203  -6.374  0.00  0.00     0.079 C 
ATOM     50  H   LIG d   1       7.320   1.144  -6.768  0.00  0.00     0.066 H 
ATOM     51  H   LIG d   1       8.542  -0.146  -7.028  0.00  0.00     0.066 H 
ATOM     52  H   LIG d   1       8.120   0.368  -5.360  0.00  0.00     0.066 H 
ENDBRANCH  48  49
ENDBRANCH   8  48
TORSDOF 5
ENDMDL
MODEL 5
REMARK VINA RESULT:      -6.3      2.722      6.007
REMARK  5 active torsions:
REMARK  status: ('A' for Active; 'I' for Inactive)
REMARK    1  A    between atoms: C_1  and  N_2 
REMARK    2  A    between atoms: C_9  and  O_29 
REMARK    3  A    between atoms: C_11  and  C_13 
REMARK    4  A    between atoms: N_18  and  C_21 
REMARK    5  A    between atoms: O_29  and  C_30 
ROOT
ATOM      1  N   LIG d   1       2.890  -1.017 -10.119  0.00  0.00     0.242 N 
ATOM      2  C   LIG d   1       2.728  -0.455 -11.469  0.00  0.00    -0.027 C 
ATOM      3  C   LIG d   1       3.853  -0.988 -12.355  0.00  0.00     0.013 C 
ATOM      4  C   LIG d   1       5.184  -0.786 -11.676  0.00  0.00    -0.026 A 
ATOM      5  C   LIG d   1       6.335  -0.870 -12.444  0.00  0.00    -0.012 A 
ATOM      6  C   LIG d   1       7.581  -0.696 -11.864  0.00  0.00     0.170 A 
ATOM      7  C   LIG d   1       7.676  -0.435 -10.501  0.00  0.00     0.208 A 
ATOM      8  C   LIG d   1       6.522  -0.349  -9.737  0.00  0.00     0.174 A 
ATOM      9  C   LIG d   1       5.273  -0.524 -10.325  0.00  0.00     0.054 A 
ATOM     10  C   LIG d   1       4.049  -0.415  -9.453  0.00  0.00     0.041 C 
ATOM     11  H   LIG d   1       3.815   0.646  -9.280  0.00  0.00     0.096 H 
ATOM     12  O   LIG d   1       8.997  -0.302 -10.171  0.00  0.00    -0.449 OA
ATOM     13  C   LIG d   1       9.682  -0.085 -11.419  0.00  0.00     0.233 C 
ATOM     14  O   LIG d   1       8.840  -0.730 -12.392  0.00  0.00    -0.453 OA
ATOM     15  H   LIG d   1       1.753  -0.757 -11.877  0.00  0.00     0.082 H 
ATOM     16  H   LIG d   1       2.779   0.642 -11.417  0.00  0.00     0.082 H 
ATOM     17  H   LIG d   1       3.699  -2.062 -12.536  0.00  0.00     0.036 H 
ATOM     18  H   LIG d   1       3.850  -0.451 -13.315  0.00  0.00     0.036 H 
ATOM     19  H   LIG d   1       6.261  -1.072 -13.502  0.00  0.00     0.066 H 
ATOM     20  H   LIG d   1       9.775   0.996 -11.601  0.00  0.00     0.117 H 
ATOM     21  H   LIG d   1      10.684  -0.536 -11.371  0.00  0.00     0.117 H 
ATOM     22  H   LIG d   1       3.067  -2.099 -10.209  0.00  0.00     0.204 HD
ENDROOT
BRANCH  10  23
ATOM     23  C   LIG d   1       4.302  -1.129  -8.151  0.00  0.00     0.078 A 
ATOM     24  C   LIG d   1       4.228  -0.434  -6.931  0.00  0.00     0.267 A 
ATOM     25  N   LIG d   1       4.459  -1.091  -5.777  0.00  0.00    -0.255 N 
ATOM     26  O   LIG d   1       3.959   0.754  -6.917  0.00  0.00    -0.267 OA
ATOM     27  C   LIG d   1       4.757  -2.403  -5.786  0.00  0.00     0.165 A 
ATOM     28  N   LIG d   1       4.833  -3.087  -6.942  0.00  0.00    -0.347 N 
ATOM     29  S   LIG d   1       5.045  -3.212  -4.305  0.00  0.00    -0.013 SA
ATOM     30  C   LIG d   1       4.602  -2.459  -8.138  0.00  0.00    -0.023 A 
ATOM     31  H   LIG d   1       5.084  -4.159  -6.922  0.00  0.00     0.167 HD
ATOM     32  O   LIG d   1       4.673  -3.151  -9.296  0.00  0.00    -0.861 OA
BRANCH  25  33
ATOM     33  C   LIG d   1       4.384  -0.403  -4.559  0.00  0.00     0.070 A 
ATOM     34  C   LIG d   1       5.533   0.136  -3.993  0.00  0.00     0.065 A 
ATOM     35  C   LIG d   1       5.457   0.814  -2.791  0.00  0.00    -0.041 A 
ATOM     36 CL   LIG d   1       7.063  -0.042  -4.796  0.00  0.00    -0.081 Cl
ATOM     37  C   LIG d   1       4.240   0.956  -2.152  0.00  0.00    -0.060 A 
ATOM     38  H   LIG d   1       6.350   1.233  -2.351  0.00  0.00     0.063 H 
ATOM     39  C   LIG d   1       3.094   0.421  -2.713  0.00  0.00    -0.060 A 
ATOM     40  H   LIG d   1       4.182   1.486  -1.213  0.00  0.00     0.062 H 
ATOM     41  C   LIG d   1       3.162  -0.253  -3.916  0.00  0.00    -0.036 A 
ATOM     42  H   LIG d   1       2.144   0.534  -2.211  0.00  0.00     0.062 H 
ATOM     43  H   LIG d   1       2.268  -0.668  -4.355  0.00  0.00     0.064 H 
ENDBRANCH  25  33
ENDBRANCH  10  23
BRANCH   1  44
ATOM     44  C   LIG d   1       1.670  -0.832  -9.321  0.00  0.00    -0.042 C 
ATOM     45  H   LIG d   1       1.925  -0.337  -8.372  0.00  0.00     0.078 H 
ATOM     46  H   LIG d   1       1.217  -1.813  -9.113  0.00  0.00     0.078 H 
ATOM     47  H   LIG d   1       0.957  -0.209  -9.880  0.00  0.00     0.078 H 
ENDBRANCH   1  44
BRANCH   8  48
ATOM     48  O   LIG d   1       6.611  -0.092  -8.404  0.00  0.00    -0.491 OA
BRANCH  48  49
ATOM     49  C   LIG d   1       7.187   1.159  -8.021  0.00  0.00     0.079 C 
ATOM     50  H   LIG d   1       7.988   0.985  -7.288  0.00  0.00     0.066 H 
ATOM     51  H   LIG d   1       6.411   1.797  -7.573  0.00  0.00     0.066 H 
ATOM     52  H   LIG d   1       7.604   1.658  -8.908  0.00  0.00     0.066 H 
ENDBRANCH  48  49
ENDBRANCH   8  48
TORSDOF 5
ENDMDL
MODEL 6
REMARK VINA RESULT:      -6.3      2.532      5.733
REMARK  5 active torsions:
REMARK  status: ('A' for Active; 'I' for Inactive)
REMARK    1  A    between atoms: C_1  and  N_2 
REMARK    2  A    between atoms: C_9  and  O_29 
REMARK    3  A    between atoms: C_11  and  C_13 
REMARK    4  A    between atoms: N_18  and  C_21 
REMARK    5  A    between atoms: O_29  and  C_30 
ROOT
ATOM      1  N   LIG d   1       3.775  -1.399  -3.580  0.00  0.00     0.242 N 
ATOM      2  C   LIG d   1       2.922  -0.211  -3.419  0.00  0.00    -0.027 C 
ATOM      3  C   LIG d   1       2.192   0.045  -4.737  0.00  0.00     0.013 C 
ATOM      4  C   LIG d   1       3.176   0.050  -5.879  0.00  0.00    -0.026 A 
ATOM      5  C   LIG d   1       2.783   0.607  -7.086  0.00  0.00    -0.012 A 
ATOM      6  C   LIG d   1       3.651   0.631  -8.165  0.00  0.00     0.170 A 
ATOM      7  C   LIG d   1       4.926   0.090  -8.036  0.00  0.00     0.208 A 
ATOM      8  C   LIG d   1       5.317  -0.464  -6.826  0.00  0.00     0.174 A 
ATOM      9  C   LIG d   1       4.441  -0.484  -5.745  0.00  0.00     0.054 A 
ATOM     10  C   LIG d   1       4.915  -1.092  -4.451  0.00  0.00     0.041 C 
ATOM     11  H   LIG d   1       5.551  -0.371  -3.917  0.00  0.00     0.096 H 
ATOM     12  O   LIG d   1       5.586   0.233  -9.226  0.00  0.00    -0.449 OA
ATOM     13  C   LIG d   1       4.843   1.227  -9.957  0.00  0.00     0.233 C 
ATOM     14  O   LIG d   1       3.506   1.111  -9.435  0.00  0.00    -0.453 OA
ATOM     15  H   LIG d   1       2.194  -0.389  -2.615  0.00  0.00     0.082 H 
ATOM     16  H   LIG d   1       3.547   0.656  -3.162  0.00  0.00     0.082 H 
ATOM     17  H   LIG d   1       1.448  -0.748  -4.904  0.00  0.00     0.036 H 
ATOM     18  H   LIG d   1       1.684   1.020  -4.692  0.00  0.00     0.036 H 
ATOM     19  H   LIG d   1       1.793   1.026  -7.186  0.00  0.00     0.066 H 
ATOM     20  H   LIG d   1       5.278   2.219  -9.770  0.00  0.00     0.117 H 
ATOM     21  H   LIG d   1       4.891   1.003 -11.033  0.00  0.00     0.117 H 
ATOM     22  H   LIG d   1       3.182  -2.195  -4.056  0.00  0.00     0.204 HD
ENDROOT
BRANCH  10  23
ATOM     23  C   LIG d   1       5.672  -2.361  -4.746  0.00  0.00     0.078 A 
ATOM     24  C   LIG d   1       7.015  -2.498  -4.350  0.00  0.00     0.267 A 
ATOM     25  N   LIG d   1       7.674  -3.640  -4.624  0.00  0.00    -0.255 N 
ATOM     26  O   LIG d   1       7.577  -1.590  -3.764  0.00  0.00    -0.267 OA
ATOM     27  C   LIG d   1       7.058  -4.647  -5.270  0.00  0.00     0.165 A 
ATOM     28  N   LIG d   1       5.774  -4.536  -5.659  0.00  0.00    -0.347 N 
ATOM     29  S   LIG d   1       7.921  -6.087  -5.605  0.00  0.00    -0.013 SA
ATOM     30  C   LIG d   1       5.065  -3.393  -5.396  0.00  0.00    -0.023 A 
ATOM     31  H   LIG d   1       5.295  -5.372  -6.191  0.00  0.00     0.167 HD
ATOM     32  O   LIG d   1       3.775  -3.289  -5.782  0.00  0.00    -0.861 OA
BRANCH  25  33
ATOM     33  C   LIG d   1       9.011  -3.782  -4.230  0.00  0.00     0.070 A 
ATOM     34  C   LIG d   1      10.034  -3.466  -5.114  0.00  0.00     0.065 A 
ATOM     35  C   LIG d   1      11.353  -3.607  -4.723  0.00  0.00    -0.041 A 
ATOM     36 CL   LIG d   1       9.658  -2.892  -6.709  0.00  0.00    -0.081 Cl
ATOM     37  C   LIG d   1      11.653  -4.063  -3.453  0.00  0.00    -0.060 A 
ATOM     38  H   LIG d   1      12.149  -3.360  -5.410  0.00  0.00     0.063 H 
ATOM     39  C   LIG d   1      10.636  -4.379  -2.570  0.00  0.00    -0.060 A 
ATOM     40  H   LIG d   1      12.683  -4.173  -3.149  0.00  0.00     0.062 H 
ATOM     41  C   LIG d   1       9.317  -4.235  -2.953  0.00  0.00    -0.036 A 
ATOM     42  H   LIG d   1      10.874  -4.735  -1.578  0.00  0.00     0.062 H 
ATOM     43  H   LIG d   1       8.524  -4.479  -2.263  0.00  0.00     0.064 H 
ENDBRANCH  25  33
ENDBRANCH  10  23
BRANCH   1  44
ATOM     44  C   LIG d   1       4.229  -1.903  -2.277  0.00  0.00    -0.042 C 
ATOM     45  H   LIG d   1       3.358  -2.090  -1.633  0.00  0.00     0.078 H 
ATOM     46  H   LIG d   1       4.883  -1.156  -1.803  0.00  0.00     0.078 H 
ATOM     47  H   LIG d   1       4.787  -2.840  -2.420  0.00  0.00     0.078 H 
ENDBRANCH   1  44
BRANCH   8  48
ATOM     48  O   LIG d   1       6.564  -0.991  -6.695  0.00  0.00    -0.491 OA
BRANCH  48  49
ATOM     49  C   LIG d   1       7.667  -0.097  -6.858  0.00  0.00     0.079 C 
ATOM     50  H   LIG d   1       7.510   0.521  -7.753  0.00  0.00     0.066 H 
ATOM     51  H   LIG d   1       8.595  -0.678  -6.971  0.00  0.00     0.066 H 
ATOM     52  H   LIG d   1       7.747   0.551  -5.974  0.00  0.00     0.066 H 
ENDBRANCH  48  49
ENDBRANCH   8  48
TORSDOF 5
ENDMDL
MODEL 7
REMARK VINA RESULT:      -6.1      3.302      5.386
REMARK  5 active torsions:
REMARK  status: ('A' for Active; 'I' for Inactive)
REMARK    1  A    between atoms: C_1  and  N_2 
REMARK    2  A    between atoms: C_9  and  O_29 
REMARK    3  A    between atoms: C_11  and  C_13 
REMARK    4  A    between atoms: N_18  and  C_21 
REMARK    5  A    between atoms: O_29  and  C_30 
ROOT
ATOM      1  N   LIG d   1       4.494  -0.724  -8.731  0.00  0.00     0.242 N 
ATOM      2  C   LIG d   1       3.040  -0.889  -8.581  0.00  0.00    -0.027 C 
ATOM      3  C   LIG d   1       2.555   0.052  -7.479  0.00  0.00     0.013 C 
ATOM      4  C   LIG d   1       3.402  -0.120  -6.244  0.00  0.00    -0.026 A 
ATOM      5  C   LIG d   1       2.918   0.368  -5.039  0.00  0.00    -0.012 A 
ATOM      6  C   LIG d   1       3.662   0.238  -3.879  0.00  0.00     0.170 A 
ATOM      7  C   LIG d   1       4.904  -0.387  -3.923  0.00  0.00     0.208 A 
ATOM      8  C   LIG d   1       5.383  -0.877  -5.129  0.00  0.00     0.174 A 
ATOM      9  C   LIG d   1       4.631  -0.743  -6.292  0.00  0.00     0.054 A 
ATOM     10  C   LIG d   1       5.192  -1.297  -7.576  0.00  0.00     0.041 C 
ATOM     11  H   LIG d   1       5.038  -2.386  -7.606  0.00  0.00     0.096 H 
ATOM     12  O   LIG d   1       5.437  -0.394  -2.663  0.00  0.00    -0.449 OA
ATOM     13  C   LIG d   1       4.332  -0.127  -1.780  0.00  0.00     0.233 C 
ATOM     14  O   LIG d   1       3.414   0.627  -2.594  0.00  0.00    -0.453 OA
ATOM     15  H   LIG d   1       2.543  -0.644  -9.530  0.00  0.00     0.082 H 
ATOM     16  H   LIG d   1       2.816  -1.931  -8.309  0.00  0.00     0.082 H 
ATOM     17  H   LIG d   1       2.630   1.093  -7.827  0.00  0.00     0.036 H 
ATOM     18  H   LIG d   1       1.507  -0.177  -7.235  0.00  0.00     0.036 H 
ATOM     19  H   LIG d   1       1.954   0.854  -5.006  0.00  0.00     0.066 H 
ATOM     20  H   LIG d   1       3.899  -1.079  -1.438  0.00  0.00     0.117 H 
ATOM     21  H   LIG d   1       4.686   0.447  -0.911  0.00  0.00     0.117 H 
ATOM     22  H   LIG d   1       4.722   0.352  -8.773  0.00  0.00     0.204 HD
ENDROOT
BRANCH  10  23
ATOM     23  C   LIG d   1       6.658  -0.959  -7.663  0.00  0.00     0.078 A 
ATOM     24  C   LIG d   1       7.084   0.381  -7.625  0.00  0.00     0.267 A 
ATOM     25  N   LIG d   1       8.400   0.662  -7.705  0.00  0.00    -0.255 N 
ATOM     26  O   LIG d   1       6.270   1.281  -7.521  0.00  0.00    -0.267 OA
ATOM     27  C   LIG d   1       9.304  -0.329  -7.819  0.00  0.00     0.165 A 
ATOM     28  N   LIG d   1       8.918  -1.617  -7.858  0.00  0.00    -0.347 N 
ATOM     29  S   LIG d   1      10.969   0.057  -7.919  0.00  0.00    -0.013 SA
ATOM     30  C   LIG d   1       7.590  -1.948  -7.775  0.00  0.00    -0.023 A 
ATOM     31  H   LIG d   1       9.677  -2.408  -7.957  0.00  0.00     0.167 HD
ATOM     32  O   LIG d   1       7.207  -3.242  -7.808  0.00  0.00    -0.861 OA
BRANCH  25  33
ATOM     33  C   LIG d   1       8.830   1.995  -7.666  0.00  0.00     0.070 A 
ATOM     34  C   LIG d   1       9.161   2.583  -6.452  0.00  0.00     0.065 A 
ATOM     35  C   LIG d   1       9.584   3.899  -6.417  0.00  0.00    -0.041 A 
ATOM     36 CL   LIG d   1       9.044   1.668  -4.982  0.00  0.00    -0.081 Cl
ATOM     37  C   LIG d   1       9.678   4.628  -7.587  0.00  0.00    -0.060 A 
ATOM     38  H   LIG d   1       9.842   4.357  -5.473  0.00  0.00     0.063 H 
ATOM     39  C   LIG d   1       9.350   4.044  -8.797  0.00  0.00    -0.060 A 
ATOM     40  H   LIG d   1      10.009   5.655  -7.558  0.00  0.00     0.062 H 
ATOM     41  C   LIG d   1       8.930   2.729  -8.840  0.00  0.00    -0.036 A 
ATOM     42  H   LIG d   1       9.424   4.616  -9.711  0.00  0.00     0.062 H 
ATOM     43  H   LIG d   1       8.677   2.272  -9.785  0.00  0.00     0.064 H 
ENDBRANCH  25  33
ENDBRANCH  10  23
BRANCH   1  44
ATOM     44  C   LIG d   1       4.967  -1.327  -9.984  0.00  0.00    -0.042 C 
ATOM     45  H   LIG d   1       4.993  -0.560 -10.772  0.00  0.00     0.078 H 
ATOM     46  H   LIG d   1       4.283  -2.136 -10.282  0.00  0.00     0.078 H 
ATOM     47  H   LIG d   1       5.977  -1.736  -9.836  0.00  0.00     0.078 H 
ENDBRANCH   1  44
BRANCH   8  48
ATOM     48  O   LIG d   1       6.596  -1.491  -5.176  0.00  0.00    -0.491 OA
BRANCH  48  49
ATOM     49  C   LIG d   1       6.755  -2.675  -4.391  0.00  0.00     0.079 C 
ATOM     50  H   LIG d   1       6.102  -2.620  -3.508  0.00  0.00     0.066 H 
ATOM     51  H   LIG d   1       7.803  -2.761  -4.068  0.00  0.00     0.066 H 
ATOM     52  H   LIG d   1       6.485  -3.553  -4.994  0.00  0.00     0.066 H 
ENDBRANCH  48  49
ENDBRANCH   8  48
TORSDOF 5
ENDMDL
MODEL 8
REMARK VINA RESULT:      -6.0      2.567      3.912
REMARK  5 active torsions:
REMARK  status: ('A' for Active; 'I' for Inactive)
REMARK    1  A    between atoms: C_1  and  N_2 
REMARK    2  A    between atoms: C_9  and  O_29 
REMARK    3  A    between atoms: C_11  and  C_13 
REMARK    4  A    between atoms: N_18  and  C_21 
REMARK    5  A    between atoms: O_29  and  C_30 
ROOT
ATOM      1  N   LIG d   1       7.346  -3.346  -5.904  0.00  0.00     0.242 N 
ATOM      2  C   LIG d   1       8.322  -3.085  -4.835  0.00  0.00    -0.027 C 
ATOM      3  C   LIG d   1       7.563  -2.849  -3.530  0.00  0.00     0.013 C 
ATOM      4  C   LIG d   1       6.478  -1.823  -3.743  0.00  0.00    -0.026 A 
ATOM      5  C   LIG d   1       5.919  -1.213  -2.630  0.00  0.00    -0.012 A 
ATOM      6  C   LIG d   1       4.917  -0.269  -2.775  0.00  0.00     0.170 A 
ATOM      7  C   LIG d   1       4.469   0.070  -4.048  0.00  0.00     0.208 A 
ATOM      8  C   LIG d   1       5.032  -0.539  -5.159  0.00  0.00     0.174 A 
ATOM      9  C   LIG d   1       6.039  -1.487  -5.007  0.00  0.00     0.054 A 
ATOM     10  C   LIG d   1       6.623  -2.117  -6.244  0.00  0.00     0.041 C 
ATOM     11  H   LIG d   1       7.348  -1.426  -6.701  0.00  0.00     0.096 H 
ATOM     12  O   LIG d   1       3.487   1.016  -3.929  0.00  0.00    -0.449 OA
ATOM     13  C   LIG d   1       3.624   1.543  -2.597  0.00  0.00     0.233 C 
ATOM     14  O   LIG d   1       4.217   0.459  -1.856  0.00  0.00    -0.453 OA
ATOM     15  H   LIG d   1       8.991  -3.951  -4.729  0.00  0.00     0.082 H 
ATOM     16  H   LIG d   1       8.915  -2.194  -5.090  0.00  0.00     0.082 H 
ATOM     17  H   LIG d   1       7.107  -3.792  -3.195  0.00  0.00     0.036 H 
ATOM     18  H   LIG d   1       8.259  -2.485  -2.760  0.00  0.00     0.036 H 
ATOM     19  H   LIG d   1       6.267  -1.477  -1.642  0.00  0.00     0.066 H 
ATOM     20  H   LIG d   1       4.268   2.433  -2.619  0.00  0.00     0.117 H 
ATOM     21  H   LIG d   1       2.632   1.818  -2.207  0.00  0.00     0.117 H 
ATOM     22  H   LIG d   1       6.616  -4.085  -5.539  0.00  0.00     0.204 HD
ENDROOT
BRANCH  10  23
ATOM     23  C   LIG d   1       5.512  -2.443  -7.207  0.00  0.00     0.078 A 
ATOM     24  C   LIG d   1       5.491  -1.871  -8.492  0.00  0.00     0.267 A 
ATOM     25  N   LIG d   1       4.487  -2.175  -9.338  0.00  0.00    -0.255 N 
ATOM     26  O   LIG d   1       6.373  -1.105  -8.837  0.00  0.00    -0.267 OA
ATOM     27  C   LIG d   1       3.509  -3.020  -8.963  0.00  0.00     0.165 A 
ATOM     28  N   LIG d   1       3.510  -3.578  -7.738  0.00  0.00    -0.347 N 
ATOM     29  S   LIG d   1       2.247  -3.389 -10.058  0.00  0.00    -0.013 SA
ATOM     30  C   LIG d   1       4.514  -3.300  -6.848  0.00  0.00    -0.023 A 
ATOM     31  H   LIG d   1       2.696  -4.263  -7.454  0.00  0.00     0.167 HD
ATOM     32  O   LIG d   1       4.514  -3.867  -5.622  0.00  0.00    -0.861 OA
BRANCH  25  33
ATOM     33  C   LIG d   1       4.462  -1.609 -10.620  0.00  0.00     0.070 A 
ATOM     34  C   LIG d   1       5.060  -2.272 -11.684  0.00  0.00     0.065 A 
ATOM     35  C   LIG d   1       5.034  -1.711 -12.947  0.00  0.00    -0.041 A 
ATOM     36 CL   LIG d   1       5.836  -3.804 -11.429  0.00  0.00    -0.081 Cl
ATOM     37  C   LIG d   1       4.416  -0.492 -13.151  0.00  0.00    -0.060 A 
ATOM     38  H   LIG d   1       5.498  -2.227 -13.776  0.00  0.00     0.063 H 
ATOM     39  C   LIG d   1       3.820   0.170 -12.094  0.00  0.00    -0.060 A 
ATOM     40  H   LIG d   1       4.397  -0.055 -14.139  0.00  0.00     0.062 H 
ATOM     41  C   LIG d   1       3.838  -0.387 -10.829  0.00  0.00    -0.036 A 
ATOM     42  H   LIG d   1       3.337   1.123 -12.256  0.00  0.00     0.062 H 
ATOM     43  H   LIG d   1       3.370   0.129 -10.005  0.00  0.00     0.064 H 
ENDBRANCH  25  33
ENDBRANCH  10  23
BRANCH   1  44
ATOM     44  C   LIG d   1       8.000  -3.918  -7.088  0.00  0.00    -0.042 C 
ATOM     45  H   LIG d   1       7.685  -4.964  -7.212  0.00  0.00     0.078 H 
ATOM     46  H   LIG d   1       9.092  -3.876  -6.958  0.00  0.00     0.078 H 
ATOM     47  H   LIG d   1       7.715  -3.340  -7.980  0.00  0.00     0.078 H 
ENDBRANCH   1  44
BRANCH   8  48
ATOM     48  O   LIG d   1       4.598  -0.208  -6.405  0.00  0.00    -0.491 OA
BRANCH  48  49
ATOM     49  C   LIG d   1       3.203   0.064  -6.555  0.00  0.00     0.079 C 
ATOM     50  H   LIG d   1       2.675  -0.864  -6.817  0.00  0.00     0.066 H 
ATOM     51  H   LIG d   1       3.060   0.807  -7.354  0.00  0.00     0.066 H 
ATOM     52  H   LIG d   1       2.803   0.461  -5.611  0.00  0.00     0.066 H 
ENDBRANCH  48  49
ENDBRANCH   8  48
TORSDOF 5
ENDMDL
MODEL 9
REMARK VINA RESULT:      -5.8      3.367      7.527
REMARK  5 active torsions:
REMARK  status: ('A' for Active; 'I' for Inactive)
REMARK    1  A    between atoms: C_1  and  N_2 
REMARK    2  A    between atoms: C_9  and  O_29 
REMARK    3  A    between atoms: C_11  and  C_13 
REMARK    4  A    between atoms: N_18  and  C_21 
REMARK    5  A    between atoms: O_29  and  C_30 
ROOT
ATOM      1  N   LIG d   1       3.947  -0.074 -10.863  0.00  0.00     0.242 N 
ATOM      2  C   LIG d   1       4.069  -0.422 -12.287  0.00  0.00    -0.027 C 
ATOM      3  C   LIG d   1       2.878  -1.296 -12.678  0.00  0.00     0.013 C 
ATOM      4  C   LIG d   1       2.728  -2.432 -11.698  0.00  0.00    -0.026 A 
ATOM      5  C   LIG d   1       1.949  -3.519 -12.062  0.00  0.00    -0.012 A 
ATOM      6  C   LIG d   1       1.779  -4.584 -11.194  0.00  0.00     0.170 A 
ATOM      7  C   LIG d   1       2.394  -4.561  -9.946  0.00  0.00     0.208 A 
ATOM      8  C   LIG d   1       3.175  -3.474  -9.586  0.00  0.00     0.174 A 
ATOM      9  C   LIG d   1       3.343  -2.407 -10.463  0.00  0.00     0.054 A 
ATOM     10  C   LIG d   1       4.206  -1.251 -10.028  0.00  0.00     0.041 C 
ATOM     11  H   LIG d   1       5.266  -1.516 -10.153  0.00  0.00     0.096 H 
ATOM     12  O   LIG d   1       2.078  -5.714  -9.280  0.00  0.00    -0.449 OA
ATOM     13  C   LIG d   1       1.596  -6.619 -10.291  0.00  0.00     0.233 C 
ATOM     14  O   LIG d   1       1.074  -5.748 -11.313  0.00  0.00    -0.453 OA
ATOM     15  H   LIG d   1       4.075   0.497 -12.891  0.00  0.00     0.082 H 
ATOM     16  H   LIG d   1       5.007  -0.973 -12.451  0.00  0.00     0.082 H 
ATOM     17  H   LIG d   1       1.960  -0.689 -12.670  0.00  0.00     0.036 H 
ATOM     18  H   LIG d   1       3.037  -1.706 -13.686  0.00  0.00     0.036 H 
ATOM     19  H   LIG d   1       1.472  -3.536 -13.031  0.00  0.00     0.066 H 
ATOM     20  H   LIG d   1       2.428  -7.237 -10.657  0.00  0.00     0.117 H 
ATOM     21  H   LIG d   1       0.818  -7.268  -9.862  0.00  0.00     0.117 H 
ATOM     22  H   LIG d   1       2.918   0.265 -10.673  0.00  0.00     0.204 HD
ENDROOT
BRANCH  10  23
ATOM     23  C   LIG d   1       3.901  -0.918  -8.591  0.00  0.00     0.078 A 
ATOM     24  C   LIG d   1       4.901  -1.022  -7.607  0.00  0.00     0.267 A 
ATOM     25  N   LIG d   1       4.608  -0.720  -6.327  0.00  0.00    -0.255 N 
ATOM     26  O   LIG d   1       6.024  -1.384  -7.911  0.00  0.00    -0.267 OA
ATOM     27  C   LIG d   1       3.370  -0.320  -5.986  0.00  0.00     0.165 A 
ATOM     28  N   LIG d   1       2.398  -0.214  -6.911  0.00  0.00    -0.347 N 
ATOM     29  S   LIG d   1       3.025   0.057  -4.352  0.00  0.00    -0.013 SA
ATOM     30  C   LIG d   1       2.654  -0.506  -8.225  0.00  0.00    -0.023 A 
ATOM     31  H   LIG d   1       1.391   0.111  -6.605  0.00  0.00     0.167 HD
ATOM     32  O   LIG d   1       1.677  -0.393  -9.151  0.00  0.00    -0.861 OA
BRANCH  25  33
ATOM     33  C   LIG d   1       5.602  -0.821  -5.344  0.00  0.00     0.070 A 
ATOM     34  C   LIG d   1       5.714  -1.979  -4.586  0.00  0.00     0.065 A 
ATOM     35  C   LIG d   1       6.695  -2.076  -3.617  0.00  0.00    -0.041 A 
ATOM     36 CL   LIG d   1       4.625  -3.304  -4.855  0.00  0.00    -0.081 Cl
ATOM     37  C   LIG d   1       7.563  -1.022  -3.402  0.00  0.00    -0.060 A 
ATOM     38  H   LIG d   1       6.784  -2.977  -3.027  0.00  0.00     0.063 H 
ATOM     39  C   LIG d   1       7.454   0.132  -4.156  0.00  0.00    -0.060 A 
ATOM     40  H   LIG d   1       8.329  -1.099  -2.645  0.00  0.00     0.062 H 
ATOM     41  C   LIG d   1       6.479   0.234  -5.130  0.00  0.00    -0.036 A 
ATOM     42  H   LIG d   1       8.134   0.954  -3.987  0.00  0.00     0.062 H 
ATOM     43  H   LIG d   1       6.396   1.133  -5.720  0.00  0.00     0.064 H 
ENDBRANCH  25  33
ENDBRANCH  10  23
BRANCH   1  44
ATOM     44  C   LIG d   1       4.850   1.030 -10.511  0.00  0.00    -0.042 C 
ATOM     45  H   LIG d   1       4.345   1.990 -10.697  0.00  0.00     0.078 H 
ATOM     46  H   LIG d   1       5.760   0.969 -11.127  0.00  0.00     0.078 H 
ATOM     47  H   LIG d   1       5.121   0.958  -9.448  0.00  0.00     0.078 H 
ENDBRANCH   1  44
BRANCH   8  48
ATOM     48  O   LIG d   1       3.780  -3.449  -8.368  0.00  0.00    -0.491 OA
BRANCH  48  49
ATOM     49  C   LIG d   1       4.692  -4.510  -8.075  0.00  0.00     0.079 C 
ATOM     50  H   LIG d   1       5.710  -4.104  -7.987  0.00  0.00     0.066 H 
ATOM     51  H   LIG d   1       4.661  -5.253  -8.885  0.00  0.00     0.066 H 
ATOM     52  H   LIG d   1       4.404  -4.988  -7.128  0.00  0.00     0.066 H 
ENDBRANCH  48  49
ENDBRANCH   8  48
TORSDOF 5
ENDMDL
