MODEL 1
REMARK VINA RESULT:      -5.5      0.000      0.000
REMARK  8 active torsions:
REMARK  status: ('A' for Active; 'I' for Inactive)
REMARK    1  A    between atoms: C_1  and  O_2 
REMARK    2  A    between atoms: O_2  and  C_3 
REMARK    3  A    between atoms: C_6  and  C_11 
REMARK    4  A    between atoms: C_8  and  O_9 
REMARK    5  A    between atoms: O_9  and  C_10 
REMARK    6  A    between atoms: C_11  and  C_12 
REMARK    7  A    between atoms: C_18  and  C_20 
REMARK    8  A    between atoms: C_20  and  C_21 
ROOT
ATOM      1  C   LIG d   1       2.382  -1.424 -10.840  0.00  0.00     0.011 C 
ATOM      2  H   LIG d   1       2.212  -0.439 -10.405  0.00  0.00     0.035 H 
ATOM      3  C   LIG d   1       1.088  -1.968 -11.485  0.00  0.00     0.096 C 
ATOM      4  O   LIG d   1       1.250  -1.729 -12.916  0.00  0.00    -0.464 OA
ATOM      5  C   LIG d   1       2.556  -1.836 -13.220  0.00  0.00     0.311 C 
ATOM      6  O   LIG d   1       3.011  -2.254 -14.257  0.00  0.00    -0.251 OA
ATOM      7  C   LIG d   1       3.360  -1.335 -12.032  0.00  0.00     0.067 C 
ATOM      8  H   LIG d   1       4.226  -1.974 -11.862  0.00  0.00     0.042 H 
ATOM      9  H   LIG d   1       0.986  -3.034 -11.288  0.00  0.00     0.070 H 
ATOM     10  H   LIG d   1       0.221  -1.426 -11.107  0.00  0.00     0.070 H 
ENDROOT
BRANCH   1  11
ATOM     11  C   LIG d   1       2.906  -2.397  -9.781  0.00  0.00    -0.021 C 
ATOM     12  H   LIG d   1       3.814  -2.877 -10.147  0.00  0.00     0.032 H 
ATOM     13  H   LIG d   1       2.151  -3.156  -9.578  0.00  0.00     0.032 H 
BRANCH  11  14
ATOM     14  C   LIG d   1       3.213  -1.642  -8.513  0.00  0.00    -0.043 A 
ATOM     15  C   LIG d   1       2.492  -0.506  -8.196  0.00  0.00    -0.055 A 
ATOM     16  C   LIG d   1       2.769   0.191  -7.034  0.00  0.00    -0.016 A 
ATOM     17  H   LIG d   1       1.711  -0.161  -8.857  0.00  0.00     0.062 H 
ATOM     18  C   LIG d   1       3.771  -0.251  -6.185  0.00  0.00     0.162 A 
ATOM     19  H   LIG d   1       2.205   1.077  -6.788  0.00  0.00     0.066 H 
ATOM     20  C   LIG d   1       4.497  -1.395  -6.504  0.00  0.00     0.162 A 
ATOM     21  C   LIG d   1       4.211  -2.091  -7.668  0.00  0.00    -0.013 A 
ATOM     22  H   LIG d   1       4.769  -2.980  -7.916  0.00  0.00     0.066 H 
BRANCH  18  23
ATOM     23  O   LIG d   1       4.045   0.433  -5.041  0.00  0.00    -0.491 OA
BRANCH  23  24
ATOM     24  C   LIG d   1       3.121   0.289  -3.962  0.00  0.00     0.079 C 
ATOM     25  H   LIG d   1       2.390   1.096  -3.999  0.00  0.00     0.066 H 
ATOM     26  H   LIG d   1       2.609  -0.669  -4.047  0.00  0.00     0.066 H 
ATOM     27  H   LIG d   1       3.658   0.330  -3.014  0.00  0.00     0.066 H 
ENDBRANCH  23  24
ENDBRANCH  18  23
BRANCH  20  28
ATOM     28  O   LIG d   1       5.482  -1.832  -5.673  0.00  0.00    -0.491 OA
BRANCH  28  29
ATOM     29  C   LIG d   1       5.172  -2.942  -4.828  0.00  0.00     0.079 C 
ATOM     30  H   LIG d   1       5.696  -3.828  -5.185  0.00  0.00     0.066 H 
ATOM     31  H   LIG d   1       5.485  -2.720  -3.808  0.00  0.00     0.066 H 
ATOM     32  H   LIG d   1       4.097  -3.122  -4.846  0.00  0.00     0.066 H 
ENDBRANCH  28  29
ENDBRANCH  20  28
ENDBRANCH  11  14
ENDBRANCH   1  11
BRANCH   7  33
ATOM     33  C   LIG d   1       3.799   0.114 -12.253  0.00  0.00    -0.014 C 
ATOM     34  H   LIG d   1       4.447   0.169 -13.128  0.00  0.00     0.032 H 
ATOM     35  H   LIG d   1       2.920   0.739 -12.412  0.00  0.00     0.032 H 
BRANCH  33  36
ATOM     36  C   LIG d   1       4.549   0.601 -11.041  0.00  0.00    -0.043 A 
ATOM     37  C   LIG d   1       5.678  -0.071 -10.611  0.00  0.00    -0.013 A 
ATOM     38  C   LIG d   1       6.373   0.377  -9.500  0.00  0.00     0.167 A 
ATOM     39  H   LIG d   1       6.021  -0.946 -11.145  0.00  0.00     0.066 H 
ATOM     40  C   LIG d   1       5.925   1.501  -8.811  0.00  0.00     0.166 A 
ATOM     41  O   LIG d   1       7.495  -0.094  -8.883  0.00  0.00    -0.453 OA
ATOM     42  C   LIG d   1       4.790   2.168  -9.243  0.00  0.00    -0.016 A 
ATOM     43  O   LIG d   1       6.766   1.734  -7.762  0.00  0.00    -0.453 OA
ATOM     44  C   LIG d   1       4.104   1.718 -10.356  0.00  0.00    -0.055 A 
ATOM     45  H   LIG d   1       4.441   3.040  -8.711  0.00  0.00     0.066 H 
ATOM     46  H   LIG d   1       3.219   2.238 -10.692  0.00  0.00     0.062 H 
ATOM     47  C   LIG d   1       7.496   0.507  -7.574  0.00  0.00     0.233 C 
ATOM     48  H   LIG d   1       6.986  -0.136  -6.857  0.00  0.00     0.117 H 
ATOM     49  H   LIG d   1       8.515   0.713  -7.248  0.00  0.00     0.117 H 
ENDBRANCH  33  36
ENDBRANCH   7  33
TORSDOF 8
ENDMDL
MODEL 2
REMARK VINA RESULT:      -5.5      3.190      6.350
REMARK  8 active torsions:
REMARK  status: ('A' for Active; 'I' for Inactive)
REMARK    1  A    between atoms: C_1  and  O_2 
REMARK    2  A    between atoms: O_2  and  C_3 
REMARK    3  A    between atoms: C_6  and  C_11 
REMARK    4  A    between atoms: C_8  and  O_9 
REMARK    5  A    between atoms: O_9  and  C_10 
REMARK    6  A    between atoms: C_11  and  C_12 
REMARK    7  A    between atoms: C_18  and  C_20 
REMARK    8  A    between atoms: C_20  and  C_21 
ROOT
ATOM      1  C   LIG d   1       5.272  -3.504  -7.258  0.00  0.00     0.011 C 
ATOM      2  H   LIG d   1       6.300  -3.158  -7.376  0.00  0.00     0.035 H 
ATOM      3  C   LIG d   1       5.064  -4.853  -7.980  0.00  0.00     0.096 C 
ATOM      4  O   LIG d   1       5.121  -5.860  -6.924  0.00  0.00    -0.464 OA
ATOM      5  C   LIG d   1       4.622  -5.322  -5.797  0.00  0.00     0.311 C 
ATOM      6  O   LIG d   1       4.003  -5.911  -4.943  0.00  0.00    -0.251 OA
ATOM      7  C   LIG d   1       4.976  -3.845  -5.780  0.00  0.00     0.067 C 
ATOM      8  H   LIG d   1       4.136  -3.256  -5.416  0.00  0.00     0.042 H 
ATOM      9  H   LIG d   1       4.092  -4.874  -8.471  0.00  0.00     0.070 H 
ATOM     10  H   LIG d   1       5.860  -5.021  -8.705  0.00  0.00     0.070 H 
ENDROOT
BRANCH   1  11
ATOM     11  C   LIG d   1       4.288  -2.455  -7.780  0.00  0.00    -0.021 C 
ATOM     12  H   LIG d   1       3.550  -2.235  -7.008  0.00  0.00     0.032 H 
ATOM     13  H   LIG d   1       3.783  -2.840  -8.666  0.00  0.00     0.032 H 
BRANCH  11  14
ATOM     14  C   LIG d   1       5.036  -1.196  -8.134  0.00  0.00    -0.043 A 
ATOM     15  C   LIG d   1       6.409  -1.231  -8.294  0.00  0.00    -0.055 A 
ATOM     16  C   LIG d   1       7.100  -0.079  -8.619  0.00  0.00    -0.016 A 
ATOM     17  H   LIG d   1       6.942  -2.161  -8.164  0.00  0.00     0.062 H 
ATOM     18  C   LIG d   1       6.416   1.115  -8.786  0.00  0.00     0.162 A 
ATOM     19  H   LIG d   1       8.172  -0.109  -8.742  0.00  0.00     0.066 H 
ATOM     20  C   LIG d   1       5.034   1.150  -8.626  0.00  0.00     0.162 A 
ATOM     21  C   LIG d   1       4.347  -0.009  -8.305  0.00  0.00    -0.013 A 
ATOM     22  H   LIG d   1       3.275   0.014  -8.184  0.00  0.00     0.066 H 
BRANCH  18  23
ATOM     23  O   LIG d   1       7.094   2.250  -9.106  0.00  0.00    -0.491 OA
BRANCH  23  24
ATOM     24  C   LIG d   1       8.401   2.402  -8.550  0.00  0.00     0.079 C 
ATOM     25  H   LIG d   1       8.462   1.857  -7.608  0.00  0.00     0.066 H 
ATOM     26  H   LIG d   1       9.141   2.005  -9.246  0.00  0.00     0.066 H 
ATOM     27  H   LIG d   1       8.601   3.458  -8.372  0.00  0.00     0.066 H 
ENDBRANCH  23  24
ENDBRANCH  18  23
BRANCH  20  28
ATOM     28  O   LIG d   1       4.358   2.320  -8.789  0.00  0.00    -0.491 OA
BRANCH  28  29
ATOM     29  C   LIG d   1       3.503   2.421  -9.930  0.00  0.00     0.079 C 
ATOM     30  H   LIG d   1       3.016   3.395  -9.934  0.00  0.00     0.066 H 
ATOM     31  H   LIG d   1       4.095   2.306 -10.838  0.00  0.00     0.066 H 
ATOM     32  H   LIG d   1       2.748   1.636  -9.887  0.00  0.00     0.066 H 
ENDBRANCH  28  29
ENDBRANCH  20  28
ENDBRANCH  11  14
ENDBRANCH   1  11
BRANCH   7  33
ATOM     33  C   LIG d   1       6.216  -3.599  -4.918  0.00  0.00    -0.014 C 
ATOM     34  H   LIG d   1       6.278  -4.363  -4.144  0.00  0.00     0.032 H 
ATOM     35  H   LIG d   1       7.108  -3.643  -5.544  0.00  0.00     0.032 H 
BRANCH  33  36
ATOM     36  C   LIG d   1       6.119  -2.239  -4.277  0.00  0.00    -0.043 A 
ATOM     37  C   LIG d   1       5.210  -2.020  -3.259  0.00  0.00    -0.013 A 
ATOM     38  C   LIG d   1       5.121  -0.772  -2.664  0.00  0.00     0.167 A 
ATOM     39  H   LIG d   1       4.568  -2.823  -2.926  0.00  0.00     0.066 H 
ATOM     40  C   LIG d   1       5.945   0.263  -3.100  0.00  0.00     0.166 A 
ATOM     41  O   LIG d   1       4.326  -0.302  -1.659  0.00  0.00    -0.453 OA
ATOM     42  C   LIG d   1       6.851   0.037  -4.124  0.00  0.00    -0.016 A 
ATOM     43  O   LIG d   1       5.666   1.380  -2.369  0.00  0.00    -0.453 OA
ATOM     44  C   LIG d   1       6.937  -1.211  -4.710  0.00  0.00    -0.055 A 
ATOM     45  H   LIG d   1       7.491   0.838  -4.464  0.00  0.00     0.066 H 
ATOM     46  H   LIG d   1       7.644  -1.385  -5.508  0.00  0.00     0.062 H 
ATOM     47  C   LIG d   1       4.384   1.133  -1.762  0.00  0.00     0.233 C 
ATOM     48  H   LIG d   1       3.581   1.504  -2.398  0.00  0.00     0.117 H 
ATOM     49  H   LIG d   1       4.332   1.590  -0.774  0.00  0.00     0.117 H 
ENDBRANCH  33  36
ENDBRANCH   7  33
TORSDOF 8
ENDMDL
MODEL 3
REMARK VINA RESULT:      -5.4      2.505      6.529
REMARK  8 active torsions:
REMARK  status: ('A' for Active; 'I' for Inactive)
REMARK    1  A    between atoms: C_1  and  O_2 
REMARK    2  A    between atoms: O_2  and  C_3 
REMARK    3  A    between atoms: C_6  and  C_11 
REMARK    4  A    between atoms: C_8  and  O_9 
REMARK    5  A    between atoms: O_9  and  C_10 
REMARK    6  A    between atoms: C_11  and  C_12 
REMARK    7  A    between atoms: C_18  and  C_20 
REMARK    8  A    between atoms: C_20  and  C_21 
ROOT
ATOM      1  C   LIG d   1       5.941  -3.510  -6.875  0.00  0.00     0.011 C 
ATOM      2  H   LIG d   1       6.356  -2.502  -6.861  0.00  0.00     0.035 H 
ATOM      3  C   LIG d   1       6.701  -4.400  -7.882  0.00  0.00     0.096 C 
ATOM      4  O   LIG d   1       7.614  -5.198  -7.068  0.00  0.00    -0.464 OA
ATOM      5  C   LIG d   1       7.031  -5.430  -5.878  0.00  0.00     0.311 C 
ATOM      6  O   LIG d   1       7.161  -6.425  -5.206  0.00  0.00    -0.251 OA
ATOM      7  C   LIG d   1       6.184  -4.219  -5.524  0.00  0.00     0.067 C 
ATOM      8  H   LIG d   1       5.238  -4.533  -5.084  0.00  0.00     0.042 H 
ATOM      9  H   LIG d   1       6.006  -5.047  -8.415  0.00  0.00     0.070 H 
ATOM     10  H   LIG d   1       7.262  -3.784  -8.584  0.00  0.00     0.070 H 
ENDROOT
BRANCH   1  11
ATOM     11  C   LIG d   1       4.448  -3.474  -7.207  0.00  0.00    -0.021 C 
ATOM     12  H   LIG d   1       3.874  -3.776  -6.331  0.00  0.00     0.032 H 
ATOM     13  H   LIG d   1       4.242  -4.158  -8.030  0.00  0.00     0.032 H 
BRANCH  11  14
ATOM     14  C   LIG d   1       4.056  -2.074  -7.606  0.00  0.00    -0.043 A 
ATOM     15  C   LIG d   1       4.560  -0.992  -6.909  0.00  0.00    -0.055 A 
ATOM     16  C   LIG d   1       4.204   0.294  -7.270  0.00  0.00    -0.016 A 
ATOM     17  H   LIG d   1       5.233  -1.151  -6.079  0.00  0.00     0.062 H 
ATOM     18  C   LIG d   1       3.340   0.499  -8.335  0.00  0.00     0.162 A 
ATOM     19  H   LIG d   1       4.598   1.137  -6.724  0.00  0.00     0.066 H 
ATOM     20  C   LIG d   1       2.834  -0.590  -9.037  0.00  0.00     0.162 A 
ATOM     21  C   LIG d   1       3.198  -1.876  -8.672  0.00  0.00    -0.013 A 
ATOM     22  H   LIG d   1       2.811  -2.723  -9.217  0.00  0.00     0.066 H 
BRANCH  18  23
ATOM     23  O   LIG d   1       2.988   1.764  -8.692  0.00  0.00    -0.491 OA
BRANCH  23  24
ATOM     24  C   LIG d   1       4.009   2.585  -9.262  0.00  0.00     0.079 C 
ATOM     25  H   LIG d   1       4.015   2.458 -10.344  0.00  0.00     0.066 H 
ATOM     26  H   LIG d   1       3.812   3.629  -9.020  0.00  0.00     0.066 H 
ATOM     27  H   LIG d   1       4.978   2.295  -8.857  0.00  0.00     0.066 H 
ENDBRANCH  23  24
ENDBRANCH  18  23
BRANCH  20  28
ATOM     28  O   LIG d   1       1.985  -0.393 -10.082  0.00  0.00    -0.491 OA
BRANCH  28  29
ATOM     29  C   LIG d   1       2.488  -0.683 -11.388  0.00  0.00     0.079 C 
ATOM     30  H   LIG d   1       1.699  -1.131 -11.991  0.00  0.00     0.066 H 
ATOM     31  H   LIG d   1       2.827   0.240 -11.860  0.00  0.00     0.066 H 
ATOM     32  H   LIG d   1       3.325  -1.377 -11.309  0.00  0.00     0.066 H 
ENDBRANCH  28  29
ENDBRANCH  20  28
ENDBRANCH  11  14
ENDBRANCH   1  11
BRANCH   7  33
ATOM     33  C   LIG d   1       6.939  -3.296  -4.566  0.00  0.00    -0.014 C 
ATOM     34  H   LIG d   1       7.449  -3.894  -3.810  0.00  0.00     0.032 H 
ATOM     35  H   LIG d   1       7.673  -2.715  -5.125  0.00  0.00     0.032 H 
BRANCH  33  36
ATOM     36  C   LIG d   1       5.965  -2.363  -3.895  0.00  0.00    -0.043 A 
ATOM     37  C   LIG d   1       6.356  -1.080  -3.561  0.00  0.00    -0.013 A 
ATOM     38  C   LIG d   1       5.460  -0.219  -2.948  0.00  0.00     0.167 A 
ATOM     39  H   LIG d   1       7.360  -0.748  -3.780  0.00  0.00     0.066 H 
ATOM     40  C   LIG d   1       4.169  -0.652  -2.661  0.00  0.00     0.166 A 
ATOM     41  O   LIG d   1       5.591   1.072  -2.526  0.00  0.00    -0.453 OA
ATOM     42  C   LIG d   1       3.785  -1.942  -2.994  0.00  0.00    -0.016 A 
ATOM     43  O   LIG d   1       3.490   0.367  -2.060  0.00  0.00    -0.453 OA
ATOM     44  C   LIG d   1       4.682  -2.794  -3.609  0.00  0.00    -0.055 A 
ATOM     45  H   LIG d   1       2.783  -2.280  -2.773  0.00  0.00     0.066 H 
ATOM     46  H   LIG d   1       4.381  -3.799  -3.868  0.00  0.00     0.062 H 
ATOM     47  C   LIG d   1       4.499   1.290  -1.612  0.00  0.00     0.233 C 
ATOM     48  H   LIG d   1       4.804   1.060  -0.591  0.00  0.00     0.117 H 
ATOM     49  H   LIG d   1       4.140   2.317  -1.683  0.00  0.00     0.117 H 
ENDBRANCH  33  36
ENDBRANCH   7  33
TORSDOF 8
ENDMDL
MODEL 4
REMARK VINA RESULT:      -5.4      3.868      6.520
REMARK  8 active torsions:
REMARK  status: ('A' for Active; 'I' for Inactive)
REMARK    1  A    between atoms: C_1  and  O_2 
REMARK    2  A    between atoms: O_2  and  C_3 
REMARK    3  A    between atoms: C_6  and  C_11 
REMARK    4  A    between atoms: C_8  and  O_9 
REMARK    5  A    between atoms: O_9  and  C_10 
REMARK    6  A    between atoms: C_11  and  C_12 
REMARK    7  A    between atoms: C_18  and  C_20 
REMARK    8  A    between atoms: C_20  and  C_21 
ROOT
ATOM      1  C   LIG d   1       6.696  -4.504  -5.629  0.00  0.00     0.011 C 
ATOM      2  H   LIG d   1       7.154  -4.433  -4.642  0.00  0.00     0.035 H 
ATOM      3  C   LIG d   1       6.695  -5.965  -6.126  0.00  0.00     0.096 C 
ATOM      4  O   LIG d   1       5.339  -6.448  -5.881  0.00  0.00    -0.464 OA
ATOM      5  C   LIG d   1       4.488  -5.416  -6.025  0.00  0.00     0.311 C 
ATOM      6  O   LIG d   1       3.359  -5.482  -6.449  0.00  0.00    -0.251 OA
ATOM      7  C   LIG d   1       5.192  -4.153  -5.559  0.00  0.00     0.067 C 
ATOM      8  H   LIG d   1       4.965  -3.322  -6.226  0.00  0.00     0.042 H 
ATOM      9  H   LIG d   1       6.924  -6.003  -7.191  0.00  0.00     0.070 H 
ATOM     10  H   LIG d   1       7.414  -6.558  -5.562  0.00  0.00     0.070 H 
ENDROOT
BRANCH   1  11
ATOM     11  C   LIG d   1       7.418  -3.595  -6.625  0.00  0.00    -0.021 C 
ATOM     12  H   LIG d   1       6.909  -3.636  -7.589  0.00  0.00     0.032 H 
ATOM     13  H   LIG d   1       8.448  -3.931  -6.744  0.00  0.00     0.032 H 
BRANCH  11  14
ATOM     14  C   LIG d   1       7.408  -2.178  -6.112  0.00  0.00    -0.043 A 
ATOM     15  C   LIG d   1       7.863  -1.904  -4.835  0.00  0.00    -0.055 A 
ATOM     16  C   LIG d   1       7.856  -0.606  -4.359  0.00  0.00    -0.016 A 
ATOM     17  H   LIG d   1       8.224  -2.705  -4.209  0.00  0.00     0.062 H 
ATOM     18  C   LIG d   1       7.392   0.424  -5.163  0.00  0.00     0.162 A 
ATOM     19  H   LIG d   1       8.211  -0.395  -3.362  0.00  0.00     0.066 H 
ATOM     20  C   LIG d   1       6.935   0.148  -6.448  0.00  0.00     0.162 A 
ATOM     21  C   LIG d   1       6.949  -1.154  -6.921  0.00  0.00    -0.013 A 
ATOM     22  H   LIG d   1       6.599  -1.371  -7.918  0.00  0.00     0.066 H 
BRANCH  18  23
ATOM     23  O   LIG d   1       7.385   1.702  -4.696  0.00  0.00    -0.491 OA
BRANCH  23  24
ATOM     24  C   LIG d   1       8.653   2.307  -4.441  0.00  0.00     0.079 C 
ATOM     25  H   LIG d   1       9.342   2.061  -5.250  0.00  0.00     0.066 H 
ATOM     26  H   LIG d   1       8.535   3.388  -4.382  0.00  0.00     0.066 H 
ATOM     27  H   LIG d   1       9.052   1.933  -3.498  0.00  0.00     0.066 H 
ENDBRANCH  23  24
ENDBRANCH  18  23
BRANCH  20  28
ATOM     28  O   LIG d   1       6.479   1.156  -7.240  0.00  0.00    -0.491 OA
BRANCH  28  29
ATOM     29  C   LIG d   1       6.276   0.852  -8.622  0.00  0.00     0.079 C 
ATOM     30  H   LIG d   1       6.477   1.738  -9.223  0.00  0.00     0.066 H 
ATOM     31  H   LIG d   1       6.950   0.049  -8.921  0.00  0.00     0.066 H 
ATOM     32  H   LIG d   1       5.244   0.534  -8.775  0.00  0.00     0.066 H 
ENDBRANCH  28  29
ENDBRANCH  20  28
ENDBRANCH  11  14
ENDBRANCH   1  11
BRANCH   7  33
ATOM     33  C   LIG d   1       4.791  -3.813  -4.123  0.00  0.00    -0.014 C 
ATOM     34  H   LIG d   1       3.909  -4.390  -3.845  0.00  0.00     0.032 H 
ATOM     35  H   LIG d   1       5.612  -4.058  -3.449  0.00  0.00     0.032 H 
BRANCH  33  36
ATOM     36  C   LIG d   1       4.481  -2.342  -4.024  0.00  0.00    -0.043 A 
ATOM     37  C   LIG d   1       4.714  -1.666  -2.841  0.00  0.00    -0.013 A 
ATOM     38  C   LIG d   1       4.434  -0.312  -2.748  0.00  0.00     0.167 A 
ATOM     39  H   LIG d   1       5.118  -2.193  -1.988  0.00  0.00     0.066 H 
ATOM     40  C   LIG d   1       3.908   0.363  -3.847  0.00  0.00     0.166 A 
ATOM     41  O   LIG d   1       4.573   0.573  -1.719  0.00  0.00    -0.453 OA
ATOM     42  C   LIG d   1       3.672  -0.323  -5.028  0.00  0.00    -0.016 A 
ATOM     43  O   LIG d   1       3.716   1.670  -3.506  0.00  0.00    -0.453 OA
ATOM     44  C   LIG d   1       3.958  -1.672  -5.114  0.00  0.00    -0.055 A 
ATOM     45  H   LIG d   1       3.264   0.198  -5.882  0.00  0.00     0.066 H 
ATOM     46  H   LIG d   1       3.772  -2.205  -6.036  0.00  0.00     0.062 H 
ATOM     47  C   LIG d   1       3.747   1.700  -2.067  0.00  0.00     0.233 C 
ATOM     48  H   LIG d   1       2.743   1.579  -1.660  0.00  0.00     0.117 H 
ATOM     49  H   LIG d   1       4.195   2.627  -1.711  0.00  0.00     0.117 H 
ENDBRANCH  33  36
ENDBRANCH   7  33
TORSDOF 8
ENDMDL
MODEL 5
REMARK VINA RESULT:      -5.4      2.693      6.520
REMARK  8 active torsions:
REMARK  status: ('A' for Active; 'I' for Inactive)
REMARK    1  A    between atoms: C_1  and  O_2 
REMARK    2  A    between atoms: O_2  and  C_3 
REMARK    3  A    between atoms: C_6  and  C_11 
REMARK    4  A    between atoms: C_8  and  O_9 
REMARK    5  A    between atoms: O_9  and  C_10 
REMARK    6  A    between atoms: C_11  and  C_12 
REMARK    7  A    between atoms: C_18  and  C_20 
REMARK    8  A    between atoms: C_20  and  C_21 
ROOT
ATOM      1  C   LIG d   1       3.610  -0.531  -4.315  0.00  0.00     0.011 C 
ATOM      2  H   LIG d   1       3.989  -1.413  -4.831  0.00  0.00     0.035 H 
ATOM      3  C   LIG d   1       2.778  -0.936  -3.079  0.00  0.00     0.096 C 
ATOM      4  O   LIG d   1       3.672  -0.747  -1.941  0.00  0.00    -0.464 OA
ATOM      5  C   LIG d   1       4.492   0.285  -2.212  0.00  0.00     0.311 C 
ATOM      6  O   LIG d   1       4.934   1.070  -1.408  0.00  0.00    -0.251 OA
ATOM      7  C   LIG d   1       4.770   0.288  -3.706  0.00  0.00     0.067 C 
ATOM      8  H   LIG d   1       4.760   1.306  -4.093  0.00  0.00     0.042 H 
ATOM      9  H   LIG d   1       1.903  -0.294  -2.984  0.00  0.00     0.070 H 
ATOM     10  H   LIG d   1       2.475  -1.980  -3.153  0.00  0.00     0.070 H 
ENDROOT
BRANCH   1  11
ATOM     11  C   LIG d   1       2.779   0.333  -5.265  0.00  0.00    -0.021 C 
ATOM     12  H   LIG d   1       2.907   1.385  -5.007  0.00  0.00     0.032 H 
ATOM     13  H   LIG d   1       1.726   0.063  -5.176  0.00  0.00     0.032 H 
BRANCH  11  14
ATOM     14  C   LIG d   1       3.238   0.105  -6.683  0.00  0.00    -0.043 A 
ATOM     15  C   LIG d   1       2.903   1.013  -7.670  0.00  0.00    -0.055 A 
ATOM     16  C   LIG d   1       3.321   0.809  -8.972  0.00  0.00    -0.016 A 
ATOM     17  H   LIG d   1       2.312   1.883  -7.424  0.00  0.00     0.062 H 
ATOM     18  C   LIG d   1       4.078  -0.307  -9.289  0.00  0.00     0.162 A 
ATOM     19  H   LIG d   1       3.057   1.519  -9.741  0.00  0.00     0.066 H 
ATOM     20  C   LIG d   1       4.416  -1.221  -8.295  0.00  0.00     0.162 A 
ATOM     21  C   LIG d   1       3.997  -1.008  -6.991  0.00  0.00    -0.013 A 
ATOM     22  H   LIG d   1       4.261  -1.712  -6.217  0.00  0.00     0.066 H 
BRANCH  18  23
ATOM     23  O   LIG d   1       4.490  -0.510 -10.569  0.00  0.00    -0.491 OA
BRANCH  23  24
ATOM     24  C   LIG d   1       4.133   0.485 -11.530  0.00  0.00     0.079 C 
ATOM     25  H   LIG d   1       4.889   1.271 -11.538  0.00  0.00     0.066 H 
ATOM     26  H   LIG d   1       4.073   0.030 -12.519  0.00  0.00     0.066 H 
ATOM     27  H   LIG d   1       3.167   0.914 -11.268  0.00  0.00     0.066 H 
ENDBRANCH  23  24
ENDBRANCH  18  23
BRANCH  20  28
ATOM     28  O   LIG d   1       5.159  -2.318  -8.601  0.00  0.00    -0.491 OA
BRANCH  28  29
ATOM     29  C   LIG d   1       6.219  -2.655  -7.704  0.00  0.00     0.079 C 
ATOM     30  H   LIG d   1       7.033  -3.120  -8.259  0.00  0.00     0.066 H 
ATOM     31  H   LIG d   1       6.583  -1.750  -7.216  0.00  0.00     0.066 H 
ATOM     32  H   LIG d   1       5.848  -3.349  -6.949  0.00  0.00     0.066 H 
ENDBRANCH  28  29
ENDBRANCH  20  28
ENDBRANCH  11  14
ENDBRANCH   1  11
BRANCH   7  33
ATOM     33  C   LIG d   1       6.111  -0.385  -4.004  0.00  0.00    -0.014 C 
ATOM     34  H   LIG d   1       6.552  -0.746  -3.075  0.00  0.00     0.032 H 
ATOM     35  H   LIG d   1       5.953  -1.225  -4.681  0.00  0.00     0.032 H 
BRANCH  33  36
ATOM     36  C   LIG d   1       7.040   0.611  -4.648  0.00  0.00    -0.043 A 
ATOM     37  C   LIG d   1       7.629   1.600  -3.883  0.00  0.00    -0.013 A 
ATOM     38  C   LIG d   1       8.487   2.515  -4.472  0.00  0.00     0.167 A 
ATOM     39  H   LIG d   1       7.421   1.659  -2.825  0.00  0.00     0.066 H 
ATOM     40  C   LIG d   1       8.747   2.440  -5.838  0.00  0.00     0.166 A 
ATOM     41  O   LIG d   1       9.186   3.565  -3.951  0.00  0.00    -0.453 OA
ATOM     42  C   LIG d   1       8.150   1.449  -6.600  0.00  0.00    -0.016 A 
ATOM     43  O   LIG d   1       9.608   3.444  -6.173  0.00  0.00    -0.453 OA
ATOM     44  C   LIG d   1       7.298   0.537  -6.005  0.00  0.00    -0.055 A 
ATOM     45  H   LIG d   1       8.350   1.388  -7.659  0.00  0.00     0.066 H 
ATOM     46  H   LIG d   1       6.833  -0.235  -6.601  0.00  0.00     0.062 H 
ATOM     47  C   LIG d   1       9.553   4.380  -5.081  0.00  0.00     0.233 C 
ATOM     48  H   LIG d   1       8.795   5.141  -5.266  0.00  0.00     0.117 H 
ATOM     49  H   LIG d   1      10.527   4.841  -4.920  0.00  0.00     0.117 H 
ENDBRANCH  33  36
ENDBRANCH   7  33
TORSDOF 8
ENDMDL
MODEL 6
REMARK VINA RESULT:      -5.4      2.851      7.143
REMARK  8 active torsions:
REMARK  status: ('A' for Active; 'I' for Inactive)
REMARK    1  A    between atoms: C_1  and  O_2 
REMARK    2  A    between atoms: O_2  and  C_3 
REMARK    3  A    between atoms: C_6  and  C_11 
REMARK    4  A    between atoms: C_8  and  O_9 
REMARK    5  A    between atoms: O_9  and  C_10 
REMARK    6  A    between atoms: C_11  and  C_12 
REMARK    7  A    between atoms: C_18  and  C_20 
REMARK    8  A    between atoms: C_20  and  C_21 
ROOT
ATOM      1  C   LIG d   1       3.969  -0.359  -4.578  0.00  0.00     0.011 C 
ATOM      2  H   LIG d   1       3.540  -1.355  -4.693  0.00  0.00     0.035 H 
ATOM      3  C   LIG d   1       2.898   0.645  -4.100  0.00  0.00     0.096 C 
ATOM      4  O   LIG d   1       3.133   0.794  -2.667  0.00  0.00    -0.464 OA
ATOM      5  C   LIG d   1       4.451   0.661  -2.435  0.00  0.00     0.311 C 
ATOM      6  O   LIG d   1       5.083   1.235  -1.581  0.00  0.00    -0.251 OA
ATOM      7  C   LIG d   1       5.008  -0.340  -3.434  0.00  0.00     0.067 C 
ATOM      8  H   LIG d   1       5.976  -0.008  -3.806  0.00  0.00     0.042 H 
ATOM      9  H   LIG d   1       3.023   1.601  -4.606  0.00  0.00     0.070 H 
ATOM     10  H   LIG d   1       1.900   0.247  -4.280  0.00  0.00     0.070 H 
ENDROOT
BRANCH   1  11
ATOM     11  C   LIG d   1       4.601   0.110  -5.890  0.00  0.00    -0.021 C 
ATOM     12  H   LIG d   1       5.649  -0.189  -5.915  0.00  0.00     0.032 H 
ATOM     13  H   LIG d   1       4.531   1.195  -5.960  0.00  0.00     0.032 H 
BRANCH  11  14
ATOM     14  C   LIG d   1       3.873  -0.517  -7.051  0.00  0.00    -0.043 A 
ATOM     15  C   LIG d   1       2.881   0.190  -7.706  0.00  0.00    -0.055 A 
ATOM     16  C   LIG d   1       2.210  -0.379  -8.771  0.00  0.00    -0.016 A 
ATOM     17  H   LIG d   1       2.630   1.190  -7.383  0.00  0.00     0.062 H 
ATOM     18  C   LIG d   1       2.531  -1.662  -9.186  0.00  0.00     0.162 A 
ATOM     19  H   LIG d   1       1.435   0.175  -9.280  0.00  0.00     0.066 H 
ATOM     20  C   LIG d   1       3.530  -2.374  -8.528  0.00  0.00     0.162 A 
ATOM     21  C   LIG d   1       4.202  -1.795  -7.464  0.00  0.00    -0.013 A 
ATOM     22  H   LIG d   1       4.980  -2.343  -6.953  0.00  0.00     0.066 H 
BRANCH  18  23
ATOM     23  O   LIG d   1       1.871  -2.224 -10.234  0.00  0.00    -0.491 OA
BRANCH  23  24
ATOM     24  C   LIG d   1       1.476  -1.353 -11.294  0.00  0.00     0.079 C 
ATOM     25  H   LIG d   1       0.388  -1.280 -11.319  0.00  0.00     0.066 H 
ATOM     26  H   LIG d   1       1.902  -0.363 -11.130  0.00  0.00     0.066 H 
ATOM     27  H   LIG d   1       1.834  -1.749 -12.244  0.00  0.00     0.066 H 
ENDBRANCH  23  24
ENDBRANCH  18  23
BRANCH  20  28
ATOM     28  O   LIG d   1       3.848  -3.633  -8.931  0.00  0.00    -0.491 OA
BRANCH  28  29
ATOM     29  C   LIG d   1       5.082  -3.796  -9.634  0.00  0.00     0.079 C 
ATOM     30  H   LIG d   1       4.889  -3.839 -10.705  0.00  0.00     0.066 H 
ATOM     31  H   LIG d   1       5.738  -2.953  -9.415  0.00  0.00     0.066 H 
ATOM     32  H   LIG d   1       5.562  -4.721  -9.313  0.00  0.00     0.066 H 
ENDBRANCH  28  29
ENDBRANCH  20  28
ENDBRANCH  11  14
ENDBRANCH   1  11
BRANCH   7  33
ATOM     33  C   LIG d   1       5.124  -1.726  -2.797  0.00  0.00    -0.014 C 
ATOM     34  H   LIG d   1       5.934  -1.724  -2.068  0.00  0.00     0.032 H 
ATOM     35  H   LIG d   1       4.187  -1.976  -2.299  0.00  0.00     0.032 H 
BRANCH  33  36
ATOM     36  C   LIG d   1       5.412  -2.747  -3.867  0.00  0.00    -0.043 A 
ATOM     37  C   LIG d   1       4.427  -3.636  -4.256  0.00  0.00    -0.013 A 
ATOM     38  C   LIG d   1       4.688  -4.573  -5.243  0.00  0.00     0.167 A 
ATOM     39  H   LIG d   1       3.453  -3.598  -3.791  0.00  0.00     0.066 H 
ATOM     40  C   LIG d   1       5.948  -4.623  -5.834  0.00  0.00     0.166 A 
ATOM     41  O   LIG d   1       3.906  -5.542  -5.800  0.00  0.00    -0.453 OA
ATOM     42  C   LIG d   1       6.932  -3.732  -5.436  0.00  0.00    -0.016 A 
ATOM     43  O   LIG d   1       5.955  -5.623  -6.761  0.00  0.00    -0.453 OA
ATOM     44  C   LIG d   1       6.663  -2.797  -4.454  0.00  0.00    -0.055 A 
ATOM     45  H   LIG d   1       7.910  -3.768  -5.893  0.00  0.00     0.066 H 
ATOM     46  H   LIG d   1       7.432  -2.104  -4.144  0.00  0.00     0.062 H 
ATOM     47  C   LIG d   1       4.820  -6.450  -6.445  0.00  0.00     0.233 C 
ATOM     48  H   LIG d   1       5.107  -7.251  -5.765  0.00  0.00     0.117 H 
ATOM     49  H   LIG d   1       4.376  -6.858  -7.353  0.00  0.00     0.117 H 
ENDBRANCH  33  36
ENDBRANCH   7  33
TORSDOF 8
ENDMDL
MODEL 7
REMARK VINA RESULT:      -5.3      6.115      9.695
REMARK  8 active torsions:
REMARK  status: ('A' for Active; 'I' for Inactive)
REMARK    1  A    between atoms: C_1  and  O_2 
REMARK    2  A    between atoms: O_2  and  C_3 
REMARK    3  A    between atoms: C_6  and  C_11 
REMARK    4  A    between atoms: C_8  and  O_9 
REMARK    5  A    between atoms: O_9  and  C_10 
REMARK    6  A    between atoms: C_11  and  C_12 
REMARK    7  A    between atoms: C_18  and  C_20 
REMARK    8  A    between atoms: C_20  and  C_21 
ROOT
ATOM      1  C   LIG d   1       9.643   3.461  -5.017  0.00  0.00     0.011 C 
ATOM      2  H   LIG d   1      10.386   3.163  -4.276  0.00  0.00     0.035 H 
ATOM      3  C   LIG d   1      10.163   3.201  -6.447  0.00  0.00     0.096 C 
ATOM      4  O   LIG d   1       9.520   1.958  -6.863  0.00  0.00    -0.464 OA
ATOM      5  C   LIG d   1       8.305   1.895  -6.290  0.00  0.00     0.311 C 
ATOM      6  O   LIG d   1       7.318   1.394  -6.773  0.00  0.00    -0.251 OA
ATOM      7  C   LIG d   1       8.390   2.562  -4.928  0.00  0.00     0.067 C 
ATOM      8  H   LIG d   1       7.502   3.166  -4.743  0.00  0.00     0.042 H 
ATOM      9  H   LIG d   1       9.875   4.016  -7.109  0.00  0.00     0.070 H 
ATOM     10  H   LIG d   1      11.246   3.082  -6.440  0.00  0.00     0.070 H 
ENDROOT
BRANCH   1  11
ATOM     11  C   LIG d   1       9.267   4.933  -4.839  0.00  0.00    -0.021 C 
ATOM     12  H   LIG d   1       8.192   5.053  -4.977  0.00  0.00     0.032 H 
ATOM     13  H   LIG d   1       9.797   5.536  -5.577  0.00  0.00     0.032 H 
BRANCH  11  14
ATOM     14  C   LIG d   1       9.649   5.386  -3.453  0.00  0.00    -0.043 A 
ATOM     15  C   LIG d   1      10.425   4.571  -2.651  0.00  0.00    -0.055 A 
ATOM     16  C   LIG d   1      10.778   4.981  -1.379  0.00  0.00    -0.016 A 
ATOM     17  H   LIG d   1      10.756   3.611  -3.019  0.00  0.00     0.062 H 
ATOM     18  C   LIG d   1      10.354   6.213  -0.906  0.00  0.00     0.162 A 
ATOM     19  H   LIG d   1      11.384   4.342  -0.754  0.00  0.00     0.066 H 
ATOM     20  C   LIG d   1       9.573   7.033  -1.714  0.00  0.00     0.162 A 
ATOM     21  C   LIG d   1       9.226   6.618  -2.989  0.00  0.00    -0.013 A 
ATOM     22  H   LIG d   1       8.624   7.254  -3.620  0.00  0.00     0.066 H 
BRANCH  18  23
ATOM     23  O   LIG d   1      10.700   6.618   0.346  0.00  0.00    -0.491 OA
BRANCH  23  24
ATOM     24  C   LIG d   1      11.066   5.600   1.278  0.00  0.00     0.079 C 
ATOM     25  H   LIG d   1      11.820   5.989   1.964  0.00  0.00     0.066 H 
ATOM     26  H   LIG d   1      10.187   5.291   1.844  0.00  0.00     0.066 H 
ATOM     27  H   LIG d   1      11.472   4.743   0.742  0.00  0.00     0.066 H 
ENDBRANCH  23  24
ENDBRANCH  18  23
BRANCH  20  28
ATOM     28  O   LIG d   1       9.154   8.243  -1.253  0.00  0.00    -0.491 OA
BRANCH  28  29
ATOM     29  C   LIG d   1       9.860   9.395  -1.720  0.00  0.00     0.079 C 
ATOM     30  H   LIG d   1       9.468   9.693  -2.693  0.00  0.00     0.066 H 
ATOM     31  H   LIG d   1       9.733  10.212  -1.010  0.00  0.00     0.066 H 
ATOM     32  H   LIG d   1      10.920   9.157  -1.812  0.00  0.00     0.066 H 
ENDBRANCH  28  29
ENDBRANCH  20  28
ENDBRANCH  11  14
ENDBRANCH   1  11
BRANCH   7  33
ATOM     33  C   LIG d   1       8.563   1.514  -3.826  0.00  0.00    -0.014 C 
ATOM     34  H   LIG d   1       9.211   0.714  -4.185  0.00  0.00     0.032 H 
ATOM     35  H   LIG d   1       9.012   1.980  -2.949  0.00  0.00     0.032 H 
BRANCH  33  36
ATOM     36  C   LIG d   1       7.218   0.944  -3.460  0.00  0.00    -0.043 A 
ATOM     37  C   LIG d   1       7.016  -0.423  -3.488  0.00  0.00    -0.013 A 
ATOM     38  C   LIG d   1       5.781  -0.950  -3.147  0.00  0.00     0.167 A 
ATOM     39  H   LIG d   1       7.823  -1.082  -3.774  0.00  0.00     0.066 H 
ATOM     40  C   LIG d   1       4.741  -0.097  -2.785  0.00  0.00     0.166 A 
ATOM     41  O   LIG d   1       5.330  -2.236  -3.091  0.00  0.00    -0.453 OA
ATOM     42  C   LIG d   1       4.948   1.273  -2.764  0.00  0.00    -0.016 A 
ATOM     43  O   LIG d   1       3.638  -0.850  -2.503  0.00  0.00    -0.453 OA
ATOM     44  C   LIG d   1       6.185   1.791  -3.101  0.00  0.00    -0.055 A 
ATOM     45  H   LIG d   1       4.144   1.936  -2.483  0.00  0.00     0.066 H 
ATOM     46  H   LIG d   1       6.344   2.859  -3.084  0.00  0.00     0.062 H 
ATOM     47  C   LIG d   1       3.892  -2.140  -3.089  0.00  0.00     0.233 C 
ATOM     48  H   LIG d   1       3.504  -2.182  -4.106  0.00  0.00     0.117 H 
ATOM     49  H   LIG d   1       3.457  -2.931  -2.479  0.00  0.00     0.117 H 
ENDBRANCH  33  36
ENDBRANCH   7  33
TORSDOF 8
ENDMDL
MODEL 8
REMARK VINA RESULT:      -5.3      2.995      6.622
REMARK  8 active torsions:
REMARK  status: ('A' for Active; 'I' for Inactive)
REMARK    1  A    between atoms: C_1  and  O_2 
REMARK    2  A    between atoms: O_2  and  C_3 
REMARK    3  A    between atoms: C_6  and  C_11 
REMARK    4  A    between atoms: C_8  and  O_9 
REMARK    5  A    between atoms: O_9  and  C_10 
REMARK    6  A    between atoms: C_11  and  C_12 
REMARK    7  A    between atoms: C_18  and  C_20 
REMARK    8  A    between atoms: C_20  and  C_21 
ROOT
ATOM      1  C   LIG d   1       6.999  -3.432  -6.730  0.00  0.00     0.011 C 
ATOM      2  H   LIG d   1       7.369  -2.409  -6.654  0.00  0.00     0.035 H 
ATOM      3  C   LIG d   1       7.975  -4.306  -7.546  0.00  0.00     0.096 C 
ATOM      4  O   LIG d   1       8.732  -5.059  -6.551  0.00  0.00    -0.464 OA
ATOM      5  C   LIG d   1       7.931  -5.296  -5.497  0.00  0.00     0.311 C 
ATOM      6  O   LIG d   1       7.956  -6.277  -4.793  0.00  0.00    -0.251 OA
ATOM      7  C   LIG d   1       6.989  -4.114  -5.343  0.00  0.00     0.067 C 
ATOM      8  H   LIG d   1       5.985  -4.456  -5.096  0.00  0.00     0.042 H 
ATOM      9  H   LIG d   1       7.423  -4.985  -8.195  0.00  0.00     0.070 H 
ATOM     10  H   LIG d   1       8.643  -3.678  -8.135  0.00  0.00     0.070 H 
ENDROOT
BRANCH   1  11
ATOM     11  C   LIG d   1       5.602  -3.454  -7.354  0.00  0.00    -0.021 C 
ATOM     12  H   LIG d   1       4.907  -3.941  -6.670  0.00  0.00     0.032 H 
ATOM     13  H   LIG d   1       5.633  -4.007  -8.294  0.00  0.00     0.032 H 
BRANCH  11  14
ATOM     14  C   LIG d   1       5.145  -2.042  -7.615  0.00  0.00    -0.043 A 
ATOM     15  C   LIG d   1       3.842  -1.801  -8.008  0.00  0.00    -0.055 A 
ATOM     16  C   LIG d   1       3.417  -0.508  -8.249  0.00  0.00    -0.016 A 
ATOM     17  H   LIG d   1       3.154  -2.625  -8.127  0.00  0.00     0.062 H 
ATOM     18  C   LIG d   1       4.299   0.550  -8.097  0.00  0.00     0.162 A 
ATOM     19  H   LIG d   1       2.398  -0.322  -8.556  0.00  0.00     0.066 H 
ATOM     20  C   LIG d   1       5.611   0.308  -7.701  0.00  0.00     0.162 A 
ATOM     21  C   LIG d   1       6.029  -0.991  -7.456  0.00  0.00    -0.013 A 
ATOM     22  H   LIG d   1       7.044  -1.182  -7.146  0.00  0.00     0.066 H 
BRANCH  18  23
ATOM     23  O   LIG d   1       3.883   1.823  -8.334  0.00  0.00    -0.491 OA
BRANCH  23  24
ATOM     24  C   LIG d   1       3.768   2.224  -9.700  0.00  0.00     0.079 C 
ATOM     25  H   LIG d   1       3.927   3.300  -9.778  0.00  0.00     0.066 H 
ATOM     26  H   LIG d   1       4.517   1.703 -10.296  0.00  0.00     0.066 H 
ATOM     27  H   LIG d   1       2.773   1.977 -10.070  0.00  0.00     0.066 H 
ENDBRANCH  23  24
ENDBRANCH  18  23
BRANCH  20  28
ATOM     28  O   LIG d   1       6.480   1.343  -7.551  0.00  0.00    -0.491 OA
BRANCH  28  29
ATOM     29  C   LIG d   1       7.695   1.072  -6.849  0.00  0.00     0.079 C 
ATOM     30  H   LIG d   1       7.476   0.498  -5.949  0.00  0.00     0.066 H 
ATOM     31  H   LIG d   1       8.366   0.500  -7.491  0.00  0.00     0.066 H 
ATOM     32  H   LIG d   1       8.172   2.013  -6.574  0.00  0.00     0.066 H 
ENDBRANCH  28  29
ENDBRANCH  20  28
ENDBRANCH  11  14
ENDBRANCH   1  11
BRANCH   7  33
ATOM     33  C   LIG d   1       7.506  -3.151  -4.272  0.00  0.00    -0.014 C 
ATOM     34  H   LIG d   1       7.898  -3.721  -3.430  0.00  0.00     0.032 H 
ATOM     35  H   LIG d   1       8.299  -2.533  -4.693  0.00  0.00     0.032 H 
BRANCH  33  36
ATOM     36  C   LIG d   1       6.377  -2.270  -3.803  0.00  0.00    -0.043 A 
ATOM     37  C   LIG d   1       6.641  -0.986  -3.365  0.00  0.00    -0.013 A 
ATOM     38  C   LIG d   1       5.604  -0.172  -2.937  0.00  0.00     0.167 A 
ATOM     39  H   LIG d   1       7.655  -0.615  -3.359  0.00  0.00     0.066 H 
ATOM     40  C   LIG d   1       4.298  -0.656  -2.940  0.00  0.00     0.166 A 
ATOM     41  O   LIG d   1       5.594   1.109  -2.469  0.00  0.00    -0.453 OA
ATOM     42  C   LIG d   1       4.042  -1.946  -3.376  0.00  0.00    -0.016 A 
ATOM     43  O   LIG d   1       3.470   0.323  -2.473  0.00  0.00    -0.453 OA
ATOM     44  C   LIG d   1       5.080  -2.750  -3.805  0.00  0.00    -0.055 A 
ATOM     45  H   LIG d   1       3.030  -2.323  -3.379  0.00  0.00     0.066 H 
ATOM     46  H   LIG d   1       4.879  -3.756  -4.144  0.00  0.00     0.062 H 
ATOM     47  C   LIG d   1       4.326   1.265  -1.802  0.00  0.00     0.233 C 
ATOM     48  H   LIG d   1       4.417   1.014  -0.745  0.00  0.00     0.117 H 
ATOM     49  H   LIG d   1       3.952   2.281  -1.924  0.00  0.00     0.117 H 
ENDBRANCH  33  36
ENDBRANCH   7  33
TORSDOF 8
ENDMDL
MODEL 9
REMARK VINA RESULT:      -5.2      3.159      6.890
REMARK  8 active torsions:
REMARK  status: ('A' for Active; 'I' for Inactive)
REMARK    1  A    between atoms: C_1  and  O_2 
REMARK    2  A    between atoms: O_2  and  C_3 
REMARK    3  A    between atoms: C_6  and  C_11 
REMARK    4  A    between atoms: C_8  and  O_9 
REMARK    5  A    between atoms: O_9  and  C_10 
REMARK    6  A    between atoms: C_11  and  C_12 
REMARK    7  A    between atoms: C_18  and  C_20 
REMARK    8  A    between atoms: C_20  and  C_21 
ROOT
ATOM      1  C   LIG d   1       8.589   1.403  -4.255  0.00  0.00     0.011 C 
ATOM      2  H   LIG d   1       8.913   0.363  -4.300  0.00  0.00     0.035 H 
ATOM      3  C   LIG d   1       9.641   2.272  -3.533  0.00  0.00     0.096 C 
ATOM      4  O   LIG d   1      10.374   2.945  -4.601  0.00  0.00    -0.464 OA
ATOM      5  C   LIG d   1       9.528   3.167  -5.623  0.00  0.00     0.311 C 
ATOM      6  O   LIG d   1       9.555   4.112  -6.375  0.00  0.00    -0.251 OA
ATOM      7  C   LIG d   1       8.533   2.020  -5.670  0.00  0.00     0.067 C 
ATOM      8  H   LIG d   1       7.531   2.393  -5.883  0.00  0.00     0.042 H 
ATOM      9  H   LIG d   1       9.152   3.003  -2.891  0.00  0.00     0.070 H 
ATOM     10  H   LIG d   1      10.315   1.645  -2.950  0.00  0.00     0.070 H 
ENDROOT
BRANCH   1  11
ATOM     11  C   LIG d   1       7.230   1.514  -3.562  0.00  0.00    -0.021 C 
ATOM     12  H   LIG d   1       6.649   2.311  -4.027  0.00  0.00     0.032 H 
ATOM     13  H   LIG d   1       7.377   1.742  -2.506  0.00  0.00     0.032 H 
BRANCH  11  14
ATOM     14  C   LIG d   1       6.489   0.209  -3.695  0.00  0.00    -0.043 A 
ATOM     15  C   LIG d   1       7.163  -0.987  -3.530  0.00  0.00    -0.055 A 
ATOM     16  C   LIG d   1       6.489  -2.187  -3.652  0.00  0.00    -0.016 A 
ATOM     17  H   LIG d   1       8.219  -0.982  -3.306  0.00  0.00     0.062 H 
ATOM     18  C   LIG d   1       5.133  -2.193  -3.939  0.00  0.00     0.162 A 
ATOM     19  H   LIG d   1       7.018  -3.119  -3.523  0.00  0.00     0.066 H 
ATOM     20  C   LIG d   1       4.454  -0.990  -4.105  0.00  0.00     0.162 A 
ATOM     21  C   LIG d   1       5.135   0.210  -3.977  0.00  0.00    -0.013 A 
ATOM     22  H   LIG d   1       4.611   1.145  -4.101  0.00  0.00     0.066 H 
BRANCH  18  23
ATOM     23  O   LIG d   1       4.467  -3.374  -4.059  0.00  0.00    -0.491 OA
BRANCH  23  24
ATOM     24  C   LIG d   1       4.865  -4.236  -5.126  0.00  0.00     0.079 C 
ATOM     25  H   LIG d   1       5.831  -4.683  -4.892  0.00  0.00     0.066 H 
ATOM     26  H   LIG d   1       4.123  -5.024  -5.252  0.00  0.00     0.066 H 
ATOM     27  H   LIG d   1       4.945  -3.662  -6.049  0.00  0.00     0.066 H 
ENDBRANCH  23  24
ENDBRANCH  18  23
BRANCH  20  28
ATOM     28  O   LIG d   1       3.123  -0.991  -4.387  0.00  0.00    -0.491 OA
BRANCH  28  29
ATOM     29  C   LIG d   1       2.497   0.281  -4.563  0.00  0.00     0.079 C 
ATOM     30  H   LIG d   1       3.087   1.050  -4.065  0.00  0.00     0.066 H 
ATOM     31  H   LIG d   1       2.428   0.508  -5.628  0.00  0.00     0.066 H 
ATOM     32  H   LIG d   1       1.496   0.255  -4.133  0.00  0.00     0.066 H 
ENDBRANCH  28  29
ENDBRANCH  20  28
ENDBRANCH  11  14
ENDBRANCH   1  11
BRANCH   7  33
ATOM     33  C   LIG d   1       8.953   0.987  -6.718  0.00  0.00    -0.014 C 
ATOM     34  H   LIG d   1       9.301   1.500  -7.615  0.00  0.00     0.032 H 
ATOM     35  H   LIG d   1       9.756   0.370  -6.317  0.00  0.00     0.032 H 
BRANCH  33  36
ATOM     36  C   LIG d   1       7.774   0.115  -7.064  0.00  0.00    -0.043 A 
ATOM     37  C   LIG d   1       6.568   0.693  -7.415  0.00  0.00    -0.013 A 
ATOM     38  C   LIG d   1       5.483  -0.107  -7.738  0.00  0.00     0.167 A 
ATOM     39  H   LIG d   1       6.472   1.768  -7.440  0.00  0.00     0.066 H 
ATOM     40  C   LIG d   1       5.609  -1.493  -7.698  0.00  0.00     0.166 A 
ATOM     41  O   LIG d   1       4.209   0.205  -8.113  0.00  0.00    -0.453 OA
ATOM     42  C   LIG d   1       6.819  -2.065  -7.340  0.00  0.00    -0.016 A 
ATOM     43  O   LIG d   1       4.413  -2.050  -8.048  0.00  0.00    -0.453 OA
ATOM     44  C   LIG d   1       7.898  -1.261  -7.024  0.00  0.00    -0.055 A 
ATOM     45  H   LIG d   1       6.919  -3.140  -7.309  0.00  0.00     0.066 H 
ATOM     46  H   LIG d   1       8.841  -1.709  -6.745  0.00  0.00     0.062 H 
ATOM     47  C   LIG d   1       3.442  -0.996  -7.906  0.00  0.00     0.233 C 
ATOM     48  H   LIG d   1       3.009  -1.006  -6.906  0.00  0.00     0.117 H 
ATOM     49  H   LIG d   1       2.662  -1.088  -8.662  0.00  0.00     0.117 H 
ENDBRANCH  33  36
ENDBRANCH   7  33
TORSDOF 8
ENDMDL
MODEL 10
REMARK VINA RESULT:      -5.1      2.646      5.272
REMARK  8 active torsions:
REMARK  status: ('A' for Active; 'I' for Inactive)
REMARK    1  A    between atoms: C_1  and  O_2 
REMARK    2  A    between atoms: O_2  and  C_3 
REMARK    3  A    between atoms: C_6  and  C_11 
REMARK    4  A    between atoms: C_8  and  O_9 
REMARK    5  A    between atoms: O_9  and  C_10 
REMARK    6  A    between atoms: C_11  and  C_12 
REMARK    7  A    between atoms: C_18  and  C_20 
REMARK    8  A    between atoms: C_20  and  C_21 
ROOT
ATOM      1  C   LIG d   1       5.314   0.194  -9.274  0.00  0.00     0.011 C 
ATOM      2  H   LIG d   1       5.365  -0.895  -9.304  0.00  0.00     0.035 H 
ATOM      3  C   LIG d   1       4.894   0.759 -10.648  0.00  0.00     0.096 C 
ATOM      4  O   LIG d   1       3.475   1.070 -10.512  0.00  0.00    -0.464 OA
ATOM      5  C   LIG d   1       3.241   1.446  -9.242  0.00  0.00     0.311 C 
ATOM      6  O   LIG d   1       2.427   2.262  -8.882  0.00  0.00    -0.251 OA
ATOM      7  C   LIG d   1       4.178   0.663  -8.338  0.00  0.00     0.067 C 
ATOM      8  H   LIG d   1       4.574   1.305  -7.552  0.00  0.00     0.042 H 
ATOM      9  H   LIG d   1       5.460   1.662 -10.875  0.00  0.00     0.070 H 
ATOM     10  H   LIG d   1       5.045   0.011 -11.427  0.00  0.00     0.070 H 
ENDROOT
BRANCH   1  11
ATOM     11  C   LIG d   1       6.656   0.784  -8.835  0.00  0.00    -0.021 C 
ATOM     12  H   LIG d   1       6.514   1.821  -8.531  0.00  0.00     0.032 H 
ATOM     13  H   LIG d   1       7.361   0.742  -9.666  0.00  0.00     0.032 H 
BRANCH  11  14
ATOM     14  C   LIG d   1       7.199  -0.010  -7.675  0.00  0.00    -0.043 A 
ATOM     15  C   LIG d   1       7.448  -1.362  -7.822  0.00  0.00    -0.055 A 
ATOM     16  C   LIG d   1       7.946  -2.096  -6.761  0.00  0.00    -0.016 A 
ATOM     17  H   LIG d   1       7.252  -1.847  -8.767  0.00  0.00     0.062 H 
ATOM     18  C   LIG d   1       8.197  -1.475  -5.548  0.00  0.00     0.162 A 
ATOM     19  H   LIG d   1       8.139  -3.152  -6.878  0.00  0.00     0.066 H 
ATOM     20  C   LIG d   1       7.947  -0.114  -5.400  0.00  0.00     0.162 A 
ATOM     21  C   LIG d   1       7.452   0.616  -6.469  0.00  0.00    -0.013 A 
ATOM     22  H   LIG d   1       7.261   1.673  -6.359  0.00  0.00     0.066 H 
BRANCH  18  23
ATOM     23  O   LIG d   1       8.687  -2.195  -4.503  0.00  0.00    -0.491 OA
BRANCH  23  24
ATOM     24  C   LIG d   1       8.019  -3.419  -4.189  0.00  0.00     0.079 C 
ATOM     25  H   LIG d   1       7.280  -3.239  -3.408  0.00  0.00     0.066 H 
ATOM     26  H   LIG d   1       7.521  -3.800  -5.080  0.00  0.00     0.066 H 
ATOM     27  H   LIG d   1       8.746  -4.151  -3.838  0.00  0.00     0.066 H 
ENDBRANCH  23  24
ENDBRANCH  18  23
BRANCH  20  28
ATOM     28  O   LIG d   1       8.191   0.499  -4.211  0.00  0.00    -0.491 OA
BRANCH  28  29
ATOM     29  C   LIG d   1       7.153   1.328  -3.683  0.00  0.00     0.079 C 
ATOM     30  H   LIG d   1       6.268   0.723  -3.489  0.00  0.00     0.066 H 
ATOM     31  H   LIG d   1       7.491   1.787  -2.754  0.00  0.00     0.066 H 
ATOM     32  H   LIG d   1       6.910   2.108  -4.405  0.00  0.00     0.066 H 
ENDBRANCH  28  29
ENDBRANCH  20  28
ENDBRANCH  11  14
ENDBRANCH   1  11
BRANCH   7  33
ATOM     33  C   LIG d   1       3.457  -0.542  -7.731  0.00  0.00    -0.014 C 
ATOM     34  H   LIG d   1       2.423  -0.558  -8.075  0.00  0.00     0.032 H 
ATOM     35  H   LIG d   1       3.957  -1.459  -8.042  0.00  0.00     0.032 H 
BRANCH  33  36
ATOM     36  C   LIG d   1       3.485  -0.439  -6.228  0.00  0.00    -0.043 A 
ATOM     37  C   LIG d   1       4.378  -1.203  -5.501  0.00  0.00    -0.013 A 
ATOM     38  C   LIG d   1       4.409  -1.107  -4.119  0.00  0.00     0.167 A 
ATOM     39  H   LIG d   1       5.054  -1.874  -6.010  0.00  0.00     0.066 H 
ATOM     40  C   LIG d   1       3.532  -0.246  -3.465  0.00  0.00     0.166 A 
ATOM     41  O   LIG d   1       5.181  -1.735  -3.185  0.00  0.00    -0.453 OA
ATOM     42  C   LIG d   1       2.635   0.513  -4.200  0.00  0.00    -0.016 A 
ATOM     43  O   LIG d   1       3.753  -0.335  -2.122  0.00  0.00    -0.453 OA
ATOM     44  C   LIG d   1       2.613   0.415  -5.579  0.00  0.00    -0.055 A 
ATOM     45  H   LIG d   1       1.954   1.182  -3.696  0.00  0.00     0.066 H 
ATOM     46  H   LIG d   1       1.913   1.008  -6.150  0.00  0.00     0.062 H 
ATOM     47  C   LIG d   1       4.491  -1.557  -1.933  0.00  0.00     0.233 C 
ATOM     48  H   LIG d   1       3.813  -2.389  -1.748  0.00  0.00     0.117 H 
ATOM     49  H   LIG d   1       5.203  -1.453  -1.115  0.00  0.00     0.117 H 
ENDBRANCH  33  36
ENDBRANCH   7  33
TORSDOF 8
ENDMDL
